MODEL 1
REMARK VINA RESULT:     -11.8      0.000      0.000
REMARK SMILES O=C(C[C@@H](NC(=O)c1cc(-c2ccc(F)cc2)on1)c1cccc(Br)c1)NCCCCCCNC(=O)c1ccc(-c2c3nc(c(-c4ccc(S(=O)(=O)[O-])cc4)c4ccc([nH]4)c(-c4ccc(S(=O)(=O)[O-])cc4)c4nc(c(-c5ccc(S(=O)(=O)[O-])cc5)c5ccc2[nH]5)C=C4)C=C3)cc1
REMARK SMILES IDX 30 1 29 2 28 3 27 4 1 5 2 6 3 8 4 9 5 10 6 11 7 13 8 14 9 15
REMARK SMILES IDX 19 16 10 17 18 18 11 19 12 20 17 21 13 22 16 23 14 24 15 25
REMARK SMILES IDX 20 26 21 27 26 28 22 29 24 30 23 31 25 32 31 33 32 34 33 35
REMARK SMILES IDX 34 36 35 37 36 39 37 40 38 41 96 42 39 43 95 44 40 45 41 46
REMARK SMILES IDX 42 47 89 48 43 49 94 50 88 51 90 52 44 53 93 54 87 55 86 56
REMARK SMILES IDX 45 58 75 59 56 60 74 61 57 62 60 63 73 64 91 65 58 66 59 67
REMARK SMILES IDX 72 69 92 70 61 71 46 72 47 73 55 74 48 75 54 76 49 77 50 78
REMARK SMILES IDX 51 79 52 80 53 81 76 82 77 83 85 84 78 85 84 86 79 87 80 88
REMARK SMILES IDX 81 89 82 90 83 91 62 92 63 93 71 94 64 95 70 96 65 97 66 98
REMARK SMILES IDX 67 99 68 100 69 101
REMARK H PARENT 27 7 5 12 34 38 90 57 60 68
REMARK Flexibility Score: inf
ROOT
ATOM      1  C   UNL A   1      31.998  28.242  26.643  1.00  0.00     0.002 C 
ENDROOT
BRANCH   1   2
ATOM      2  C   UNL A   1      31.548  29.112  25.458  1.00  0.00     0.021 C 
BRANCH   2   3
ATOM      3  C   UNL A   1      30.733  28.362  24.403  1.00  0.00     0.116 C 
BRANCH   3   4
ATOM      4  N   UNL A   1      30.950  26.939  24.547  1.00  0.00    -0.356 N 
ATOM      5  O   UNL A   1      28.963  26.230  23.639  1.00  0.00    -0.275 OA
ATOM      6  C   UNL A   1      30.005  25.999  24.238  1.00  0.00     0.222 C 
ATOM      7  H   UNL A   1      31.822  26.632  24.887  1.00  0.00     0.163 HD
BRANCH   6   8
ATOM      8  C   UNL A   1      30.353  24.630  24.758  1.00  0.00     0.129 C 
BRANCH   8   9
ATOM      9  C   UNL A   1      30.779  23.655  23.644  1.00  0.00     0.122 C 
BRANCH   9  10
ATOM     10  N   UNL A   1      31.362  24.364  22.486  1.00  0.00    -0.343 N 
ATOM     11  C   UNL A   1      32.569  24.941  22.165  1.00  0.00     0.273 C 
ATOM     12  H   UNL A   1      30.715  24.446  21.750  1.00  0.00     0.164 HD
ATOM     13  O   UNL A   1      32.635  25.515  21.077  1.00  0.00    -0.267 OA
BRANCH  11  14
ATOM     14  C   UNL A   1      33.721  24.834  23.045  1.00  0.00     0.171 A 
ATOM     15  C   UNL A   1      34.733  23.841  23.030  1.00  0.00     0.088 A 
ATOM     16  N   UNL A   1      33.961  25.743  24.005  1.00  0.00    -0.074 NA
ATOM     17  C   UNL A   1      35.478  24.091  24.158  1.00  0.00     0.167 A 
ATOM     18  O   UNL A   1      35.045  25.256  24.718  1.00  0.00    -0.355 OA
BRANCH  17  19
ATOM     19  C   UNL A   1      36.481  23.329  24.890  1.00  0.00     0.020 A 
ATOM     20  C   UNL A   1      37.292  23.959  25.848  1.00  0.00     0.015 A 
ATOM     21  C   UNL A   1      36.764  21.997  24.541  1.00  0.00     0.015 A 
ATOM     22  C   UNL A   1      38.390  23.294  26.399  1.00  0.00     0.040 A 
ATOM     23  C   UNL A   1      37.873  21.338  25.078  1.00  0.00     0.040 A 
ATOM     24  C   UNL A   1      38.682  21.998  25.993  1.00  0.00     0.123 A 
ATOM     25  F   UNL A   1      39.769  21.383  26.478  1.00  0.00    -0.207 F 
ENDBRANCH  17  19
ENDBRANCH  11  14
ENDBRANCH   9  10
BRANCH   9  26
ATOM     26  C   UNL A   1      31.622  22.577  24.287  1.00  0.00    -0.024 A 
ATOM     27  C   UNL A   1      31.913  21.375  23.616  1.00  0.00     0.006 A 
ATOM     28  C   UNL A   1      32.204  22.807  25.544  1.00  0.00     0.021 A 
ATOM     29  C   UNL A   1      32.765  20.430  24.183  1.00  0.00     0.002 A 
ATOM     30  C   UNL A   1      33.051  21.854  26.108  1.00  0.00     0.018 A 
ATOM     31  C   UNL A   1      33.342  20.673  25.428  1.00  0.00     0.016 A 
ATOM     32  Br  UNL A   1      33.795  22.161  27.817  1.00  0.00    -0.051 Br
ENDBRANCH   9  26
ENDBRANCH   8   9
ENDBRANCH   6   8
ENDBRANCH   3   4
ENDBRANCH   2   3
ENDBRANCH   1   2
BRANCH   1  33
ATOM     33  C   UNL A   1      33.496  28.305  26.951  1.00  0.00     0.002 C 
BRANCH  33  34
ATOM     34  C   UNL A   1      34.020  29.710  27.245  1.00  0.00     0.021 C 
BRANCH  34  35
ATOM     35  C   UNL A   1      35.437  29.746  27.803  1.00  0.00     0.116 C 
BRANCH  35  36
ATOM     36  N   UNL A   1      35.472  30.211  29.181  1.00  0.00    -0.352 N 
ATOM     37  C   UNL A   1      36.481  30.087  30.104  1.00  0.00     0.251 C 
ATOM     38  H   UNL A   1      34.664  30.678  29.494  1.00  0.00     0.163 HD
ATOM     39  O   UNL A   1      36.281  30.372  31.282  1.00  0.00    -0.269 OA
BRANCH  37  40
ATOM     40  C   UNL A   1      37.800  29.583  29.671  1.00  0.00     0.039 A 
ATOM     41  C   UNL A   1      38.196  29.768  28.345  1.00  0.00     0.014 A 
ATOM     42  C   UNL A   1      38.654  28.950  30.581  1.00  0.00     0.014 A 
ATOM     43  C   UNL A   1      39.474  29.372  27.947  1.00  0.00     0.010 A 
ATOM     44  C   UNL A   1      39.953  28.629  30.200  1.00  0.00     0.010 A 
ATOM     45  C   UNL A   1      40.377  28.834  28.879  1.00  0.00    -0.014 A 
BRANCH  45  46
ATOM     46  C   UNL A   1      41.767  28.483  28.491  1.00  0.00     0.031 A 
ATOM     47  C   UNL A   1      42.832  29.546  28.445  1.00  0.00     0.074 A 
ATOM     48  C   UNL A   1      42.058  27.218  28.125  1.00  0.00     0.049 A 
ATOM     49  N   UNL A   1      44.084  29.442  28.081  1.00  0.00    -0.248 NA
ATOM     50  C   UNL A   1      42.431  30.907  28.837  1.00  0.00     0.031 C 
ATOM     51  C   UNL A   1      41.108  26.104  28.097  1.00  0.00     0.029 A 
ATOM     52  N   UNL A   1      43.239  26.656  27.707  1.00  0.00    -0.354 N 
ATOM     53  C   UNL A   1      44.618  30.720  28.193  1.00  0.00     0.074 A 
ATOM     54  C   UNL A   1      43.539  31.594  28.600  1.00  0.00     0.031 C 
ATOM     55  C   UNL A   1      41.749  24.988  27.717  1.00  0.00     0.029 A 
ATOM     56  C   UNL A   1      43.143  25.313  27.428  1.00  0.00     0.049 A 
ATOM     57  H   UNL A   1      44.075  27.166  27.616  1.00  0.00     0.167 HD
ATOM     58  C   UNL A   1      45.895  31.127  27.995  1.00  0.00     0.031 A 
ATOM     59  C   UNL A   1      44.069  24.440  26.985  1.00  0.00     0.031 A 
ATOM     60  C   UNL A   1      46.965  30.255  27.589  1.00  0.00     0.049 A 
ATOM     61  C   UNL A   1      45.472  24.923  26.739  1.00  0.00     0.074 A 
ATOM     62  C   UNL A   1      48.300  30.564  27.401  1.00  0.00     0.029 A 
ATOM     63  N   UNL A   1      46.823  28.904  27.308  1.00  0.00    -0.354 N 
ATOM     64  N   UNL A   1      45.969  26.126  26.900  1.00  0.00    -0.248 NA
ATOM     65  C   UNL A   1      46.441  23.929  26.260  1.00  0.00     0.031 C 
ATOM     66  C   UNL A   1      48.954  29.414  26.948  1.00  0.00     0.029 A 
ATOM     67  C   UNL A   1      48.042  28.372  26.922  1.00  0.00     0.049 A 
ATOM     68  H   UNL A   1      45.980  28.399  27.372  1.00  0.00     0.167 HD
ATOM     69  C   UNL A   1      47.317  26.026  26.572  1.00  0.00     0.074 A 
ATOM     70  C   UNL A   1      47.559  24.642  26.218  1.00  0.00     0.031 C 
ATOM     71  C   UNL A   1      48.269  26.992  26.569  1.00  0.00     0.031 A 
BRANCH  58  72
ATOM     72  C   UNL A   1      46.201  32.587  28.211  1.00  0.00    -0.014 A 
ATOM     73  C   UNL A   1      46.632  33.062  29.465  1.00  0.00     0.010 A 
ATOM     74  C   UNL A   1      46.100  33.492  27.138  1.00  0.00     0.010 A 
ATOM     75  C   UNL A   1      46.912  34.417  29.652  1.00  0.00     0.020 A 
ATOM     76  C   UNL A   1      46.411  34.844  27.313  1.00  0.00     0.020 A 
ATOM     77  C   UNL A   1      46.799  35.300  28.575  1.00  0.00     0.054 A 
BRANCH  77  78
ATOM     78  S   UNL A   1      47.194  37.050  28.843  1.00  0.00     0.124 S 
ATOM     79  O   UNL A   1      46.839  37.640  27.555  1.00  0.00    -0.237 OA
ATOM     80  O   UNL A   1      46.323  37.407  29.960  1.00  0.00    -0.237 OA
ATOM     81  O   UNL A   1      48.623  37.041  29.150  1.00  0.00    -0.744 OA
ENDBRANCH  77  78
ENDBRANCH  58  72
BRANCH  59  82
ATOM     82  C   UNL A   1      43.700  23.015  26.762  1.00  0.00    -0.014 A 
ATOM     83  C   UNL A   1      43.055  22.279  27.771  1.00  0.00     0.010 A 
ATOM     84  C   UNL A   1      43.977  22.389  25.532  1.00  0.00     0.010 A 
ATOM     85  C   UNL A   1      42.709  20.940  27.561  1.00  0.00     0.020 A 
ATOM     86  C   UNL A   1      43.606  21.060  25.307  1.00  0.00     0.020 A 
ATOM     87  C   UNL A   1      42.982  20.340  26.329  1.00  0.00     0.054 A 
BRANCH  87  88
ATOM     88  S   UNL A   1      42.473  18.620  26.061  1.00  0.00     0.124 S 
ATOM     89  O   UNL A   1      43.367  18.203  24.985  1.00  0.00    -0.237 OA
ATOM     90  O   UNL A   1      42.724  18.012  27.365  1.00  0.00    -0.237 OA
ATOM     91  O   UNL A   1      41.063  18.734  25.696  1.00  0.00    -0.744 OA
ENDBRANCH  87  88
ENDBRANCH  59  82
BRANCH  71  92
ATOM     92  C   UNL A   1      49.673  26.584  26.206  1.00  0.00    -0.014 A 
ATOM     93  C   UNL A   1      50.157  26.711  24.892  1.00  0.00     0.010 A 
ATOM     94  C   UNL A   1      50.541  26.120  27.213  1.00  0.00     0.010 A 
ATOM     95  C   UNL A   1      51.472  26.352  24.585  1.00  0.00     0.020 A 
ATOM     96  C   UNL A   1      51.865  25.790  26.916  1.00  0.00     0.020 A 
ATOM     97  C   UNL A   1      52.319  25.896  25.601  1.00  0.00     0.054 A 
BRANCH  97  98
ATOM     98  S   UNL A   1      54.034  25.482  25.185  1.00  0.00     0.124 S 
ATOM     99  O   UNL A   1      53.983  24.026  25.092  1.00  0.00    -0.237 OA
ATOM    100  O   UNL A   1      54.235  26.186  23.920  1.00  0.00    -0.237 OA
ATOM    101  O   UNL A   1      54.802  26.008  26.311  1.00  0.00    -0.744 OA
ENDBRANCH  97  98
ENDBRANCH  71  92
ENDBRANCH  45  46
ENDBRANCH  37  40
ENDBRANCH  35  36
ENDBRANCH  34  35
ENDBRANCH  33  34
ENDBRANCH   1  33
TORSDOF 21
ENDMDL
MODEL 2
REMARK VINA RESULT:     -11.7      0.373      7.772
REMARK SMILES O=C(C[C@@H](NC(=O)c1cc(-c2ccc(F)cc2)on1)c1cccc(Br)c1)NCCCCCCNC(=O)c1ccc(-c2c3nc(c(-c4ccc(S(=O)(=O)[O-])cc4)c4ccc([nH]4)c(-c4ccc(S(=O)(=O)[O-])cc4)c4nc(c(-c5ccc(S(=O)(=O)[O-])cc5)c5ccc2[nH]5)C=C4)C=C3)cc1
REMARK SMILES IDX 30 1 29 2 28 3 27 4 1 5 2 6 3 8 4 9 5 10 6 11 7 13 8 14 9 15
REMARK SMILES IDX 19 16 10 17 18 18 11 19 12 20 17 21 13 22 16 23 14 24 15 25
REMARK SMILES IDX 20 26 21 27 26 28 22 29 24 30 23 31 25 32 31 33 32 34 33 35
REMARK SMILES IDX 34 36 35 37 36 39 37 40 38 41 96 42 39 43 95 44 40 45 41 46
REMARK SMILES IDX 42 47 89 48 43 49 94 50 88 51 90 52 44 53 93 54 87 55 86 56
REMARK SMILES IDX 45 58 75 59 56 60 74 61 57 62 60 63 73 64 91 65 58 66 59 67
REMARK SMILES IDX 72 69 92 70 61 71 46 72 47 73 55 74 48 75 54 76 49 77 50 78
REMARK SMILES IDX 51 79 52 80 53 81 76 82 77 83 85 84 78 85 84 86 79 87 80 88
REMARK SMILES IDX 81 89 82 90 83 91 62 92 63 93 71 94 64 95 70 96 65 97 66 98
REMARK SMILES IDX 67 99 68 100 69 101
REMARK H PARENT 27 7 5 12 34 38 90 57 60 68
REMARK Flexibility Score: inf
ROOT
ATOM      1  C   UNL A   1      31.715  28.729  26.508  1.00  0.00     0.002 C 
ENDROOT
BRANCH   1   2
ATOM      2  C   UNL A   1      31.623  29.186  25.042  1.00  0.00     0.021 C 
BRANCH   2   3
ATOM      3  C   UNL A   1      30.693  28.335  24.178  1.00  0.00     0.116 C 
BRANCH   3   4
ATOM      4  N   UNL A   1      30.996  26.935  24.376  1.00  0.00    -0.356 N 
ATOM      5  O   UNL A   1      29.029  26.074  23.560  1.00  0.00    -0.275 OA
ATOM      6  C   UNL A   1      30.099  25.929  24.136  1.00  0.00     0.222 C 
ATOM      7  H   UNL A   1      31.893  26.693  24.701  1.00  0.00     0.163 HD
BRANCH   6   8
ATOM      8  C   UNL A   1      30.541  24.607  24.703  1.00  0.00     0.129 C 
BRANCH   8   9
ATOM      9  C   UNL A   1      30.942  23.592  23.616  1.00  0.00     0.122 C 
BRANCH   9  10
ATOM     10  N   UNL A   1      31.577  24.251  22.456  1.00  0.00    -0.343 N 
ATOM     11  C   UNL A   1      32.799  24.808  22.160  1.00  0.00     0.273 C 
ATOM     12  H   UNL A   1      30.959  24.307  21.691  1.00  0.00     0.164 HD
ATOM     13  O   UNL A   1      32.913  25.339  21.054  1.00  0.00    -0.267 OA
BRANCH  11  14
ATOM     14  C   UNL A   1      33.914  24.730  23.089  1.00  0.00     0.171 A 
ATOM     15  C   UNL A   1      34.978  23.792  23.088  1.00  0.00     0.088 A 
ATOM     16  N   UNL A   1      34.062  25.615  24.089  1.00  0.00    -0.074 NA
ATOM     17  C   UNL A   1      35.657  24.041  24.258  1.00  0.00     0.167 A 
ATOM     18  O   UNL A   1      35.138  25.161  24.835  1.00  0.00    -0.355 OA
BRANCH  17  19
ATOM     19  C   UNL A   1      36.665  23.306  25.011  1.00  0.00     0.020 A 
ATOM     20  C   UNL A   1      37.495  23.975  25.925  1.00  0.00     0.015 A 
ATOM     21  C   UNL A   1      36.933  21.957  24.721  1.00  0.00     0.015 A 
ATOM     22  C   UNL A   1      38.597  23.327  26.491  1.00  0.00     0.040 A 
ATOM     23  C   UNL A   1      38.044  21.315  25.273  1.00  0.00     0.040 A 
ATOM     24  C   UNL A   1      38.873  22.011  26.143  1.00  0.00     0.123 A 
ATOM     25  F   UNL A   1      39.962  21.410  26.641  1.00  0.00    -0.207 F 
ENDBRANCH  17  19
ENDBRANCH  11  14
ENDBRANCH   9  10
BRANCH   9  26
ATOM     26  C   UNL A   1      31.727  22.491  24.295  1.00  0.00    -0.024 A 
ATOM     27  C   UNL A   1      31.923  21.243  23.677  1.00  0.00     0.006 A 
ATOM     28  C   UNL A   1      32.348  22.740  25.529  1.00  0.00     0.021 A 
ATOM     29  C   UNL A   1      32.723  20.271  24.274  1.00  0.00     0.002 A 
ATOM     30  C   UNL A   1      33.142  21.760  26.123  1.00  0.00     0.018 A 
ATOM     31  C   UNL A   1      33.341  20.533  25.495  1.00  0.00     0.016 A 
ATOM     32  Br  UNL A   1      33.940  22.097  27.802  1.00  0.00    -0.051 Br
ENDBRANCH   9  26
ENDBRANCH   8   9
ENDBRANCH   6   8
ENDBRANCH   3   4
ENDBRANCH   2   3
ENDBRANCH   1   2
BRANCH   1  33
ATOM     33  C   UNL A   1      33.136  28.447  27.002  1.00  0.00     0.002 C 
BRANCH  33  34
ATOM     34  C   UNL A   1      34.016  29.690  27.132  1.00  0.00     0.021 C 
BRANCH  34  35
ATOM     35  C   UNL A   1      35.372  29.432  27.779  1.00  0.00     0.116 C 
BRANCH  35  36
ATOM     36  N   UNL A   1      35.396  29.828  29.178  1.00  0.00    -0.352 N 
ATOM     37  C   UNL A   1      36.420  29.714  30.085  1.00  0.00     0.251 C 
ATOM     38  H   UNL A   1      34.566  30.231  29.522  1.00  0.00     0.163 HD
ATOM     39  O   UNL A   1      36.217  29.927  31.278  1.00  0.00    -0.269 OA
BRANCH  37  40
ATOM     40  C   UNL A   1      37.761  29.308  29.617  1.00  0.00     0.039 A 
ATOM     41  C   UNL A   1      38.124  29.566  28.293  1.00  0.00     0.014 A 
ATOM     42  C   UNL A   1      38.666  28.696  30.491  1.00  0.00     0.014 A 
ATOM     43  C   UNL A   1      39.417  29.265  27.863  1.00  0.00     0.010 A 
ATOM     44  C   UNL A   1      39.976  28.470  30.081  1.00  0.00     0.010 A 
ATOM     45  C   UNL A   1      40.365  28.750  28.762  1.00  0.00    -0.014 A 
BRANCH  45  46
ATOM     46  C   UNL A   1      41.768  28.500  28.343  1.00  0.00     0.031 A 
ATOM     47  C   UNL A   1      42.199  27.119  27.926  1.00  0.00     0.074 A 
ATOM     48  C   UNL A   1      42.668  29.503  28.393  1.00  0.00     0.049 A 
ATOM     49  N   UNL A   1      43.388  26.697  27.580  1.00  0.00    -0.248 NA
ATOM     50  C   UNL A   1      41.165  26.071  27.919  1.00  0.00     0.031 C 
ATOM     51  C   UNL A   1      42.383  30.877  28.810  1.00  0.00     0.029 A 
ATOM     52  N   UNL A   1      44.007  29.520  28.089  1.00  0.00    -0.354 N 
ATOM     53  C   UNL A   1      43.247  25.339  27.321  1.00  0.00     0.074 A 
ATOM     54  C   UNL A   1      41.872  24.995  27.609  1.00  0.00     0.031 C 
ATOM     55  C   UNL A   1      43.502  31.611  28.704  1.00  0.00     0.029 A 
ATOM     56  C   UNL A   1      44.595  30.752  28.258  1.00  0.00     0.049 A 
ATOM     57  H   UNL A   1      44.500  28.727  27.780  1.00  0.00     0.167 HD
ATOM     58  C   UNL A   1      44.172  24.460  26.866  1.00  0.00     0.031 A 
ATOM     59  C   UNL A   1      45.871  31.147  28.081  1.00  0.00     0.031 A 
ATOM     60  C   UNL A   1      45.540  24.806  26.581  1.00  0.00     0.049 A 
ATOM     61  C   UNL A   1      46.889  30.145  27.608  1.00  0.00     0.074 A 
ATOM     62  C   UNL A   1      46.544  23.997  26.079  1.00  0.00     0.029 A 
ATOM     63  N   UNL A   1      46.098  26.061  26.775  1.00  0.00    -0.354 N 
ATOM     64  N   UNL A   1      46.723  28.876  27.319  1.00  0.00    -0.248 NA
ATOM     65  C   UNL A   1      48.263  30.631  27.427  1.00  0.00     0.031 C 
ATOM     66  C   UNL A   1      47.723  24.747  26.025  1.00  0.00     0.029 A 
ATOM     67  C   UNL A   1      47.438  26.042  26.427  1.00  0.00     0.049 A 
ATOM     68  H   UNL A   1      45.612  26.849  27.112  1.00  0.00     0.167 HD
ATOM     69  C   UNL A   1      47.966  28.420  26.893  1.00  0.00     0.074 A 
ATOM     70  C   UNL A   1      48.868  29.552  26.948  1.00  0.00     0.031 C 
ATOM     71  C   UNL A   1      48.326  27.176  26.488  1.00  0.00     0.031 A 
BRANCH  58  72
ATOM     72  C   UNL A   1      43.733  23.035  26.652  1.00  0.00    -0.014 A 
ATOM     73  C   UNL A   1      43.725  22.462  25.366  1.00  0.00     0.010 A 
ATOM     74  C   UNL A   1      43.363  22.241  27.754  1.00  0.00     0.010 A 
ATOM     75  C   UNL A   1      43.315  21.139  25.181  1.00  0.00     0.020 A 
ATOM     76  C   UNL A   1      42.984  20.907  27.577  1.00  0.00     0.020 A 
ATOM     77  C   UNL A   1      42.946  20.370  26.288  1.00  0.00     0.054 A 
BRANCH  77  78
ATOM     78  S   UNL A   1      42.442  18.649  26.019  1.00  0.00     0.124 S 
ATOM     79  O   UNL A   1      43.309  18.251  24.912  1.00  0.00    -0.237 OA
ATOM     80  O   UNL A   1      42.739  18.024  27.306  1.00  0.00    -0.237 OA
ATOM     81  O   UNL A   1      41.022  18.749  25.692  1.00  0.00    -0.744 OA
ENDBRANCH  77  78
ENDBRANCH  58  72
BRANCH  59  82
ATOM     82  C   UNL A   1      46.253  32.564  28.336  1.00  0.00    -0.014 A 
ATOM     83  C   UNL A   1      46.703  32.964  29.606  1.00  0.00     0.010 A 
ATOM     84  C   UNL A   1      46.183  33.519  27.305  1.00  0.00     0.010 A 
ATOM     85  C   UNL A   1      47.060  34.294  29.846  1.00  0.00     0.020 A 
ATOM     86  C   UNL A   1      46.569  34.843  27.531  1.00  0.00     0.020 A 
ATOM     87  C   UNL A   1      46.995  35.225  28.805  1.00  0.00     0.054 A 
BRANCH  87  88
ATOM     88  S   UNL A   1      47.519  36.932  29.126  1.00  0.00     0.124 S 
ATOM     89  O   UNL A   1      48.967  36.839  28.971  1.00  0.00    -0.237 OA
ATOM     90  O   UNL A   1      46.816  37.676  28.084  1.00  0.00    -0.237 OA
ATOM     91  O   UNL A   1      47.049  37.184  30.486  1.00  0.00    -0.744 OA
ENDBRANCH  87  88
ENDBRANCH  59  82
BRANCH  71  92
ATOM     92  C   UNL A   1      49.749  26.976  26.036  1.00  0.00    -0.014 A 
ATOM     93  C   UNL A   1      50.751  26.562  26.932  1.00  0.00     0.010 A 
ATOM     94  C   UNL A   1      50.074  27.150  24.678  1.00  0.00     0.010 A 
ATOM     95  C   UNL A   1      52.059  26.356  26.483  1.00  0.00     0.020 A 
ATOM     96  C   UNL A   1      51.372  26.915  24.220  1.00  0.00     0.020 A 
ATOM     97  C   UNL A   1      52.360  26.532  25.128  1.00  0.00     0.054 A 
BRANCH  97  98
ATOM     98  S   UNL A   1      54.053  26.212  24.563  1.00  0.00     0.124 S 
ATOM     99  O   UNL A   1      53.926  26.362  23.116  1.00  0.00    -0.237 OA
ATOM    100  O   UNL A   1      54.818  27.258  25.239  1.00  0.00    -0.237 OA
ATOM    101  O   UNL A   1      54.324  24.853  25.027  1.00  0.00    -0.744 OA
ENDBRANCH  97  98
ENDBRANCH  71  92
ENDBRANCH  45  46
ENDBRANCH  37  40
ENDBRANCH  35  36
ENDBRANCH  34  35
ENDBRANCH  33  34
ENDBRANCH   1  33
TORSDOF 21
ENDMDL
MODEL 3
REMARK VINA RESULT:     -11.5      6.024     11.327
REMARK SMILES O=C(C[C@@H](NC(=O)c1cc(-c2ccc(F)cc2)on1)c1cccc(Br)c1)NCCCCCCNC(=O)c1ccc(-c2c3nc(c(-c4ccc(S(=O)(=O)[O-])cc4)c4ccc([nH]4)c(-c4ccc(S(=O)(=O)[O-])cc4)c4nc(c(-c5ccc(S(=O)(=O)[O-])cc5)c5ccc2[nH]5)C=C4)C=C3)cc1
REMARK SMILES IDX 30 1 29 2 28 3 27 4 1 5 2 6 3 8 4 9 5 10 6 11 7 13 8 14 9 15
REMARK SMILES IDX 19 16 10 17 18 18 11 19 12 20 17 21 13 22 16 23 14 24 15 25
REMARK SMILES IDX 20 26 21 27 26 28 22 29 24 30 23 31 25 32 31 33 32 34 33 35
REMARK SMILES IDX 34 36 35 37 36 39 37 40 38 41 96 42 39 43 95 44 40 45 41 46
REMARK SMILES IDX 42 47 89 48 43 49 94 50 88 51 90 52 44 53 93 54 87 55 86 56
REMARK SMILES IDX 45 58 75 59 56 60 74 61 57 62 60 63 73 64 91 65 58 66 59 67
REMARK SMILES IDX 72 69 92 70 61 71 46 72 47 73 55 74 48 75 54 76 49 77 50 78
REMARK SMILES IDX 51 79 52 80 53 81 76 82 77 83 85 84 78 85 84 86 79 87 80 88
REMARK SMILES IDX 81 89 82 90 83 91 62 92 63 93 71 94 64 95 70 96 65 97 66 98
REMARK SMILES IDX 67 99 68 100 69 101
REMARK H PARENT 27 7 5 12 34 38 90 57 60 68
REMARK Flexibility Score: inf
ROOT
ATOM      1  C   UNL A   1      37.169  21.785  24.635  1.00  0.00     0.002 C 
ENDROOT
BRANCH   1   2
ATOM      2  C   UNL A   1      36.597  22.869  23.705  1.00  0.00     0.021 C 
BRANCH   2   3
ATOM      3  C   UNL A   1      35.073  22.989  23.746  1.00  0.00     0.116 C 
BRANCH   3   4
ATOM      4  N   UNL A   1      34.705  24.268  24.313  1.00  0.00    -0.356 N 
ATOM      5  O   UNL A   1      34.507  23.591  26.499  1.00  0.00    -0.275 OA
ATOM      6  C   UNL A   1      34.363  24.437  25.627  1.00  0.00     0.222 C 
ATOM      7  H   UNL A   1      34.699  25.056  23.722  1.00  0.00     0.163 HD
BRANCH   6   8
ATOM      8  C   UNL A   1      33.732  25.777  25.896  1.00  0.00     0.129 C 
BRANCH   8   9
ATOM      9  C   UNL A   1      32.233  25.815  25.544  1.00  0.00     0.122 C 
BRANCH   9  10
ATOM     10  N   UNL A   1      31.431  24.981  26.462  1.00  0.00    -0.343 N 
ATOM     11  C   UNL A   1      30.952  23.693  26.490  1.00  0.00     0.273 C 
ATOM     12  H   UNL A   1      31.168  25.482  27.268  1.00  0.00     0.164 HD
ATOM     13  O   UNL A   1      30.233  23.389  27.444  1.00  0.00    -0.267 OA
BRANCH  11  14
ATOM     14  C   UNL A   1      31.316  22.724  25.470  1.00  0.00     0.171 A 
ATOM     15  C   UNL A   1      31.615  21.349  25.648  1.00  0.00     0.088 A 
ATOM     16  N   UNL A   1      31.387  23.061  24.171  1.00  0.00    -0.074 NA
ATOM     17  C   UNL A   1      32.063  20.931  24.417  1.00  0.00     0.167 A 
ATOM     18  O   UNL A   1      31.884  21.942  23.520  1.00  0.00    -0.355 OA
BRANCH  17  19
ATOM     19  C   UNL A   1      32.768  19.743  23.953  1.00  0.00     0.020 A 
ATOM     20  C   UNL A   1      32.231  18.957  22.921  1.00  0.00     0.015 A 
ATOM     21  C   UNL A   1      33.906  19.275  24.633  1.00  0.00     0.015 A 
ATOM     22  C   UNL A   1      32.785  17.711  22.615  1.00  0.00     0.040 A 
ATOM     23  C   UNL A   1      34.448  18.021  24.340  1.00  0.00     0.040 A 
ATOM     24  C   UNL A   1      33.873  17.246  23.341  1.00  0.00     0.123 A 
ATOM     25  F   UNL A   1      34.366  16.026  23.086  1.00  0.00    -0.207 F 
ENDBRANCH  17  19
ENDBRANCH  11  14
ENDBRANCH   9  10
BRANCH   9  26
ATOM     26  C   UNL A   1      31.838  27.270  25.413  1.00  0.00    -0.024 A 
ATOM     27  C   UNL A   1      32.271  28.234  26.341  1.00  0.00     0.006 A 
ATOM     28  C   UNL A   1      31.096  27.690  24.297  1.00  0.00     0.021 A 
ATOM     29  C   UNL A   1      31.974  29.583  26.158  1.00  0.00     0.002 A 
ATOM     30  C   UNL A   1      30.798  29.041  24.124  1.00  0.00     0.018 A 
ATOM     31  C   UNL A   1      31.243  29.988  25.043  1.00  0.00     0.016 A 
ATOM     32  Br  UNL A   1      29.765  29.586  22.639  1.00  0.00    -0.051 Br
ENDBRANCH   9  26
ENDBRANCH   8   9
ENDBRANCH   6   8
ENDBRANCH   3   4
ENDBRANCH   2   3
ENDBRANCH   1   2
BRANCH   1  33
ATOM     33  C   UNL A   1      37.874  22.321  25.883  1.00  0.00     0.002 C 
BRANCH  33  34
ATOM     34  C   UNL A   1      39.334  21.890  26.016  1.00  0.00     0.021 C 
BRANCH  34  35
ATOM     35  C   UNL A   1      40.222  22.898  26.734  1.00  0.00     0.116 C 
BRANCH  35  36
ATOM     36  N   UNL A   1      41.398  23.247  25.952  1.00  0.00    -0.352 N 
ATOM     37  C   UNL A   1      42.123  24.413  25.967  1.00  0.00     0.251 C 
ATOM     38  H   UNL A   1      41.716  22.556  25.328  1.00  0.00     0.163 HD
ATOM     39  O   UNL A   1      42.979  24.620  25.111  1.00  0.00    -0.269 OA
BRANCH  37  40
ATOM     40  C   UNL A   1      41.845  25.426  27.005  1.00  0.00     0.039 A 
ATOM     41  C   UNL A   1      40.800  25.207  27.904  1.00  0.00     0.014 A 
ATOM     42  C   UNL A   1      42.632  26.579  27.104  1.00  0.00     0.014 A 
ATOM     43  C   UNL A   1      40.583  26.115  28.942  1.00  0.00     0.010 A 
ATOM     44  C   UNL A   1      42.463  27.439  28.184  1.00  0.00     0.010 A 
ATOM     45  C   UNL A   1      41.435  27.219  29.114  1.00  0.00    -0.014 A 
BRANCH  45  46
ATOM     46  C   UNL A   1      41.269  28.150  30.259  1.00  0.00     0.031 A 
ATOM     47  C   UNL A   1      42.159  28.030  31.467  1.00  0.00     0.074 A 
ATOM     48  C   UNL A   1      40.281  29.066  30.235  1.00  0.00     0.049 A 
ATOM     49  N   UNL A   1      42.131  28.715  32.581  1.00  0.00    -0.248 NA
ATOM     50  C   UNL A   1      43.200  26.990  31.428  1.00  0.00     0.031 C 
ATOM     51  C   UNL A   1      39.333  29.262  29.136  1.00  0.00     0.029 A 
ATOM     52  N   UNL A   1      39.910  30.007  31.163  1.00  0.00    -0.354 N 
ATOM     53  C   UNL A   1      43.141  28.187  33.376  1.00  0.00     0.074 A 
ATOM     54  C   UNL A   1      43.724  27.086  32.641  1.00  0.00     0.031 C 
ATOM     55  C   UNL A   1      38.512  30.280  29.438  1.00  0.00     0.029 A 
ATOM     56  C   UNL A   1      38.842  30.780  30.770  1.00  0.00     0.049 A 
ATOM     57  H   UNL A   1      40.364  30.119  32.029  1.00  0.00     0.167 HD
ATOM     58  C   UNL A   1      43.561  28.594  34.598  1.00  0.00     0.031 A 
ATOM     59  C   UNL A   1      38.195  31.774  31.409  1.00  0.00     0.031 A 
ATOM     60  C   UNL A   1      42.979  29.690  35.326  1.00  0.00     0.049 A 
ATOM     61  C   UNL A   1      38.657  32.186  32.781  1.00  0.00     0.074 A 
ATOM     62  C   UNL A   1      43.359  30.205  36.553  1.00  0.00     0.029 A 
ATOM     63  N   UNL A   1      41.892  30.440  34.897  1.00  0.00    -0.354 N 
ATOM     64  N   UNL A   1      39.649  31.707  33.494  1.00  0.00    -0.248 NA
ATOM     65  C   UNL A   1      37.920  33.277  33.429  1.00  0.00     0.031 C 
ATOM     66  C   UNL A   1      42.466  31.226  36.893  1.00  0.00     0.029 A 
ATOM     67  C   UNL A   1      41.573  31.395  35.847  1.00  0.00     0.049 A 
ATOM     68  H   UNL A   1      41.419  30.310  34.044  1.00  0.00     0.167 HD
ATOM     69  C   UNL A   1      39.674  32.461  34.662  1.00  0.00     0.074 A 
ATOM     70  C   UNL A   1      38.607  33.436  34.552  1.00  0.00     0.031 C 
ATOM     71  C   UNL A   1      40.507  32.358  35.727  1.00  0.00     0.031 A 
BRANCH  58  72
ATOM     72  C   UNL A   1      44.707  27.843  35.226  1.00  0.00    -0.014 A 
ATOM     73  C   UNL A   1      44.478  26.717  36.040  1.00  0.00     0.010 A 
ATOM     74  C   UNL A   1      46.033  28.238  34.967  1.00  0.00     0.010 A 
ATOM     75  C   UNL A   1      45.548  26.029  36.617  1.00  0.00     0.020 A 
ATOM     76  C   UNL A   1      47.107  27.532  35.516  1.00  0.00     0.020 A 
ATOM     77  C   UNL A   1      46.857  26.442  36.352  1.00  0.00     0.054 A 
BRANCH  77  78
ATOM     78  S   UNL A   1      48.226  25.514  37.095  1.00  0.00     0.124 S 
ATOM     79  O   UNL A   1      49.300  25.737  36.130  1.00  0.00    -0.237 OA
ATOM     80  O   UNL A   1      48.396  26.174  38.387  1.00  0.00    -0.237 OA
ATOM     81  O   UNL A   1      47.723  24.144  37.161  1.00  0.00    -0.744 OA
ENDBRANCH  77  78
ENDBRANCH  58  72
BRANCH  59  82
ATOM     82  C   UNL A   1      37.050  32.461  30.750  1.00  0.00    -0.014 A 
ATOM     83  C   UNL A   1      37.265  33.598  29.951  1.00  0.00     0.010 A 
ATOM     84  C   UNL A   1      35.740  31.973  30.903  1.00  0.00     0.010 A 
ATOM     85  C   UNL A   1      36.190  34.244  29.332  1.00  0.00     0.020 A 
ATOM     86  C   UNL A   1      34.666  32.596  30.261  1.00  0.00     0.020 A 
ATOM     87  C   UNL A   1      34.897  33.736  29.487  1.00  0.00     0.054 A 
BRANCH  87  88
ATOM     88  S   UNL A   1      33.527  34.557  28.628  1.00  0.00     0.124 S 
ATOM     89  O   UNL A   1      34.204  35.671  27.972  1.00  0.00    -0.237 OA
ATOM     90  O   UNL A   1      33.036  33.504  27.743  1.00  0.00    -0.237 OA
ATOM     91  O   UNL A   1      32.617  34.925  29.710  1.00  0.00    -0.744 OA
ENDBRANCH  87  88
ENDBRANCH  59  82
BRANCH  71  92
ATOM     92  C   UNL A   1      40.328  33.347  36.850  1.00  0.00    -0.014 A 
ATOM     93  C   UNL A   1      39.452  33.090  37.919  1.00  0.00     0.010 A 
ATOM     94  C   UNL A   1      41.093  34.528  36.860  1.00  0.00     0.010 A 
ATOM     95  C   UNL A   1      39.323  34.010  38.963  1.00  0.00     0.020 A 
ATOM     96  C   UNL A   1      40.991  35.435  37.917  1.00  0.00     0.020 A 
ATOM     97  C   UNL A   1      40.096  35.177  38.957  1.00  0.00     0.054 A 
BRANCH  97  98
ATOM     98  S   UNL A   1      39.944  36.331  40.347  1.00  0.00     0.124 S 
ATOM     99  O   UNL A   1      38.767  37.109  39.970  1.00  0.00    -0.237 OA
ATOM    100  O   UNL A   1      39.768  35.435  41.487  1.00  0.00    -0.237 OA
ATOM    101  O   UNL A   1      41.208  37.065  40.329  1.00  0.00    -0.744 OA
ENDBRANCH  97  98
ENDBRANCH  71  92
ENDBRANCH  45  46
ENDBRANCH  37  40
ENDBRANCH  35  36
ENDBRANCH  34  35
ENDBRANCH  33  34
ENDBRANCH   1  33
TORSDOF 21
ENDMDL
