MODEL 1
REMARK VINA RESULT:     -10.1      0.000      0.000
REMARK SMILES COc1cccc(C(=O)N[C@H]2C=C[C@@H](C(=O)NCCCCCCNC(=O)c3ccc(-c4c5nc(c(-c6ccc(S(=O)(=O)[O-])cc6)c6ccc([nH]6)c(-c6ccc(S(=O)(=O)[O-])cc6)c6nc(c(-c7ccc(S(=O)(=O)[O-])cc7)c7ccc4[nH]7)C=C6)C=C5)cc3)C2)c1
REMARK SMILES IDX 20 1 19 2 18 3 17 4 15 5 16 6 14 8 11 9 12 10 87 11 13 12
REMARK SMILES IDX 10 13 8 14 9 15 7 17 3 18 4 19 88 20 5 21 6 22 2 23 1 24
REMARK SMILES IDX 21 25 22 26 23 27 24 28 25 29 26 31 27 32 28 33 86 34 29 35
REMARK SMILES IDX 85 36 30 37 31 38 32 39 79 40 33 41 84 42 78 43 80 44 34 45
REMARK SMILES IDX 83 46 77 47 76 48 35 50 65 51 46 52 64 53 47 54 50 55 63 56
REMARK SMILES IDX 81 57 48 58 49 59 62 61 82 62 51 63 36 64 37 65 45 66 38 67
REMARK SMILES IDX 44 68 39 69 40 70 41 71 42 72 43 73 66 74 67 75 75 76 68 77
REMARK SMILES IDX 74 78 69 79 70 80 71 81 72 82 73 83 52 84 53 85 61 86 54 87
REMARK SMILES IDX 60 88 55 89 56 90 57 91 58 92 59 93
REMARK H PARENT 17 7 10 16 24 30 80 49 50 60
REMARK Flexibility Score: inf
ROOT
ATOM      1  C   UNL A   1      41.938  22.549  28.499  1.00  0.00     0.002 C 
ENDROOT
BRANCH   1   2
ATOM      2  C   UNL A   1      41.778  21.493  27.403  1.00  0.00     0.021 C 
BRANCH   2   3
ATOM      3  C   UNL A   1      40.722  21.833  26.356  1.00  0.00     0.116 C 
BRANCH   3   4
ATOM      4  N   UNL A   1      39.880  22.933  26.783  1.00  0.00    -0.356 N 
ATOM      5  C   UNL A   1      38.614  23.272  26.414  1.00  0.00     0.227 C 
ATOM      6  O   UNL A   1      38.115  24.271  26.940  1.00  0.00    -0.274 OA
ATOM      7  H   UNL A   1      40.290  23.533  27.447  1.00  0.00     0.163 HD
BRANCH   5   8
ATOM      8  C   UNL A   1      37.814  22.466  25.385  1.00  0.00     0.103 C 
ATOM      9  C   UNL A   1      35.464  21.992  24.867  1.00  0.00     0.106 C 
ATOM     10  C   UNL A   1      36.015  23.071  23.996  1.00  0.00    -0.006 C 
ATOM     11  C   UNL A   1      36.552  21.799  25.939  1.00  0.00     0.047 C 
ATOM     12  C   UNL A   1      37.311  23.299  24.245  1.00  0.00    -0.016 C 
BRANCH   9  13
ATOM     13  N   UNL A   1      34.218  22.408  25.469  1.00  0.00    -0.346 N 
ATOM     14  C   UNL A   1      33.022  21.757  25.642  1.00  0.00     0.251 C 
ATOM     15  O   UNL A   1      32.140  22.324  26.284  1.00  0.00    -0.269 OA
ATOM     16  H   UNL A   1      34.229  23.327  25.821  1.00  0.00     0.164 HD
BRANCH  14  17
ATOM     17  C   UNL A   1      32.730  20.439  25.017  1.00  0.00     0.043 A 
ATOM     18  C   UNL A   1      32.648  18.018  25.044  1.00  0.00     0.119 A 
ATOM     19  C   UNL A   1      32.379  18.013  23.674  1.00  0.00     0.046 A 
ATOM     20  C   UNL A   1      32.742  19.233  25.722  1.00  0.00     0.060 A 
ATOM     21  C   UNL A   1      32.246  19.215  22.979  1.00  0.00     0.005 A 
ATOM     22  C   UNL A   1      32.438  20.424  23.646  1.00  0.00     0.014 A 
BRANCH  18  23
ATOM     23  O   UNL A   1      32.797  16.786  25.623  1.00  0.00    -0.497 OA
ATOM     24  C   UNL A   1      33.322  15.767  24.776  1.00  0.00     0.278 C 
ENDBRANCH  18  23
ENDBRANCH  14  17
ENDBRANCH   9  13
ENDBRANCH   5   8
ENDBRANCH   3   4
ENDBRANCH   2   3
ENDBRANCH   1   2
BRANCH   1  25
ATOM     25  C   UNL A   1      43.367  23.065  28.703  1.00  0.00     0.002 C 
BRANCH  25  26
ATOM     26  C   UNL A   1      44.219  23.150  27.433  1.00  0.00     0.021 C 
BRANCH  26  27
ATOM     27  C   UNL A   1      44.293  24.539  26.810  1.00  0.00     0.116 C 
BRANCH  27  28
ATOM     28  N   UNL A   1      43.221  24.767  25.854  1.00  0.00    -0.352 N 
ATOM     29  C   UNL A   1      42.098  25.550  25.996  1.00  0.00     0.251 C 
ATOM     30  H   UNL A   1      43.309  24.300  24.992  1.00  0.00     0.163 HD
ATOM     31  O   UNL A   1      41.194  25.500  25.177  1.00  0.00    -0.269 OA
BRANCH  29  32
ATOM     32  C   UNL A   1      41.998  26.440  27.173  1.00  0.00     0.039 A 
ATOM     33  C   UNL A   1      42.695  27.652  27.175  1.00  0.00     0.014 A 
ATOM     34  C   UNL A   1      41.187  26.083  28.253  1.00  0.00     0.014 A 
ATOM     35  C   UNL A   1      42.528  28.539  28.241  1.00  0.00     0.010 A 
ATOM     36  C   UNL A   1      40.975  26.994  29.281  1.00  0.00     0.010 A 
ATOM     37  C   UNL A   1      41.643  28.230  29.285  1.00  0.00    -0.014 A 
BRANCH  37  38
ATOM     38  C   UNL A   1      41.400  29.161  30.415  1.00  0.00     0.031 A 
ATOM     39  C   UNL A   1      42.224  29.028  31.667  1.00  0.00     0.074 A 
ATOM     40  C   UNL A   1      40.380  30.040  30.362  1.00  0.00     0.049 A 
ATOM     41  N   UNL A   1      42.054  29.595  32.831  1.00  0.00    -0.248 NA
ATOM     42  C   UNL A   1      43.374  28.111  31.604  1.00  0.00     0.031 C 
ATOM     43  C   UNL A   1      39.498  30.249  29.212  1.00  0.00     0.029 A 
ATOM     44  N   UNL A   1      39.895  30.902  31.314  1.00  0.00    -0.354 N 
ATOM     45  C   UNL A   1      43.054  29.081  33.649  1.00  0.00     0.074 A 
ATOM     46  C   UNL A   1      43.803  28.130  32.857  1.00  0.00     0.031 C 
ATOM     47  C   UNL A   1      38.579  31.177  29.528  1.00  0.00     0.029 A 
ATOM     48  C   UNL A   1      38.775  31.592  30.914  1.00  0.00     0.049 A 
ATOM     49  H   UNL A   1      40.311  31.016  32.200  1.00  0.00     0.167 HD
ATOM     50  C   UNL A   1      43.330  29.382  34.940  1.00  0.00     0.031 A 
ATOM     51  C   UNL A   1      37.979  32.442  31.593  1.00  0.00     0.031 A 
ATOM     52  C   UNL A   1      42.590  30.337  35.717  1.00  0.00     0.049 A 
ATOM     53  C   UNL A   1      38.298  32.756  33.030  1.00  0.00     0.074 A 
ATOM     54  C   UNL A   1      42.809  30.740  37.022  1.00  0.00     0.029 A 
ATOM     55  N   UNL A   1      41.490  31.047  35.257  1.00  0.00    -0.354 N 
ATOM     56  N   UNL A   1      39.267  32.283  33.779  1.00  0.00    -0.248 NA
ATOM     57  C   UNL A   1      37.426  33.721  33.713  1.00  0.00     0.031 C 
ATOM     58  C   UNL A   1      41.819  31.667  37.364  1.00  0.00     0.029 A 
ATOM     59  C   UNL A   1      41.017  31.881  36.253  1.00  0.00     0.049 A 
ATOM     60  H   UNL A   1      41.105  30.969  34.354  1.00  0.00     0.167 HD
ATOM     61  C   UNL A   1      39.140  32.920  35.009  1.00  0.00     0.074 A 
ATOM     62  C   UNL A   1      38.004  33.812  34.904  1.00  0.00     0.031 C 
ATOM     63  C   UNL A   1      39.900  32.781  36.122  1.00  0.00     0.031 A 
BRANCH  50  64
ATOM     64  C   UNL A   1      44.480  28.660  35.590  1.00  0.00    -0.014 A 
ATOM     65  C   UNL A   1      44.340  27.337  36.045  1.00  0.00     0.010 A 
ATOM     66  C   UNL A   1      45.725  29.302  35.720  1.00  0.00     0.010 A 
ATOM     67  C   UNL A   1      45.411  26.685  36.662  1.00  0.00     0.020 A 
ATOM     68  C   UNL A   1      46.808  28.642  36.310  1.00  0.00     0.020 A 
ATOM     69  C   UNL A   1      46.637  27.343  36.794  1.00  0.00     0.054 A 
BRANCH  69  70
ATOM     70  S   UNL A   1      48.014  26.466  37.584  1.00  0.00     0.124 S 
ATOM     71  O   UNL A   1      48.071  25.233  36.804  1.00  0.00    -0.237 OA
ATOM     72  O   UNL A   1      49.133  27.384  37.389  1.00  0.00    -0.237 OA
ATOM     73  O   UNL A   1      47.575  26.309  38.969  1.00  0.00    -0.744 OA
ENDBRANCH  69  70
ENDBRANCH  50  64
BRANCH  51  74
ATOM     74  C   UNL A   1      36.799  33.051  30.922  1.00  0.00    -0.014 A 
ATOM     75  C   UNL A   1      35.496  32.676  31.289  1.00  0.00     0.010 A 
ATOM     76  C   UNL A   1      36.974  34.025  29.921  1.00  0.00     0.010 A 
ATOM     77  C   UNL A   1      34.388  33.249  30.656  1.00  0.00     0.020 A 
ATOM     78  C   UNL A   1      35.869  34.618  29.304  1.00  0.00     0.020 A 
ATOM     79  C   UNL A   1      34.582  34.218  29.668  1.00  0.00     0.054 A 
BRANCH  79  80
ATOM     80  S   UNL A   1      33.130  34.985  28.894  1.00  0.00     0.124 S 
ATOM     81  O   UNL A   1      32.247  35.183  30.038  1.00  0.00    -0.237 OA
ATOM     82  O   UNL A   1      33.690  36.201  28.308  1.00  0.00    -0.237 OA
ATOM     83  O   UNL A   1      32.690  33.983  27.926  1.00  0.00    -0.744 OA
ENDBRANCH  79  80
ENDBRANCH  51  74
BRANCH  63  84
ATOM     84  C   UNL A   1      39.579  33.650  37.307  1.00  0.00    -0.014 A 
ATOM     85  C   UNL A   1      38.728  33.203  38.331  1.00  0.00     0.010 A 
ATOM     86  C   UNL A   1      40.233  34.890  37.444  1.00  0.00     0.010 A 
ATOM     87  C   UNL A   1      38.535  33.983  39.475  1.00  0.00     0.020 A 
ATOM     88  C   UNL A   1      40.059  35.661  38.595  1.00  0.00     0.020 A 
ATOM     89  C   UNL A   1      39.207  35.204  39.603  1.00  0.00     0.054 A 
BRANCH  89  90
ATOM     90  S   UNL A   1      39.014  36.152  41.137  1.00  0.00     0.124 S 
ATOM     91  O   UNL A   1      38.826  37.510  40.634  1.00  0.00    -0.237 OA
ATOM     92  O   UNL A   1      37.838  35.538  41.748  1.00  0.00    -0.237 OA
ATOM     93  O   UNL A   1      40.270  35.920  41.849  1.00  0.00    -0.744 OA
ENDBRANCH  89  90
ENDBRANCH  63  84
ENDBRANCH  37  38
ENDBRANCH  29  32
ENDBRANCH  27  28
ENDBRANCH  26  27
ENDBRANCH  25  26
ENDBRANCH   1  25
TORSDOF 19
ENDMDL
MODEL 2
REMARK VINA RESULT:     -10.1      5.823     11.103
REMARK SMILES COc1cccc(C(=O)N[C@H]2C=C[C@@H](C(=O)NCCCCCCNC(=O)c3ccc(-c4c5nc(c(-c6ccc(S(=O)(=O)[O-])cc6)c6ccc([nH]6)c(-c6ccc(S(=O)(=O)[O-])cc6)c6nc(c(-c7ccc(S(=O)(=O)[O-])cc7)c7ccc4[nH]7)C=C6)C=C5)cc3)C2)c1
REMARK SMILES IDX 20 1 19 2 18 3 17 4 15 5 16 6 14 8 11 9 12 10 87 11 13 12
REMARK SMILES IDX 10 13 8 14 9 15 7 17 3 18 4 19 88 20 5 21 6 22 2 23 1 24
REMARK SMILES IDX 21 25 22 26 23 27 24 28 25 29 26 31 27 32 28 33 86 34 29 35
REMARK SMILES IDX 85 36 30 37 31 38 32 39 79 40 33 41 84 42 78 43 80 44 34 45
REMARK SMILES IDX 83 46 77 47 76 48 35 50 65 51 46 52 64 53 47 54 50 55 63 56
REMARK SMILES IDX 81 57 48 58 49 59 62 61 82 62 51 63 36 64 37 65 45 66 38 67
REMARK SMILES IDX 44 68 39 69 40 70 41 71 42 72 43 73 66 74 67 75 75 76 68 77
REMARK SMILES IDX 74 78 69 79 70 80 71 81 72 82 73 83 52 84 53 85 61 86 54 87
REMARK SMILES IDX 60 88 55 89 56 90 57 91 58 92 59 93
REMARK H PARENT 17 7 10 16 24 30 80 49 50 60
REMARK Flexibility Score: inf
ROOT
ATOM      1  C   UNL A   1      36.220  22.907  23.461  1.00  0.00     0.002 C 
ENDROOT
BRANCH   1   2
ATOM      2  C   UNL A   1      34.709  22.722  23.622  1.00  0.00     0.021 C 
BRANCH   2   3
ATOM      3  C   UNL A   1      33.873  23.454  22.577  1.00  0.00     0.116 C 
BRANCH   3   4
ATOM      4  N   UNL A   1      32.478  23.524  22.963  1.00  0.00    -0.356 N 
ATOM      5  C   UNL A   1      31.558  24.511  22.777  1.00  0.00     0.227 C 
ATOM      6  O   UNL A   1      30.416  24.314  23.206  1.00  0.00    -0.274 OA
ATOM      7  H   UNL A   1      32.140  22.730  23.437  1.00  0.00     0.163 HD
BRANCH   5   8
ATOM      8  C   UNL A   1      31.896  25.827  22.070  1.00  0.00     0.103 C 
ATOM      9  C   UNL A   1      32.257  28.178  22.668  1.00  0.00     0.106 C 
ATOM     10  C   UNL A   1      33.546  27.445  22.506  1.00  0.00    -0.006 C 
ATOM     11  C   UNL A   1      31.199  27.061  22.650  1.00  0.00     0.047 C 
ATOM     12  C   UNL A   1      33.354  26.173  22.135  1.00  0.00    -0.016 C 
BRANCH   9  13
ATOM     13  N   UNL A   1      32.229  28.892  23.924  1.00  0.00    -0.346 N 
ATOM     14  C   UNL A   1      32.405  28.473  25.219  1.00  0.00     0.251 C 
ATOM     15  O   UNL A   1      32.422  29.325  26.106  1.00  0.00    -0.269 OA
ATOM     16  H   UNL A   1      32.050  29.856  23.833  1.00  0.00     0.164 HD
BRANCH  14  17
ATOM     17  C   UNL A   1      32.493  27.037  25.592  1.00  0.00     0.043 A 
ATOM     18  C   UNL A   1      31.565  24.990  26.498  1.00  0.00     0.119 A 
ATOM     19  C   UNL A   1      32.833  24.408  26.478  1.00  0.00     0.046 A 
ATOM     20  C   UNL A   1      31.389  26.273  25.980  1.00  0.00     0.060 A 
ATOM     21  C   UNL A   1      33.926  25.118  25.982  1.00  0.00     0.005 A 
ATOM     22  C   UNL A   1      33.758  26.436  25.556  1.00  0.00     0.014 A 
BRANCH  18  23
ATOM     23  O   UNL A   1      30.569  24.222  27.039  1.00  0.00    -0.497 OA
ATOM     24  C   UNL A   1      30.580  22.847  26.667  1.00  0.00     0.278 C 
ENDBRANCH  18  23
ENDBRANCH  14  17
ENDBRANCH   9  13
ENDBRANCH   5   8
ENDBRANCH   3   4
ENDBRANCH   2   3
ENDBRANCH   1   2
BRANCH   1  25
ATOM     25  C   UNL A   1      37.032  22.801  24.757  1.00  0.00     0.002 C 
BRANCH  25  26
ATOM     26  C   UNL A   1      37.779  21.480  24.954  1.00  0.00     0.021 C 
BRANCH  26  27
ATOM     27  C   UNL A   1      38.882  21.524  26.004  1.00  0.00     0.116 C 
BRANCH  27  28
ATOM     28  N   UNL A   1      39.679  20.308  26.012  1.00  0.00    -0.352 N 
ATOM     29  C   UNL A   1      41.043  20.177  26.138  1.00  0.00     0.251 C 
ATOM     30  H   UNL A   1      39.177  19.466  25.913  1.00  0.00     0.163 HD
ATOM     31  O   UNL A   1      41.587  19.101  25.943  1.00  0.00    -0.269 OA
BRANCH  29  32
ATOM     32  C   UNL A   1      41.840  21.370  26.494  1.00  0.00     0.039 A 
ATOM     33  C   UNL A   1      42.228  22.258  25.487  1.00  0.00     0.014 A 
ATOM     34  C   UNL A   1      42.169  21.618  27.829  1.00  0.00     0.014 A 
ATOM     35  C   UNL A   1      42.897  23.437  25.830  1.00  0.00     0.010 A 
ATOM     36  C   UNL A   1      42.780  22.819  28.172  1.00  0.00     0.010 A 
ATOM     37  C   UNL A   1      43.149  23.739  27.177  1.00  0.00    -0.014 A 
BRANCH  37  38
ATOM     38  C   UNL A   1      43.817  24.998  27.591  1.00  0.00     0.031 A 
ATOM     39  C   UNL A   1      42.982  26.132  28.121  1.00  0.00     0.074 A 
ATOM     40  C   UNL A   1      45.139  25.162  27.392  1.00  0.00     0.049 A 
ATOM     41  N   UNL A   1      43.324  27.371  28.354  1.00  0.00    -0.248 NA
ATOM     42  C   UNL A   1      41.566  25.835  28.395  1.00  0.00     0.031 C 
ATOM     43  C   UNL A   1      46.052  24.144  26.867  1.00  0.00     0.029 A 
ATOM     44  N   UNL A   1      45.940  26.262  27.580  1.00  0.00    -0.354 N 
ATOM     45  C   UNL A   1      42.162  28.010  28.771  1.00  0.00     0.074 A 
ATOM     46  C   UNL A   1      41.099  27.030  28.725  1.00  0.00     0.031 C 
ATOM     47  C   UNL A   1      47.286  24.668  26.774  1.00  0.00     0.029 A 
ATOM     48  C   UNL A   1      47.242  26.069  27.183  1.00  0.00     0.049 A 
ATOM     49  H   UNL A   1      45.612  27.108  27.963  1.00  0.00     0.167 HD
ATOM     50  C   UNL A   1      41.998  29.294  29.167  1.00  0.00     0.031 A 
ATOM     51  C   UNL A   1      48.278  26.929  27.129  1.00  0.00     0.031 A 
ATOM     52  C   UNL A   1      43.062  30.258  29.224  1.00  0.00     0.049 A 
ATOM     53  C   UNL A   1      48.072  28.354  27.566  1.00  0.00     0.074 A 
ATOM     54  C   UNL A   1      43.008  31.575  29.644  1.00  0.00     0.029 A 
ATOM     55  N   UNL A   1      44.375  30.007  28.856  1.00  0.00    -0.354 N 
ATOM     56  N   UNL A   1      46.973  28.934  27.987  1.00  0.00    -0.248 NA
ATOM     57  C   UNL A   1      49.244  29.241  27.529  1.00  0.00     0.031 C 
ATOM     58  C   UNL A   1      44.282  32.132  29.495  1.00  0.00     0.029 A 
ATOM     59  C   UNL A   1      45.140  31.145  29.034  1.00  0.00     0.049 A 
ATOM     60  H   UNL A   1      44.713  29.146  28.520  1.00  0.00     0.167 HD
ATOM     61  C   UNL A   1      47.329  30.242  28.297  1.00  0.00     0.074 A 
ATOM     62  C   UNL A   1      48.745  30.369  28.018  1.00  0.00     0.031 C 
ATOM     63  C   UNL A   1      46.554  31.245  28.775  1.00  0.00     0.031 A 
BRANCH  50  64
ATOM     64  C   UNL A   1      40.612  29.725  29.565  1.00  0.00    -0.014 A 
ATOM     65  C   UNL A   1      40.259  29.873  30.918  1.00  0.00     0.010 A 
ATOM     66  C   UNL A   1      39.658  30.016  28.572  1.00  0.00     0.010 A 
ATOM     67  C   UNL A   1      38.964  30.259  31.273  1.00  0.00     0.020 A 
ATOM     68  C   UNL A   1      38.369  30.431  28.923  1.00  0.00     0.020 A 
ATOM     69  C   UNL A   1      38.026  30.531  30.273  1.00  0.00     0.054 A 
BRANCH  69  70
ATOM     70  S   UNL A   1      36.357  31.044  30.763  1.00  0.00     0.124 S 
ATOM     71  O   UNL A   1      35.630  30.949  29.500  1.00  0.00    -0.237 OA
ATOM     72  O   UNL A   1      35.998  30.049  31.770  1.00  0.00    -0.237 OA
ATOM     73  O   UNL A   1      36.547  32.400  31.272  1.00  0.00    -0.744 OA
ENDBRANCH  69  70
ENDBRANCH  50  64
BRANCH  51  74
ATOM     74  C   UNL A   1      49.604  26.465  26.637  1.00  0.00    -0.014 A 
ATOM     75  C   UNL A   1      49.994  26.699  25.307  1.00  0.00     0.010 A 
ATOM     76  C   UNL A   1      50.492  25.799  27.502  1.00  0.00     0.010 A 
ATOM     77  C   UNL A   1      51.239  26.261  24.845  1.00  0.00     0.020 A 
ATOM     78  C   UNL A   1      51.748  25.383  27.051  1.00  0.00     0.020 A 
ATOM     79  C   UNL A   1      52.109  25.606  25.722  1.00  0.00     0.054 A 
BRANCH  79  80
ATOM     80  S   UNL A   1      53.741  25.090  25.116  1.00  0.00     0.124 S 
ATOM     81  O   UNL A   1      53.707  25.546  23.730  1.00  0.00    -0.237 OA
ATOM     82  O   UNL A   1      54.650  25.817  26.000  1.00  0.00    -0.237 OA
ATOM     83  O   UNL A   1      53.731  23.641  25.302  1.00  0.00    -0.744 OA
ENDBRANCH  79  80
ENDBRANCH  51  74
BRANCH  63  84
ATOM     84  C   UNL A   1      47.216  32.559  29.090  1.00  0.00    -0.014 A 
ATOM     85  C   UNL A   1      47.180  33.630  28.183  1.00  0.00     0.010 A 
ATOM     86  C   UNL A   1      47.785  32.751  30.364  1.00  0.00     0.010 A 
ATOM     87  C   UNL A   1      47.704  34.875  28.545  1.00  0.00     0.020 A 
ATOM     88  C   UNL A   1      48.289  33.998  30.736  1.00  0.00     0.020 A 
ATOM     89  C   UNL A   1      48.249  35.053  29.821  1.00  0.00     0.054 A 
BRANCH  89  90
ATOM     90  S   UNL A   1      48.836  36.701  30.300  1.00  0.00     0.124 S 
ATOM     91  O   UNL A   1      48.140  36.916  31.566  1.00  0.00    -0.237 OA
ATOM     92  O   UNL A   1      50.281  36.511  30.400  1.00  0.00    -0.237 OA
ATOM     93  O   UNL A   1      48.403  37.558  29.198  1.00  0.00    -0.744 OA
ENDBRANCH  89  90
ENDBRANCH  63  84
ENDBRANCH  37  38
ENDBRANCH  29  32
ENDBRANCH  27  28
ENDBRANCH  26  27
ENDBRANCH  25  26
ENDBRANCH   1  25
TORSDOF 19
ENDMDL
MODEL 3
REMARK VINA RESULT:     -10.1      3.657      5.197
REMARK SMILES COc1cccc(C(=O)N[C@H]2C=C[C@@H](C(=O)NCCCCCCNC(=O)c3ccc(-c4c5nc(c(-c6ccc(S(=O)(=O)[O-])cc6)c6ccc([nH]6)c(-c6ccc(S(=O)(=O)[O-])cc6)c6nc(c(-c7ccc(S(=O)(=O)[O-])cc7)c7ccc4[nH]7)C=C6)C=C5)cc3)C2)c1
REMARK SMILES IDX 20 1 19 2 18 3 17 4 15 5 16 6 14 8 11 9 12 10 87 11 13 12
REMARK SMILES IDX 10 13 8 14 9 15 7 17 3 18 4 19 88 20 5 21 6 22 2 23 1 24
REMARK SMILES IDX 21 25 22 26 23 27 24 28 25 29 26 31 27 32 28 33 86 34 29 35
REMARK SMILES IDX 85 36 30 37 31 38 32 39 79 40 33 41 84 42 78 43 80 44 34 45
REMARK SMILES IDX 83 46 77 47 76 48 35 50 65 51 46 52 64 53 47 54 50 55 63 56
REMARK SMILES IDX 81 57 48 58 49 59 62 61 82 62 51 63 36 64 37 65 45 66 38 67
REMARK SMILES IDX 44 68 39 69 40 70 41 71 42 72 43 73 66 74 67 75 75 76 68 77
REMARK SMILES IDX 74 78 69 79 70 80 71 81 72 82 73 83 52 84 53 85 61 86 54 87
REMARK SMILES IDX 60 88 55 89 56 90 57 91 58 92 59 93
REMARK H PARENT 17 7 10 16 24 30 80 49 50 60
REMARK Flexibility Score: inf
ROOT
ATOM      1  C   UNL A   1      34.171  24.355  23.065  1.00  0.00     0.002 C 
ENDROOT
BRANCH   1   2
ATOM      2  C   UNL A   1      32.840  23.929  22.442  1.00  0.00     0.021 C 
BRANCH   2   3
ATOM      3  C   UNL A   1      31.642  24.052  23.378  1.00  0.00     0.116 C 
BRANCH   3   4
ATOM      4  N   UNL A   1      31.910  24.965  24.472  1.00  0.00    -0.356 N 
ATOM      5  C   UNL A   1      32.060  24.728  25.804  1.00  0.00     0.227 C 
ATOM      6  O   UNL A   1      32.291  25.698  26.534  1.00  0.00    -0.274 OA
ATOM      7  H   UNL A   1      31.998  25.910  24.209  1.00  0.00     0.163 HD
BRANCH   5   8
ATOM      8  C   UNL A   1      31.950  23.323  26.406  1.00  0.00     0.103 C 
ATOM      9  C   UNL A   1      33.319  21.294  26.564  1.00  0.00     0.106 C 
ATOM     10  C   UNL A   1      33.402  22.115  27.807  1.00  0.00    -0.006 C 
ATOM     11  C   UNL A   1      32.596  22.217  25.567  1.00  0.00     0.047 C 
ATOM     12  C   UNL A   1      32.620  23.200  27.742  1.00  0.00    -0.016 C 
BRANCH   9  13
ATOM     13  N   UNL A   1      34.640  20.956  26.086  1.00  0.00    -0.346 N 
ATOM     14  C   UNL A   1      35.071  20.034  25.164  1.00  0.00     0.251 C 
ATOM     15  O   UNL A   1      36.266  20.022  24.873  1.00  0.00    -0.269 OA
ATOM     16  H   UNL A   1      35.362  21.483  26.496  1.00  0.00     0.164 HD
BRANCH  14  17
ATOM     17  C   UNL A   1      34.171  19.009  24.574  1.00  0.00     0.043 A 
ATOM     18  C   UNL A   1      33.438  16.723  24.245  1.00  0.00     0.119 A 
ATOM     19  C   UNL A   1      32.581  17.145  23.228  1.00  0.00     0.046 A 
ATOM     20  C   UNL A   1      34.169  17.668  24.966  1.00  0.00     0.060 A 
ATOM     21  C   UNL A   1      32.484  18.498  22.906  1.00  0.00     0.005 A 
ATOM     22  C   UNL A   1      33.291  19.426  23.566  1.00  0.00     0.014 A 
BRANCH  18  23
ATOM     23  O   UNL A   1      33.487  15.371  24.457  1.00  0.00    -0.497 OA
ATOM     24  C   UNL A   1      32.707  14.891  25.549  1.00  0.00     0.278 C 
ENDBRANCH  18  23
ENDBRANCH  14  17
ENDBRANCH   9  13
ENDBRANCH   5   8
ENDBRANCH   3   4
ENDBRANCH   2   3
ENDBRANCH   1   2
BRANCH   1  25
ATOM     25  C   UNL A   1      35.144  23.211  23.370  1.00  0.00     0.002 C 
BRANCH  25  26
ATOM     26  C   UNL A   1      36.556  23.644  23.776  1.00  0.00     0.021 C 
BRANCH  26  27
ATOM     27  C   UNL A   1      36.815  23.642  25.277  1.00  0.00     0.116 C 
BRANCH  27  28
ATOM     28  N   UNL A   1      37.770  22.617  25.667  1.00  0.00    -0.352 N 
ATOM     29  C   UNL A   1      38.978  22.769  26.307  1.00  0.00     0.251 C 
ATOM     30  H   UNL A   1      37.519  21.692  25.441  1.00  0.00     0.163 HD
ATOM     31  O   UNL A   1      39.755  21.833  26.404  1.00  0.00    -0.269 OA
BRANCH  29  32
ATOM     32  C   UNL A   1      39.326  24.096  26.858  1.00  0.00     0.039 A 
ATOM     33  C   UNL A   1      38.984  24.399  28.179  1.00  0.00     0.014 A 
ATOM     34  C   UNL A   1      40.020  25.020  26.073  1.00  0.00     0.014 A 
ATOM     35  C   UNL A   1      39.396  25.613  28.735  1.00  0.00     0.010 A 
ATOM     36  C   UNL A   1      40.481  26.198  26.647  1.00  0.00     0.010 A 
ATOM     37  C   UNL A   1      40.173  26.507  27.982  1.00  0.00    -0.014 A 
BRANCH  37  38
ATOM     38  C   UNL A   1      40.671  27.787  28.544  1.00  0.00     0.031 A 
ATOM     39  C   UNL A   1      42.072  27.856  29.086  1.00  0.00     0.074 A 
ATOM     40  C   UNL A   1      39.841  28.842  28.667  1.00  0.00     0.049 A 
ATOM     41  N   UNL A   1      42.640  28.799  29.790  1.00  0.00    -0.248 NA
ATOM     42  C   UNL A   1      42.937  26.694  28.825  1.00  0.00     0.031 C 
ATOM     43  C   UNL A   1      38.455  28.891  28.198  1.00  0.00     0.029 A 
ATOM     44  N   UNL A   1      40.036  30.067  29.255  1.00  0.00    -0.354 N 
ATOM     45  C   UNL A   1      43.916  28.332  30.084  1.00  0.00     0.074 A 
ATOM     46  C   UNL A   1      44.026  27.007  29.512  1.00  0.00     0.031 C 
ATOM     47  C   UNL A   1      37.926  30.084  28.518  1.00  0.00     0.029 A 
ATOM     48  C   UNL A   1      38.915  30.863  29.257  1.00  0.00     0.049 A 
ATOM     49  H   UNL A   1      40.899  30.349  29.639  1.00  0.00     0.167 HD
ATOM     50  C   UNL A   1      44.911  28.955  30.759  1.00  0.00     0.031 A 
ATOM     51  C   UNL A   1      38.699  32.071  29.813  1.00  0.00     0.031 A 
ATOM     52  C   UNL A   1      44.799  30.276  31.313  1.00  0.00     0.049 A 
ATOM     53  C   UNL A   1      39.815  32.742  30.567  1.00  0.00     0.074 A 
ATOM     54  C   UNL A   1      45.759  31.011  31.985  1.00  0.00     0.029 A 
ATOM     55  N   UNL A   1      43.660  31.065  31.251  1.00  0.00    -0.354 N 
ATOM     56  N   UNL A   1      41.027  32.299  30.809  1.00  0.00    -0.248 NA
ATOM     57  C   UNL A   1      39.542  34.077  31.117  1.00  0.00     0.031 C 
ATOM     58  C   UNL A   1      45.189  32.231  32.362  1.00  0.00     0.029 A 
ATOM     59  C   UNL A   1      43.891  32.275  31.878  1.00  0.00     0.049 A 
ATOM     60  H   UNL A   1      42.813  30.801  30.824  1.00  0.00     0.167 HD
ATOM     61  C   UNL A   1      41.669  33.315  31.509  1.00  0.00     0.074 A 
ATOM     62  C   UNL A   1      40.715  34.395  31.650  1.00  0.00     0.031 C 
ATOM     63  C   UNL A   1      42.936  33.350  31.986  1.00  0.00     0.031 A 
BRANCH  50  64
ATOM     64  C   UNL A   1      46.203  28.205  30.939  1.00  0.00    -0.014 A 
ATOM     65  C   UNL A   1      47.284  28.404  30.061  1.00  0.00     0.010 A 
ATOM     66  C   UNL A   1      46.350  27.311  32.016  1.00  0.00     0.010 A 
ATOM     67  C   UNL A   1      48.472  27.688  30.229  1.00  0.00     0.020 A 
ATOM     68  C   UNL A   1      47.549  26.616  32.205  1.00  0.00     0.020 A 
ATOM     69  C   UNL A   1      48.595  26.795  31.298  1.00  0.00     0.054 A 
BRANCH  69  70
ATOM     70  S   UNL A   1      50.155  25.892  31.501  1.00  0.00     0.124 S 
ATOM     71  O   UNL A   1      50.084  24.923  30.410  1.00  0.00    -0.237 OA
ATOM     72  O   UNL A   1      51.157  26.943  31.341  1.00  0.00    -0.237 OA
ATOM     73  O   UNL A   1      50.056  25.328  32.844  1.00  0.00    -0.744 OA
ENDBRANCH  69  70
ENDBRANCH  50  64
BRANCH  51  74
ATOM     74  C   UNL A   1      37.367  32.722  29.681  1.00  0.00    -0.014 A 
ATOM     75  C   UNL A   1      36.388  32.552  30.676  1.00  0.00     0.010 A 
ATOM     76  C   UNL A   1      37.075  33.529  28.566  1.00  0.00     0.010 A 
ATOM     77  C   UNL A   1      35.135  33.162  30.549  1.00  0.00     0.020 A 
ATOM     78  C   UNL A   1      35.835  34.162  28.450  1.00  0.00     0.020 A 
ATOM     79  C   UNL A   1      34.868  33.965  29.436  1.00  0.00     0.054 A 
BRANCH  79  80
ATOM     80  S   UNL A   1      33.255  34.789  29.317  1.00  0.00     0.124 S 
ATOM     81  O   UNL A   1      33.601  36.038  28.648  1.00  0.00    -0.237 OA
ATOM     82  O   UNL A   1      32.474  33.842  28.525  1.00  0.00    -0.237 OA
ATOM     83  O   UNL A   1      32.834  34.918  30.711  1.00  0.00    -0.744 OA
ENDBRANCH  79  80
ENDBRANCH  51  74
BRANCH  63  84
ATOM     84  C   UNL A   1      43.402  34.614  32.656  1.00  0.00    -0.014 A 
ATOM     85  C   UNL A   1      44.062  35.622  31.934  1.00  0.00     0.010 A 
ATOM     86  C   UNL A   1      43.072  34.835  34.006  1.00  0.00     0.010 A 
ATOM     87  C   UNL A   1      44.385  36.833  32.553  1.00  0.00     0.020 A 
ATOM     88  C   UNL A   1      43.373  36.051  34.621  1.00  0.00     0.020 A 
ATOM     89  C   UNL A   1      44.032  37.042  33.891  1.00  0.00     0.054 A 
BRANCH  89  90
ATOM     90  S   UNL A   1      44.377  38.656  34.644  1.00  0.00     0.124 S 
ATOM     91  O   UNL A   1      45.671  38.995  34.058  1.00  0.00    -0.237 OA
ATOM     92  O   UNL A   1      43.250  39.469  34.193  1.00  0.00    -0.237 OA
ATOM     93  O   UNL A   1      44.397  38.373  36.078  1.00  0.00    -0.744 OA
ENDBRANCH  89  90
ENDBRANCH  63  84
ENDBRANCH  37  38
ENDBRANCH  29  32
ENDBRANCH  27  28
ENDBRANCH  26  27
ENDBRANCH  25  26
ENDBRANCH   1  25
TORSDOF 19
ENDMDL
