MODEL 1
REMARK VINA RESULT:     -13.5      0.000      0.000
REMARK SMILES Cc1coc2cc3c(cc12)[C@@H](C)[C@H](CCC(=O)N[C@@H](Cc1c[nH]c2ccccc12)C(=O)NCCCCCCNC(=O)c1ccc(-c2c4nc(c(-c5ccc(S(=O)(=O)[O-])cc5)c5ccc([nH]5)c(-c5ccc(S(=O)(=O)[O-])cc5)c5nc(c(-c6ccc(S(=O)(=O)[O-])cc6)c6ccc2[nH]6)C=C5)C=C4)cc1)C(=O)O3
REMARK SMILES IDX 35 1 34 2 33 3 32 4 30 5 31 6 19 8 18 9 16 10 17 11 15 13
REMARK SMILES IDX 14 14 13 15 1 16 2 17 3 18 10 19 4 20 5 21 9 22 6 23 8 24
REMARK SMILES IDX 7 25 11 26 104 27 12 28 102 29 103 30 20 31 21 32 22 33
REMARK SMILES IDX 29 34 23 35 24 36 28 37 25 39 27 40 26 41 36 42 37 43 38 44
REMARK SMILES IDX 39 45 40 46 41 48 42 49 43 50 101 51 44 52 100 53 45 54
REMARK SMILES IDX 46 55 47 56 94 57 48 58 99 59 93 60 95 61 49 62 98 63 92 64
REMARK SMILES IDX 91 65 50 67 80 68 61 69 79 70 62 71 65 72 78 73 96 74 63 75
REMARK SMILES IDX 64 76 77 78 97 79 66 80 51 81 52 82 60 83 53 84 59 85 54 86
REMARK SMILES IDX 55 87 56 88 57 89 58 90 81 91 82 92 90 93 83 94 89 95 84 96
REMARK SMILES IDX 85 97 86 98 87 99 88 100 67 101 68 102 76 103 69 104 75 105
REMARK SMILES IDX 70 106 71 107 72 108 73 109 74 110
REMARK H PARENT 32 7 18 12 23 38 39 47 95 66 65 77
REMARK Flexibility Score: inf
ROOT
ATOM      1  C   UNL A   1      39.467  22.452  26.482  1.00  0.00     0.002 C 
ENDROOT
BRANCH   1   2
ATOM      2  C   UNL A   1      38.814  23.811  26.685  1.00  0.00     0.021 C 
BRANCH   2   3
ATOM      3  C   UNL A   1      37.425  23.921  26.105  1.00  0.00     0.116 C 
BRANCH   3   4
ATOM      4  N   UNL A   1      37.215  23.275  24.844  1.00  0.00    -0.354 N 
ATOM      5  C   UNL A   1      36.140  23.475  24.019  1.00  0.00     0.242 C 
ATOM      6  O   UNL A   1      36.054  22.776  23.005  1.00  0.00    -0.273 OA
ATOM      7  H   UNL A   1      37.901  22.635  24.544  1.00  0.00     0.163 HD
BRANCH   5   8
ATOM      8  C   UNL A   1      35.023  24.508  24.388  1.00  0.00     0.175 C 
BRANCH   8   9
ATOM      9  N   UNL A   1      34.593  25.328  23.216  1.00  0.00    -0.344 N 
ATOM     10  C   UNL A   1      33.494  25.414  22.394  1.00  0.00     0.220 C 
ATOM     11  O   UNL A   1      33.559  26.289  21.517  1.00  0.00    -0.275 OA
ATOM     12  H   UNL A   1      35.283  25.983  22.963  1.00  0.00     0.164 HD
BRANCH  10  13
ATOM     13  C   UNL A   1      32.198  24.545  22.463  1.00  0.00     0.101 C 
BRANCH  13  14
ATOM     14  C   UNL A   1      30.970  24.993  23.405  1.00  0.00     0.026 C 
BRANCH  14  15
ATOM     15  C   UNL A   1      31.356  25.726  24.756  1.00  0.00     0.107 C 
ATOM     16  C   UNL A   1      29.334  32.571  23.557  1.00  0.00     0.048 C 
ATOM     17  C   UNL A   1      28.863  31.270  23.037  1.00  0.00    -0.005 A 
ATOM     18  C   UNL A   1      27.771  31.061  22.216  1.00  0.00     0.199 A 
ATOM     19  C   UNL A   1      29.381  29.975  23.342  1.00  0.00     0.024 A 
ATOM     20  O   UNL A   1      27.543  29.736  22.041  1.00  0.00    -0.464 OA
ATOM     21  C   UNL A   1      28.461  29.085  22.800  1.00  0.00     0.137 A 
ATOM     22  C   UNL A   1      30.489  29.444  24.050  1.00  0.00     0.020 A 
ATOM     23  C   UNL A   1      28.437  27.734  23.087  1.00  0.00     0.095 A 
ATOM     24  C   UNL A   1      30.498  28.072  24.324  1.00  0.00    -0.001 A 
ATOM     25  C   UNL A   1      29.353  27.352  24.047  1.00  0.00     0.138 A 
ATOM     26  C   UNL A   1      31.611  27.276  24.960  1.00  0.00     0.034 C 
ATOM     27  O   UNL A   1      29.083  26.254  24.898  1.00  0.00    -0.426 OA
ATOM     28  C   UNL A   1      31.636  27.636  26.472  1.00  0.00     0.014 C 
ATOM     29  C   UNL A   1      30.129  25.569  25.524  1.00  0.00     0.314 C 
ATOM     30  O   UNL A   1      30.046  24.810  26.496  1.00  0.00    -0.251 OA
ENDBRANCH  14  15
ENDBRANCH  13  14
ENDBRANCH  10  13
ENDBRANCH   8   9
BRANCH   8  31
ATOM     31  C   UNL A   1      33.988  23.844  25.385  1.00  0.00     0.072 C 
BRANCH  31  32
ATOM     32  C   UNL A   1      33.628  22.372  25.621  1.00  0.00    -0.020 A 
ATOM     33  C   UNL A   1      33.865  21.823  26.880  1.00  0.00     0.087 A 
ATOM     34  C   UNL A   1      33.104  21.269  24.835  1.00  0.00     0.003 A 
ATOM     35  N   UNL A   1      33.598  20.486  26.868  1.00  0.00    -0.361 N 
ATOM     36  C   UNL A   1      33.163  20.112  25.624  1.00  0.00     0.046 A 
ATOM     37  C   UNL A   1      32.652  21.083  23.508  1.00  0.00     0.010 A 
ATOM     38  H   UNL A   1      33.703  19.880  27.637  1.00  0.00     0.166 HD
ATOM     39  C   UNL A   1      32.845  18.829  25.149  1.00  0.00     0.026 A 
ATOM     40  C   UNL A   1      32.309  19.817  23.018  1.00  0.00     0.001 A 
ATOM     41  C   UNL A   1      32.424  18.700  23.827  1.00  0.00     0.002 A 
ENDBRANCH  31  32
ENDBRANCH   8  31
ENDBRANCH   5   8
ENDBRANCH   3   4
ENDBRANCH   2   3
ENDBRANCH   1   2
BRANCH   1  42
ATOM     42  C   UNL A   1      40.428  21.978  27.580  1.00  0.00     0.002 C 
BRANCH  42  43
ATOM     43  C   UNL A   1      41.416  20.856  27.235  1.00  0.00     0.021 C 
BRANCH  43  44
ATOM     44  C   UNL A   1      42.873  21.264  27.030  1.00  0.00     0.116 C 
BRANCH  44  45
ATOM     45  N   UNL A   1      43.145  21.884  25.753  1.00  0.00    -0.352 N 
ATOM     46  C   UNL A   1      43.107  23.158  25.269  1.00  0.00     0.251 C 
ATOM     47  H   UNL A   1      43.423  21.232  25.070  1.00  0.00     0.163 HD
ATOM     48  O   UNL A   1      43.401  23.296  24.079  1.00  0.00    -0.269 OA
BRANCH  46  49
ATOM     49  C   UNL A   1      42.701  24.351  26.054  1.00  0.00     0.039 A 
ATOM     50  C   UNL A   1      41.846  25.361  25.612  1.00  0.00     0.014 A 
ATOM     51  C   UNL A   1      43.233  24.435  27.352  1.00  0.00     0.014 A 
ATOM     52  C   UNL A   1      41.609  26.478  26.405  1.00  0.00     0.010 A 
ATOM     53  C   UNL A   1      42.970  25.532  28.162  1.00  0.00     0.010 A 
ATOM     54  C   UNL A   1      42.195  26.576  27.667  1.00  0.00    -0.014 A 
BRANCH  54  55
ATOM     55  C   UNL A   1      41.907  27.762  28.466  1.00  0.00     0.031 A 
ATOM     56  C   UNL A   1      42.929  28.847  28.421  1.00  0.00     0.074 A 
ATOM     57  C   UNL A   1      40.742  27.937  29.118  1.00  0.00     0.049 A 
ATOM     58  N   UNL A   1      43.588  29.364  29.406  1.00  0.00    -0.248 NA
ATOM     59  C   UNL A   1      43.326  29.363  27.102  1.00  0.00     0.031 C 
ATOM     60  C   UNL A   1      39.530  27.116  29.042  1.00  0.00     0.029 A 
ATOM     61  N   UNL A   1      40.357  28.984  29.898  1.00  0.00    -0.354 N 
ATOM     62  C   UNL A   1      44.379  30.376  28.864  1.00  0.00     0.074 A 
ATOM     63  C   UNL A   1      44.259  30.257  27.432  1.00  0.00     0.031 C 
ATOM     64  C   UNL A   1      38.486  27.827  29.526  1.00  0.00     0.029 A 
ATOM     65  C   UNL A   1      38.984  29.077  30.075  1.00  0.00     0.049 A 
ATOM     66  H   UNL A   1      40.995  29.617  30.300  1.00  0.00     0.167 HD
ATOM     67  C   UNL A   1      44.967  31.340  29.628  1.00  0.00     0.031 A 
ATOM     68  C   UNL A   1      38.304  30.148  30.550  1.00  0.00     0.031 A 
ATOM     69  C   UNL A   1      44.985  30.987  31.020  1.00  0.00     0.049 A 
ATOM     70  C   UNL A   1      39.261  30.974  31.327  1.00  0.00     0.074 A 
ATOM     71  C   UNL A   1      45.563  29.968  31.749  1.00  0.00     0.029 A 
ATOM     72  N   UNL A   1      44.030  31.542  31.838  1.00  0.00    -0.354 N 
ATOM     73  N   UNL A   1      39.811  30.580  32.442  1.00  0.00    -0.248 NA
ATOM     74  C   UNL A   1      39.942  32.067  30.650  1.00  0.00     0.031 C 
ATOM     75  C   UNL A   1      44.603  29.644  32.747  1.00  0.00     0.029 A 
ATOM     76  C   UNL A   1      43.527  30.525  32.609  1.00  0.00     0.049 A 
ATOM     77  H   UNL A   1      43.757  32.488  31.865  1.00  0.00     0.167 HD
ATOM     78  C   UNL A   1      41.111  31.058  32.386  1.00  0.00     0.074 A 
ATOM     79  C   UNL A   1      41.100  32.054  31.314  1.00  0.00     0.031 C 
ATOM     80  C   UNL A   1      42.139  30.411  33.013  1.00  0.00     0.031 A 
BRANCH  67  81
ATOM     81  C   UNL A   1      45.291  32.732  29.151  1.00  0.00    -0.014 A 
ATOM     82  C   UNL A   1      46.582  33.114  28.736  1.00  0.00     0.010 A 
ATOM     83  C   UNL A   1      44.240  33.631  28.871  1.00  0.00     0.010 A 
ATOM     84  C   UNL A   1      46.823  34.327  28.087  1.00  0.00     0.020 A 
ATOM     85  C   UNL A   1      44.463  34.832  28.180  1.00  0.00     0.020 A 
ATOM     86  C   UNL A   1      45.758  35.171  27.796  1.00  0.00     0.054 A 
BRANCH  86  87
ATOM     87  S   UNL A   1      46.093  36.665  26.828  1.00  0.00     0.124 S 
ATOM     88  O   UNL A   1      46.646  36.107  25.597  1.00  0.00    -0.237 OA
ATOM     89  O   UNL A   1      44.766  37.264  26.710  1.00  0.00    -0.237 OA
ATOM     90  O   UNL A   1      47.038  37.407  27.659  1.00  0.00    -0.744 OA
ENDBRANCH  86  87
ENDBRANCH  67  81
BRANCH  68  91
ATOM     91  C   UNL A   1      37.035  30.697  30.005  1.00  0.00    -0.014 A 
ATOM     92  C   UNL A   1      36.910  30.943  28.621  1.00  0.00     0.010 A 
ATOM     93  C   UNL A   1      36.071  31.259  30.861  1.00  0.00     0.010 A 
ATOM     94  C   UNL A   1      35.916  31.786  28.117  1.00  0.00     0.020 A 
ATOM     95  C   UNL A   1      35.073  32.115  30.363  1.00  0.00     0.020 A 
ATOM     96  C   UNL A   1      35.031  32.403  28.998  1.00  0.00     0.054 A 
BRANCH  96  97
ATOM     97  S   UNL A   1      33.903  33.659  28.331  1.00  0.00     0.124 S 
ATOM     98  O   UNL A   1      34.800  34.458  27.499  1.00  0.00    -0.237 OA
ATOM     99  O   UNL A   1      32.926  32.853  27.602  1.00  0.00    -0.237 OA
ATOM    100  O   UNL A   1      33.389  34.331  29.521  1.00  0.00    -0.744 OA
ENDBRANCH  96  97
ENDBRANCH  68  91
BRANCH  80 101
ATOM    101  C   UNL A   1      41.826  29.284  33.978  1.00  0.00    -0.014 A 
ATOM    102  C   UNL A   1      42.002  29.530  35.352  1.00  0.00     0.010 A 
ATOM    103  C   UNL A   1      41.591  27.956  33.565  1.00  0.00     0.010 A 
ATOM    104  C   UNL A   1      41.993  28.486  36.280  1.00  0.00     0.020 A 
ATOM    105  C   UNL A   1      41.550  26.906  34.495  1.00  0.00     0.020 A 
ATOM    106  C   UNL A   1      41.782  27.176  35.845  1.00  0.00     0.054 A 
BRANCH 106 107
ATOM    107  S   UNL A   1      41.860  25.841  37.069  1.00  0.00     0.124 S 
ATOM    108  O   UNL A   1      40.462  25.710  37.473  1.00  0.00    -0.237 OA
ATOM    109  O   UNL A   1      42.392  24.722  36.296  1.00  0.00    -0.237 OA
ATOM    110  O   UNL A   1      42.755  26.357  38.103  1.00  0.00    -0.744 OA
ENDBRANCH 106 107
ENDBRANCH  80 101
ENDBRANCH  54  55
ENDBRANCH  46  49
ENDBRANCH  44  45
ENDBRANCH  43  44
ENDBRANCH  42  43
ENDBRANCH   1  42
TORSDOF 22
ENDMDL
MODEL 2
REMARK VINA RESULT:     -13.2      1.352      2.287
REMARK SMILES Cc1coc2cc3c(cc12)[C@@H](C)[C@H](CCC(=O)N[C@@H](Cc1c[nH]c2ccccc12)C(=O)NCCCCCCNC(=O)c1ccc(-c2c4nc(c(-c5ccc(S(=O)(=O)[O-])cc5)c5ccc([nH]5)c(-c5ccc(S(=O)(=O)[O-])cc5)c5nc(c(-c6ccc(S(=O)(=O)[O-])cc6)c6ccc2[nH]6)C=C5)C=C4)cc1)C(=O)O3
REMARK SMILES IDX 35 1 34 2 33 3 32 4 30 5 31 6 19 8 18 9 16 10 17 11 15 13
REMARK SMILES IDX 14 14 13 15 1 16 2 17 3 18 10 19 4 20 5 21 9 22 6 23 8 24
REMARK SMILES IDX 7 25 11 26 104 27 12 28 102 29 103 30 20 31 21 32 22 33
REMARK SMILES IDX 29 34 23 35 24 36 28 37 25 39 27 40 26 41 36 42 37 43 38 44
REMARK SMILES IDX 39 45 40 46 41 48 42 49 43 50 101 51 44 52 100 53 45 54
REMARK SMILES IDX 46 55 47 56 94 57 48 58 99 59 93 60 95 61 49 62 98 63 92 64
REMARK SMILES IDX 91 65 50 67 80 68 61 69 79 70 62 71 65 72 78 73 96 74 63 75
REMARK SMILES IDX 64 76 77 78 97 79 66 80 51 81 52 82 60 83 53 84 59 85 54 86
REMARK SMILES IDX 55 87 56 88 57 89 58 90 81 91 82 92 90 93 83 94 89 95 84 96
REMARK SMILES IDX 85 97 86 98 87 99 88 100 67 101 68 102 76 103 69 104 75 105
REMARK SMILES IDX 70 106 71 107 72 108 73 109 74 110
REMARK H PARENT 32 7 18 12 23 38 39 47 95 66 65 77
REMARK Flexibility Score: inf
ROOT
ATOM      1  C   UNL A   1      36.684  22.953  24.468  1.00  0.00     0.002 C 
ENDROOT
BRANCH   1   2
ATOM      2  C   UNL A   1      36.078  23.914  25.480  1.00  0.00     0.021 C 
BRANCH   2   3
ATOM      3  C   UNL A   1      34.728  24.459  25.080  1.00  0.00     0.116 C 
BRANCH   3   4
ATOM      4  N   UNL A   1      34.448  24.485  23.676  1.00  0.00    -0.354 N 
ATOM      5  C   UNL A   1      33.282  24.069  23.090  1.00  0.00     0.242 C 
ATOM      6  O   UNL A   1      33.224  24.069  21.858  1.00  0.00    -0.273 OA
ATOM      7  H   UNL A   1      35.153  24.832  23.082  1.00  0.00     0.163 HD
BRANCH   5   8
ATOM      8  C   UNL A   1      32.087  23.547  23.958  1.00  0.00     0.175 C 
BRANCH   8   9
ATOM      9  N   UNL A   1      30.920  24.478  23.941  1.00  0.00    -0.344 N 
ATOM     10  C   UNL A   1      30.434  25.501  24.720  1.00  0.00     0.220 C 
ATOM     11  O   UNL A   1      29.394  26.033  24.304  1.00  0.00    -0.275 OA
ATOM     12  H   UNL A   1      30.342  24.316  23.160  1.00  0.00     0.164 HD
BRANCH  10  13
ATOM     13  C   UNL A   1      31.056  26.053  26.043  1.00  0.00     0.101 C 
BRANCH  13  14
ATOM     14  C   UNL A   1      32.026  27.338  26.009  1.00  0.00     0.026 C 
BRANCH  14  15
ATOM     15  C   UNL A   1      32.886  27.532  24.692  1.00  0.00     0.107 C 
ATOM     16  C   UNL A   1      28.426  31.197  20.328  1.00  0.00     0.048 C 
ATOM     17  C   UNL A   1      28.559  31.109  21.797  1.00  0.00    -0.005 A 
ATOM     18  C   UNL A   1      27.863  31.854  22.731  1.00  0.00     0.199 A 
ATOM     19  C   UNL A   1      29.481  30.309  22.539  1.00  0.00     0.024 A 
ATOM     20  O   UNL A   1      28.326  31.617  23.982  1.00  0.00    -0.464 OA
ATOM     21  C   UNL A   1      29.366  30.755  23.851  1.00  0.00     0.137 A 
ATOM     22  C   UNL A   1      30.432  29.297  22.256  1.00  0.00     0.020 A 
ATOM     23  C   UNL A   1      30.261  30.434  24.852  1.00  0.00     0.095 A 
ATOM     24  C   UNL A   1      31.327  28.935  23.269  1.00  0.00    -0.001 A 
ATOM     25  C   UNL A   1      31.349  29.704  24.415  1.00  0.00     0.138 A 
ATOM     26  C   UNL A   1      32.343  27.819  23.233  1.00  0.00     0.034 C 
ATOM     27  O   UNL A   1      32.599  29.821  25.068  1.00  0.00    -0.426 OA
ATOM     28  C   UNL A   1      33.497  28.270  22.294  1.00  0.00     0.014 C 
ATOM     29  C   UNL A   1      33.548  28.798  24.969  1.00  0.00     0.314 C 
ATOM     30  O   UNL A   1      34.756  28.876  25.220  1.00  0.00    -0.251 OA
ENDBRANCH  14  15
ENDBRANCH  13  14
ENDBRANCH  10  13
ENDBRANCH   8   9
BRANCH   8  31
ATOM     31  C   UNL A   1      31.929  21.983  23.765  1.00  0.00     0.072 C 
BRANCH  31  32
ATOM     32  C   UNL A   1      32.812  20.821  24.238  1.00  0.00    -0.020 A 
ATOM     33  C   UNL A   1      33.710  21.050  25.278  1.00  0.00     0.087 A 
ATOM     34  C   UNL A   1      33.037  19.438  23.859  1.00  0.00     0.003 A 
ATOM     35  N   UNL A   1      34.487  19.948  25.480  1.00  0.00    -0.361 N 
ATOM     36  C   UNL A   1      34.121  18.958  24.606  1.00  0.00     0.046 A 
ATOM     37  C   UNL A   1      32.504  18.538  22.907  1.00  0.00     0.010 A 
ATOM     38  H   UNL A   1      35.202  19.874  26.152  1.00  0.00     0.166 HD
ATOM     39  C   UNL A   1      34.695  17.690  24.419  1.00  0.00     0.026 A 
ATOM     40  C   UNL A   1      33.046  17.261  22.716  1.00  0.00     0.001 A 
ATOM     41  C   UNL A   1      34.143  16.851  23.453  1.00  0.00     0.002 A 
ENDBRANCH  31  32
ENDBRANCH   8  31
ENDBRANCH   5   8
ENDBRANCH   3   4
ENDBRANCH   2   3
ENDBRANCH   1   2
BRANCH   1  42
ATOM     42  C   UNL A   1      37.753  21.986  24.992  1.00  0.00     0.002 C 
BRANCH  42  43
ATOM     43  C   UNL A   1      38.698  22.488  26.093  1.00  0.00     0.021 C 
BRANCH  43  44
ATOM     44  C   UNL A   1      39.893  21.599  26.430  1.00  0.00     0.116 C 
BRANCH  44  45
ATOM     45  N   UNL A   1      41.098  21.917  25.697  1.00  0.00    -0.352 N 
ATOM     46  C   UNL A   1      41.895  23.016  25.577  1.00  0.00     0.251 C 
ATOM     47  H   UNL A   1      41.419  21.161  25.155  1.00  0.00     0.163 HD
ATOM     48  O   UNL A   1      42.860  22.908  24.816  1.00  0.00    -0.269 OA
BRANCH  46  49
ATOM     49  C   UNL A   1      41.653  24.317  26.251  1.00  0.00     0.039 A 
ATOM     50  C   UNL A   1      41.009  25.418  25.685  1.00  0.00     0.014 A 
ATOM     51  C   UNL A   1      42.116  24.410  27.576  1.00  0.00     0.014 A 
ATOM     52  C   UNL A   1      40.921  26.616  26.385  1.00  0.00     0.010 A 
ATOM     53  C   UNL A   1      41.997  25.594  28.292  1.00  0.00     0.010 A 
ATOM     54  C   UNL A   1      41.441  26.711  27.676  1.00  0.00    -0.014 A 
BRANCH  54  55
ATOM     55  C   UNL A   1      41.313  27.986  28.374  1.00  0.00     0.031 A 
ATOM     56  C   UNL A   1      42.386  28.989  28.109  1.00  0.00     0.074 A 
ATOM     57  C   UNL A   1      40.240  28.303  29.122  1.00  0.00     0.049 A 
ATOM     58  N   UNL A   1      43.179  29.551  28.962  1.00  0.00    -0.248 NA
ATOM     59  C   UNL A   1      42.663  29.345  26.710  1.00  0.00     0.031 C 
ATOM     60  C   UNL A   1      38.981  27.565  29.259  1.00  0.00     0.029 A 
ATOM     61  N   UNL A   1      40.006  29.446  29.825  1.00  0.00    -0.354 N 
ATOM     62  C   UNL A   1      43.963  30.449  28.237  1.00  0.00     0.074 A 
ATOM     63  C   UNL A   1      43.677  30.200  26.846  1.00  0.00     0.031 C 
ATOM     64  C   UNL A   1      38.041  28.390  29.773  1.00  0.00     0.029 A 
ATOM     65  C   UNL A   1      38.669  29.650  30.134  1.00  0.00     0.049 A 
ATOM     66  H   UNL A   1      40.721  30.069  30.091  1.00  0.00     0.167 HD
ATOM     67  C   UNL A   1      44.687  31.439  28.832  1.00  0.00     0.031 A 
ATOM     68  C   UNL A   1      38.109  30.807  30.565  1.00  0.00     0.031 A 
ATOM     69  C   UNL A   1      44.839  31.222  30.244  1.00  0.00     0.049 A 
ATOM     70  C   UNL A   1      39.194  31.635  31.148  1.00  0.00     0.074 A 
ATOM     71  C   UNL A   1      45.434  30.240  31.010  1.00  0.00     0.029 A 
ATOM     72  N   UNL A   1      44.014  31.919  31.095  1.00  0.00    -0.354 N 
ATOM     73  N   UNL A   1      39.840  31.313  32.233  1.00  0.00    -0.248 NA
ATOM     74  C   UNL A   1      39.858  32.608  30.293  1.00  0.00     0.031 C 
ATOM     75  C   UNL A   1      44.573  30.082  32.131  1.00  0.00     0.029 A 
ATOM     76  C   UNL A   1      43.542  31.018  32.016  1.00  0.00     0.049 A 
ATOM     77  H   UNL A   1      43.803  32.879  31.052  1.00  0.00     0.167 HD
ATOM     78  C   UNL A   1      41.152  31.693  31.992  1.00  0.00     0.074 A 
ATOM     79  C   UNL A   1      41.080  32.579  30.831  1.00  0.00     0.031 C 
ATOM     80  C   UNL A   1      42.203  31.040  32.573  1.00  0.00     0.031 A 
BRANCH  67  81
ATOM     81  C   UNL A   1      45.037  32.752  28.182  1.00  0.00    -0.014 A 
ATOM     82  C   UNL A   1      44.074  33.736  27.884  1.00  0.00     0.010 A 
ATOM     83  C   UNL A   1      46.392  33.136  28.079  1.00  0.00     0.010 A 
ATOM     84  C   UNL A   1      44.430  35.029  27.495  1.00  0.00     0.020 A 
ATOM     85  C   UNL A   1      46.761  34.444  27.732  1.00  0.00     0.020 A 
ATOM     86  C   UNL A   1      45.774  35.381  27.440  1.00  0.00     0.054 A 
BRANCH  86  87
ATOM     87  S   UNL A   1      46.190  37.105  27.071  1.00  0.00     0.124 S 
ATOM     88  O   UNL A   1      44.869  37.725  27.004  1.00  0.00    -0.237 OA
ATOM     89  O   UNL A   1      47.007  37.482  28.221  1.00  0.00    -0.237 OA
ATOM     90  O   UNL A   1      46.906  37.021  25.801  1.00  0.00    -0.744 OA
ENDBRANCH  86  87
ENDBRANCH  67  81
BRANCH  68  91
ATOM     91  C   UNL A   1      36.822  31.386  30.101  1.00  0.00    -0.014 A 
ATOM     92  C   UNL A   1      36.688  31.831  28.769  1.00  0.00     0.010 A 
ATOM     93  C   UNL A   1      35.840  31.782  31.027  1.00  0.00     0.010 A 
ATOM     94  C   UNL A   1      35.665  32.706  28.392  1.00  0.00     0.020 A 
ATOM     95  C   UNL A   1      34.812  32.667  30.657  1.00  0.00     0.020 A 
ATOM     96  C   UNL A   1      34.759  33.153  29.350  1.00  0.00     0.054 A 
BRANCH  96  97
ATOM     97  S   UNL A   1      33.588  34.456  28.873  1.00  0.00     0.124 S 
ATOM     98  O   UNL A   1      32.744  33.761  27.904  1.00  0.00    -0.237 OA
ATOM     99  O   UNL A   1      32.943  34.782  30.143  1.00  0.00    -0.237 OA
ATOM    100  O   UNL A   1      34.441  35.504  28.321  1.00  0.00    -0.744 OA
ENDBRANCH  96  97
ENDBRANCH  68  91
BRANCH  80 101
ATOM    101  C   UNL A   1      41.934  30.036  33.676  1.00  0.00    -0.014 A 
ATOM    102  C   UNL A   1      42.575  30.235  34.913  1.00  0.00     0.010 A 
ATOM    103  C   UNL A   1      41.268  28.812  33.462  1.00  0.00     0.010 A 
ATOM    104  C   UNL A   1      42.595  29.232  35.886  1.00  0.00     0.020 A 
ATOM    105  C   UNL A   1      41.257  27.812  34.446  1.00  0.00     0.020 A 
ATOM    106  C   UNL A   1      41.949  28.019  35.642  1.00  0.00     0.054 A 
BRANCH 106 107
ATOM    107  S   UNL A   1      42.068  26.714  36.895  1.00  0.00     0.124 S 
ATOM    108  O   UNL A   1      43.174  27.184  37.727  1.00  0.00    -0.237 OA
ATOM    109  O   UNL A   1      40.752  26.753  37.529  1.00  0.00    -0.237 OA
ATOM    110  O   UNL A   1      42.347  25.505  36.124  1.00  0.00    -0.744 OA
ENDBRANCH 106 107
ENDBRANCH  80 101
ENDBRANCH  54  55
ENDBRANCH  46  49
ENDBRANCH  44  45
ENDBRANCH  43  44
ENDBRANCH  42  43
ENDBRANCH   1  42
TORSDOF 22
ENDMDL
MODEL 3
REMARK VINA RESULT:     -12.4      1.696      2.268
REMARK SMILES Cc1coc2cc3c(cc12)[C@@H](C)[C@H](CCC(=O)N[C@@H](Cc1c[nH]c2ccccc12)C(=O)NCCCCCCNC(=O)c1ccc(-c2c4nc(c(-c5ccc(S(=O)(=O)[O-])cc5)c5ccc([nH]5)c(-c5ccc(S(=O)(=O)[O-])cc5)c5nc(c(-c6ccc(S(=O)(=O)[O-])cc6)c6ccc2[nH]6)C=C5)C=C4)cc1)C(=O)O3
REMARK SMILES IDX 35 1 34 2 33 3 32 4 30 5 31 6 19 8 18 9 16 10 17 11 15 13
REMARK SMILES IDX 14 14 13 15 1 16 2 17 3 18 10 19 4 20 5 21 9 22 6 23 8 24
REMARK SMILES IDX 7 25 11 26 104 27 12 28 102 29 103 30 20 31 21 32 22 33
REMARK SMILES IDX 29 34 23 35 24 36 28 37 25 39 27 40 26 41 36 42 37 43 38 44
REMARK SMILES IDX 39 45 40 46 41 48 42 49 43 50 101 51 44 52 100 53 45 54
REMARK SMILES IDX 46 55 47 56 94 57 48 58 99 59 93 60 95 61 49 62 98 63 92 64
REMARK SMILES IDX 91 65 50 67 80 68 61 69 79 70 62 71 65 72 78 73 96 74 63 75
REMARK SMILES IDX 64 76 77 78 97 79 66 80 51 81 52 82 60 83 53 84 59 85 54 86
REMARK SMILES IDX 55 87 56 88 57 89 58 90 81 91 82 92 90 93 83 94 89 95 84 96
REMARK SMILES IDX 85 97 86 98 87 99 88 100 67 101 68 102 76 103 69 104 75 105
REMARK SMILES IDX 70 106 71 107 72 108 73 109 74 110
REMARK H PARENT 32 7 18 12 23 38 39 47 95 66 65 77
REMARK Flexibility Score: inf
ROOT
ATOM      1  C   UNL A   1      39.413  21.868  25.999  1.00  0.00     0.002 C 
ENDROOT
BRANCH   1   2
ATOM      2  C   UNL A   1      38.896  23.239  26.406  1.00  0.00     0.021 C 
BRANCH   2   3
ATOM      3  C   UNL A   1      37.684  23.696  25.631  1.00  0.00     0.116 C 
BRANCH   3   4
ATOM      4  N   UNL A   1      37.636  23.314  24.251  1.00  0.00    -0.354 N 
ATOM      5  C   UNL A   1      36.495  23.178  23.504  1.00  0.00     0.242 C 
ATOM      6  O   UNL A   1      36.609  22.753  22.351  1.00  0.00    -0.273 OA
ATOM      7  H   UNL A   1      38.494  23.135  23.802  1.00  0.00     0.163 HD
BRANCH   5   8
ATOM      8  C   UNL A   1      35.089  23.488  24.119  1.00  0.00     0.175 C 
BRANCH   8   9
ATOM      9  N   UNL A   1      34.165  24.130  23.136  1.00  0.00    -0.344 N 
ATOM     10  C   UNL A   1      32.880  23.941  22.687  1.00  0.00     0.220 C 
ATOM     11  O   UNL A   1      32.493  24.756  21.836  1.00  0.00    -0.275 OA
ATOM     12  H   UNL A   1      34.593  24.896  22.688  1.00  0.00     0.164 HD
BRANCH  10  13
ATOM     13  C   UNL A   1      31.878  22.832  23.143  1.00  0.00     0.101 C 
BRANCH  13  14
ATOM     14  C   UNL A   1      30.836  23.122  24.337  1.00  0.00     0.026 C 
BRANCH  14  15
ATOM     15  C   UNL A   1      31.391  22.943  25.810  1.00  0.00     0.107 C 
ATOM     16  C   UNL A   1      34.770  29.216  27.075  1.00  0.00     0.048 C 
ATOM     17  C   UNL A   1      33.635  28.835  26.210  1.00  0.00    -0.005 A 
ATOM     18  C   UNL A   1      32.842  29.691  25.469  1.00  0.00     0.199 A 
ATOM     19  C   UNL A   1      33.080  27.530  26.031  1.00  0.00     0.024 A 
ATOM     20  O   UNL A   1      31.809  29.024  24.899  1.00  0.00    -0.464 OA
ATOM     21  C   UNL A   1      31.904  27.737  25.319  1.00  0.00     0.137 A 
ATOM     22  C   UNL A   1      33.401  26.207  26.425  1.00  0.00     0.020 A 
ATOM     23  C   UNL A   1      30.926  26.776  25.156  1.00  0.00     0.095 A 
ATOM     24  C   UNL A   1      32.434  25.213  26.239  1.00  0.00    -0.001 A 
ATOM     25  C   UNL A   1      31.169  25.609  25.853  1.00  0.00     0.138 A 
ATOM     26  C   UNL A   1      32.591  23.731  26.478  1.00  0.00     0.034 C 
ATOM     27  O   UNL A   1      30.094  24.818  26.324  1.00  0.00    -0.426 OA
ATOM     28  C   UNL A   1      32.609  23.508  28.017  1.00  0.00     0.014 C 
ATOM     29  C   UNL A   1      30.280  23.460  26.597  1.00  0.00     0.314 C 
ATOM     30  O   UNL A   1      29.550  22.729  27.275  1.00  0.00    -0.251 OA
ENDBRANCH  14  15
ENDBRANCH  13  14
ENDBRANCH  10  13
ENDBRANCH   8   9
BRANCH   8  31
ATOM     31  C   UNL A   1      34.637  22.292  25.052  1.00  0.00     0.072 C 
BRANCH  31  32
ATOM     32  C   UNL A   1      34.860  20.779  24.920  1.00  0.00    -0.020 A 
ATOM     33  C   UNL A   1      36.120  20.265  25.215  1.00  0.00     0.087 A 
ATOM     34  C   UNL A   1      34.084  19.627  24.498  1.00  0.00     0.003 A 
ATOM     35  N   UNL A   1      36.164  18.933  24.927  1.00  0.00    -0.361 N 
ATOM     36  C   UNL A   1      34.945  18.521  24.457  1.00  0.00     0.046 A 
ATOM     37  C   UNL A   1      32.760  19.387  24.064  1.00  0.00     0.010 A 
ATOM     38  H   UNL A   1      36.952  18.354  25.040  1.00  0.00     0.166 HD
ATOM     39  C   UNL A   1      34.565  17.255  23.980  1.00  0.00     0.026 A 
ATOM     40  C   UNL A   1      32.351  18.129  23.604  1.00  0.00     0.001 A 
ATOM     41  C   UNL A   1      33.253  17.081  23.546  1.00  0.00     0.002 A 
ENDBRANCH  31  32
ENDBRANCH   8  31
ENDBRANCH   5   8
ENDBRANCH   3   4
ENDBRANCH   2   3
ENDBRANCH   1   2
BRANCH   1  42
ATOM     42  C   UNL A   1      40.264  21.118  27.033  1.00  0.00     0.002 C 
BRANCH  42  43
ATOM     43  C   UNL A   1      41.379  20.201  26.514  1.00  0.00     0.021 C 
BRANCH  43  44
ATOM     44  C   UNL A   1      42.801  20.755  26.562  1.00  0.00     0.116 C 
BRANCH  44  45
ATOM     45  N   UNL A   1      43.234  21.393  25.339  1.00  0.00    -0.352 N 
ATOM     46  C   UNL A   1      43.394  22.681  24.924  1.00  0.00     0.251 C 
ATOM     47  H   UNL A   1      43.468  20.742  24.638  1.00  0.00     0.163 HD
ATOM     48  O   UNL A   1      43.779  22.835  23.763  1.00  0.00    -0.269 OA
BRANCH  46  49
ATOM     49  C   UNL A   1      43.097  23.880  25.749  1.00  0.00     0.039 A 
ATOM     50  C   UNL A   1      42.060  24.786  25.520  1.00  0.00     0.014 A 
ATOM     51  C   UNL A   1      43.945  24.086  26.851  1.00  0.00     0.014 A 
ATOM     52  C   UNL A   1      41.935  25.924  26.309  1.00  0.00     0.010 A 
ATOM     53  C   UNL A   1      43.802  25.202  27.664  1.00  0.00     0.010 A 
ATOM     54  C   UNL A   1      42.824  26.146  27.361  1.00  0.00    -0.014 A 
BRANCH  54  55
ATOM     55  C   UNL A   1      42.644  27.348  28.167  1.00  0.00     0.031 A 
ATOM     56  C   UNL A   1      43.659  28.425  27.974  1.00  0.00     0.074 A 
ATOM     57  C   UNL A   1      41.571  27.543  28.957  1.00  0.00     0.049 A 
ATOM     58  N   UNL A   1      44.439  28.954  28.858  1.00  0.00    -0.248 NA
ATOM     59  C   UNL A   1      43.889  28.913  26.606  1.00  0.00     0.031 C 
ATOM     60  C   UNL A   1      40.356  26.731  29.050  1.00  0.00     0.029 A 
ATOM     61  N   UNL A   1      41.293  28.608  29.759  1.00  0.00    -0.354 N 
ATOM     62  C   UNL A   1      45.160  29.951  28.202  1.00  0.00     0.074 A 
ATOM     63  C   UNL A   1      44.860  29.806  26.798  1.00  0.00     0.031 C 
ATOM     64  C   UNL A   1      39.385  27.458  29.647  1.00  0.00     0.029 A 
ATOM     65  C   UNL A   1      39.954  28.714  30.105  1.00  0.00     0.049 A 
ATOM     66  H   UNL A   1      41.980  29.243  30.066  1.00  0.00     0.167 HD
ATOM     67  C   UNL A   1      45.845  30.923  28.867  1.00  0.00     0.031 A 
ATOM     68  C   UNL A   1      39.344  29.799  30.642  1.00  0.00     0.031 A 
ATOM     69  C   UNL A   1      46.035  30.596  30.253  1.00  0.00     0.049 A 
ATOM     70  C   UNL A   1      40.396  30.631  31.277  1.00  0.00     0.074 A 
ATOM     71  C   UNL A   1      46.696  29.586  30.922  1.00  0.00     0.029 A 
ATOM     72  N   UNL A   1      45.194  31.173  31.174  1.00  0.00    -0.354 N 
ATOM     73  N   UNL A   1      41.079  30.253  32.321  1.00  0.00    -0.248 NA
ATOM     74  C   UNL A   1      40.992  31.707  30.499  1.00  0.00     0.031 C 
ATOM     75  C   UNL A   1      45.867  29.288  32.039  1.00  0.00     0.029 A 
ATOM     76  C   UNL A   1      44.786  30.174  32.021  1.00  0.00     0.049 A 
ATOM     77  H   UNL A   1      44.932  32.121  31.217  1.00  0.00     0.167 HD
ATOM     78  C   UNL A   1      42.365  30.721  32.093  1.00  0.00     0.074 A 
ATOM     79  C   UNL A   1      42.225  31.697  31.013  1.00  0.00     0.031 C 
ATOM     80  C   UNL A   1      43.460  30.078  32.599  1.00  0.00     0.031 A 
BRANCH  67  81
ATOM     81  C   UNL A   1      46.113  32.304  28.327  1.00  0.00    -0.014 A 
ATOM     82  C   UNL A   1      45.435  32.831  27.210  1.00  0.00     0.010 A 
ATOM     83  C   UNL A   1      46.886  33.208  29.088  1.00  0.00     0.010 A 
ATOM     84  C   UNL A   1      45.524  34.180  26.858  1.00  0.00     0.020 A 
ATOM     85  C   UNL A   1      46.947  34.573  28.769  1.00  0.00     0.020 A 
ATOM     86  C   UNL A   1      46.265  35.047  27.651  1.00  0.00     0.054 A 
BRANCH  86  87
ATOM     87  S   UNL A   1      46.238  36.811  27.242  1.00  0.00     0.124 S 
ATOM     88  O   UNL A   1      47.141  36.867  26.095  1.00  0.00    -0.237 OA
ATOM     89  O   UNL A   1      44.826  37.042  26.946  1.00  0.00    -0.237 OA
ATOM     90  O   UNL A   1      46.731  37.453  28.458  1.00  0.00    -0.744 OA
ENDBRANCH  86  87
ENDBRANCH  67  81
BRANCH  68  91
ATOM     91  C   UNL A   1      38.020  30.346  30.250  1.00  0.00    -0.014 A 
ATOM     92  C   UNL A   1      37.823  30.853  28.948  1.00  0.00     0.010 A 
ATOM     93  C   UNL A   1      37.054  30.652  31.225  1.00  0.00     0.010 A 
ATOM     94  C   UNL A   1      36.754  31.702  28.649  1.00  0.00     0.020 A 
ATOM     95  C   UNL A   1      35.979  31.511  30.935  1.00  0.00     0.020 A 
ATOM     96  C   UNL A   1      35.863  32.061  29.658  1.00  0.00     0.054 A 
BRANCH  96  97
ATOM     97  S   UNL A   1      34.625  33.335  29.287  1.00  0.00     0.124 S 
ATOM     98  O   UNL A   1      33.839  32.694  28.236  1.00  0.00    -0.237 OA
ATOM     99  O   UNL A   1      33.943  33.496  30.569  1.00  0.00    -0.237 OA
ATOM    100  O   UNL A   1      35.423  34.481  28.860  1.00  0.00    -0.744 OA
ENDBRANCH  96  97
ENDBRANCH  68  91
BRANCH  80 101
ATOM    101  C   UNL A   1      43.265  28.971  33.616  1.00  0.00    -0.014 A 
ATOM    102  C   UNL A   1      42.880  27.704  33.140  1.00  0.00     0.010 A 
ATOM    103  C   UNL A   1      43.229  29.198  35.008  1.00  0.00     0.010 A 
ATOM    104  C   UNL A   1      42.428  26.711  34.013  1.00  0.00     0.020 A 
ATOM    105  C   UNL A   1      42.805  28.195  35.893  1.00  0.00     0.020 A 
ATOM    106  C   UNL A   1      42.378  26.967  35.385  1.00  0.00     0.054 A 
BRANCH 106 107
ATOM    107  S   UNL A   1      41.708  25.681  36.475  1.00  0.00     0.124 S 
ATOM    108  O   UNL A   1      40.470  25.311  35.792  1.00  0.00    -0.237 OA
ATOM    109  O   UNL A   1      42.756  24.664  36.459  1.00  0.00    -0.237 OA
ATOM    110  O   UNL A   1      41.527  26.361  37.756  1.00  0.00    -0.744 OA
ENDBRANCH 106 107
ENDBRANCH  80 101
ENDBRANCH  54  55
ENDBRANCH  46  49
ENDBRANCH  44  45
ENDBRANCH  43  44
ENDBRANCH  42  43
ENDBRANCH   1  42
TORSDOF 22
ENDMDL
