MODEL 1
REMARK VINA RESULT:     -11.5      0.000      0.000
REMARK SMILES O=C(CCc1ccccc1)Nc1ccccc1Oc1ccsc1C(=O)NCCCCCCNC(=O)c1ccc(-c2c3nc(c(-c4ccc(S(=O)(=O)[O-])cc4)c4ccc([nH]4)c(-c4ccc(S(=O)(=O)[O-])cc4)c4nc(c(-c5ccc(S(=O)(=O)[O-])cc5)c5ccc2[nH]5)C=C4)C=C3)cc1
REMARK SMILES IDX 28 1 27 2 26 3 24 4 25 5 23 7 19 8 20 9 21 10 22 11 18 12
REMARK SMILES IDX 17 13 12 14 13 15 14 16 16 17 15 18 11 19 1 20 2 21 3 23
REMARK SMILES IDX 4 24 5 25 6 26 10 27 7 28 9 29 8 30 29 31 30 32 31 33 32 34
REMARK SMILES IDX 33 35 34 36 35 38 36 39 37 40 95 41 38 42 94 43 39 44 40 45
REMARK SMILES IDX 41 46 88 47 42 48 93 49 87 50 89 51 43 52 92 53 86 54 85 55
REMARK SMILES IDX 44 57 74 58 55 59 73 60 56 61 59 62 72 63 90 64 57 65 58 66
REMARK SMILES IDX 71 68 91 69 60 70 45 71 46 72 54 73 47 74 53 75 48 76 49 77
REMARK SMILES IDX 50 78 51 79 52 80 75 81 76 82 84 83 77 84 83 85 78 86 79 87
REMARK SMILES IDX 80 88 81 89 82 90 61 91 62 92 70 93 63 94 69 95 64 96 65 97
REMARK SMILES IDX 66 98 67 99 68 100
REMARK H PARENT 26 6 11 22 33 37 89 56 59 67
REMARK Flexibility Score: inf
ROOT
ATOM      1  C   UNL A   1      35.726  23.956  25.240  1.00  0.00     0.021 C 
ENDROOT
BRANCH   1   2
ATOM      2  C   UNL A   1      34.710  24.603  24.313  1.00  0.00     0.116 C 
BRANCH   2   3
ATOM      3  N   UNL A   1      34.451  23.967  23.055  1.00  0.00    -0.351 N 
ATOM      4  C   UNL A   1      33.295  23.969  22.297  1.00  0.00     0.265 C 
ATOM      5  O   UNL A   1      33.389  23.290  21.265  1.00  0.00    -0.268 OA
ATOM      6  H   UNL A   1      35.203  23.455  22.677  1.00  0.00     0.163 HD
BRANCH   4   7
ATOM      7  C   UNL A   1      32.053  24.687  22.651  1.00  0.00     0.135 A 
ATOM      8  C   UNL A   1      30.939  24.452  23.452  1.00  0.00     0.151 A 
ATOM      9  C   UNL A   1      30.012  25.537  23.493  1.00  0.00     0.059 A 
ATOM     10  C   UNL A   1      30.403  26.584  22.696  1.00  0.00     0.069 A 
ATOM     11  S   UNL A   1      31.880  26.263  21.912  1.00  0.00    -0.135 S 
BRANCH   8  12
ATOM     12  O   UNL A   1      30.823  23.388  24.267  1.00  0.00    -0.453 OA
BRANCH  12  13
ATOM     13  C   UNL A   1      31.655  23.068  25.319  1.00  0.00     0.151 A 
ATOM     14  C   UNL A   1      31.888  23.739  26.530  1.00  0.00     0.084 A 
ATOM     15  C   UNL A   1      32.726  23.137  27.488  1.00  0.00     0.030 A 
ATOM     16  C   UNL A   1      33.273  21.869  27.285  1.00  0.00     0.002 A 
ATOM     17  C   UNL A   1      32.258  21.811  25.112  1.00  0.00     0.049 A 
ATOM     18  C   UNL A   1      33.047  21.207  26.089  1.00  0.00     0.004 A 
BRANCH  14  19
ATOM     19  N   UNL A   1      31.451  25.034  26.863  1.00  0.00    -0.323 N 
ATOM     20  O   UNL A   1      32.772  26.367  25.514  1.00  0.00    -0.275 OA
ATOM     21  C   UNL A   1      31.995  26.234  26.452  1.00  0.00     0.224 C 
ATOM     22  H   UNL A   1      30.667  25.090  27.457  1.00  0.00     0.170 HD
BRANCH  21  23
ATOM     23  C   UNL A   1      31.563  27.434  27.293  1.00  0.00     0.105 C 
BRANCH  23  24
ATOM     24  C   UNL A   1      31.690  28.817  26.653  1.00  0.00     0.045 C 
BRANCH  24  25
ATOM     25  C   UNL A   1      32.969  29.555  26.971  1.00  0.00    -0.048 A 
ATOM     26  C   UNL A   1      34.197  28.884  27.093  1.00  0.00     0.004 A 
ATOM     27  C   UNL A   1      32.920  30.930  27.237  1.00  0.00     0.004 A 
ATOM     28  C   UNL A   1      35.316  29.549  27.598  1.00  0.00     0.000 A 
ATOM     29  C   UNL A   1      34.050  31.599  27.706  1.00  0.00     0.000 A 
ATOM     30  C   UNL A   1      35.238  30.903  27.914  1.00  0.00     0.000 A 
ENDBRANCH  24  25
ENDBRANCH  23  24
ENDBRANCH  21  23
ENDBRANCH  14  19
ENDBRANCH  12  13
ENDBRANCH   8  12
ENDBRANCH   4   7
ENDBRANCH   2   3
ENDBRANCH   1   2
BRANCH   1  31
ATOM     31  C   UNL A   1      36.649  22.908  24.635  1.00  0.00     0.002 C 
BRANCH  31  32
ATOM     32  C   UNL A   1      37.965  22.626  25.364  1.00  0.00     0.002 C 
BRANCH  32  33
ATOM     33  C   UNL A   1      38.393  23.598  26.468  1.00  0.00     0.021 C 
BRANCH  33  34
ATOM     34  C   UNL A   1      39.797  23.426  27.041  1.00  0.00     0.116 C 
BRANCH  34  35
ATOM     35  N   UNL A   1      40.832  23.960  26.174  1.00  0.00    -0.352 N 
ATOM     36  C   UNL A   1      41.492  25.161  26.202  1.00  0.00     0.251 C 
ATOM     37  H   UNL A   1      41.106  23.358  25.445  1.00  0.00     0.163 HD
ATOM     38  O   UNL A   1      42.251  25.442  25.272  1.00  0.00    -0.269 OA
BRANCH  36  39
ATOM     39  C   UNL A   1      41.298  26.134  27.304  1.00  0.00     0.039 A 
ATOM     40  C   UNL A   1      40.283  25.883  28.234  1.00  0.00     0.014 A 
ATOM     41  C   UNL A   1      42.050  27.308  27.406  1.00  0.00     0.014 A 
ATOM     42  C   UNL A   1      40.057  26.775  29.285  1.00  0.00     0.010 A 
ATOM     43  C   UNL A   1      41.867  28.167  28.494  1.00  0.00     0.010 A 
ATOM     44  C   UNL A   1      40.866  27.913  29.443  1.00  0.00    -0.014 A 
BRANCH  44  45
ATOM     45  C   UNL A   1      40.672  28.821  30.605  1.00  0.00     0.031 A 
ATOM     46  C   UNL A   1      41.509  28.680  31.848  1.00  0.00     0.074 A 
ATOM     47  C   UNL A   1      39.711  29.765  30.553  1.00  0.00     0.049 A 
ATOM     48  N   UNL A   1      41.487  29.398  32.943  1.00  0.00    -0.248 NA
ATOM     49  C   UNL A   1      42.482  27.577  31.873  1.00  0.00     0.031 C 
ATOM     50  C   UNL A   1      38.791  29.973  29.432  1.00  0.00     0.029 A 
ATOM     51  N   UNL A   1      39.346  30.724  31.465  1.00  0.00    -0.354 N 
ATOM     52  C   UNL A   1      42.437  28.834  33.788  1.00  0.00     0.074 A 
ATOM     53  C   UNL A   1      42.976  27.681  33.099  1.00  0.00     0.031 C 
ATOM     54  C   UNL A   1      37.986  31.010  29.711  1.00  0.00     0.029 A 
ATOM     55  C   UNL A   1      38.310  31.522  31.040  1.00  0.00     0.049 A 
ATOM     56  H   UNL A   1      39.784  30.831  32.340  1.00  0.00     0.167 HD
ATOM     57  C   UNL A   1      42.840  29.248  35.015  1.00  0.00     0.031 A 
ATOM     58  C   UNL A   1      37.687  32.551  31.645  1.00  0.00     0.031 A 
ATOM     59  C   UNL A   1      42.297  30.389  35.707  1.00  0.00     0.049 A 
ATOM     60  C   UNL A   1      38.157  33.003  32.999  1.00  0.00     0.074 A 
ATOM     61  C   UNL A   1      42.668  30.913  36.933  1.00  0.00     0.029 A 
ATOM     62  N   UNL A   1      41.260  31.182  35.234  1.00  0.00    -0.354 N 
ATOM     63  N   UNL A   1      39.104  32.499  33.752  1.00  0.00    -0.248 NA
ATOM     64  C   UNL A   1      37.486  34.177  33.573  1.00  0.00     0.031 C 
ATOM     65  C   UNL A   1      41.824  31.992  37.225  1.00  0.00     0.029 A 
ATOM     66  C   UNL A   1      40.964  32.176  36.154  1.00  0.00     0.049 A 
ATOM     67  H   UNL A   1      40.802  31.057  34.373  1.00  0.00     0.167 HD
ATOM     68  C   UNL A   1      39.154  33.301  34.886  1.00  0.00     0.074 A 
ATOM     69  C   UNL A   1      38.158  34.339  34.705  1.00  0.00     0.031 C 
ATOM     70  C   UNL A   1      39.951  33.188  35.978  1.00  0.00     0.031 A 
BRANCH  57  71
ATOM     71  C   UNL A   1      43.922  28.441  35.690  1.00  0.00    -0.014 A 
ATOM     72  C   UNL A   1      45.280  28.656  35.392  1.00  0.00     0.010 A 
ATOM     73  C   UNL A   1      43.578  27.458  36.636  1.00  0.00     0.010 A 
ATOM     74  C   UNL A   1      46.269  27.861  35.977  1.00  0.00     0.020 A 
ATOM     75  C   UNL A   1      44.568  26.681  37.247  1.00  0.00     0.020 A 
ATOM     76  C   UNL A   1      45.906  26.871  36.893  1.00  0.00     0.054 A 
BRANCH  76  77
ATOM     77  S   UNL A   1      47.207  25.840  37.625  1.00  0.00     0.124 S 
ATOM     78  O   UNL A   1      46.472  24.620  37.955  1.00  0.00    -0.237 OA
ATOM     79  O   UNL A   1      48.170  25.715  36.535  1.00  0.00    -0.237 OA
ATOM     80  O   UNL A   1      47.664  26.620  38.772  1.00  0.00    -0.744 OA
ENDBRANCH  76  77
ENDBRANCH  57  71
BRANCH  58  81
ATOM     81  C   UNL A   1      36.560  33.231  30.952  1.00  0.00    -0.014 A 
ATOM     82  C   UNL A   1      35.277  33.259  31.525  1.00  0.00     0.010 A 
ATOM     83  C   UNL A   1      36.782  33.901  29.735  1.00  0.00     0.010 A 
ATOM     84  C   UNL A   1      34.236  33.945  30.892  1.00  0.00     0.020 A 
ATOM     85  C   UNL A   1      35.752  34.609  29.113  1.00  0.00     0.020 A 
ATOM     86  C   UNL A   1      34.481  34.622  29.693  1.00  0.00     0.054 A 
BRANCH  86  87
ATOM     87  S   UNL A   1      33.140  35.580  28.936  1.00  0.00     0.124 S 
ATOM     88  O   UNL A   1      33.877  36.572  28.159  1.00  0.00    -0.237 OA
ATOM     89  O   UNL A   1      32.426  34.569  28.161  1.00  0.00    -0.237 OA
ATOM     90  O   UNL A   1      32.404  36.104  30.086  1.00  0.00    -0.744 OA
ENDBRANCH  86  87
ENDBRANCH  58  81
BRANCH  70  91
ATOM     91  C   UNL A   1      39.780  34.223  37.060  1.00  0.00    -0.014 A 
ATOM     92  C   UNL A   1      40.238  35.541  36.885  1.00  0.00     0.010 A 
ATOM     93  C   UNL A   1      39.141  33.875  38.264  1.00  0.00     0.010 A 
ATOM     94  C   UNL A   1      40.107  36.478  37.913  1.00  0.00     0.020 A 
ATOM     95  C   UNL A   1      38.982  34.817  39.284  1.00  0.00     0.020 A 
ATOM     96  C   UNL A   1      39.487  36.107  39.110  1.00  0.00     0.054 A 
BRANCH  96  97
ATOM     97  S   UNL A   1      39.322  37.342  40.429  1.00  0.00     0.124 S 
ATOM     98  O   UNL A   1      38.628  36.583  41.467  1.00  0.00    -0.237 OA
ATOM     99  O   UNL A   1      40.711  37.686  40.725  1.00  0.00    -0.237 OA
ATOM    100  O   UNL A   1      38.541  38.410  39.809  1.00  0.00    -0.744 OA
ENDBRANCH  96  97
ENDBRANCH  70  91
ENDBRANCH  44  45
ENDBRANCH  36  39
ENDBRANCH  34  35
ENDBRANCH  33  34
ENDBRANCH  32  33
ENDBRANCH  31  32
ENDBRANCH   1  31
TORSDOF 22
ENDMDL
MODEL 2
REMARK VINA RESULT:     -11.3      0.571      7.792
REMARK SMILES O=C(CCc1ccccc1)Nc1ccccc1Oc1ccsc1C(=O)NCCCCCCNC(=O)c1ccc(-c2c3nc(c(-c4ccc(S(=O)(=O)[O-])cc4)c4ccc([nH]4)c(-c4ccc(S(=O)(=O)[O-])cc4)c4nc(c(-c5ccc(S(=O)(=O)[O-])cc5)c5ccc2[nH]5)C=C4)C=C3)cc1
REMARK SMILES IDX 28 1 27 2 26 3 24 4 25 5 23 7 19 8 20 9 21 10 22 11 18 12
REMARK SMILES IDX 17 13 12 14 13 15 14 16 16 17 15 18 11 19 1 20 2 21 3 23
REMARK SMILES IDX 4 24 5 25 6 26 10 27 7 28 9 29 8 30 29 31 30 32 31 33 32 34
REMARK SMILES IDX 33 35 34 36 35 38 36 39 37 40 95 41 38 42 94 43 39 44 40 45
REMARK SMILES IDX 41 46 88 47 42 48 93 49 87 50 89 51 43 52 92 53 86 54 85 55
REMARK SMILES IDX 44 57 74 58 55 59 73 60 56 61 59 62 72 63 90 64 57 65 58 66
REMARK SMILES IDX 71 68 91 69 60 70 45 71 46 72 54 73 47 74 53 75 48 76 49 77
REMARK SMILES IDX 50 78 51 79 52 80 75 81 76 82 84 83 77 84 83 85 78 86 79 87
REMARK SMILES IDX 80 88 81 89 82 90 61 91 62 92 70 93 63 94 69 95 64 96 65 97
REMARK SMILES IDX 66 98 67 99 68 100
REMARK H PARENT 26 6 11 22 33 37 89 56 59 67
REMARK Flexibility Score: inf
ROOT
ATOM      1  C   UNL A   1      35.435  23.921  25.298  1.00  0.00     0.021 C 
ENDROOT
BRANCH   1   2
ATOM      2  C   UNL A   1      34.805  24.710  24.162  1.00  0.00     0.116 C 
BRANCH   2   3
ATOM      3  N   UNL A   1      34.468  24.003  22.962  1.00  0.00    -0.351 N 
ATOM      4  C   UNL A   1      33.290  24.023  22.239  1.00  0.00     0.265 C 
ATOM      5  O   UNL A   1      33.309  23.268  21.257  1.00  0.00    -0.268 OA
ATOM      6  H   UNL A   1      35.176  23.421  22.601  1.00  0.00     0.163 HD
BRANCH   4   7
ATOM      7  C   UNL A   1      32.105  24.838  22.575  1.00  0.00     0.135 A 
ATOM      8  C   UNL A   1      30.963  24.693  23.359  1.00  0.00     0.151 A 
ATOM      9  C   UNL A   1      30.126  25.851  23.387  1.00  0.00     0.059 A 
ATOM     10  C   UNL A   1      30.613  26.863  22.598  1.00  0.00     0.069 A 
ATOM     11  S   UNL A   1      32.071  26.423  21.836  1.00  0.00    -0.135 S 
BRANCH   8  12
ATOM     12  O   UNL A   1      30.749  23.642  24.169  1.00  0.00    -0.453 OA
BRANCH  12  13
ATOM     13  C   UNL A   1      31.542  23.248  25.226  1.00  0.00     0.151 A 
ATOM     14  C   UNL A   1      31.775  23.864  26.466  1.00  0.00     0.084 A 
ATOM     15  C   UNL A   1      32.566  23.191  27.419  1.00  0.00     0.030 A 
ATOM     16  C   UNL A   1      33.063  21.910  27.180  1.00  0.00     0.002 A 
ATOM     17  C   UNL A   1      32.097  21.975  24.985  1.00  0.00     0.049 A 
ATOM     18  C   UNL A   1      32.837  21.302  25.954  1.00  0.00     0.004 A 
BRANCH  14  19
ATOM     19  N   UNL A   1      31.385  25.163  26.839  1.00  0.00    -0.323 N 
ATOM     20  O   UNL A   1      32.784  26.487  25.561  1.00  0.00    -0.275 OA
ATOM     21  C   UNL A   1      31.985  26.353  26.480  1.00  0.00     0.224 C 
ATOM     22  H   UNL A   1      30.594  25.230  27.422  1.00  0.00     0.170 HD
BRANCH  21  23
ATOM     23  C   UNL A   1      31.587  27.539  27.356  1.00  0.00     0.105 C 
BRANCH  23  24
ATOM     24  C   UNL A   1      31.742  28.936  26.754  1.00  0.00     0.045 C 
BRANCH  24  25
ATOM     25  C   UNL A   1      33.030  29.645  27.102  1.00  0.00    -0.048 A 
ATOM     26  C   UNL A   1      34.225  28.940  27.320  1.00  0.00     0.004 A 
ATOM     27  C   UNL A   1      33.017  31.033  27.300  1.00  0.00     0.004 A 
ATOM     28  C   UNL A   1      35.340  29.592  27.851  1.00  0.00     0.000 A 
ATOM     29  C   UNL A   1      34.145  31.686  27.795  1.00  0.00     0.000 A 
ATOM     30  C   UNL A   1      35.295  30.962  28.098  1.00  0.00     0.000 A 
ENDBRANCH  24  25
ENDBRANCH  23  24
ENDBRANCH  21  23
ENDBRANCH  14  19
ENDBRANCH  12  13
ENDBRANCH   8  12
ENDBRANCH   4   7
ENDBRANCH   2   3
ENDBRANCH   1   2
BRANCH   1  31
ATOM     31  C   UNL A   1      36.310  22.735  24.917  1.00  0.00     0.002 C 
BRANCH  31  32
ATOM     32  C   UNL A   1      37.703  22.659  25.545  1.00  0.00     0.002 C 
BRANCH  32  33
ATOM     33  C   UNL A   1      38.180  23.857  26.373  1.00  0.00     0.021 C 
BRANCH  33  34
ATOM     34  C   UNL A   1      39.602  23.800  26.925  1.00  0.00     0.116 C 
BRANCH  34  35
ATOM     35  N   UNL A   1      40.585  24.365  26.019  1.00  0.00    -0.352 N 
ATOM     36  C   UNL A   1      41.242  25.567  26.047  1.00  0.00     0.251 C 
ATOM     37  H   UNL A   1      40.820  23.787  25.258  1.00  0.00     0.163 HD
ATOM     38  O   UNL A   1      41.947  25.881  25.085  1.00  0.00    -0.269 OA
BRANCH  36  39
ATOM     39  C   UNL A   1      41.107  26.506  27.187  1.00  0.00     0.039 A 
ATOM     40  C   UNL A   1      40.210  26.176  28.209  1.00  0.00     0.014 A 
ATOM     41  C   UNL A   1      41.796  27.721  27.242  1.00  0.00     0.014 A 
ATOM     42  C   UNL A   1      40.042  27.032  29.300  1.00  0.00     0.010 A 
ATOM     43  C   UNL A   1      41.677  28.545  28.364  1.00  0.00     0.010 A 
ATOM     44  C   UNL A   1      40.796  28.213  29.404  1.00  0.00    -0.014 A 
BRANCH  44  45
ATOM     45  C   UNL A   1      40.671  29.085  30.603  1.00  0.00     0.031 A 
ATOM     46  C   UNL A   1      39.613  30.153  30.680  1.00  0.00     0.074 A 
ATOM     47  C   UNL A   1      41.539  28.933  31.623  1.00  0.00     0.049 A 
ATOM     48  N   UNL A   1      39.351  30.985  31.656  1.00  0.00    -0.248 NA
ATOM     49  C   UNL A   1      38.753  30.323  29.499  1.00  0.00     0.031 C 
ATOM     50  C   UNL A   1      42.647  27.975  31.654  1.00  0.00     0.029 A 
ATOM     51  N   UNL A   1      41.628  29.583  32.829  1.00  0.00    -0.354 N 
ATOM     52  C   UNL A   1      38.300  31.779  31.209  1.00  0.00     0.074 A 
ATOM     53  C   UNL A   1      38.012  31.364  29.852  1.00  0.00     0.031 C 
ATOM     54  C   UNL A   1      43.288  28.083  32.828  1.00  0.00     0.029 A 
ATOM     55  C   UNL A   1      42.657  29.134  33.622  1.00  0.00     0.049 A 
ATOM     56  H   UNL A   1      41.013  30.302  33.100  1.00  0.00     0.167 HD
ATOM     57  C   UNL A   1      37.622  32.749  31.870  1.00  0.00     0.031 A 
ATOM     58  C   UNL A   1      43.055  29.520  34.850  1.00  0.00     0.031 A 
ATOM     59  C   UNL A   1      37.914  33.170  33.217  1.00  0.00     0.049 A 
ATOM     60  C   UNL A   1      42.283  30.587  35.573  1.00  0.00     0.074 A 
ATOM     61  C   UNL A   1      37.258  34.114  33.988  1.00  0.00     0.029 A 
ATOM     62  N   UNL A   1      38.954  32.678  33.993  1.00  0.00    -0.354 N 
ATOM     63  N   UNL A   1      41.248  31.277  35.158  1.00  0.00    -0.248 NA
ATOM     64  C   UNL A   1      42.720  30.910  36.937  1.00  0.00     0.031 C 
ATOM     65  C   UNL A   1      37.930  34.228  35.212  1.00  0.00     0.029 A 
ATOM     66  C   UNL A   1      38.971  33.314  35.225  1.00  0.00     0.049 A 
ATOM     67  H   UNL A   1      39.588  31.980  33.710  1.00  0.00     0.167 HD
ATOM     68  C   UNL A   1      40.901  32.110  36.215  1.00  0.00     0.074 A 
ATOM     69  C   UNL A   1      41.821  31.816  37.296  1.00  0.00     0.031 C 
ATOM     70  C   UNL A   1      39.910  33.035  36.284  1.00  0.00     0.031 A 
BRANCH  57  71
ATOM     71  C   UNL A   1      36.497  33.428  31.129  1.00  0.00    -0.014 A 
ATOM     72  C   UNL A   1      36.708  34.010  29.865  1.00  0.00     0.010 A 
ATOM     73  C   UNL A   1      35.213  33.484  31.699  1.00  0.00     0.010 A 
ATOM     74  C   UNL A   1      35.676  34.690  29.216  1.00  0.00     0.020 A 
ATOM     75  C   UNL A   1      34.168  34.138  31.038  1.00  0.00     0.020 A 
ATOM     76  C   UNL A   1      34.414  34.760  29.811  1.00  0.00     0.054 A 
BRANCH  76  77
ATOM     77  S   UNL A   1      33.094  35.665  28.957  1.00  0.00     0.124 S 
ATOM     78  O   UNL A   1      33.854  36.654  28.195  1.00  0.00    -0.237 OA
ATOM     79  O   UNL A   1      32.450  34.622  28.163  1.00  0.00    -0.237 OA
ATOM     80  O   UNL A   1      32.283  36.205  30.045  1.00  0.00    -0.744 OA
ENDBRANCH  76  77
ENDBRANCH  57  71
BRANCH  58  81
ATOM     81  C   UNL A   1      44.238  28.867  35.472  1.00  0.00    -0.014 A 
ATOM     82  C   UNL A   1      44.087  27.726  36.279  1.00  0.00     0.010 A 
ATOM     83  C   UNL A   1      45.531  29.358  35.214  1.00  0.00     0.010 A 
ATOM     84  C   UNL A   1      45.209  27.088  36.817  1.00  0.00     0.020 A 
ATOM     85  C   UNL A   1      46.655  28.708  35.727  1.00  0.00     0.020 A 
ATOM     86  C   UNL A   1      46.487  27.579  36.531  1.00  0.00     0.054 A 
BRANCH  86  87
ATOM     87  S   UNL A   1      47.932  26.683  37.165  1.00  0.00     0.124 S 
ATOM     88  O   UNL A   1      47.647  25.314  36.747  1.00  0.00    -0.237 OA
ATOM     89  O   UNL A   1      49.040  27.340  36.475  1.00  0.00    -0.237 OA
ATOM     90  O   UNL A   1      47.877  26.924  38.606  1.00  0.00    -0.744 OA
ENDBRANCH  86  87
ENDBRANCH  58  81
BRANCH  70  91
ATOM     91  C   UNL A   1      39.769  33.791  37.580  1.00  0.00    -0.014 A 
ATOM     92  C   UNL A   1      38.902  33.342  38.593  1.00  0.00     0.010 A 
ATOM     93  C   UNL A   1      40.523  34.958  37.793  1.00  0.00     0.010 A 
ATOM     94  C   UNL A   1      38.753  34.076  39.773  1.00  0.00     0.020 A 
ATOM     95  C   UNL A   1      40.399  35.680  38.983  1.00  0.00     0.020 A 
ATOM     96  C   UNL A   1      39.497  35.245  39.957  1.00  0.00     0.054 A 
BRANCH  96  97
ATOM     97  S   UNL A   1      39.292  36.179  41.499  1.00  0.00     0.124 S 
ATOM     98  O   UNL A   1      40.598  36.010  42.130  1.00  0.00    -0.237 OA
ATOM     99  O   UNL A   1      38.994  37.527  41.023  1.00  0.00    -0.237 OA
ATOM    100  O   UNL A   1      38.183  35.503  42.169  1.00  0.00    -0.744 OA
ENDBRANCH  96  97
ENDBRANCH  70  91
ENDBRANCH  44  45
ENDBRANCH  36  39
ENDBRANCH  34  35
ENDBRANCH  33  34
ENDBRANCH  32  33
ENDBRANCH  31  32
ENDBRANCH   1  31
TORSDOF 22
ENDMDL
MODEL 3
REMARK VINA RESULT:     -10.6      4.990     12.245
REMARK SMILES O=C(CCc1ccccc1)Nc1ccccc1Oc1ccsc1C(=O)NCCCCCCNC(=O)c1ccc(-c2c3nc(c(-c4ccc(S(=O)(=O)[O-])cc4)c4ccc([nH]4)c(-c4ccc(S(=O)(=O)[O-])cc4)c4nc(c(-c5ccc(S(=O)(=O)[O-])cc5)c5ccc2[nH]5)C=C4)C=C3)cc1
REMARK SMILES IDX 28 1 27 2 26 3 24 4 25 5 23 7 19 8 20 9 21 10 22 11 18 12
REMARK SMILES IDX 17 13 12 14 13 15 14 16 16 17 15 18 11 19 1 20 2 21 3 23
REMARK SMILES IDX 4 24 5 25 6 26 10 27 7 28 9 29 8 30 29 31 30 32 31 33 32 34
REMARK SMILES IDX 33 35 34 36 35 38 36 39 37 40 95 41 38 42 94 43 39 44 40 45
REMARK SMILES IDX 41 46 88 47 42 48 93 49 87 50 89 51 43 52 92 53 86 54 85 55
REMARK SMILES IDX 44 57 74 58 55 59 73 60 56 61 59 62 72 63 90 64 57 65 58 66
REMARK SMILES IDX 71 68 91 69 60 70 45 71 46 72 54 73 47 74 53 75 48 76 49 77
REMARK SMILES IDX 50 78 51 79 52 80 75 81 76 82 84 83 77 84 83 85 78 86 79 87
REMARK SMILES IDX 80 88 81 89 82 90 61 91 62 92 70 93 63 94 69 95 64 96 65 97
REMARK SMILES IDX 66 98 67 99 68 100
REMARK H PARENT 26 6 11 22 33 37 89 56 59 67
REMARK Flexibility Score: inf
ROOT
ATOM      1  C   UNL A   1      36.693  34.127  33.886  1.00  0.00     0.021 C 
ENDROOT
BRANCH   1   2
ATOM      2  C   UNL A   1      37.218  34.056  35.310  1.00  0.00     0.116 C 
BRANCH   2   3
ATOM      3  N   UNL A   1      37.152  32.794  35.987  1.00  0.00    -0.351 N 
ATOM      4  C   UNL A   1      38.172  31.913  36.294  1.00  0.00     0.265 C 
ATOM      5  O   UNL A   1      37.774  30.886  36.862  1.00  0.00    -0.268 OA
ATOM      6  H   UNL A   1      36.252  32.515  36.273  1.00  0.00     0.163 HD
BRANCH   4   7
ATOM      7  C   UNL A   1      39.600  32.133  35.987  1.00  0.00     0.135 A 
ATOM      8  C   UNL A   1      40.433  31.987  34.881  1.00  0.00     0.151 A 
ATOM      9  C   UNL A   1      41.779  32.411  35.106  1.00  0.00     0.059 A 
ATOM     10  C   UNL A   1      41.977  32.847  36.393  1.00  0.00     0.069 A 
ATOM     11  S   UNL A   1      40.551  32.753  37.317  1.00  0.00    -0.135 S 
BRANCH   8  12
ATOM     12  O   UNL A   1      39.988  31.659  33.655  1.00  0.00    -0.453 OA
BRANCH  12  13
ATOM     13  C   UNL A   1      39.676  30.392  33.210  1.00  0.00     0.151 A 
ATOM     14  C   UNL A   1      40.469  29.236  33.128  1.00  0.00     0.084 A 
ATOM     15  C   UNL A   1      39.868  28.029  32.721  1.00  0.00     0.030 A 
ATOM     16  C   UNL A   1      38.500  27.946  32.463  1.00  0.00     0.002 A 
ATOM     17  C   UNL A   1      38.305  30.298  32.895  1.00  0.00     0.049 A 
ATOM     18  C   UNL A   1      37.716  29.087  32.540  1.00  0.00     0.004 A 
BRANCH  14  19
ATOM     19  N   UNL A   1      41.863  29.166  33.309  1.00  0.00    -0.323 N 
ATOM     20  O   UNL A   1      42.044  28.232  35.416  1.00  0.00    -0.275 OA
ATOM     21  C   UNL A   1      42.542  28.810  34.456  1.00  0.00     0.224 C 
ATOM     22  H   UNL A   1      42.416  29.399  32.528  1.00  0.00     0.170 HD
BRANCH  21  23
ATOM     23  C   UNL A   1      44.013  29.220  34.461  1.00  0.00     0.105 C 
BRANCH  23  24
ATOM     24  C   UNL A   1      44.701  29.341  35.822  1.00  0.00     0.045 C 
BRANCH  24  25
ATOM     25  C   UNL A   1      45.625  30.527  35.969  1.00  0.00    -0.048 A 
ATOM     26  C   UNL A   1      45.232  31.688  36.655  1.00  0.00     0.004 A 
ATOM     27  C   UNL A   1      46.873  30.506  35.333  1.00  0.00     0.004 A 
ATOM     28  C   UNL A   1      46.015  32.843  36.590  1.00  0.00     0.000 A 
ATOM     29  C   UNL A   1      47.670  31.651  35.302  1.00  0.00     0.000 A 
ATOM     30  C   UNL A   1      47.227  32.825  35.904  1.00  0.00     0.000 A 
ENDBRANCH  24  25
ENDBRANCH  23  24
ENDBRANCH  21  23
ENDBRANCH  14  19
ENDBRANCH  12  13
ENDBRANCH   8  12
ENDBRANCH   4   7
ENDBRANCH   2   3
ENDBRANCH   1   2
BRANCH   1  31
ATOM     31  C   UNL A   1      35.184  34.045  33.699  1.00  0.00     0.002 C 
BRANCH  31  32
ATOM     32  C   UNL A   1      34.466  35.311  33.228  1.00  0.00     0.002 C 
BRANCH  32  33
ATOM     33  C   UNL A   1      33.305  35.151  32.241  1.00  0.00     0.021 C 
BRANCH  33  34
ATOM     34  C   UNL A   1      33.457  35.810  30.872  1.00  0.00     0.116 C 
BRANCH  34  35
ATOM     35  N   UNL A   1      32.853  35.039  29.801  1.00  0.00    -0.352 N 
ATOM     36  C   UNL A   1      33.369  34.043  29.014  1.00  0.00     0.251 C 
ATOM     37  H   UNL A   1      31.916  35.269  29.609  1.00  0.00     0.163 HD
ATOM     38  O   UNL A   1      32.694  33.621  28.072  1.00  0.00    -0.269 OA
BRANCH  36  39
ATOM     39  C   UNL A   1      34.722  33.482  29.249  1.00  0.00     0.039 A 
ATOM     40  C   UNL A   1      35.736  33.804  28.340  1.00  0.00     0.014 A 
ATOM     41  C   UNL A   1      34.996  32.606  30.304  1.00  0.00     0.014 A 
ATOM     42  C   UNL A   1      37.025  33.294  28.515  1.00  0.00     0.010 A 
ATOM     43  C   UNL A   1      36.299  32.148  30.515  1.00  0.00     0.010 A 
ATOM     44  C   UNL A   1      37.327  32.482  29.621  1.00  0.00    -0.014 A 
BRANCH  44  45
ATOM     45  C   UNL A   1      38.717  32.002  29.847  1.00  0.00     0.031 A 
ATOM     46  C   UNL A   1      39.754  32.894  30.474  1.00  0.00     0.074 A 
ATOM     47  C   UNL A   1      39.058  30.758  29.456  1.00  0.00     0.049 A 
ATOM     48  N   UNL A   1      41.004  32.629  30.762  1.00  0.00    -0.248 NA
ATOM     49  C   UNL A   1      39.341  34.267  30.801  1.00  0.00     0.031 C 
ATOM     50  C   UNL A   1      38.166  29.810  28.784  1.00  0.00     0.029 A 
ATOM     51  N   UNL A   1      40.245  30.078  29.563  1.00  0.00    -0.354 N 
ATOM     52  C   UNL A   1      41.528  33.800  31.299  1.00  0.00     0.074 A 
ATOM     53  C   UNL A   1      40.475  34.792  31.244  1.00  0.00     0.031 C 
ATOM     54  C   UNL A   1      38.829  28.664  28.563  1.00  0.00     0.029 A 
ATOM     55  C   UNL A   1      40.198  28.804  29.048  1.00  0.00     0.049 A 
ATOM     56  H   UNL A   1      41.053  30.465  29.971  1.00  0.00     0.167 HD
ATOM     57  C   UNL A   1      42.763  34.027  31.811  1.00  0.00     0.031 A 
ATOM     58  C   UNL A   1      41.147  27.850  28.973  1.00  0.00     0.031 A 
ATOM     59  C   UNL A   1      43.816  33.044  31.857  1.00  0.00     0.049 A 
ATOM     60  C   UNL A   1      42.506  28.114  29.557  1.00  0.00     0.074 A 
ATOM     61  C   UNL A   1      45.086  33.164  32.393  1.00  0.00     0.029 A 
ATOM     62  N   UNL A   1      43.723  31.759  31.341  1.00  0.00    -0.354 N 
ATOM     63  N   UNL A   1      42.959  29.207  30.124  1.00  0.00    -0.248 NA
ATOM     64  C   UNL A   1      43.472  27.009  29.510  1.00  0.00     0.031 C 
ATOM     65  C   UNL A   1      45.778  31.969  32.157  1.00  0.00     0.029 A 
ATOM     66  C   UNL A   1      44.920  31.084  31.525  1.00  0.00     0.049 A 
ATOM     67  H   UNL A   1      42.925  31.382  30.906  1.00  0.00     0.167 HD
ATOM     68  C   UNL A   1      44.261  28.918  30.513  1.00  0.00     0.074 A 
ATOM     69  C   UNL A   1      44.511  27.539  30.140  1.00  0.00     0.031 C 
ATOM     70  C   UNL A   1      45.168  29.721  31.124  1.00  0.00     0.031 A 
BRANCH  57  71
ATOM     71  C   UNL A   1      43.039  35.407  32.354  1.00  0.00    -0.014 A 
ATOM     72  C   UNL A   1      43.673  36.384  31.565  1.00  0.00     0.010 A 
ATOM     73  C   UNL A   1      42.658  35.734  33.668  1.00  0.00     0.010 A 
ATOM     74  C   UNL A   1      43.980  37.638  32.099  1.00  0.00     0.020 A 
ATOM     75  C   UNL A   1      42.935  36.999  34.196  1.00  0.00     0.020 A 
ATOM     76  C   UNL A   1      43.618  37.935  33.415  1.00  0.00     0.054 A 
BRANCH  76  77
ATOM     77  S   UNL A   1      44.043  39.564  34.091  1.00  0.00     0.124 S 
ATOM     78  O   UNL A   1      44.210  39.264  35.512  1.00  0.00    -0.237 OA
ATOM     79  O   UNL A   1      45.269  39.900  33.374  1.00  0.00    -0.237 OA
ATOM     80  O   UNL A   1      42.885  40.390  33.761  1.00  0.00    -0.744 OA
ENDBRANCH  76  77
ENDBRANCH  57  71
BRANCH  58  81
ATOM     81  C   UNL A   1      40.822  26.548  28.330  1.00  0.00    -0.014 A 
ATOM     82  C   UNL A   1      41.586  26.069  27.252  1.00  0.00     0.010 A 
ATOM     83  C   UNL A   1      39.775  25.755  28.834  1.00  0.00     0.010 A 
ATOM     84  C   UNL A   1      41.307  24.821  26.688  1.00  0.00     0.020 A 
ATOM     85  C   UNL A   1      39.510  24.496  28.290  1.00  0.00     0.020 A 
ATOM     86  C   UNL A   1      40.275  24.039  27.215  1.00  0.00     0.054 A 
BRANCH  86  87
ATOM     87  S   UNL A   1      39.989  22.385  26.527  1.00  0.00     0.124 S 
ATOM     88  O   UNL A   1      38.667  22.531  25.926  1.00  0.00    -0.237 OA
ATOM     89  O   UNL A   1      41.099  22.234  25.590  1.00  0.00    -0.237 OA
ATOM     90  O   UNL A   1      40.052  21.513  27.699  1.00  0.00    -0.744 OA
ENDBRANCH  86  87
ENDBRANCH  58  81
BRANCH  70  91
ATOM     91  C   UNL A   1      46.516  29.121  31.432  1.00  0.00    -0.014 A 
ATOM     92  C   UNL A   1      47.599  29.269  30.546  1.00  0.00     0.010 A 
ATOM     93  C   UNL A   1      46.706  28.409  32.630  1.00  0.00     0.010 A 
ATOM     94  C   UNL A   1      48.830  28.673  30.827  1.00  0.00     0.020 A 
ATOM     95  C   UNL A   1      47.944  27.834  32.929  1.00  0.00     0.020 A 
ATOM     96  C   UNL A   1      48.992  27.951  32.014  1.00  0.00     0.054 A 
BRANCH  96  97
ATOM     97  S   UNL A   1      50.602  27.190  32.362  1.00  0.00     0.124 S 
ATOM     98  O   UNL A   1      50.534  25.965  31.568  1.00  0.00    -0.237 OA
ATOM     99  O   UNL A   1      51.546  28.196  31.884  1.00  0.00    -0.237 OA
ATOM    100  O   UNL A   1      50.587  26.995  33.810  1.00  0.00    -0.744 OA
ENDBRANCH  96  97
ENDBRANCH  70  91
ENDBRANCH  44  45
ENDBRANCH  36  39
ENDBRANCH  34  35
ENDBRANCH  33  34
ENDBRANCH  32  33
ENDBRANCH  31  32
ENDBRANCH   1  31
TORSDOF 22
ENDMDL
