MODEL 1
REMARK VINA RESULT:     -12.8      0.000      0.000
REMARK SMILES Cc1cccc(NC(=O)COc2ccc(N3C[C@@H](C(=O)NCCCCCCNC(=O)c4ccc(-c5c6nc(c(-c7ccc(S(=O)(=O)[O-])cc7)c7ccc([nH]7)c(-c7ccc(S(=O)(=O)[O-])cc7)c7nc(c(-c8ccc(S(=O)(=O)[O-])cc8)c8ccc5[nH]8)C=C7)C=C6)cc4)CC3=O)cc2)c1
REMARK SMILES IDX 23 1 22 2 21 3 19 4 20 5 18 7 16 8 17 9 92 10 91 11 93 12
REMARK SMILES IDX 15 13 12 14 13 15 95 16 14 17 94 18 11 19 10 20 8 21 7 22
REMARK SMILES IDX 9 24 6 25 1 26 2 27 3 28 96 29 4 30 5 31 24 32 25 33 26 34
REMARK SMILES IDX 27 35 28 36 29 37 30 39 31 40 32 41 90 42 33 43 89 44 34 45
REMARK SMILES IDX 35 46 36 47 83 48 37 49 88 50 82 51 84 52 38 53 87 54 81 55
REMARK SMILES IDX 80 56 39 58 69 59 50 60 68 61 51 62 54 63 67 64 85 65 52 66
REMARK SMILES IDX 53 67 66 69 86 70 55 71 40 72 41 73 49 74 42 75 48 76 43 77
REMARK SMILES IDX 44 78 45 79 46 80 47 81 70 82 71 83 79 84 72 85 78 86 73 87
REMARK SMILES IDX 74 88 75 89 76 90 77 91 56 92 57 93 65 94 58 95 64 96 59 97
REMARK SMILES IDX 60 98 61 99 62 100 63 101
REMARK H PARENT 21 6 7 23 28 38 84 57 54 68
REMARK Flexibility Score: inf
ROOT
ATOM      1  C   UNL A   1      33.015  27.910  25.218  1.00  0.00     0.021 C 
ENDROOT
BRANCH   1   2
ATOM      2  C   UNL A   1      32.812  28.936  24.104  1.00  0.00     0.116 C 
BRANCH   2   3
ATOM      3  N   UNL A   1      31.415  29.297  23.927  1.00  0.00    -0.356 N 
ATOM      4  C   UNL A   1      30.400  28.706  23.251  1.00  0.00     0.225 C 
ATOM      5  O   UNL A   1      29.272  29.195  23.376  1.00  0.00    -0.275 OA
ATOM      6  H   UNL A   1      31.158  30.131  24.384  1.00  0.00     0.163 HD
BRANCH   4   7
ATOM      7  C   UNL A   1      30.573  27.460  22.404  1.00  0.00     0.107 C 
ATOM      8  N   UNL A   1      31.548  25.339  22.770  1.00  0.00    -0.312 N 
ATOM      9  C   UNL A   1      30.470  26.186  23.218  1.00  0.00     0.139 C 
ATOM     10  C   UNL A   1      32.392  25.988  21.866  1.00  0.00     0.227 C 
ATOM     11  C   UNL A   1      31.863  27.375  21.608  1.00  0.00     0.116 C 
ATOM     12  O   UNL A   1      33.386  25.549  21.307  1.00  0.00    -0.274 OA
BRANCH   8  13
ATOM     13  C   UNL A   1      31.734  24.024  23.271  1.00  0.00     0.044 A 
ATOM     14  C   UNL A   1      32.111  21.410  24.276  1.00  0.00     0.120 A 
ATOM     15  C   UNL A   1      31.379  22.346  25.002  1.00  0.00     0.048 A 
ATOM     16  C   UNL A   1      32.636  21.766  23.040  1.00  0.00     0.048 A 
ATOM     17  C   UNL A   1      31.217  23.650  24.519  1.00  0.00     0.030 A 
ATOM     18  C   UNL A   1      32.436  23.059  22.539  1.00  0.00     0.030 A 
BRANCH  14  19
ATOM     19  O   UNL A   1      32.173  20.156  24.809  1.00  0.00    -0.484 OA
BRANCH  19  20
ATOM     20  C   UNL A   1      32.951  19.215  24.090  1.00  0.00     0.329 C 
BRANCH  20  21
ATOM     21  C   UNL A   1      34.217  18.631  24.716  1.00  0.00     0.262 C 
ATOM     22  N   UNL A   1      35.286  19.381  25.102  1.00  0.00    -0.323 N 
ATOM     23  H   UNL A   1      35.961  18.857  25.592  1.00  0.00     0.170 HD
ATOM     24  O   UNL A   1      34.299  17.409  24.900  1.00  0.00    -0.271 OA
BRANCH  22  25
ATOM     25  C   UNL A   1      35.645  20.731  24.961  1.00  0.00     0.041 A 
ATOM     26  C   UNL A   1      34.386  23.989  26.519  1.00  0.00     0.044 C 
ATOM     27  C   UNL A   1      35.180  23.024  25.690  1.00  0.00    -0.049 A 
ATOM     28  C   UNL A   1      36.196  23.487  24.853  1.00  0.00     0.003 A 
ATOM     29  C   UNL A   1      34.917  21.646  25.738  1.00  0.00     0.029 A 
ATOM     30  C   UNL A   1      36.939  22.587  24.094  1.00  0.00     0.002 A 
ATOM     31  C   UNL A   1      36.673  21.215  24.157  1.00  0.00     0.026 A 
ENDBRANCH  22  25
ENDBRANCH  20  21
ENDBRANCH  19  20
ENDBRANCH  14  19
ENDBRANCH   8  13
ENDBRANCH   4   7
ENDBRANCH   2   3
ENDBRANCH   1   2
BRANCH   1  32
ATOM     32  C   UNL A   1      32.059  28.021  26.417  1.00  0.00     0.002 C 
BRANCH  32  33
ATOM     33  C   UNL A   1      32.225  29.233  27.348  1.00  0.00     0.002 C 
BRANCH  33  34
ATOM     34  C   UNL A   1      33.622  29.492  27.921  1.00  0.00     0.021 C 
BRANCH  34  35
ATOM     35  C   UNL A   1      34.654  29.946  26.900  1.00  0.00     0.116 C 
BRANCH  35  36
ATOM     36  N   UNL A   1      35.498  31.055  27.317  1.00  0.00    -0.352 N 
ATOM     37  C   UNL A   1      36.249  30.959  28.490  1.00  0.00     0.251 C 
ATOM     38  H   UNL A   1      35.540  31.873  26.770  1.00  0.00     0.163 HD
ATOM     39  O   UNL A   1      36.140  31.692  29.450  1.00  0.00    -0.269 OA
BRANCH  37  40
ATOM     40  C   UNL A   1      37.202  29.824  28.497  1.00  0.00     0.039 A 
ATOM     41  C   UNL A   1      37.268  28.979  29.606  1.00  0.00     0.014 A 
ATOM     42  C   UNL A   1      38.185  29.800  27.509  1.00  0.00     0.014 A 
ATOM     43  C   UNL A   1      38.415  28.207  29.802  1.00  0.00     0.010 A 
ATOM     44  C   UNL A   1      39.358  29.122  27.761  1.00  0.00     0.010 A 
ATOM     45  C   UNL A   1      39.490  28.352  28.924  1.00  0.00    -0.014 A 
BRANCH  45  46
ATOM     46  C   UNL A   1      40.821  27.796  29.144  1.00  0.00     0.031 A 
ATOM     47  C   UNL A   1      41.122  26.408  28.728  1.00  0.00     0.074 A 
ATOM     48  C   UNL A   1      41.826  28.587  29.581  1.00  0.00     0.049 A 
ATOM     49  N   UNL A   1      42.129  25.722  29.158  1.00  0.00    -0.248 NA
ATOM     50  C   UNL A   1      40.275  25.661  27.804  1.00  0.00     0.031 C 
ATOM     51  C   UNL A   1      43.258  28.304  29.511  1.00  0.00     0.029 A 
ATOM     52  N   UNL A   1      41.752  29.723  30.385  1.00  0.00    -0.354 N 
ATOM     53  C   UNL A   1      42.247  24.615  28.350  1.00  0.00     0.074 A 
ATOM     54  C   UNL A   1      41.022  24.576  27.584  1.00  0.00     0.031 C 
ATOM     55  C   UNL A   1      43.881  29.015  30.461  1.00  0.00     0.029 A 
ATOM     56  C   UNL A   1      42.849  29.652  31.263  1.00  0.00     0.049 A 
ATOM     57  H   UNL A   1      41.070  30.433  30.347  1.00  0.00     0.167 HD
ATOM     58  C   UNL A   1      43.424  23.928  28.311  1.00  0.00     0.031 A 
ATOM     59  C   UNL A   1      42.726  29.559  32.621  1.00  0.00     0.031 A 
ATOM     60  C   UNL A   1      44.404  24.445  29.267  1.00  0.00     0.049 A 
ATOM     61  C   UNL A   1      43.364  28.308  33.207  1.00  0.00     0.074 A 
ATOM     62  C   UNL A   1      45.581  25.170  29.170  1.00  0.00     0.029 A 
ATOM     63  N   UNL A   1      44.076  24.443  30.613  1.00  0.00    -0.354 N 
ATOM     64  N   UNL A   1      43.997  27.405  32.509  1.00  0.00    -0.248 NA
ATOM     65  C   UNL A   1      43.244  27.925  34.615  1.00  0.00     0.031 C 
ATOM     66  C   UNL A   1      45.961  25.587  30.480  1.00  0.00     0.029 A 
ATOM     67  C   UNL A   1      45.018  25.108  31.370  1.00  0.00     0.049 A 
ATOM     68  H   UNL A   1      43.269  24.016  30.985  1.00  0.00     0.167 HD
ATOM     69  C   UNL A   1      44.284  26.325  33.303  1.00  0.00     0.074 A 
ATOM     70  C   UNL A   1      43.816  26.707  34.621  1.00  0.00     0.031 C 
ATOM     71  C   UNL A   1      44.827  25.173  32.809  1.00  0.00     0.031 A 
BRANCH  58  72
ATOM     72  C   UNL A   1      43.763  22.923  27.231  1.00  0.00    -0.014 A 
ATOM     73  C   UNL A   1      42.857  21.885  26.930  1.00  0.00     0.010 A 
ATOM     74  C   UNL A   1      44.969  22.917  26.505  1.00  0.00     0.010 A 
ATOM     75  C   UNL A   1      43.182  20.842  26.050  1.00  0.00     0.020 A 
ATOM     76  C   UNL A   1      45.327  21.860  25.653  1.00  0.00     0.020 A 
ATOM     77  C   UNL A   1      44.434  20.818  25.442  1.00  0.00     0.054 A 
BRANCH  77  78
ATOM     78  S   UNL A   1      44.879  19.413  24.388  1.00  0.00     0.124 S 
ATOM     79  O   UNL A   1      46.329  19.345  24.548  1.00  0.00    -0.237 OA
ATOM     80  O   UNL A   1      44.125  18.318  24.990  1.00  0.00    -0.237 OA
ATOM     81  O   UNL A   1      44.426  19.822  23.059  1.00  0.00    -0.744 OA
ENDBRANCH  77  78
ENDBRANCH  58  72
BRANCH  59  82
ATOM     82  C   UNL A   1      41.509  30.240  33.152  1.00  0.00    -0.014 A 
ATOM     83  C   UNL A   1      41.643  31.599  33.518  1.00  0.00     0.010 A 
ATOM     84  C   UNL A   1      40.230  29.741  32.851  1.00  0.00     0.010 A 
ATOM     85  C   UNL A   1      40.567  32.480  33.380  1.00  0.00     0.020 A 
ATOM     86  C   UNL A   1      39.147  30.623  32.727  1.00  0.00     0.020 A 
ATOM     87  C   UNL A   1      39.349  31.996  32.906  1.00  0.00     0.054 A 
BRANCH  87  88
ATOM     88  S   UNL A   1      38.098  33.198  32.351  1.00  0.00     0.124 S 
ATOM     89  O   UNL A   1      38.332  34.331  33.240  1.00  0.00    -0.237 OA
ATOM     90  O   UNL A   1      38.467  33.406  30.949  1.00  0.00    -0.237 OA
ATOM     91  O   UNL A   1      36.840  32.487  32.555  1.00  0.00    -0.744 OA
ENDBRANCH  87  88
ENDBRANCH  59  82
BRANCH  71  92
ATOM     92  C   UNL A   1      45.170  23.964  33.639  1.00  0.00    -0.014 A 
ATOM     93  C   UNL A   1      46.438  23.764  34.207  1.00  0.00     0.010 A 
ATOM     94  C   UNL A   1      44.237  22.906  33.757  1.00  0.00     0.010 A 
ATOM     95  C   UNL A   1      46.738  22.587  34.911  1.00  0.00     0.020 A 
ATOM     96  C   UNL A   1      44.530  21.724  34.440  1.00  0.00     0.020 A 
ATOM     97  C   UNL A   1      45.777  21.578  35.030  1.00  0.00     0.054 A 
BRANCH  97  98
ATOM     98  S   UNL A   1      46.194  20.053  35.914  1.00  0.00     0.124 S 
ATOM     99  O   UNL A   1      45.373  19.055  35.234  1.00  0.00    -0.237 OA
ATOM    100  O   UNL A   1      47.632  19.951  35.675  1.00  0.00    -0.237 OA
ATOM    101  O   UNL A   1      45.810  20.332  37.294  1.00  0.00    -0.744 OA
ENDBRANCH  97  98
ENDBRANCH  71  92
ENDBRANCH  45  46
ENDBRANCH  37  40
ENDBRANCH  35  36
ENDBRANCH  34  35
ENDBRANCH  33  34
ENDBRANCH  32  33
ENDBRANCH   1  32
TORSDOF 21
ENDMDL
MODEL 2
REMARK VINA RESULT:     -12.8      2.330      4.401
REMARK SMILES Cc1cccc(NC(=O)COc2ccc(N3C[C@@H](C(=O)NCCCCCCNC(=O)c4ccc(-c5c6nc(c(-c7ccc(S(=O)(=O)[O-])cc7)c7ccc([nH]7)c(-c7ccc(S(=O)(=O)[O-])cc7)c7nc(c(-c8ccc(S(=O)(=O)[O-])cc8)c8ccc5[nH]8)C=C7)C=C6)cc4)CC3=O)cc2)c1
REMARK SMILES IDX 23 1 22 2 21 3 19 4 20 5 18 7 16 8 17 9 92 10 91 11 93 12
REMARK SMILES IDX 15 13 12 14 13 15 95 16 14 17 94 18 11 19 10 20 8 21 7 22
REMARK SMILES IDX 9 24 6 25 1 26 2 27 3 28 96 29 4 30 5 31 24 32 25 33 26 34
REMARK SMILES IDX 27 35 28 36 29 37 30 39 31 40 32 41 90 42 33 43 89 44 34 45
REMARK SMILES IDX 35 46 36 47 83 48 37 49 88 50 82 51 84 52 38 53 87 54 81 55
REMARK SMILES IDX 80 56 39 58 69 59 50 60 68 61 51 62 54 63 67 64 85 65 52 66
REMARK SMILES IDX 53 67 66 69 86 70 55 71 40 72 41 73 49 74 42 75 48 76 43 77
REMARK SMILES IDX 44 78 45 79 46 80 47 81 70 82 71 83 79 84 72 85 78 86 73 87
REMARK SMILES IDX 74 88 75 89 76 90 77 91 56 92 57 93 65 94 58 95 64 96 59 97
REMARK SMILES IDX 60 98 61 99 62 100 63 101
REMARK H PARENT 21 6 7 23 28 38 84 57 54 68
REMARK Flexibility Score: inf
ROOT
ATOM      1  C   UNL A   1      31.554  27.249  26.380  1.00  0.00     0.021 C 
ENDROOT
BRANCH   1   2
ATOM      2  C   UNL A   1      31.576  25.777  25.970  1.00  0.00     0.116 C 
BRANCH   2   3
ATOM      3  N   UNL A   1      30.578  24.989  26.672  1.00  0.00    -0.356 N 
ATOM      4  C   UNL A   1      30.321  23.657  26.696  1.00  0.00     0.225 C 
ATOM      5  O   UNL A   1      29.461  23.258  27.489  1.00  0.00    -0.275 OA
ATOM      6  H   UNL A   1      29.973  25.523  27.237  1.00  0.00     0.163 HD
BRANCH   4   7
ATOM      7  C   UNL A   1      31.065  22.647  25.846  1.00  0.00     0.107 C 
ATOM      8  N   UNL A   1      33.308  22.417  25.139  1.00  0.00    -0.312 N 
ATOM      9  C   UNL A   1      32.485  22.419  26.323  1.00  0.00     0.139 C 
ATOM     10  C   UNL A   1      32.586  22.750  23.991  1.00  0.00     0.227 C 
ATOM     11  C   UNL A   1      31.140  22.958  24.362  1.00  0.00     0.116 C 
ATOM     12  O   UNL A   1      32.987  22.834  22.840  1.00  0.00    -0.274 OA
BRANCH   8  13
ATOM     13  C   UNL A   1      34.704  22.169  25.189  1.00  0.00     0.044 A 
ATOM     14  C   UNL A   1      37.483  21.669  25.299  1.00  0.00     0.120 A 
ATOM     15  C   UNL A   1      36.600  20.660  24.928  1.00  0.00     0.048 A 
ATOM     16  C   UNL A   1      36.988  22.934  25.593  1.00  0.00     0.048 A 
ATOM     17  C   UNL A   1      35.220  20.898  24.902  1.00  0.00     0.030 A 
ATOM     18  C   UNL A   1      35.610  23.182  25.526  1.00  0.00     0.030 A 
BRANCH  14  19
ATOM     19  O   UNL A   1      38.809  21.352  25.249  1.00  0.00    -0.484 OA
BRANCH  19  20
ATOM     20  C   UNL A   1      39.505  21.405  26.482  1.00  0.00     0.329 C 
BRANCH  20  21
ATOM     21  C   UNL A   1      40.737  22.300  26.627  1.00  0.00     0.262 C 
ATOM     22  N   UNL A   1      42.015  21.861  26.462  1.00  0.00    -0.323 N 
ATOM     23  H   UNL A   1      42.672  22.594  26.475  1.00  0.00     0.170 HD
ATOM     24  O   UNL A   1      40.590  23.499  26.903  1.00  0.00    -0.271 OA
BRANCH  22  25
ATOM     25  C   UNL A   1      42.609  20.603  26.279  1.00  0.00     0.041 A 
ATOM     26  C   UNL A   1      45.492  19.318  24.120  1.00  0.00     0.044 C 
ATOM     27  C   UNL A   1      44.358  19.356  25.100  1.00  0.00    -0.049 A 
ATOM     28  C   UNL A   1      43.961  18.192  25.759  1.00  0.00     0.003 A 
ATOM     29  C   UNL A   1      43.679  20.553  25.370  1.00  0.00     0.029 A 
ATOM     30  C   UNL A   1      42.916  18.233  26.678  1.00  0.00     0.002 A 
ATOM     31  C   UNL A   1      42.251  19.435  26.945  1.00  0.00     0.026 A 
ENDBRANCH  22  25
ENDBRANCH  20  21
ENDBRANCH  19  20
ENDBRANCH  14  19
ENDBRANCH   8  13
ENDBRANCH   4   7
ENDBRANCH   2   3
ENDBRANCH   1   2
BRANCH   1  32
ATOM     32  C   UNL A   1      31.249  28.256  25.259  1.00  0.00     0.002 C 
BRANCH  32  33
ATOM     33  C   UNL A   1      32.070  29.555  25.228  1.00  0.00     0.002 C 
BRANCH  33  34
ATOM     34  C   UNL A   1      31.988  30.467  26.455  1.00  0.00     0.021 C 
BRANCH  34  35
ATOM     35  C   UNL A   1      33.188  30.394  27.385  1.00  0.00     0.116 C 
BRANCH  35  36
ATOM     36  N   UNL A   1      33.811  31.669  27.704  1.00  0.00    -0.352 N 
ATOM     37  C   UNL A   1      34.534  31.818  28.889  1.00  0.00     0.251 C 
ATOM     38  H   UNL A   1      33.722  32.428  27.083  1.00  0.00     0.163 HD
ATOM     39  O   UNL A   1      34.270  32.604  29.774  1.00  0.00    -0.269 OA
BRANCH  37  40
ATOM     40  C   UNL A   1      35.672  30.877  29.015  1.00  0.00     0.039 A 
ATOM     41  C   UNL A   1      35.857  30.164  30.200  1.00  0.00     0.014 A 
ATOM     42  C   UNL A   1      36.670  30.938  28.044  1.00  0.00     0.014 A 
ATOM     43  C   UNL A   1      37.117  29.632  30.481  1.00  0.00     0.010 A 
ATOM     44  C   UNL A   1      37.938  30.507  28.371  1.00  0.00     0.010 A 
ATOM     45  C   UNL A   1      38.172  29.884  29.604  1.00  0.00    -0.014 A 
BRANCH  45  46
ATOM     46  C   UNL A   1      39.575  29.598  29.889  1.00  0.00     0.031 A 
ATOM     47  C   UNL A   1      40.208  28.378  29.342  1.00  0.00     0.074 A 
ATOM     48  C   UNL A   1      40.343  30.516  30.519  1.00  0.00     0.049 A 
ATOM     49  N   UNL A   1      41.309  27.869  29.787  1.00  0.00    -0.248 NA
ATOM     50  C   UNL A   1      39.619  27.605  28.254  1.00  0.00     0.031 C 
ATOM     51  C   UNL A   1      41.803  30.556  30.561  1.00  0.00     0.029 A 
ATOM     52  N   UNL A   1      39.958  31.487  31.442  1.00  0.00    -0.354 N 
ATOM     53  C   UNL A   1      41.730  26.936  28.867  1.00  0.00     0.074 A 
ATOM     54  C   UNL A   1      40.604  26.745  27.982  1.00  0.00     0.031 C 
ATOM     55  C   UNL A   1      42.179  31.243  31.648  1.00  0.00     0.029 A 
ATOM     56  C   UNL A   1      40.976  31.528  32.411  1.00  0.00     0.049 A 
ATOM     57  H   UNL A   1      39.139  32.034  31.420  1.00  0.00     0.167 HD
ATOM     58  C   UNL A   1      43.031  26.527  28.866  1.00  0.00     0.031 A 
ATOM     59  C   UNL A   1      40.779  31.222  33.729  1.00  0.00     0.031 A 
ATOM     60  C   UNL A   1      43.798  27.101  29.972  1.00  0.00     0.049 A 
ATOM     61  C   UNL A   1      41.636  30.066  34.221  1.00  0.00     0.074 A 
ATOM     62  C   UNL A   1      44.787  28.066  30.083  1.00  0.00     0.029 A 
ATOM     63  N   UNL A   1      43.382  26.841  31.267  1.00  0.00    -0.354 N 
ATOM     64  N   UNL A   1      42.504  29.424  33.488  1.00  0.00    -0.248 NA
ATOM     65  C   UNL A   1      41.502  29.473  35.554  1.00  0.00     0.031 C 
ATOM     66  C   UNL A   1      44.967  28.366  31.465  1.00  0.00     0.029 A 
ATOM     67  C   UNL A   1      44.093  27.579  32.190  1.00  0.00     0.049 A 
ATOM     68  H   UNL A   1      42.666  26.205  31.501  1.00  0.00     0.167 HD
ATOM     69  C   UNL A   1      42.967  28.330  34.171  1.00  0.00     0.074 A 
ATOM     70  C   UNL A   1      42.331  28.415  35.471  1.00  0.00     0.031 C 
ATOM     71  C   UNL A   1      43.788  27.400  33.600  1.00  0.00     0.031 A 
BRANCH  58  72
ATOM     72  C   UNL A   1      43.663  25.778  27.712  1.00  0.00    -0.014 A 
ATOM     73  C   UNL A   1      43.985  24.412  27.855  1.00  0.00     0.010 A 
ATOM     74  C   UNL A   1      44.005  26.366  26.479  1.00  0.00     0.010 A 
ATOM     75  C   UNL A   1      44.707  23.709  26.879  1.00  0.00     0.020 A 
ATOM     76  C   UNL A   1      44.763  25.689  25.510  1.00  0.00     0.020 A 
ATOM     77  C   UNL A   1      45.123  24.364  25.724  1.00  0.00     0.054 A 
BRANCH  77  78
ATOM     78  S   UNL A   1      46.141  23.473  24.519  1.00  0.00     0.124 S 
ATOM     79  O   UNL A   1      46.727  22.407  25.327  1.00  0.00    -0.237 OA
ATOM     80  O   UNL A   1      45.155  23.046  23.531  1.00  0.00    -0.237 OA
ATOM     81  O   UNL A   1      47.090  24.483  24.054  1.00  0.00    -0.744 OA
ENDBRANCH  77  78
ENDBRANCH  58  72
BRANCH  59  82
ATOM     82  C   UNL A   1      39.404  31.549  34.211  1.00  0.00    -0.014 A 
ATOM     83  C   UNL A   1      39.217  32.819  34.802  1.00  0.00     0.010 A 
ATOM     84  C   UNL A   1      38.290  30.873  33.684  1.00  0.00     0.010 A 
ATOM     85  C   UNL A   1      37.995  33.486  34.677  1.00  0.00     0.020 A 
ATOM     86  C   UNL A   1      37.060  31.537  33.573  1.00  0.00     0.020 A 
ATOM     87  C   UNL A   1      36.951  32.868  33.990  1.00  0.00     0.054 A 
BRANCH  87  88
ATOM     88  S   UNL A   1      35.527  33.886  33.488  1.00  0.00     0.124 S 
ATOM     89  O   UNL A   1      34.572  32.885  33.025  1.00  0.00    -0.237 OA
ATOM     90  O   UNL A   1      35.176  34.568  34.736  1.00  0.00    -0.237 OA
ATOM     91  O   UNL A   1      36.085  34.750  32.453  1.00  0.00    -0.744 OA
ENDBRANCH  87  88
ENDBRANCH  59  82
BRANCH  71  92
ATOM     92  C   UNL A   1      44.333  26.187  34.309  1.00  0.00    -0.014 A 
ATOM     93  C   UNL A   1      43.580  25.020  34.510  1.00  0.00     0.010 A 
ATOM     94  C   UNL A   1      45.607  26.246  34.922  1.00  0.00     0.010 A 
ATOM     95  C   UNL A   1      44.101  23.940  35.241  1.00  0.00     0.020 A 
ATOM     96  C   UNL A   1      46.128  25.186  35.666  1.00  0.00     0.020 A 
ATOM     97  C   UNL A   1      45.377  24.028  35.806  1.00  0.00     0.054 A 
BRANCH  97  98
ATOM     98  S   UNL A   1      46.018  22.637  36.773  1.00  0.00     0.124 S 
ATOM     99  O   UNL A   1      45.509  22.919  38.113  1.00  0.00    -0.237 OA
ATOM    100  O   UNL A   1      45.408  21.495  36.098  1.00  0.00    -0.237 OA
ATOM    101  O   UNL A   1      47.467  22.747  36.627  1.00  0.00    -0.744 OA
ENDBRANCH  97  98
ENDBRANCH  71  92
ENDBRANCH  45  46
ENDBRANCH  37  40
ENDBRANCH  35  36
ENDBRANCH  34  35
ENDBRANCH  33  34
ENDBRANCH  32  33
ENDBRANCH   1  32
TORSDOF 21
ENDMDL
MODEL 3
REMARK VINA RESULT:     -12.2      2.710      4.721
REMARK SMILES Cc1cccc(NC(=O)COc2ccc(N3C[C@@H](C(=O)NCCCCCCNC(=O)c4ccc(-c5c6nc(c(-c7ccc(S(=O)(=O)[O-])cc7)c7ccc([nH]7)c(-c7ccc(S(=O)(=O)[O-])cc7)c7nc(c(-c8ccc(S(=O)(=O)[O-])cc8)c8ccc5[nH]8)C=C7)C=C6)cc4)CC3=O)cc2)c1
REMARK SMILES IDX 23 1 22 2 21 3 19 4 20 5 18 7 16 8 17 9 92 10 91 11 93 12
REMARK SMILES IDX 15 13 12 14 13 15 95 16 14 17 94 18 11 19 10 20 8 21 7 22
REMARK SMILES IDX 9 24 6 25 1 26 2 27 3 28 96 29 4 30 5 31 24 32 25 33 26 34
REMARK SMILES IDX 27 35 28 36 29 37 30 39 31 40 32 41 90 42 33 43 89 44 34 45
REMARK SMILES IDX 35 46 36 47 83 48 37 49 88 50 82 51 84 52 38 53 87 54 81 55
REMARK SMILES IDX 80 56 39 58 69 59 50 60 68 61 51 62 54 63 67 64 85 65 52 66
REMARK SMILES IDX 53 67 66 69 86 70 55 71 40 72 41 73 49 74 42 75 48 76 43 77
REMARK SMILES IDX 44 78 45 79 46 80 47 81 70 82 71 83 79 84 72 85 78 86 73 87
REMARK SMILES IDX 74 88 75 89 76 90 77 91 56 92 57 93 65 94 58 95 64 96 59 97
REMARK SMILES IDX 60 98 61 99 62 100 63 101
REMARK H PARENT 21 6 7 23 28 38 84 57 54 68
REMARK Flexibility Score: inf
ROOT
ATOM      1  C   UNL A   1      32.286  27.288  26.262  1.00  0.00     0.021 C 
ENDROOT
BRANCH   1   2
ATOM      2  C   UNL A   1      32.367  25.806  25.900  1.00  0.00     0.116 C 
BRANCH   2   3
ATOM      3  N   UNL A   1      31.381  25.005  26.606  1.00  0.00    -0.356 N 
ATOM      4  C   UNL A   1      31.153  23.669  26.649  1.00  0.00     0.225 C 
ATOM      5  O   UNL A   1      30.297  23.263  27.441  1.00  0.00    -0.275 OA
ATOM      6  H   UNL A   1      30.760  25.534  27.158  1.00  0.00     0.163 HD
BRANCH   4   7
ATOM      7  C   UNL A   1      31.926  22.663  25.819  1.00  0.00     0.107 C 
ATOM      8  N   UNL A   1      34.199  22.414  25.222  1.00  0.00    -0.312 N 
ATOM      9  C   UNL A   1      33.317  22.408  26.363  1.00  0.00     0.139 C 
ATOM     10  C   UNL A   1      33.540  22.776  24.045  1.00  0.00     0.227 C 
ATOM     11  C   UNL A   1      32.080  22.998  24.347  1.00  0.00     0.116 C 
ATOM     12  O   UNL A   1      34.001  22.874  22.917  1.00  0.00    -0.274 OA
BRANCH   8  13
ATOM     13  C   UNL A   1      35.588  22.147  25.338  1.00  0.00     0.044 A 
ATOM     14  C   UNL A   1      38.356  21.621  25.561  1.00  0.00     0.120 A 
ATOM     15  C   UNL A   1      37.860  22.900  25.797  1.00  0.00     0.048 A 
ATOM     16  C   UNL A   1      37.473  20.598  25.236  1.00  0.00     0.048 A 
ATOM     17  C   UNL A   1      36.493  23.169  25.657  1.00  0.00     0.030 A 
ATOM     18  C   UNL A   1      36.100  20.859  25.139  1.00  0.00     0.030 A 
BRANCH  14  19
ATOM     19  O   UNL A   1      39.693  21.451  25.766  1.00  0.00    -0.484 OA
BRANCH  19  20
ATOM     20  C   UNL A   1      40.122  20.118  25.984  1.00  0.00     0.329 C 
BRANCH  20  21
ATOM     21  C   UNL A   1      41.610  19.775  25.929  1.00  0.00     0.262 C 
ATOM     22  N   UNL A   1      42.605  20.700  26.024  1.00  0.00    -0.323 N 
ATOM     23  H   UNL A   1      43.498  20.292  26.088  1.00  0.00     0.170 HD
ATOM     24  O   UNL A   1      41.959  18.594  25.796  1.00  0.00    -0.271 OA
BRANCH  22  25
ATOM     25  C   UNL A   1      42.646  22.103  26.051  1.00  0.00     0.041 A 
ATOM     26  C   UNL A   1      41.914  24.727  28.735  1.00  0.00     0.044 C 
ATOM     27  C   UNL A   1      42.300  24.099  27.429  1.00  0.00    -0.049 A 
ATOM     28  C   UNL A   1      42.668  24.900  26.347  1.00  0.00     0.003 A 
ATOM     29  C   UNL A   1      42.297  22.705  27.271  1.00  0.00     0.029 A 
ATOM     30  C   UNL A   1      43.037  24.313  25.139  1.00  0.00     0.002 A 
ATOM     31  C   UNL A   1      43.038  22.921  24.996  1.00  0.00     0.026 A 
ENDBRANCH  22  25
ENDBRANCH  20  21
ENDBRANCH  19  20
ENDBRANCH  14  19
ENDBRANCH   8  13
ENDBRANCH   4   7
ENDBRANCH   2   3
ENDBRANCH   1   2
BRANCH   1  32
ATOM     32  C   UNL A   1      31.454  28.168  25.316  1.00  0.00     0.002 C 
BRANCH  32  33
ATOM     33  C   UNL A   1      31.658  29.690  25.398  1.00  0.00     0.002 C 
BRANCH  33  34
ATOM     34  C   UNL A   1      31.891  30.294  26.786  1.00  0.00     0.021 C 
BRANCH  34  35
ATOM     35  C   UNL A   1      33.346  30.589  27.117  1.00  0.00     0.116 C 
BRANCH  35  36
ATOM     36  N   UNL A   1      33.605  31.910  27.668  1.00  0.00    -0.352 N 
ATOM     37  C   UNL A   1      34.413  32.049  28.798  1.00  0.00     0.251 C 
ATOM     38  H   UNL A   1      33.210  32.706  27.244  1.00  0.00     0.163 HD
ATOM     39  O   UNL A   1      34.058  32.526  29.855  1.00  0.00    -0.269 OA
BRANCH  37  40
ATOM     40  C   UNL A   1      35.783  31.512  28.621  1.00  0.00     0.039 A 
ATOM     41  C   UNL A   1      36.056  30.182  28.943  1.00  0.00     0.014 A 
ATOM     42  C   UNL A   1      36.811  32.426  28.394  1.00  0.00     0.014 A 
ATOM     43  C   UNL A   1      37.376  29.801  29.189  1.00  0.00     0.010 A 
ATOM     44  C   UNL A   1      38.096  32.075  28.742  1.00  0.00     0.010 A 
ATOM     45  C   UNL A   1      38.378  30.772  29.173  1.00  0.00    -0.014 A 
BRANCH  45  46
ATOM     46  C   UNL A   1      39.743  30.563  29.642  1.00  0.00     0.031 A 
ATOM     47  C   UNL A   1      40.585  29.513  29.026  1.00  0.00     0.074 A 
ATOM     48  C   UNL A   1      40.300  31.421  30.526  1.00  0.00     0.049 A 
ATOM     49  N   UNL A   1      41.656  29.031  29.565  1.00  0.00    -0.248 NA
ATOM     50  C   UNL A   1      40.258  28.890  27.748  1.00  0.00     0.031 C 
ATOM     51  C   UNL A   1      41.723  31.578  30.819  1.00  0.00     0.029 A 
ATOM     52  N   UNL A   1      39.673  32.183  31.512  1.00  0.00    -0.354 N 
ATOM     53  C   UNL A   1      42.314  28.310  28.595  1.00  0.00     0.074 A 
ATOM     54  C   UNL A   1      41.363  28.177  27.515  1.00  0.00     0.031 C 
ATOM     55  C   UNL A   1      41.851  32.099  32.047  1.00  0.00     0.029 A 
ATOM     56  C   UNL A   1      40.522  32.144  32.632  1.00  0.00     0.049 A 
ATOM     57  H   UNL A   1      38.811  32.654  31.438  1.00  0.00     0.167 HD
ATOM     58  C   UNL A   1      43.637  28.020  28.749  1.00  0.00     0.031 A 
ATOM     59  C   UNL A   1      40.162  31.602  33.835  1.00  0.00     0.031 A 
ATOM     60  C   UNL A   1      44.159  28.459  30.044  1.00  0.00     0.049 A 
ATOM     61  C   UNL A   1      41.060  30.455  34.278  1.00  0.00     0.074 A 
ATOM     62  C   UNL A   1      45.005  29.471  30.468  1.00  0.00     0.029 A 
ATOM     63  N   UNL A   1      43.582  27.946  31.195  1.00  0.00    -0.354 N 
ATOM     64  N   UNL A   1      42.095  30.025  33.610  1.00  0.00    -0.248 NA
ATOM     65  C   UNL A   1      40.793  29.634  35.461  1.00  0.00     0.031 C 
ATOM     66  C   UNL A   1      44.939  29.545  31.890  1.00  0.00     0.029 A 
ATOM     67  C   UNL A   1      44.059  28.573  32.327  1.00  0.00     0.049 A 
ATOM     68  H   UNL A   1      42.916  27.221  31.203  1.00  0.00     0.167 HD
ATOM     69  C   UNL A   1      42.569  28.874  34.183  1.00  0.00     0.074 A 
ATOM     70  C   UNL A   1      41.737  28.681  35.355  1.00  0.00     0.031 C 
ATOM     71  C   UNL A   1      43.566  28.130  33.620  1.00  0.00     0.031 A 
BRANCH  58  72
ATOM     72  C   UNL A   1      44.517  27.536  27.616  1.00  0.00    -0.014 A 
ATOM     73  C   UNL A   1      45.323  26.392  27.792  1.00  0.00     0.010 A 
ATOM     74  C   UNL A   1      44.629  28.182  26.370  1.00  0.00     0.010 A 
ATOM     75  C   UNL A   1      46.266  25.988  26.835  1.00  0.00     0.020 A 
ATOM     76  C   UNL A   1      45.596  27.817  25.420  1.00  0.00     0.020 A 
ATOM     77  C   UNL A   1      46.421  26.727  25.666  1.00  0.00     0.054 A 
BRANCH  77  78
ATOM     78  S   UNL A   1      47.712  26.255  24.486  1.00  0.00     0.124 S 
ATOM     79  O   UNL A   1      48.929  26.371  25.285  1.00  0.00    -0.237 OA
ATOM     80  O   UNL A   1      47.323  24.896  24.123  1.00  0.00    -0.237 OA
ATOM     81  O   UNL A   1      47.582  27.244  23.418  1.00  0.00    -0.744 OA
ENDBRANCH  77  78
ENDBRANCH  58  72
BRANCH  59  82
ATOM     82  C   UNL A   1      38.703  31.722  34.124  1.00  0.00    -0.014 A 
ATOM     83  C   UNL A   1      38.304  32.771  34.982  1.00  0.00     0.010 A 
ATOM     84  C   UNL A   1      37.758  31.169  33.243  1.00  0.00     0.010 A 
ATOM     85  C   UNL A   1      37.063  33.392  34.814  1.00  0.00     0.020 A 
ATOM     86  C   UNL A   1      36.507  31.782  33.085  1.00  0.00     0.020 A 
ATOM     87  C   UNL A   1      36.209  32.941  33.810  1.00  0.00     0.054 A 
BRANCH  87  88
ATOM     88  S   UNL A   1      34.799  33.993  33.338  1.00  0.00     0.124 S 
ATOM     89  O   UNL A   1      35.208  34.505  32.035  1.00  0.00    -0.237 OA
ATOM     90  O   UNL A   1      33.689  33.038  33.324  1.00  0.00    -0.237 OA
ATOM     91  O   UNL A   1      34.746  34.978  34.413  1.00  0.00    -0.744 OA
ENDBRANCH  87  88
ENDBRANCH  59  82
BRANCH  71  92
ATOM     92  C   UNL A   1      44.129  26.864  34.213  1.00  0.00    -0.014 A 
ATOM     93  C   UNL A   1      44.821  26.837  35.434  1.00  0.00     0.010 A 
ATOM     94  C   UNL A   1      44.090  25.662  33.467  1.00  0.00     0.010 A 
ATOM     95  C   UNL A   1      45.393  25.648  35.914  1.00  0.00     0.020 A 
ATOM     96  C   UNL A   1      44.671  24.479  33.926  1.00  0.00     0.020 A 
ATOM     97  C   UNL A   1      45.306  24.474  35.159  1.00  0.00     0.054 A 
BRANCH  97  98
ATOM     98  S   UNL A   1      46.081  22.959  35.780  1.00  0.00     0.124 S 
ATOM     99  O   UNL A   1      45.928  22.039  34.656  1.00  0.00    -0.237 OA
ATOM    100  O   UNL A   1      47.446  23.405  36.044  1.00  0.00    -0.237 OA
ATOM    101  O   UNL A   1      45.295  22.624  36.964  1.00  0.00    -0.744 OA
ENDBRANCH  97  98
ENDBRANCH  71  92
ENDBRANCH  45  46
ENDBRANCH  37  40
ENDBRANCH  35  36
ENDBRANCH  34  35
ENDBRANCH  33  34
ENDBRANCH  32  33
ENDBRANCH   1  32
TORSDOF 21
ENDMDL
