MODEL 1
REMARK VINA RESULT:     -10.7      0.000      0.000
REMARK SMILES CC[N@@H+]1CCO[C@H](C[NH2+][C@@H]2CCC[C@H](C(=O)NCCCCCCNC(=O)c3ccc(-c4c5nc(c(-c6ccc(S(=O)(=O)[O-])cc6)c6ccc([nH]6)c(-c6ccc(S(=O)(=O)[O-])cc6)c6nc(c(-c7ccc(S(=O)(=O)[O-])cc7)c7ccc4[nH]7)C=C6)C=C5)cc3)C2)C1
REMARK SMILES IDX 20 1 19 2 18 3 17 4 15 5 16 6 14 8 10 9 11 10 87 11 12 12
REMARK SMILES IDX 13 13 9 14 8 17 7 18 3 19 4 20 88 21 5 23 6 24 2 25 1 26
REMARK SMILES IDX 21 27 22 28 23 29 24 30 25 31 26 33 27 34 28 35 86 36 29 37
REMARK SMILES IDX 85 38 30 39 31 40 32 41 79 42 33 43 84 44 78 45 80 46 34 47
REMARK SMILES IDX 83 48 77 49 76 50 35 52 65 53 46 54 64 55 47 56 50 57 63 58
REMARK SMILES IDX 81 59 48 60 49 61 62 63 82 64 51 65 36 66 37 67 45 68 38 69
REMARK SMILES IDX 44 70 39 71 40 72 41 73 42 74 43 75 66 76 67 77 75 78 68 79
REMARK SMILES IDX 74 80 69 81 70 82 71 83 72 84 73 85 52 86 53 87 61 88 54 89
REMARK SMILES IDX 60 90 55 91 56 92 57 93 58 94 59 95
REMARK H PARENT 17 7 9 15 9 16 3 22 24 32 80 51 50 62
REMARK Flexibility Score: inf
ROOT
ATOM      1  C   UNL A   1      32.488  27.335  26.606  1.00  0.00     0.002 C 
ENDROOT
BRANCH   1   2
ATOM      2  C   UNL A   1      31.105  26.705  26.809  1.00  0.00     0.021 C 
BRANCH   2   3
ATOM      3  C   UNL A   1      30.755  25.608  25.807  1.00  0.00     0.116 C 
BRANCH   3   4
ATOM      4  N   UNL A   1      29.467  25.846  25.174  1.00  0.00    -0.356 N 
ATOM      5  C   UNL A   1      29.132  26.537  24.049  1.00  0.00     0.223 C 
ATOM      6  O   UNL A   1      27.940  26.579  23.733  1.00  0.00    -0.275 OA
ATOM      7  H   UNL A   1      28.703  25.437  25.641  1.00  0.00     0.163 HD
BRANCH   5   8
ATOM      8  C   UNL A   1      30.179  27.233  23.186  1.00  0.00     0.084 C 
ATOM      9  C   UNL A   1      32.556  26.925  22.200  1.00  0.00     0.183 C 
ATOM     10  C   UNL A   1      32.944  28.192  22.977  1.00  0.00     0.065 C 
ATOM     11  C   UNL A   1      31.314  26.265  22.819  1.00  0.00     0.078 C 
ATOM     12  C   UNL A   1      31.789  29.181  23.059  1.00  0.00     0.007 C 
ATOM     13  C   UNL A   1      30.607  28.572  23.793  1.00  0.00     0.014 C 
BRANCH   9  14
ATOM     14  N   UNL A   1      33.595  25.885  22.200  1.00  0.00    -0.341 N 
ATOM     15  H   UNL A   1      33.596  25.446  21.279  1.00  0.00     0.346 HD
ATOM     16  H   UNL A   1      34.463  26.364  22.438  1.00  0.00     0.346 HD
BRANCH  14  17
ATOM     17  C   UNL A   1      33.446  24.826  23.196  1.00  0.00     0.299 C 
BRANCH  17  18
ATOM     18  C   UNL A   1      33.853  23.422  22.675  1.00  0.00     0.227 C 
ATOM     19  N   UNL A   1      33.339  21.704  24.551  1.00  0.00    -0.331 N 
ATOM     20  C   UNL A   1      34.802  21.583  24.678  1.00  0.00     0.291 C 
ATOM     21  C   UNL A   1      33.028  22.209  23.197  1.00  0.00     0.300 C 
ATOM     22  H   UNL A   1      32.904  20.787  24.652  1.00  0.00     0.348 HD
ATOM     23  C   UNL A   1      35.574  22.833  24.235  1.00  0.00     0.222 C 
ATOM     24  O   UNL A   1      35.267  23.211  22.884  1.00  0.00    -0.361 OA
BRANCH  19  25
ATOM     25  C   UNL A   1      32.743  22.482  25.637  1.00  0.00     0.258 C 
ATOM     26  C   UNL A   1      33.569  22.422  26.918  1.00  0.00     0.071 C 
ENDBRANCH  19  25
ENDBRANCH  17  18
ENDBRANCH  14  17
ENDBRANCH   9  14
ENDBRANCH   5   8
ENDBRANCH   3   4
ENDBRANCH   2   3
ENDBRANCH   1   2
BRANCH   1  27
ATOM     27  C   UNL A   1      32.684  28.706  27.259  1.00  0.00     0.002 C 
BRANCH  27  28
ATOM     28  C   UNL A   1      33.849  29.537  26.710  1.00  0.00     0.021 C 
BRANCH  28  29
ATOM     29  C   UNL A   1      35.174  29.361  27.445  1.00  0.00     0.116 C 
BRANCH  29  30
ATOM     30  N   UNL A   1      35.177  30.022  28.740  1.00  0.00    -0.352 N 
ATOM     31  C   UNL A   1      36.184  30.137  29.663  1.00  0.00     0.251 C 
ATOM     32  H   UNL A   1      34.328  30.453  28.991  1.00  0.00     0.163 HD
ATOM     33  O   UNL A   1      35.929  30.581  30.784  1.00  0.00    -0.269 OA
BRANCH  31  34
ATOM     34  C   UNL A   1      37.564  29.722  29.331  1.00  0.00     0.039 A 
ATOM     35  C   UNL A   1      37.956  29.703  27.990  1.00  0.00     0.014 A 
ATOM     36  C   UNL A   1      38.461  29.318  30.325  1.00  0.00     0.014 A 
ATOM     37  C   UNL A   1      39.255  29.321  27.649  1.00  0.00     0.010 A 
ATOM     38  C   UNL A   1      39.778  29.002  29.990  1.00  0.00     0.010 A 
ATOM     39  C   UNL A   1      40.186  28.991  28.648  1.00  0.00    -0.014 A 
BRANCH  39  40
ATOM     40  C   UNL A   1      41.583  28.624  28.297  1.00  0.00     0.031 A 
ATOM     41  C   UNL A   1      42.663  29.673  28.274  1.00  0.00     0.074 A 
ATOM     42  C   UNL A   1      41.872  27.351  27.961  1.00  0.00     0.049 A 
ATOM     43  N   UNL A   1      43.932  29.542  27.982  1.00  0.00    -0.248 NA
ATOM     44  C   UNL A   1      42.263  31.051  28.602  1.00  0.00     0.031 C 
ATOM     45  C   UNL A   1      40.906  26.251  27.904  1.00  0.00     0.029 A 
ATOM     46  N   UNL A   1      43.062  26.767  27.605  1.00  0.00    -0.354 N 
ATOM     47  C   UNL A   1      44.478  30.816  28.078  1.00  0.00     0.074 A 
ATOM     48  C   UNL A   1      43.393  31.715  28.406  1.00  0.00     0.031 C 
ATOM     49  C   UNL A   1      41.549  25.121  27.566  1.00  0.00     0.029 A 
ATOM     50  C   UNL A   1      42.960  25.420  27.348  1.00  0.00     0.049 A 
ATOM     51  H   UNL A   1      43.909  27.265  27.540  1.00  0.00     0.167 HD
ATOM     52  C   UNL A   1      45.768  31.203  27.928  1.00  0.00     0.031 A 
ATOM     53  C   UNL A   1      43.896  24.525  26.977  1.00  0.00     0.031 A 
ATOM     54  C   UNL A   1      46.848  30.305  27.612  1.00  0.00     0.049 A 
ATOM     55  C   UNL A   1      45.321  24.978  26.811  1.00  0.00     0.074 A 
ATOM     56  C   UNL A   1      48.198  30.591  27.494  1.00  0.00     0.029 A 
ATOM     57  N   UNL A   1      46.704  28.949  27.361  1.00  0.00    -0.354 N 
ATOM     58  N   UNL A   1      45.828  26.177  26.975  1.00  0.00    -0.248 NA
ATOM     59  C   UNL A   1      46.302  23.955  26.424  1.00  0.00     0.031 C 
ATOM     60  C   UNL A   1      48.862  29.417  27.123  1.00  0.00     0.029 A 
ATOM     61  C   UNL A   1      47.935  28.389  27.064  1.00  0.00     0.049 A 
ATOM     62  H   UNL A   1      45.851  28.457  27.390  1.00  0.00     0.167 HD
ATOM     63  C   UNL A   1      47.191  26.047  26.733  1.00  0.00     0.074 A 
ATOM     64  C   UNL A   1      47.431  24.650  26.430  1.00  0.00     0.031 C 
ATOM     65  C   UNL A   1      48.157  26.998  26.758  1.00  0.00     0.031 A 
BRANCH  52  66
ATOM     66  C   UNL A   1      46.081  32.667  28.101  1.00  0.00    -0.014 A 
ATOM     67  C   UNL A   1      46.412  33.194  29.362  1.00  0.00     0.010 A 
ATOM     68  C   UNL A   1      46.082  33.520  26.982  1.00  0.00     0.010 A 
ATOM     69  C   UNL A   1      46.694  34.555  29.509  1.00  0.00     0.020 A 
ATOM     70  C   UNL A   1      46.392  34.876  27.121  1.00  0.00     0.020 A 
ATOM     71  C   UNL A   1      46.678  35.389  28.388  1.00  0.00     0.054 A 
BRANCH  71  72
ATOM     72  S   UNL A   1      47.065  37.147  28.605  1.00  0.00     0.124 S 
ATOM     73  O   UNL A   1      48.219  37.312  27.723  1.00  0.00    -0.237 OA
ATOM     74  O   UNL A   1      45.838  37.804  28.161  1.00  0.00    -0.237 OA
ATOM     75  O   UNL A   1      47.350  37.266  30.033  1.00  0.00    -0.744 OA
ENDBRANCH  71  72
ENDBRANCH  52  66
BRANCH  53  76
ATOM     76  C   UNL A   1      43.517  23.102  26.757  1.00  0.00    -0.014 A 
ATOM     77  C   UNL A   1      43.696  22.502  25.498  1.00  0.00     0.010 A 
ATOM     78  C   UNL A   1      42.984  22.336  27.810  1.00  0.00     0.010 A 
ATOM     79  C   UNL A   1      43.334  21.168  25.291  1.00  0.00     0.020 A 
ATOM     80  C   UNL A   1      42.646  20.994  27.614  1.00  0.00     0.020 A 
ATOM     81  C   UNL A   1      42.811  20.422  26.352  1.00  0.00     0.054 A 
BRANCH  81  82
ATOM     82  S   UNL A   1      42.393  18.678  26.073  1.00  0.00     0.124 S 
ATOM     83  O   UNL A   1      40.989  18.762  25.682  1.00  0.00    -0.237 OA
ATOM     84  O   UNL A   1      43.323  18.296  25.014  1.00  0.00    -0.237 OA
ATOM     85  O   UNL A   1      42.647  18.055  27.370  1.00  0.00    -0.744 OA
ENDBRANCH  81  82
ENDBRANCH  53  76
BRANCH  65  86
ATOM     86  C   UNL A   1      49.568  26.558  26.470  1.00  0.00    -0.014 A 
ATOM     87  C   UNL A   1      50.352  25.936  27.457  1.00  0.00     0.010 A 
ATOM     88  C   UNL A   1      50.100  26.730  25.179  1.00  0.00     0.010 A 
ATOM     89  C   UNL A   1      51.656  25.524  27.169  1.00  0.00     0.020 A 
ATOM     90  C   UNL A   1      51.393  26.294  24.879  1.00  0.00     0.020 A 
ATOM     91  C   UNL A   1      52.169  25.708  25.880  1.00  0.00     0.054 A 
BRANCH  91  92
ATOM     92  S   UNL A   1      53.851  25.130  25.520  1.00  0.00     0.124 S 
ATOM     93  O   UNL A   1      54.089  25.697  24.196  1.00  0.00    -0.237 OA
ATOM     94  O   UNL A   1      54.631  25.719  26.606  1.00  0.00    -0.237 OA
ATOM     95  O   UNL A   1      53.733  23.675  25.564  1.00  0.00    -0.744 OA
ENDBRANCH  91  92
ENDBRANCH  65  86
ENDBRANCH  39  40
ENDBRANCH  31  34
ENDBRANCH  29  30
ENDBRANCH  28  29
ENDBRANCH  27  28
ENDBRANCH   1  27
TORSDOF 20
ENDMDL
MODEL 2
REMARK VINA RESULT:     -10.6      6.581     12.117
REMARK SMILES CC[N@@H+]1CCO[C@H](C[NH2+][C@@H]2CCC[C@H](C(=O)NCCCCCCNC(=O)c3ccc(-c4c5nc(c(-c6ccc(S(=O)(=O)[O-])cc6)c6ccc([nH]6)c(-c6ccc(S(=O)(=O)[O-])cc6)c6nc(c(-c7ccc(S(=O)(=O)[O-])cc7)c7ccc4[nH]7)C=C6)C=C5)cc3)C2)C1
REMARK SMILES IDX 20 1 19 2 18 3 17 4 15 5 16 6 14 8 10 9 11 10 87 11 12 12
REMARK SMILES IDX 13 13 9 14 8 17 7 18 3 19 4 20 88 21 5 23 6 24 2 25 1 26
REMARK SMILES IDX 21 27 22 28 23 29 24 30 25 31 26 33 27 34 28 35 86 36 29 37
REMARK SMILES IDX 85 38 30 39 31 40 32 41 79 42 33 43 84 44 78 45 80 46 34 47
REMARK SMILES IDX 83 48 77 49 76 50 35 52 65 53 46 54 64 55 47 56 50 57 63 58
REMARK SMILES IDX 81 59 48 60 49 61 62 63 82 64 51 65 36 66 37 67 45 68 38 69
REMARK SMILES IDX 44 70 39 71 40 72 41 73 42 74 43 75 66 76 67 77 75 78 68 79
REMARK SMILES IDX 74 80 69 81 70 82 71 83 72 84 73 85 52 86 53 87 61 88 54 89
REMARK SMILES IDX 60 90 55 91 56 92 57 93 58 94 59 95
REMARK H PARENT 17 7 9 15 9 16 3 22 24 32 80 51 50 62
REMARK Flexibility Score: inf
ROOT
ATOM      1  C   UNL A   1      40.411  21.252  26.506  1.00  0.00     0.002 C 
ENDROOT
BRANCH   1   2
ATOM      2  C   UNL A   1      39.493  22.462  26.305  1.00  0.00     0.021 C 
BRANCH   2   3
ATOM      3  C   UNL A   1      38.062  22.112  25.902  1.00  0.00     0.116 C 
BRANCH   3   4
ATOM      4  N   UNL A   1      37.775  22.508  24.531  1.00  0.00    -0.356 N 
ATOM      5  C   UNL A   1      36.650  23.019  23.960  1.00  0.00     0.223 C 
ATOM      6  O   UNL A   1      36.681  23.273  22.753  1.00  0.00    -0.275 OA
ATOM      7  H   UNL A   1      38.527  22.385  23.908  1.00  0.00     0.163 HD
BRANCH   5   8
ATOM      8  C   UNL A   1      35.385  23.289  24.768  1.00  0.00     0.084 C 
ATOM      9  C   UNL A   1      33.619  22.122  26.262  1.00  0.00     0.183 C 
ATOM     10  C   UNL A   1      32.575  22.589  25.236  1.00  0.00     0.065 C 
ATOM     11  C   UNL A   1      35.019  22.074  25.631  1.00  0.00     0.078 C 
ATOM     12  C   UNL A   1      32.942  23.935  24.627  1.00  0.00     0.007 C 
ATOM     13  C   UNL A   1      34.265  23.850  23.886  1.00  0.00     0.014 C 
BRANCH   9  14
ATOM     14  N   UNL A   1      33.376  20.770  26.786  1.00  0.00    -0.341 N 
ATOM     15  H   UNL A   1      33.934  20.660  27.633  1.00  0.00     0.346 HD
ATOM     16  H   UNL A   1      32.370  20.710  26.936  1.00  0.00     0.346 HD
BRANCH  14  17
ATOM     17  C   UNL A   1      33.705  19.664  25.890  1.00  0.00     0.299 C 
BRANCH  17  18
ATOM     18  C   UNL A   1      32.481  18.794  25.502  1.00  0.00     0.227 C 
ATOM     19  N   UNL A   1      33.369  16.659  24.324  1.00  0.00    -0.331 N 
ATOM     20  C   UNL A   1      32.778  17.233  23.101  1.00  0.00     0.291 C 
ATOM     21  C   UNL A   1      32.685  17.251  25.493  1.00  0.00     0.300 C 
ATOM     22  H   UNL A   1      33.214  15.652  24.345  1.00  0.00     0.348 HD
ATOM     23  C   UNL A   1      32.675  18.764  23.114  1.00  0.00     0.222 C 
ATOM     24  O   UNL A   1      31.934  19.248  24.244  1.00  0.00    -0.361 OA
BRANCH  19  25
ATOM     25  C   UNL A   1      34.826  16.779  24.353  1.00  0.00     0.258 C 
ATOM     26  C   UNL A   1      35.466  15.849  25.379  1.00  0.00     0.071 C 
ENDBRANCH  19  25
ENDBRANCH  17  18
ENDBRANCH  14  17
ENDBRANCH   9  14
ENDBRANCH   5   8
ENDBRANCH   3   4
ENDBRANCH   2   3
ENDBRANCH   1   2
BRANCH   1  27
ATOM     27  C   UNL A   1      41.879  21.476  26.133  1.00  0.00     0.002 C 
BRANCH  27  28
ATOM     28  C   UNL A   1      42.797  21.891  27.287  1.00  0.00     0.021 C 
BRANCH  28  29
ATOM     29  C   UNL A   1      43.051  23.391  27.408  1.00  0.00     0.116 C 
BRANCH  29  30
ATOM     30  N   UNL A   1      42.638  24.117  26.218  1.00  0.00    -0.352 N 
ATOM     31  C   UNL A   1      41.970  25.308  26.106  1.00  0.00     0.251 C 
ATOM     32  H   UNL A   1      42.875  23.688  25.364  1.00  0.00     0.163 HD
ATOM     33  O   UNL A   1      41.551  25.665  25.004  1.00  0.00    -0.269 OA
BRANCH  31  34
ATOM     34  C   UNL A   1      41.738  26.159  27.293  1.00  0.00     0.039 A 
ATOM     35  C   UNL A   1      42.586  27.247  27.516  1.00  0.00     0.014 A 
ATOM     36  C   UNL A   1      40.718  25.873  28.206  1.00  0.00     0.014 A 
ATOM     37  C   UNL A   1      42.386  28.071  28.626  1.00  0.00     0.010 A 
ATOM     38  C   UNL A   1      40.477  26.734  29.276  1.00  0.00     0.010 A 
ATOM     39  C   UNL A   1      41.314  27.837  29.503  1.00  0.00    -0.014 A 
BRANCH  39  40
ATOM     40  C   UNL A   1      41.069  28.733  30.663  1.00  0.00     0.031 A 
ATOM     41  C   UNL A   1      41.913  28.620  31.905  1.00  0.00     0.074 A 
ATOM     42  C   UNL A   1      40.059  29.625  30.612  1.00  0.00     0.049 A 
ATOM     43  N   UNL A   1      41.838  29.307  33.017  1.00  0.00    -0.248 NA
ATOM     44  C   UNL A   1      42.962  27.588  31.908  1.00  0.00     0.031 C 
ATOM     45  C   UNL A   1      39.144  29.804  29.483  1.00  0.00     0.029 A 
ATOM     46  N   UNL A   1      39.635  30.550  31.533  1.00  0.00    -0.354 N 
ATOM     47  C   UNL A   1      42.818  28.785  33.852  1.00  0.00     0.074 A 
ATOM     48  C   UNL A   1      43.440  27.691  33.139  1.00  0.00     0.031 C 
ATOM     49  C   UNL A   1      38.287  30.799  29.766  1.00  0.00     0.029 A 
ATOM     50  C   UNL A   1      38.568  31.305  31.106  1.00  0.00     0.049 A 
ATOM     51  H   UNL A   1      40.056  30.664  32.416  1.00  0.00     0.167 HD
ATOM     52  C   UNL A   1      43.184  29.192  35.092  1.00  0.00     0.031 A 
ATOM     53  C   UNL A   1      37.889  32.292  31.722  1.00  0.00     0.031 A 
ATOM     54  C   UNL A   1      42.570  30.287  35.796  1.00  0.00     0.049 A 
ATOM     55  C   UNL A   1      38.309  32.722  33.101  1.00  0.00     0.074 A 
ATOM     56  C   UNL A   1      42.906  30.811  37.033  1.00  0.00     0.029 A 
ATOM     57  N   UNL A   1      41.494  31.026  35.328  1.00  0.00    -0.354 N 
ATOM     58  N   UNL A   1      39.285  32.261  33.846  1.00  0.00    -0.248 NA
ATOM     59  C   UNL A   1      37.545  33.816  33.716  1.00  0.00     0.031 C 
ATOM     60  C   UNL A   1      42.002  31.834  37.334  1.00  0.00     0.029 A 
ATOM     61  C   UNL A   1      41.137  31.985  36.262  1.00  0.00     0.049 A 
ATOM     62  H   UNL A   1      41.051  30.889  34.460  1.00  0.00     0.167 HD
ATOM     63  C   UNL A   1      39.266  33.023  35.009  1.00  0.00     0.074 A 
ATOM     64  C   UNL A   1      38.195  33.987  34.859  1.00  0.00     0.031 C 
ATOM     65  C   UNL A   1      40.063  32.933  36.102  1.00  0.00     0.031 A 
BRANCH  52  66
ATOM     66  C   UNL A   1      44.300  28.440  35.771  1.00  0.00    -0.014 A 
ATOM     67  C   UNL A   1      44.035  27.315  36.573  1.00  0.00     0.010 A 
ATOM     68  C   UNL A   1      45.635  28.840  35.574  1.00  0.00     0.010 A 
ATOM     69  C   UNL A   1      45.080  26.631  37.201  1.00  0.00     0.020 A 
ATOM     70  C   UNL A   1      46.684  28.141  36.177  1.00  0.00     0.020 A 
ATOM     71  C   UNL A   1      46.398  27.051  37.003  1.00  0.00     0.054 A 
BRANCH  71  72
ATOM     72  S   UNL A   1      47.735  26.135  37.816  1.00  0.00     0.124 S 
ATOM     73  O   UNL A   1      47.656  26.641  39.186  1.00  0.00    -0.237 OA
ATOM     74  O   UNL A   1      47.326  24.744  37.637  1.00  0.00    -0.237 OA
ATOM     75  O   UNL A   1      48.929  26.531  37.074  1.00  0.00    -0.744 OA
ENDBRANCH  71  72
ENDBRANCH  52  66
BRANCH  53  76
ATOM     76  C   UNL A   1      36.752  32.956  31.029  1.00  0.00    -0.014 A 
ATOM     77  C   UNL A   1      35.436  32.793  31.497  1.00  0.00     0.010 A 
ATOM     78  C   UNL A   1      36.980  33.765  29.900  1.00  0.00     0.010 A 
ATOM     79  C   UNL A   1      34.369  33.411  30.840  1.00  0.00     0.020 A 
ATOM     80  C   UNL A   1      35.918  34.408  29.257  1.00  0.00     0.020 A 
ATOM     81  C   UNL A   1      34.617  34.216  29.724  1.00  0.00     0.054 A 
BRANCH  81  82
ATOM     82  S   UNL A   1      33.221  35.048  28.918  1.00  0.00     0.124 S 
ATOM     83  O   UNL A   1      32.352  35.349  30.051  1.00  0.00    -0.237 OA
ATOM     84  O   UNL A   1      33.861  36.199  28.286  1.00  0.00    -0.237 OA
ATOM     85  O   UNL A   1      32.714  34.041  27.988  1.00  0.00    -0.744 OA
ENDBRANCH  81  82
ENDBRANCH  53  76
BRANCH  65  86
ATOM     86  C   UNL A   1      39.822  33.916  37.216  1.00  0.00    -0.014 A 
ATOM     87  C   UNL A   1      38.875  33.659  38.222  1.00  0.00     0.010 A 
ATOM     88  C   UNL A   1      40.587  35.095  37.280  1.00  0.00     0.010 A 
ATOM     89  C   UNL A   1      38.672  34.579  39.255  1.00  0.00     0.020 A 
ATOM     90  C   UNL A   1      40.409  36.003  38.327  1.00  0.00     0.020 A 
ATOM     91  C   UNL A   1      39.440  35.747  39.299  1.00  0.00     0.054 A 
BRANCH  91  92
ATOM     92  S   UNL A   1      39.185  36.907  40.670  1.00  0.00     0.124 S 
ATOM     93  O   UNL A   1      40.555  37.277  41.014  1.00  0.00    -0.237 OA
ATOM     94  O   UNL A   1      38.385  37.962  40.054  1.00  0.00    -0.237 OA
ATOM     95  O   UNL A   1      38.485  36.108  41.673  1.00  0.00    -0.744 OA
ENDBRANCH  91  92
ENDBRANCH  65  86
ENDBRANCH  39  40
ENDBRANCH  31  34
ENDBRANCH  29  30
ENDBRANCH  28  29
ENDBRANCH  27  28
ENDBRANCH   1  27
TORSDOF 20
ENDMDL
MODEL 3
REMARK VINA RESULT:     -10.6      6.223      8.104
REMARK SMILES CC[N@@H+]1CCO[C@H](C[NH2+][C@@H]2CCC[C@H](C(=O)NCCCCCCNC(=O)c3ccc(-c4c5nc(c(-c6ccc(S(=O)(=O)[O-])cc6)c6ccc([nH]6)c(-c6ccc(S(=O)(=O)[O-])cc6)c6nc(c(-c7ccc(S(=O)(=O)[O-])cc7)c7ccc4[nH]7)C=C6)C=C5)cc3)C2)C1
REMARK SMILES IDX 20 1 19 2 18 3 17 4 15 5 16 6 14 8 10 9 11 10 87 11 12 12
REMARK SMILES IDX 13 13 9 14 8 17 7 18 3 19 4 20 88 21 5 23 6 24 2 25 1 26
REMARK SMILES IDX 21 27 22 28 23 29 24 30 25 31 26 33 27 34 28 35 86 36 29 37
REMARK SMILES IDX 85 38 30 39 31 40 32 41 79 42 33 43 84 44 78 45 80 46 34 47
REMARK SMILES IDX 83 48 77 49 76 50 35 52 65 53 46 54 64 55 47 56 50 57 63 58
REMARK SMILES IDX 81 59 48 60 49 61 62 63 82 64 51 65 36 66 37 67 45 68 38 69
REMARK SMILES IDX 44 70 39 71 40 72 41 73 42 74 43 75 66 76 67 77 75 78 68 79
REMARK SMILES IDX 74 80 69 81 70 82 71 83 72 84 73 85 52 86 53 87 61 88 54 89
REMARK SMILES IDX 60 90 55 91 56 92 57 93 58 94 59 95
REMARK H PARENT 17 7 9 15 9 16 3 22 24 32 80 51 50 62
REMARK Flexibility Score: inf
ROOT
ATOM      1  C   UNL A   1      33.103  29.360  27.250  1.00  0.00     0.002 C 
ENDROOT
BRANCH   1   2
ATOM      2  C   UNL A   1      33.907  28.662  26.148  1.00  0.00     0.021 C 
BRANCH   2   3
ATOM      3  C   UNL A   1      33.934  29.406  24.815  1.00  0.00     0.116 C 
BRANCH   3   4
ATOM      4  N   UNL A   1      33.914  28.489  23.685  1.00  0.00    -0.356 N 
ATOM      5  C   UNL A   1      32.922  27.706  23.179  1.00  0.00     0.223 C 
ATOM      6  O   UNL A   1      33.182  27.013  22.192  1.00  0.00    -0.275 OA
ATOM      7  H   UNL A   1      34.769  28.424  23.201  1.00  0.00     0.163 HD
BRANCH   5   8
ATOM      8  C   UNL A   1      31.524  27.679  23.789  1.00  0.00     0.084 C 
ATOM      9  C   UNL A   1      29.859  26.131  25.033  1.00  0.00     0.183 C 
ATOM     10  C   UNL A   1      28.900  26.369  23.856  1.00  0.00     0.065 C 
ATOM     11  C   UNL A   1      31.313  26.401  24.614  1.00  0.00     0.078 C 
ATOM     12  C   UNL A   1      29.047  27.771  23.281  1.00  0.00     0.007 C 
ATOM     13  C   UNL A   1      30.449  27.990  22.743  1.00  0.00     0.014 C 
BRANCH   9  14
ATOM     14  N   UNL A   1      29.847  24.752  25.542  1.00  0.00    -0.341 N 
ATOM     15  H   UNL A   1      29.852  24.796  26.561  1.00  0.00     0.346 HD
ATOM     16  H   UNL A   1      29.013  24.320  25.145  1.00  0.00     0.346 HD
BRANCH  14  17
ATOM     17  C   UNL A   1      30.962  23.903  25.129  1.00  0.00     0.299 C 
BRANCH  17  18
ATOM     18  C   UNL A   1      31.391  22.873  26.207  1.00  0.00     0.227 C 
ATOM     19  N   UNL A   1      33.952  22.513  25.981  1.00  0.00    -0.331 N 
ATOM     20  C   UNL A   1      33.599  21.170  25.487  1.00  0.00     0.291 C 
ATOM     21  C   UNL A   1      32.826  23.021  26.793  1.00  0.00     0.300 C 
ATOM     22  H   UNL A   1      34.774  22.458  26.582  1.00  0.00     0.348 HD
ATOM     23  C   UNL A   1      32.211  21.086  24.838  1.00  0.00     0.222 C 
ATOM     24  O   UNL A   1      31.170  21.531  25.721  1.00  0.00    -0.361 OA
BRANCH  19  25
ATOM     25  C   UNL A   1      34.376  23.412  24.908  1.00  0.00     0.258 C 
ATOM     26  C   UNL A   1      34.600  24.839  25.399  1.00  0.00     0.071 C 
ENDBRANCH  19  25
ENDBRANCH  17  18
ENDBRANCH  14  17
ENDBRANCH   9  14
ENDBRANCH   5   8
ENDBRANCH   3   4
ENDBRANCH   2   3
ENDBRANCH   1   2
BRANCH   1  27
ATOM     27  C   UNL A   1      31.788  30.000  26.794  1.00  0.00     0.002 C 
BRANCH  27  28
ATOM     28  C   UNL A   1      31.747  31.531  26.843  1.00  0.00     0.021 C 
BRANCH  28  29
ATOM     29  C   UNL A   1      33.020  32.197  27.359  1.00  0.00     0.116 C 
BRANCH  29  30
ATOM     30  N   UNL A   1      32.801  33.584  27.737  1.00  0.00    -0.352 N 
ATOM     31  C   UNL A   1      33.405  34.331  28.713  1.00  0.00     0.251 C 
ATOM     32  H   UNL A   1      32.116  34.057  27.211  1.00  0.00     0.163 HD
ATOM     33  O   UNL A   1      32.947  35.439  28.998  1.00  0.00    -0.269 OA
BRANCH  31  34
ATOM     34  C   UNL A   1      34.589  33.817  29.436  1.00  0.00     0.039 A 
ATOM     35  C   UNL A   1      34.397  32.891  30.465  1.00  0.00     0.014 A 
ATOM     36  C   UNL A   1      35.878  34.266  29.134  1.00  0.00     0.014 A 
ATOM     37  C   UNL A   1      35.498  32.385  31.160  1.00  0.00     0.010 A 
ATOM     38  C   UNL A   1      36.980  33.709  29.782  1.00  0.00     0.010 A 
ATOM     39  C   UNL A   1      36.802  32.770  30.808  1.00  0.00    -0.014 A 
BRANCH  39  40
ATOM     40  C   UNL A   1      37.980  32.204  31.515  1.00  0.00     0.031 A 
ATOM     41  C   UNL A   1      38.408  32.759  32.848  1.00  0.00     0.074 A 
ATOM     42  C   UNL A   1      38.690  31.214  30.937  1.00  0.00     0.049 A 
ATOM     43  N   UNL A   1      39.415  32.400  33.604  1.00  0.00    -0.248 NA
ATOM     44  C   UNL A   1      37.617  33.874  33.392  1.00  0.00     0.031 C 
ATOM     45  C   UNL A   1      38.403  30.619  29.630  1.00  0.00     0.029 A 
ATOM     46  N   UNL A   1      39.797  30.533  31.376  1.00  0.00    -0.354 N 
ATOM     47  C   UNL A   1      39.385  33.249  34.704  1.00  0.00     0.074 A 
ATOM     48  C   UNL A   1      38.292  34.174  34.492  1.00  0.00     0.031 C 
ATOM     49  C   UNL A   1      39.292  29.642  29.388  1.00  0.00     0.029 A 
ATOM     50  C   UNL A   1      40.231  29.563  30.503  1.00  0.00     0.049 A 
ATOM     51  H   UNL A   1      40.240  30.720  32.236  1.00  0.00     0.167 HD
ATOM     52  C   UNL A   1      40.180  33.249  35.801  1.00  0.00     0.031 A 
ATOM     53  C   UNL A   1      41.267  28.707  30.587  1.00  0.00     0.031 A 
ATOM     54  C   UNL A   1      41.260  32.322  36.015  1.00  0.00     0.049 A 
ATOM     55  C   UNL A   1      42.139  28.728  31.812  1.00  0.00     0.074 A 
ATOM     56  C   UNL A   1      42.087  32.204  37.118  1.00  0.00     0.029 A 
ATOM     57  N   UNL A   1      41.665  31.354  35.107  1.00  0.00    -0.354 N 
ATOM     58  N   UNL A   1      42.051  29.494  32.873  1.00  0.00    -0.248 NA
ATOM     59  C   UNL A   1      43.243  27.759  31.857  1.00  0.00     0.031 C 
ATOM     60  C   UNL A   1      43.024  31.198  36.857  1.00  0.00     0.029 A 
ATOM     61  C   UNL A   1      42.746  30.652  35.614  1.00  0.00     0.049 A 
ATOM     62  H   UNL A   1      41.245  31.191  34.232  1.00  0.00     0.167 HD
ATOM     63  C   UNL A   1      43.074  29.085  33.721  1.00  0.00     0.074 A 
ATOM     64  C   UNL A   1      43.755  27.992  33.058  1.00  0.00     0.031 C 
ATOM     65  C   UNL A   1      43.418  29.571  34.939  1.00  0.00     0.031 A 
BRANCH  52  66
ATOM     66  C   UNL A   1      39.912  34.291  36.857  1.00  0.00    -0.014 A 
ATOM     67  C   UNL A   1      39.105  34.003  37.972  1.00  0.00     0.010 A 
ATOM     68  C   UNL A   1      40.504  35.563  36.752  1.00  0.00     0.010 A 
ATOM     69  C   UNL A   1      38.859  34.981  38.940  1.00  0.00     0.020 A 
ATOM     70  C   UNL A   1      40.284  36.534  37.733  1.00  0.00     0.020 A 
ATOM     71  C   UNL A   1      39.447  36.242  38.812  1.00  0.00     0.054 A 
BRANCH  71  72
ATOM     72  S   UNL A   1      39.125  37.486  40.092  1.00  0.00     0.124 S 
ATOM     73  O   UNL A   1      40.436  38.118  40.233  1.00  0.00    -0.237 OA
ATOM     74  O   UNL A   1      38.091  38.316  39.481  1.00  0.00    -0.237 OA
ATOM     75  O   UNL A   1      38.689  36.696  41.241  1.00  0.00    -0.744 OA
ENDBRANCH  71  72
ENDBRANCH  52  66
BRANCH  53  76
ATOM     76  C   UNL A   1      41.524  27.742  29.483  1.00  0.00    -0.014 A 
ATOM     77  C   UNL A   1      42.673  27.862  28.682  1.00  0.00     0.010 A 
ATOM     78  C   UNL A   1      40.625  26.689  29.234  1.00  0.00     0.010 A 
ATOM     79  C   UNL A   1      42.909  26.958  27.642  1.00  0.00     0.020 A 
ATOM     80  C   UNL A   1      40.871  25.767  28.212  1.00  0.00     0.020 A 
ATOM     81  C   UNL A   1      42.006  25.916  27.414  1.00  0.00     0.054 A 
BRANCH  81  82
ATOM     82  S   UNL A   1      42.359  24.726  26.090  1.00  0.00     0.124 S 
ATOM     83  O   UNL A   1      42.014  25.491  24.895  1.00  0.00    -0.237 OA
ATOM     84  O   UNL A   1      43.781  24.455  26.279  1.00  0.00    -0.237 OA
ATOM     85  O   UNL A   1      41.473  23.605  26.394  1.00  0.00    -0.744 OA
ENDBRANCH  81  82
ENDBRANCH  53  76
BRANCH  65  86
ATOM     86  C   UNL A   1      44.572  28.910  35.646  1.00  0.00    -0.014 A 
ATOM     87  C   UNL A   1      44.372  27.803  36.488  1.00  0.00     0.010 A 
ATOM     88  C   UNL A   1      45.880  29.378  35.428  1.00  0.00     0.010 A 
ATOM     89  C   UNL A   1      45.456  27.195  37.127  1.00  0.00     0.020 A 
ATOM     90  C   UNL A   1      46.970  28.756  36.042  1.00  0.00     0.020 A 
ATOM     91  C   UNL A   1      46.749  27.678  36.901  1.00  0.00     0.054 A 
BRANCH  91  92
ATOM     92  S   UNL A   1      48.145  26.848  37.712  1.00  0.00     0.124 S 
ATOM     93  O   UNL A   1      48.319  27.655  38.916  1.00  0.00    -0.237 OA
ATOM     94  O   UNL A   1      47.632  25.498  37.928  1.00  0.00    -0.237 OA
ATOM     95  O   UNL A   1      49.223  26.949  36.732  1.00  0.00    -0.744 OA
ENDBRANCH  91  92
ENDBRANCH  65  86
ENDBRANCH  39  40
ENDBRANCH  31  34
ENDBRANCH  29  30
ENDBRANCH  28  29
ENDBRANCH  27  28
ENDBRANCH   1  27
TORSDOF 20
ENDMDL
