MODEL 1
REMARK VINA RESULT:     -11.0      0.000      0.000
REMARK SMILES C#CCN(CC(=O)NCCCCCCNC(=O)c1ccc(-c2c3nc(c(-c4ccc(S(=O)(=O)[O-])cc4)c4ccc([nH]4)c(-c4ccc(S(=O)(=O)[O-])cc4)c4nc(c(-c5ccc(S(=O)(=O)[O-])cc5)c5ccc2[nH]5)C=C4)C=C3)cc1)c1nnc(C)c2ccccc12
REMARK SMILES IDX 11 1 10 2 9 3 8 4 6 5 7 6 5 8 4 9 3 10 2 11 1 12 78 13 79 14
REMARK SMILES IDX 88 15 80 16 83 17 87 18 81 19 84 20 86 21 82 22 85 23 12 24
REMARK SMILES IDX 13 25 14 26 15 27 16 28 17 30 18 31 19 32 77 33 20 34 76 35
REMARK SMILES IDX 21 36 22 37 23 38 70 39 24 40 75 41 69 42 71 43 25 44 74 45
REMARK SMILES IDX 68 46 67 47 26 49 56 50 37 51 55 52 38 53 41 54 54 55 72 56
REMARK SMILES IDX 39 57 40 58 53 60 73 61 42 62 27 63 28 64 36 65 29 66 35 67
REMARK SMILES IDX 30 68 31 69 32 70 33 71 34 72 57 73 58 74 66 75 59 76 65 77
REMARK SMILES IDX 60 78 61 79 62 80 63 81 64 82 43 83 44 84 52 85 45 86 51 87
REMARK SMILES IDX 46 88 47 89 48 90 49 91 50 92
REMARK H PARENT 8 7 15 29 71 48 41 59
REMARK Flexibility Score: inf
ROOT
ATOM      1  C   UNL A   1      39.946  22.203  26.510  1.00  0.00     0.002 C 
ENDROOT
BRANCH   1   2
ATOM      2  C   UNL A   1      38.972  23.382  26.526  1.00  0.00     0.021 C 
BRANCH   2   3
ATOM      3  C   UNL A   1      37.827  23.164  25.541  1.00  0.00     0.116 C 
BRANCH   3   4
ATOM      4  N   UNL A   1      37.850  21.814  25.030  1.00  0.00    -0.355 N 
ATOM      5  C   UNL A   1      36.852  20.891  25.159  1.00  0.00     0.239 C 
ATOM      6  O   UNL A   1      37.055  19.729  24.803  1.00  0.00    -0.273 OA
ATOM      7  H   UNL A   1      38.660  21.534  24.544  1.00  0.00     0.163 HD
BRANCH   5   8
ATOM      8  C   UNL A   1      35.498  21.386  25.644  1.00  0.00     0.219 C 
BRANCH   8   9
ATOM      9  N   UNL A   1      34.462  21.486  24.543  1.00  0.00    -0.334 N 
BRANCH   9  10
ATOM     10  C   UNL A   1      33.153  20.430  24.941  1.00  0.00     0.208 C 
BRANCH  10  11
ATOM     11  C   UNL A   1      33.211  19.120  24.171  1.00  0.00    -0.085 C 
ATOM     12  C   UNL A   1      33.261  17.997  23.511  1.00  0.00     0.006 C 
ENDBRANCH  10  11
ENDBRANCH   9  10
BRANCH   9  13
ATOM     13  C   UNL A   1      34.430  22.916  24.281  1.00  0.00     0.160 A 
ATOM     14  N   UNL A   1      34.873  23.249  23.036  1.00  0.00    -0.132 NA
ATOM     15  C   UNL A   1      33.560  24.037  24.989  1.00  0.00     0.028 A 
ATOM     16  N   UNL A   1      34.210  24.229  22.342  1.00  0.00    -0.153 NA
ATOM     17  C   UNL A   1      33.881  25.202  24.357  1.00  0.00     0.009 A 
ATOM     18  C   UNL A   1      32.450  24.494  25.951  1.00  0.00     0.013 A 
ATOM     19  C   UNL A   1      33.511  25.127  23.039  1.00  0.00     0.068 A 
ATOM     20  C   UNL A   1      33.950  26.474  24.974  1.00  0.00     0.011 A 
ATOM     21  C   UNL A   1      32.115  25.886  26.252  1.00  0.00     0.001 A 
ATOM     22  C   UNL A   1      31.998  25.206  22.702  1.00  0.00     0.069 C 
ATOM     23  C   UNL A   1      32.983  26.880  25.856  1.00  0.00     0.001 A 
ENDBRANCH   9  13
ENDBRANCH   8   9
ENDBRANCH   5   8
ENDBRANCH   3   4
ENDBRANCH   2   3
ENDBRANCH   1   2
BRANCH   1  24
ATOM     24  C   UNL A   1      40.760  22.082  27.802  1.00  0.00     0.002 C 
BRANCH  24  25
ATOM     25  C   UNL A   1      42.260  21.896  27.562  1.00  0.00     0.021 C 
BRANCH  25  26
ATOM     26  C   UNL A   1      43.036  23.203  27.630  1.00  0.00     0.116 C 
BRANCH  26  27
ATOM     27  N   UNL A   1      42.970  23.909  26.363  1.00  0.00    -0.352 N 
ATOM     28  C   UNL A   1      42.431  25.141  26.076  1.00  0.00     0.251 C 
ATOM     29  H   UNL A   1      43.371  23.438  25.597  1.00  0.00     0.163 HD
ATOM     30  O   UNL A   1      42.203  25.451  24.925  1.00  0.00    -0.269 OA
BRANCH  28  31
ATOM     31  C   UNL A   1      42.126  26.068  27.188  1.00  0.00     0.039 A 
ATOM     32  C   UNL A   1      41.046  25.776  28.018  1.00  0.00     0.014 A 
ATOM     33  C   UNL A   1      42.888  27.222  27.397  1.00  0.00     0.014 A 
ATOM     34  C   UNL A   1      40.751  26.629  29.079  1.00  0.00     0.010 A 
ATOM     35  C   UNL A   1      42.660  28.009  28.520  1.00  0.00     0.010 A 
ATOM     36  C   UNL A   1      41.576  27.732  29.362  1.00  0.00    -0.014 A 
BRANCH  36  37
ATOM     37  C   UNL A   1      41.303  28.590  30.542  1.00  0.00     0.031 A 
ATOM     38  C   UNL A   1      42.139  28.471  31.786  1.00  0.00     0.074 A 
ATOM     39  C   UNL A   1      40.289  29.476  30.488  1.00  0.00     0.049 A 
ATOM     40  N   UNL A   1      42.068  29.170  32.891  1.00  0.00    -0.248 NA
ATOM     41  C   UNL A   1      43.175  27.425  31.807  1.00  0.00     0.031 C 
ATOM     42  C   UNL A   1      39.383  29.655  29.350  1.00  0.00     0.029 A 
ATOM     43  N   UNL A   1      39.857  30.403  31.402  1.00  0.00    -0.354 N 
ATOM     44  C   UNL A   1      43.040  28.647  33.735  1.00  0.00     0.074 A 
ATOM     45  C   UNL A   1      43.646  27.533  33.040  1.00  0.00     0.031 C 
ATOM     46  C   UNL A   1      38.542  30.666  29.612  1.00  0.00     0.029 A 
ATOM     47  C   UNL A   1      38.800  31.163  30.958  1.00  0.00     0.049 A 
ATOM     48  H   UNL A   1      40.264  30.513  32.292  1.00  0.00     0.167 HD
ATOM     49  C   UNL A   1      43.405  29.067  34.969  1.00  0.00     0.031 A 
ATOM     50  C   UNL A   1      38.104  32.142  31.568  1.00  0.00     0.031 A 
ATOM     51  C   UNL A   1      42.780  30.165  35.662  1.00  0.00     0.049 A 
ATOM     52  C   UNL A   1      38.499  32.555  32.957  1.00  0.00     0.074 A 
ATOM     53  C   UNL A   1      43.106  30.697  36.897  1.00  0.00     0.029 A 
ATOM     54  N   UNL A   1      41.689  30.885  35.194  1.00  0.00    -0.354 N 
ATOM     55  N   UNL A   1      39.473  32.100  33.708  1.00  0.00    -0.248 NA
ATOM     56  C   UNL A   1      37.708  33.627  33.575  1.00  0.00     0.031 C 
ATOM     57  C   UNL A   1      42.156  31.671  37.218  1.00  0.00     0.029 A 
ATOM     58  C   UNL A   1      41.302  31.824  36.137  1.00  0.00     0.049 A 
ATOM     59  H   UNL A   1      41.256  30.750  34.320  1.00  0.00     0.167 HD
ATOM     60  C   UNL A   1      39.432  32.853  34.877  1.00  0.00     0.074 A 
ATOM     61  C   UNL A   1      38.354  33.809  34.716  1.00  0.00     0.031 C 
ATOM     62  C   UNL A   1      40.218  32.763  35.979  1.00  0.00     0.031 A 
BRANCH  49  63
ATOM     63  C   UNL A   1      44.509  28.312  35.669  1.00  0.00    -0.014 A 
ATOM     64  C   UNL A   1      45.851  28.731  35.601  1.00  0.00     0.010 A 
ATOM     65  C   UNL A   1      44.188  27.186  36.450  1.00  0.00     0.010 A 
ATOM     66  C   UNL A   1      46.853  28.012  36.258  1.00  0.00     0.020 A 
ATOM     67  C   UNL A   1      45.181  26.489  37.145  1.00  0.00     0.020 A 
ATOM     68  C   UNL A   1      46.510  26.898  37.030  1.00  0.00     0.054 A 
BRANCH  68  69
ATOM     69  S   UNL A   1      47.828  26.004  37.898  1.00  0.00     0.124 S 
ATOM     70  O   UNL A   1      48.888  25.978  36.893  1.00  0.00    -0.237 OA
ATOM     71  O   UNL A   1      48.081  26.861  39.054  1.00  0.00    -0.237 OA
ATOM     72  O   UNL A   1      47.228  24.708  38.203  1.00  0.00    -0.744 OA
ENDBRANCH  68  69
ENDBRANCH  49  63
BRANCH  50  73
ATOM     73  C   UNL A   1      36.949  32.777  30.873  1.00  0.00    -0.014 A 
ATOM     74  C   UNL A   1      35.632  32.342  31.099  1.00  0.00     0.010 A 
ATOM     75  C   UNL A   1      37.172  33.835  29.971  1.00  0.00     0.010 A 
ATOM     76  C   UNL A   1      34.563  32.937  30.422  1.00  0.00     0.020 A 
ATOM     77  C   UNL A   1      36.104  34.462  29.327  1.00  0.00     0.020 A 
ATOM     78  C   UNL A   1      34.807  34.001  29.548  1.00  0.00     0.054 A 
BRANCH  78  79
ATOM     79  S   UNL A   1      33.399  34.803  28.732  1.00  0.00     0.124 S 
ATOM     80  O   UNL A   1      34.015  35.997  28.163  1.00  0.00    -0.237 OA
ATOM     81  O   UNL A   1      32.978  33.786  27.772  1.00  0.00    -0.237 OA
ATOM     82  O   UNL A   1      32.461  35.043  29.826  1.00  0.00    -0.744 OA
ENDBRANCH  78  79
ENDBRANCH  50  73
BRANCH  62  83
ATOM     83  C   UNL A   1      39.970  33.758  37.087  1.00  0.00    -0.014 A 
ATOM     84  C   UNL A   1      40.594  35.019  37.108  1.00  0.00     0.010 A 
ATOM     85  C   UNL A   1      39.077  33.424  38.123  1.00  0.00     0.010 A 
ATOM     86  C   UNL A   1      40.378  35.897  38.173  1.00  0.00     0.020 A 
ATOM     87  C   UNL A   1      38.818  34.320  39.162  1.00  0.00     0.020 A 
ATOM     88  C   UNL A   1      39.490  35.543  39.192  1.00  0.00     0.054 A 
BRANCH  88  89
ATOM     89  S   UNL A   1      39.211  36.712  40.549  1.00  0.00     0.124 S 
ATOM     90  O   UNL A   1      40.554  36.861  41.103  1.00  0.00    -0.237 OA
ATOM     91  O   UNL A   1      38.685  37.884  39.853  1.00  0.00    -0.237 OA
ATOM     92  O   UNL A   1      38.255  36.022  41.412  1.00  0.00    -0.744 OA
ENDBRANCH  88  89
ENDBRANCH  62  83
ENDBRANCH  36  37
ENDBRANCH  28  31
ENDBRANCH  26  27
ENDBRANCH  25  26
ENDBRANCH  24  25
ENDBRANCH   1  24
TORSDOF 20
ENDMDL
MODEL 2
REMARK VINA RESULT:     -10.8      6.092     10.465
REMARK SMILES C#CCN(CC(=O)NCCCCCCNC(=O)c1ccc(-c2c3nc(c(-c4ccc(S(=O)(=O)[O-])cc4)c4ccc([nH]4)c(-c4ccc(S(=O)(=O)[O-])cc4)c4nc(c(-c5ccc(S(=O)(=O)[O-])cc5)c5ccc2[nH]5)C=C4)C=C3)cc1)c1nnc(C)c2ccccc12
REMARK SMILES IDX 11 1 10 2 9 3 8 4 6 5 7 6 5 8 4 9 3 10 2 11 1 12 78 13 79 14
REMARK SMILES IDX 88 15 80 16 83 17 87 18 81 19 84 20 86 21 82 22 85 23 12 24
REMARK SMILES IDX 13 25 14 26 15 27 16 28 17 30 18 31 19 32 77 33 20 34 76 35
REMARK SMILES IDX 21 36 22 37 23 38 70 39 24 40 75 41 69 42 71 43 25 44 74 45
REMARK SMILES IDX 68 46 67 47 26 49 56 50 37 51 55 52 38 53 41 54 54 55 72 56
REMARK SMILES IDX 39 57 40 58 53 60 73 61 42 62 27 63 28 64 36 65 29 66 35 67
REMARK SMILES IDX 30 68 31 69 32 70 33 71 34 72 57 73 58 74 66 75 59 76 65 77
REMARK SMILES IDX 60 78 61 79 62 80 63 81 64 82 43 83 44 84 52 85 45 86 51 87
REMARK SMILES IDX 46 88 47 89 48 90 49 91 50 92
REMARK H PARENT 8 7 15 29 71 48 41 59
REMARK Flexibility Score: inf
ROOT
ATOM      1  C   UNL A   1      40.653  22.910  26.782  1.00  0.00     0.002 C 
ENDROOT
BRANCH   1   2
ATOM      2  C   UNL A   1      39.561  23.897  27.196  1.00  0.00     0.021 C 
BRANCH   2   3
ATOM      3  C   UNL A   1      38.249  23.603  26.476  1.00  0.00     0.116 C 
BRANCH   3   4
ATOM      4  N   UNL A   1      38.408  22.485  25.576  1.00  0.00    -0.355 N 
ATOM      5  C   UNL A   1      37.451  21.558  25.272  1.00  0.00     0.239 C 
ATOM      6  O   UNL A   1      37.758  20.572  24.601  1.00  0.00    -0.273 OA
ATOM      7  H   UNL A   1      39.285  22.382  25.141  1.00  0.00     0.163 HD
BRANCH   5   8
ATOM      8  C   UNL A   1      36.022  21.860  25.699  1.00  0.00     0.219 C 
BRANCH   8   9
ATOM      9  N   UNL A   1      34.998  21.590  24.616  1.00  0.00    -0.334 N 
BRANCH   9  10
ATOM     10  C   UNL A   1      33.906  20.385  25.200  1.00  0.00     0.208 C 
BRANCH  10  11
ATOM     11  C   UNL A   1      34.197  19.010  24.620  1.00  0.00    -0.085 C 
ATOM     12  C   UNL A   1      34.446  17.831  24.123  1.00  0.00     0.006 C 
ENDBRANCH  10  11
ENDBRANCH   9  10
BRANCH   9  13
ATOM     13  C   UNL A   1      34.702  22.930  24.133  1.00  0.00     0.160 A 
ATOM     14  N   UNL A   1      34.740  23.036  22.775  1.00  0.00    -0.132 NA
ATOM     15  C   UNL A   1      33.914  24.097  24.861  1.00  0.00     0.028 A 
ATOM     16  N   UNL A   1      33.786  23.797  22.148  1.00  0.00    -0.153 NA
ATOM     17  C   UNL A   1      33.889  25.130  23.972  1.00  0.00     0.009 A 
ATOM     18  C   UNL A   1      33.056  24.650  26.012  1.00  0.00     0.013 A 
ATOM     19  C   UNL A   1      33.188  24.760  22.854  1.00  0.00     0.068 A 
ATOM     20  C   UNL A   1      33.950  26.503  24.313  1.00  0.00     0.011 A 
ATOM     21  C   UNL A   1      32.630  26.042  26.154  1.00  0.00     0.001 A 
ATOM     22  C   UNL A   1      31.644  24.645  22.966  1.00  0.00     0.069 C 
ATOM     23  C   UNL A   1      33.214  27.001  25.356  1.00  0.00     0.001 A 
ENDBRANCH   9  13
ENDBRANCH   8   9
ENDBRANCH   5   8
ENDBRANCH   3   4
ENDBRANCH   2   3
ENDBRANCH   1   2
BRANCH   1  24
ATOM     24  C   UNL A   1      41.127  22.022  27.937  1.00  0.00     0.002 C 
BRANCH  24  25
ATOM     25  C   UNL A   1      41.378  20.570  27.527  1.00  0.00     0.021 C 
BRANCH  25  26
ATOM     26  C   UNL A   1      41.193  20.336  26.035  1.00  0.00     0.116 C 
BRANCH  26  27
ATOM     27  N   UNL A   1      42.311  19.589  25.487  1.00  0.00    -0.352 N 
ATOM     28  C   UNL A   1      43.527  20.042  25.033  1.00  0.00     0.251 C 
ATOM     29  H   UNL A   1      42.179  18.615  25.431  1.00  0.00     0.163 HD
ATOM     30  O   UNL A   1      44.225  19.326  24.346  1.00  0.00    -0.269 OA
BRANCH  28  31
ATOM     31  C   UNL A   1      43.961  21.412  25.388  1.00  0.00     0.039 A 
ATOM     32  C   UNL A   1      43.705  22.443  24.486  1.00  0.00     0.014 A 
ATOM     33  C   UNL A   1      44.627  21.671  26.589  1.00  0.00     0.014 A 
ATOM     34  C   UNL A   1      44.093  23.741  24.806  1.00  0.00     0.010 A 
ATOM     35  C   UNL A   1      44.912  22.982  26.954  1.00  0.00     0.010 A 
ATOM     36  C   UNL A   1      44.667  24.029  26.058  1.00  0.00    -0.014 A 
BRANCH  36  37
ATOM     37  C   UNL A   1      45.003  25.427  26.426  1.00  0.00     0.031 A 
ATOM     38  C   UNL A   1      43.953  26.347  26.986  1.00  0.00     0.074 A 
ATOM     39  C   UNL A   1      46.264  25.867  26.245  1.00  0.00     0.049 A 
ATOM     40  N   UNL A   1      44.083  27.582  27.399  1.00  0.00    -0.248 NA
ATOM     41  C   UNL A   1      42.579  25.827  27.077  1.00  0.00     0.031 C 
ATOM     42  C   UNL A   1      47.360  25.079  25.673  1.00  0.00     0.029 A 
ATOM     43  N   UNL A   1      46.844  27.076  26.536  1.00  0.00    -0.354 N 
ATOM     44  C   UNL A   1      42.813  27.986  27.793  1.00  0.00     0.074 A 
ATOM     45  C   UNL A   1      41.916  26.888  27.511  1.00  0.00     0.031 C 
ATOM     46  C   UNL A   1      48.487  25.805  25.707  1.00  0.00     0.029 A 
ATOM     47  C   UNL A   1      48.185  27.129  26.238  1.00  0.00     0.049 A 
ATOM     48  H   UNL A   1      46.347  27.833  26.921  1.00  0.00     0.167 HD
ATOM     49  C   UNL A   1      42.433  29.158  28.353  1.00  0.00     0.031 A 
ATOM     50  C   UNL A   1      49.074  28.133  26.362  1.00  0.00     0.031 A 
ATOM     51  C   UNL A   1      43.332  30.255  28.610  1.00  0.00     0.049 A 
ATOM     52  C   UNL A   1      48.615  29.441  26.941  1.00  0.00     0.074 A 
ATOM     53  C   UNL A   1      43.054  31.469  29.214  1.00  0.00     0.029 A 
ATOM     54  N   UNL A   1      44.675  30.283  28.260  1.00  0.00    -0.354 N 
ATOM     55  N   UNL A   1      47.425  29.776  27.380  1.00  0.00    -0.248 NA
ATOM     56  C   UNL A   1      49.624  30.502  27.055  1.00  0.00     0.031 C 
ATOM     57  C   UNL A   1      44.200  32.265  29.142  1.00  0.00     0.029 A 
ATOM     58  C   UNL A   1      45.225  31.512  28.593  1.00  0.00     0.049 A 
ATOM     59  H   UNL A   1      45.165  29.540  27.838  1.00  0.00     0.167 HD
ATOM     60  C   UNL A   1      47.551  31.078  27.853  1.00  0.00     0.074 A 
ATOM     61  C   UNL A   1      48.939  31.454  27.669  1.00  0.00     0.031 C 
ATOM     62  C   UNL A   1      46.604  31.886  28.393  1.00  0.00     0.031 A 
BRANCH  49  63
ATOM     63  C   UNL A   1      40.972  29.333  28.692  1.00  0.00    -0.014 A 
ATOM     64  C   UNL A   1      40.522  29.376  30.025  1.00  0.00     0.010 A 
ATOM     65  C   UNL A   1      40.038  29.505  27.654  1.00  0.00     0.010 A 
ATOM     66  C   UNL A   1      39.164  29.538  30.310  1.00  0.00     0.020 A 
ATOM     67  C   UNL A   1      38.684  29.710  27.934  1.00  0.00     0.020 A 
ATOM     68  C   UNL A   1      38.254  29.709  29.262  1.00  0.00     0.054 A 
BRANCH  68  69
ATOM     69  S   UNL A   1      36.502  29.950  29.663  1.00  0.00     0.124 S 
ATOM     70  O   UNL A   1      36.408  31.406  29.743  1.00  0.00    -0.237 OA
ATOM     71  O   UNL A   1      35.829  29.339  28.519  1.00  0.00    -0.237 OA
ATOM     72  O   UNL A   1      36.335  29.246  30.932  1.00  0.00    -0.744 OA
ENDBRANCH  68  69
ENDBRANCH  49  63
BRANCH  50  73
ATOM     73  C   UNL A   1      50.480  27.943  25.906  1.00  0.00    -0.014 A 
ATOM     74  C   UNL A   1      50.846  28.146  24.564  1.00  0.00     0.010 A 
ATOM     75  C   UNL A   1      51.469  27.553  26.830  1.00  0.00     0.010 A 
ATOM     76  C   UNL A   1      52.166  27.943  24.151  1.00  0.00     0.020 A 
ATOM     77  C   UNL A   1      52.796  27.392  26.431  1.00  0.00     0.020 A 
ATOM     78  C   UNL A   1      53.135  27.578  25.091  1.00  0.00     0.054 A 
BRANCH  78  79
ATOM     79  S   UNL A   1      54.854  27.385  24.546  1.00  0.00     0.124 S 
ATOM     80  O   UNL A   1      54.796  26.144  23.782  1.00  0.00    -0.237 OA
ATOM     81  O   UNL A   1      55.071  28.601  23.768  1.00  0.00    -0.237 OA
ATOM     82  O   UNL A   1      55.603  27.314  25.799  1.00  0.00    -0.744 OA
ENDBRANCH  78  79
ENDBRANCH  50  73
BRANCH  62  83
ATOM     83  C   UNL A   1      47.048  33.248  28.869  1.00  0.00    -0.014 A 
ATOM     84  C   UNL A   1      47.529  33.459  30.174  1.00  0.00     0.010 A 
ATOM     85  C   UNL A   1      46.995  34.338  27.979  1.00  0.00     0.010 A 
ATOM     86  C   UNL A   1      47.888  34.742  30.596  1.00  0.00     0.020 A 
ATOM     87  C   UNL A   1      47.403  35.611  28.381  1.00  0.00     0.020 A 
ATOM     88  C   UNL A   1      47.825  35.809  29.697  1.00  0.00     0.054 A 
BRANCH  88  89
ATOM     89  S   UNL A   1      48.318  37.458  30.265  1.00  0.00     0.124 S 
ATOM     90  O   UNL A   1      47.808  38.314  29.198  1.00  0.00    -0.237 OA
ATOM     91  O   UNL A   1      47.626  37.570  31.547  1.00  0.00    -0.237 OA
ATOM     92  O   UNL A   1      49.774  37.375  30.352  1.00  0.00    -0.744 OA
ENDBRANCH  88  89
ENDBRANCH  62  83
ENDBRANCH  36  37
ENDBRANCH  28  31
ENDBRANCH  26  27
ENDBRANCH  25  26
ENDBRANCH  24  25
ENDBRANCH   1  24
TORSDOF 20
ENDMDL
MODEL 3
REMARK VINA RESULT:     -10.4      5.996     11.880
REMARK SMILES C#CCN(CC(=O)NCCCCCCNC(=O)c1ccc(-c2c3nc(c(-c4ccc(S(=O)(=O)[O-])cc4)c4ccc([nH]4)c(-c4ccc(S(=O)(=O)[O-])cc4)c4nc(c(-c5ccc(S(=O)(=O)[O-])cc5)c5ccc2[nH]5)C=C4)C=C3)cc1)c1nnc(C)c2ccccc12
REMARK SMILES IDX 11 1 10 2 9 3 8 4 6 5 7 6 5 8 4 9 3 10 2 11 1 12 78 13 79 14
REMARK SMILES IDX 88 15 80 16 83 17 87 18 81 19 84 20 86 21 82 22 85 23 12 24
REMARK SMILES IDX 13 25 14 26 15 27 16 28 17 30 18 31 19 32 77 33 20 34 76 35
REMARK SMILES IDX 21 36 22 37 23 38 70 39 24 40 75 41 69 42 71 43 25 44 74 45
REMARK SMILES IDX 68 46 67 47 26 49 56 50 37 51 55 52 38 53 41 54 54 55 72 56
REMARK SMILES IDX 39 57 40 58 53 60 73 61 42 62 27 63 28 64 36 65 29 66 35 67
REMARK SMILES IDX 30 68 31 69 32 70 33 71 34 72 57 73 58 74 66 75 59 76 65 77
REMARK SMILES IDX 60 78 61 79 62 80 63 81 64 82 43 83 44 84 52 85 45 86 51 87
REMARK SMILES IDX 46 88 47 89 48 90 49 91 50 92
REMARK H PARENT 8 7 15 29 71 48 41 59
REMARK Flexibility Score: inf
ROOT
ATOM      1  C   UNL A   1      34.627  31.431  27.730  1.00  0.00     0.002 C 
ENDROOT
BRANCH   1   2
ATOM      2  C   UNL A   1      34.946  29.976  28.074  1.00  0.00     0.021 C 
BRANCH   2   3
ATOM      3  C   UNL A   1      34.387  29.025  27.020  1.00  0.00     0.116 C 
BRANCH   3   4
ATOM      4  N   UNL A   1      33.152  28.434  27.478  1.00  0.00    -0.355 N 
ATOM      5  C   UNL A   1      32.247  27.767  26.702  1.00  0.00     0.239 C 
ATOM      6  O   UNL A   1      31.164  27.436  27.188  1.00  0.00    -0.273 OA
ATOM      7  H   UNL A   1      32.944  28.520  28.436  1.00  0.00     0.163 HD
BRANCH   5   8
ATOM      8  C   UNL A   1      32.681  27.375  25.298  1.00  0.00     0.219 C 
BRANCH   8   9
ATOM      9  N   UNL A   1      31.859  26.251  24.703  1.00  0.00    -0.334 N 
BRANCH   9  10
ATOM     10  C   UNL A   1      30.896  26.910  23.427  1.00  0.00     0.208 C 
BRANCH  10  11
ATOM     11  C   UNL A   1      29.407  26.818  23.720  1.00  0.00    -0.085 C 
ATOM     12  C   UNL A   1      28.130  26.739  23.970  1.00  0.00     0.006 C 
ENDBRANCH  10  11
ENDBRANCH   9  10
BRANCH   9  13
ATOM     13  C   UNL A   1      32.822  25.162  24.646  1.00  0.00     0.160 A 
ATOM     14  N   UNL A   1      34.105  25.562  24.877  1.00  0.00    -0.132 NA
ATOM     15  C   UNL A   1      32.576  23.608  24.830  1.00  0.00     0.028 A 
ATOM     16  N   UNL A   1      34.913  24.764  25.645  1.00  0.00    -0.153 NA
ATOM     17  C   UNL A   1      33.804  23.027  24.713  1.00  0.00     0.009 A 
ATOM     18  C   UNL A   1      31.690  22.401  25.184  1.00  0.00     0.013 A 
ATOM     19  C   UNL A   1      34.618  23.465  25.726  1.00  0.00     0.068 A 
ATOM     20  C   UNL A   1      34.058  21.760  24.135  1.00  0.00     0.011 A 
ATOM     21  C   UNL A   1      32.096  20.998  25.092  1.00  0.00     0.001 A 
ATOM     22  C   UNL A   1      34.354  22.927  27.158  1.00  0.00     0.069 C 
ATOM     23  C   UNL A   1      33.257  20.686  24.419  1.00  0.00     0.001 A 
ENDBRANCH   9  13
ENDBRANCH   8   9
ENDBRANCH   5   8
ENDBRANCH   3   4
ENDBRANCH   2   3
ENDBRANCH   1   2
BRANCH   1  24
ATOM     24  C   UNL A   1      34.684  32.360  28.948  1.00  0.00     0.002 C 
BRANCH  24  25
ATOM     25  C   UNL A   1      35.891  33.300  28.942  1.00  0.00     0.021 C 
BRANCH  25  26
ATOM     26  C   UNL A   1      36.730  33.191  30.207  1.00  0.00     0.116 C 
BRANCH  26  27
ATOM     27  N   UNL A   1      36.278  32.088  31.034  1.00  0.00    -0.352 N 
ATOM     28  C   UNL A   1      36.750  30.799  31.108  1.00  0.00     0.251 C 
ATOM     29  H   UNL A   1      35.522  32.292  31.631  1.00  0.00     0.163 HD
ATOM     30  O   UNL A   1      36.080  29.934  31.633  1.00  0.00    -0.269 OA
BRANCH  28  31
ATOM     31  C   UNL A   1      38.077  30.486  30.531  1.00  0.00     0.039 A 
ATOM     32  C   UNL A   1      39.147  30.284  31.400  1.00  0.00     0.014 A 
ATOM     33  C   UNL A   1      38.264  30.413  29.148  1.00  0.00     0.014 A 
ATOM     34  C   UNL A   1      40.401  29.976  30.878  1.00  0.00     0.010 A 
ATOM     35  C   UNL A   1      39.488  29.996  28.636  1.00  0.00     0.010 A 
ATOM     36  C   UNL A   1      40.575  29.794  29.495  1.00  0.00    -0.014 A 
BRANCH  36  37
ATOM     37  C   UNL A   1      41.895  29.385  28.951  1.00  0.00     0.031 A 
ATOM     38  C   UNL A   1      43.019  30.378  28.842  1.00  0.00     0.074 A 
ATOM     39  C   UNL A   1      42.071  28.112  28.548  1.00  0.00     0.049 A 
ATOM     40  N   UNL A   1      44.247  30.182  28.431  1.00  0.00    -0.248 NA
ATOM     41  C   UNL A   1      42.731  31.770  29.221  1.00  0.00     0.031 C 
ATOM     42  C   UNL A   1      41.042  27.068  28.567  1.00  0.00     0.029 A 
ATOM     43  N   UNL A   1      43.181  27.472  28.056  1.00  0.00    -0.354 N 
ATOM     44  C   UNL A   1      44.871  31.421  28.498  1.00  0.00     0.074 A 
ATOM     45  C   UNL A   1      43.873  32.374  28.928  1.00  0.00     0.031 C 
ATOM     46  C   UNL A   1      41.583  25.909  28.164  1.00  0.00     0.029 A 
ATOM     47  C   UNL A   1      42.974  26.138  27.792  1.00  0.00     0.049 A 
ATOM     48  H   UNL A   1      44.043  27.923  27.907  1.00  0.00     0.167 HD
ATOM     49  C   UNL A   1      46.164  31.733  28.240  1.00  0.00     0.031 A 
ATOM     50  C   UNL A   1      43.804  25.202  27.291  1.00  0.00     0.031 A 
ATOM     51  C   UNL A   1      47.146  30.780  27.790  1.00  0.00     0.049 A 
ATOM     52  C   UNL A   1      45.220  25.587  26.967  1.00  0.00     0.074 A 
ATOM     53  C   UNL A   1      48.492  30.987  27.544  1.00  0.00     0.029 A 
ATOM     54  N   UNL A   1      46.889  29.447  27.499  1.00  0.00    -0.354 N 
ATOM     55  N   UNL A   1      45.813  26.748  27.112  1.00  0.00    -0.248 NA
ATOM     56  C   UNL A   1      46.082  24.529  26.426  1.00  0.00     0.031 C 
ATOM     57  C   UNL A   1      49.025  29.809  27.012  1.00  0.00     0.029 A 
ATOM     58  C   UNL A   1      48.041  28.835  27.030  1.00  0.00     0.049 A 
ATOM     59  H   UNL A   1      46.017  29.003  27.610  1.00  0.00     0.167 HD
ATOM     60  C   UNL A   1      47.130  26.551  26.709  1.00  0.00     0.074 A 
ATOM     61  C   UNL A   1      47.247  25.154  26.343  1.00  0.00     0.031 C 
ATOM     62  C   UNL A   1      48.148  27.446  26.651  1.00  0.00     0.031 A 
BRANCH  49  63
ATOM     63  C   UNL A   1      46.583  33.175  28.400  1.00  0.00    -0.014 A 
ATOM     64  C   UNL A   1      46.476  34.098  27.344  1.00  0.00     0.010 A 
ATOM     65  C   UNL A   1      47.052  33.624  29.649  1.00  0.00     0.010 A 
ATOM     66  C   UNL A   1      46.872  35.427  27.519  1.00  0.00     0.020 A 
ATOM     67  C   UNL A   1      47.409  34.961  29.842  1.00  0.00     0.020 A 
ATOM     68  C   UNL A   1      47.332  35.850  28.770  1.00  0.00     0.054 A 
BRANCH  68  69
ATOM     69  S   UNL A   1      47.809  37.587  28.976  1.00  0.00     0.124 S 
ATOM     70  O   UNL A   1      49.224  37.558  28.613  1.00  0.00    -0.237 OA
ATOM     71  O   UNL A   1      46.931  38.270  28.029  1.00  0.00    -0.237 OA
ATOM     72  O   UNL A   1      47.535  37.859  30.385  1.00  0.00    -0.744 OA
ENDBRANCH  68  69
ENDBRANCH  49  63
BRANCH  50  73
ATOM     73  C   UNL A   1      43.306  23.819  27.047  1.00  0.00    -0.014 A 
ATOM     74  C   UNL A   1      43.093  23.341  25.743  1.00  0.00     0.010 A 
ATOM     75  C   UNL A   1      43.041  22.968  28.137  1.00  0.00     0.010 A 
ATOM     76  C   UNL A   1      42.605  22.047  25.534  1.00  0.00     0.020 A 
ATOM     77  C   UNL A   1      42.596  21.662  27.932  1.00  0.00     0.020 A 
ATOM     78  C   UNL A   1      42.371  21.212  26.631  1.00  0.00     0.054 A 
BRANCH  78  79
ATOM     79  S   UNL A   1      41.803  19.516  26.335  1.00  0.00     0.124 S 
ATOM     80  O   UNL A   1      42.252  18.827  27.540  1.00  0.00    -0.237 OA
ATOM     81  O   UNL A   1      40.359  19.690  26.203  1.00  0.00    -0.237 OA
ATOM     82  O   UNL A   1      42.491  19.135  25.103  1.00  0.00    -0.744 OA
ENDBRANCH  78  79
ENDBRANCH  50  73
BRANCH  62  83
ATOM     83  C   UNL A   1      49.498  26.930  26.216  1.00  0.00    -0.014 A 
ATOM     84  C   UNL A   1      50.309  26.158  27.068  1.00  0.00     0.010 A 
ATOM     85  C   UNL A   1      49.955  27.212  24.915  1.00  0.00     0.010 A 
ATOM     86  C   UNL A   1      51.573  25.734  26.649  1.00  0.00     0.020 A 
ATOM     87  C   UNL A   1      51.195  26.747  24.474  1.00  0.00     0.020 A 
ATOM     88  C   UNL A   1      52.007  26.030  25.354  1.00  0.00     0.054 A 
BRANCH  88  89
ATOM     89  S   UNL A   1      53.642  25.449  24.830  1.00  0.00     0.124 S 
ATOM     90  O   UNL A   1      54.528  26.422  25.461  1.00  0.00    -0.237 OA
ATOM     91  O   UNL A   1      53.691  24.099  25.388  1.00  0.00    -0.237 OA
ATOM     92  O   UNL A   1      53.584  25.515  23.371  1.00  0.00    -0.744 OA
ENDBRANCH  88  89
ENDBRANCH  62  83
ENDBRANCH  36  37
ENDBRANCH  28  31
ENDBRANCH  26  27
ENDBRANCH  25  26
ENDBRANCH  24  25
ENDBRANCH   1  24
TORSDOF 20
ENDMDL
