MODEL 1
REMARK VINA RESULT:     -12.9      0.000      0.000
REMARK SMILES Cc1ccc(C(=O)NCCCCCCNC(=O)c2ccc(-c3c4nc(c(-c5ccc(S(=O)(=O)[O-])cc5)c5ccc([nH]5)c(-c5ccc(S(=O)(=O)[O-])cc5)c5nc(c(-c6ccc(S(=O)(=O)[O-])cc6)c6ccc3[nH]6)C=C5)C=C4)cc2)cc1N1C(=O)/C(=C/c2ccc([N+](=O)[O-])cc2)SC1=S
REMARK SMILES IDX 11 1 10 2 9 3 8 4 6 5 7 6 5 8 1 9 2 10 3 11 79 12 4 13 78 14
REMARK SMILES IDX 80 15 81 16 95 17 82 18 83 19 94 20 96 21 84 22 85 23 86 24
REMARK SMILES IDX 93 25 87 26 92 27 88 28 89 29 90 30 91 31 12 32 13 33 14 34
REMARK SMILES IDX 15 35 16 36 17 38 18 39 19 40 77 41 20 42 76 43 21 44 22 45
REMARK SMILES IDX 23 46 70 47 24 48 75 49 69 50 71 51 25 52 74 53 68 54 67 55
REMARK SMILES IDX 26 57 56 58 37 59 55 60 38 61 41 62 54 63 72 64 39 65 40 66
REMARK SMILES IDX 53 68 73 69 42 70 27 71 28 72 36 73 29 74 35 75 30 76 31 77
REMARK SMILES IDX 32 78 33 79 34 80 57 81 58 82 66 83 59 84 65 85 60 86 61 87
REMARK SMILES IDX 62 88 63 89 64 90 43 91 44 92 52 93 45 94 51 95 46 96 47 97
REMARK SMILES IDX 48 98 49 99 50 100
REMARK H PARENT 8 7 15 37 71 56 41 67
REMARK Flexibility Score: inf
ROOT
ATOM      1  C   UNL A   1      32.869  28.596  24.726  1.00  0.00     0.002 C 
ENDROOT
BRANCH   1   2
ATOM      2  C   UNL A   1      32.862  28.806  23.210  1.00  0.00     0.021 C 
BRANCH   2   3
ATOM      3  C   UNL A   1      34.023  28.200  22.426  1.00  0.00     0.116 C 
BRANCH   3   4
ATOM      4  N   UNL A   1      33.715  26.966  21.728  1.00  0.00    -0.352 N 
ATOM      5  C   UNL A   1      33.437  25.673  22.105  1.00  0.00     0.251 C 
ATOM      6  O   UNL A   1      33.037  24.920  21.210  1.00  0.00    -0.269 OA
ATOM      7  H   UNL A   1      33.703  27.081  20.751  1.00  0.00     0.163 HD
BRANCH   5   8
ATOM      8  C   UNL A   1      33.619  25.089  23.474  1.00  0.00     0.041 A 
ATOM      9  C   UNL A   1      33.684  23.259  27.432  1.00  0.00     0.046 C 
ATOM     10  C   UNL A   1      33.686  23.869  26.060  1.00  0.00    -0.027 A 
ATOM     11  C   UNL A   1      32.584  24.632  25.651  1.00  0.00     0.006 A 
ATOM     12  C   UNL A   1      34.759  23.745  25.170  1.00  0.00     0.054 A 
ATOM     13  C   UNL A   1      32.540  25.200  24.368  1.00  0.00     0.014 A 
ATOM     14  C   UNL A   1      34.744  24.417  23.935  1.00  0.00     0.041 A 
BRANCH  12  15
ATOM     15  N   UNL A   1      35.831  22.843  25.395  1.00  0.00    -0.261 N 
ATOM     16  C   UNL A   1      37.058  23.309  25.836  1.00  0.00     0.270 C 
ATOM     17  C   UNL A   1      35.747  21.496  25.062  1.00  0.00     0.152 C 
ATOM     18  O   UNL A   1      37.340  24.449  26.183  1.00  0.00    -0.268 OA
ATOM     19  C   UNL A   1      38.053  22.199  25.798  1.00  0.00     0.081 C 
ATOM     20  S   UNL A   1      37.295  20.719  25.374  1.00  0.00    -0.054 SA
ATOM     21  S   UNL A   1      34.440  20.638  24.470  1.00  0.00    -0.051 S 
ATOM     22  C   UNL A   1      39.353  22.403  26.043  1.00  0.00     0.029 C 
BRANCH  22  23
ATOM     23  C   UNL A   1      40.393  21.371  26.059  1.00  0.00    -0.024 A 
ATOM     24  C   UNL A   1      40.080  20.005  26.096  1.00  0.00     0.015 A 
ATOM     25  C   UNL A   1      41.734  21.773  26.004  1.00  0.00     0.015 A 
ATOM     26  C   UNL A   1      41.097  19.045  26.040  1.00  0.00     0.086 A 
ATOM     27  C   UNL A   1      42.756  20.823  25.949  1.00  0.00     0.086 A 
ATOM     28  C   UNL A   1      42.433  19.461  25.949  1.00  0.00     0.269 A 
BRANCH  28  29
ATOM     29  N   UNL A   1      43.503  18.464  25.801  1.00  0.00     0.062 N 
ATOM     30  O   UNL A   1      43.655  17.639  26.711  1.00  0.00    -0.258 OA
ATOM     31  O   UNL A   1      44.161  18.482  24.749  1.00  0.00    -0.258 OA
ENDBRANCH  28  29
ENDBRANCH  22  23
ENDBRANCH  12  15
ENDBRANCH   5   8
ENDBRANCH   3   4
ENDBRANCH   2   3
ENDBRANCH   1   2
BRANCH   1  32
ATOM     32  C   UNL A   1      31.518  28.653  25.455  1.00  0.00     0.002 C 
BRANCH  32  33
ATOM     33  C   UNL A   1      31.533  29.033  26.937  1.00  0.00     0.021 C 
BRANCH  33  34
ATOM     34  C   UNL A   1      32.925  29.226  27.526  1.00  0.00     0.116 C 
BRANCH  34  35
ATOM     35  N   UNL A   1      33.293  30.630  27.651  1.00  0.00    -0.352 N 
ATOM     36  C   UNL A   1      34.427  31.150  28.247  1.00  0.00     0.251 C 
ATOM     37  H   UNL A   1      32.664  31.282  27.266  1.00  0.00     0.163 HD
ATOM     38  O   UNL A   1      34.551  32.327  28.542  1.00  0.00    -0.269 OA
BRANCH  36  39
ATOM     39  C   UNL A   1      35.562  30.218  28.394  1.00  0.00     0.039 A 
ATOM     40  C   UNL A   1      35.833  29.752  29.686  1.00  0.00     0.014 A 
ATOM     41  C   UNL A   1      36.484  30.086  27.361  1.00  0.00     0.014 A 
ATOM     42  C   UNL A   1      37.111  29.293  29.986  1.00  0.00     0.010 A 
ATOM     43  C   UNL A   1      37.775  29.719  27.684  1.00  0.00     0.010 A 
ATOM     44  C   UNL A   1      38.096  29.364  29.002  1.00  0.00    -0.014 A 
BRANCH  44  45
ATOM     45  C   UNL A   1      39.509  29.135  29.269  1.00  0.00     0.031 A 
ATOM     46  C   UNL A   1      40.123  27.847  28.885  1.00  0.00     0.074 A 
ATOM     47  C   UNL A   1      40.275  30.116  29.797  1.00  0.00     0.049 A 
ATOM     48  N   UNL A   1      41.167  27.340  29.453  1.00  0.00    -0.248 NA
ATOM     49  C   UNL A   1      39.569  26.998  27.833  1.00  0.00     0.031 C 
ATOM     50  C   UNL A   1      41.733  30.143  29.867  1.00  0.00     0.029 A 
ATOM     51  N   UNL A   1      39.881  31.200  30.585  1.00  0.00    -0.354 N 
ATOM     52  C   UNL A   1      41.599  26.311  28.648  1.00  0.00     0.074 A 
ATOM     53  C   UNL A   1      40.527  26.075  27.710  1.00  0.00     0.031 C 
ATOM     54  C   UNL A   1      42.097  30.958  30.869  1.00  0.00     0.029 A 
ATOM     55  C   UNL A   1      40.880  31.354  31.558  1.00  0.00     0.049 A 
ATOM     56  H   UNL A   1      39.067  31.745  30.479  1.00  0.00     0.167 HD
ATOM     57  C   UNL A   1      42.886  25.872  28.732  1.00  0.00     0.031 A 
ATOM     58  C   UNL A   1      40.663  31.235  32.900  1.00  0.00     0.031 A 
ATOM     59  C   UNL A   1      43.638  26.567  29.770  1.00  0.00     0.049 A 
ATOM     60  C   UNL A   1      41.543  30.185  33.551  1.00  0.00     0.074 A 
ATOM     61  C   UNL A   1      44.553  27.607  29.736  1.00  0.00     0.029 A 
ATOM     62  N   UNL A   1      43.261  26.420  31.100  1.00  0.00    -0.354 N 
ATOM     63  N   UNL A   1      42.182  29.257  32.893  1.00  0.00    -0.248 NA
ATOM     64  C   UNL A   1      41.745  30.075  34.992  1.00  0.00     0.031 C 
ATOM     65  C   UNL A   1      44.687  28.120  31.051  1.00  0.00     0.029 A 
ATOM     66  C   UNL A   1      43.869  27.379  31.886  1.00  0.00     0.049 A 
ATOM     67  H   UNL A   1      42.644  25.728  31.434  1.00  0.00     0.167 HD
ATOM     68  C   UNL A   1      42.876  28.456  33.765  1.00  0.00     0.074 A 
ATOM     69  C   UNL A   1      42.570  29.014  35.070  1.00  0.00     0.031 C 
ATOM     70  C   UNL A   1      43.639  27.408  33.326  1.00  0.00     0.031 A 
BRANCH  57  71
ATOM     71  C   UNL A   1      43.512  25.054  27.629  1.00  0.00    -0.014 A 
ATOM     72  C   UNL A   1      44.566  24.168  27.930  1.00  0.00     0.010 A 
ATOM     73  C   UNL A   1      43.147  25.162  26.273  1.00  0.00     0.010 A 
ATOM     74  C   UNL A   1      45.292  23.512  26.927  1.00  0.00     0.020 A 
ATOM     75  C   UNL A   1      43.889  24.540  25.256  1.00  0.00     0.020 A 
ATOM     76  C   UNL A   1      44.968  23.726  25.590  1.00  0.00     0.054 A 
BRANCH  76  77
ATOM     77  S   UNL A   1      45.989  22.949  24.310  1.00  0.00     0.124 S 
ATOM     78  O   UNL A   1      46.504  21.763  24.991  1.00  0.00    -0.237 OA
ATOM     79  O   UNL A   1      45.018  22.694  23.250  1.00  0.00    -0.237 OA
ATOM     80  O   UNL A   1      46.994  23.966  24.003  1.00  0.00    -0.744 OA
ENDBRANCH  76  77
ENDBRANCH  57  71
BRANCH  58  81
ATOM     81  C   UNL A   1      39.282  31.584  33.335  1.00  0.00    -0.014 A 
ATOM     82  C   UNL A   1      38.988  32.950  33.539  1.00  0.00     0.010 A 
ATOM     83  C   UNL A   1      38.221  30.685  33.130  1.00  0.00     0.010 A 
ATOM     84  C   UNL A   1      37.684  33.431  33.377  1.00  0.00     0.020 A 
ATOM     85  C   UNL A   1      36.911  31.165  32.976  1.00  0.00     0.020 A 
ATOM     86  C   UNL A   1      36.666  32.541  33.038  1.00  0.00     0.054 A 
BRANCH  86  87
ATOM     87  S   UNL A   1      35.072  33.232  32.497  1.00  0.00     0.124 S 
ATOM     88  O   UNL A   1      34.481  32.117  31.766  1.00  0.00    -0.237 OA
ATOM     89  O   UNL A   1      34.430  33.560  33.769  1.00  0.00    -0.237 OA
ATOM     90  O   UNL A   1      35.464  34.382  31.687  1.00  0.00    -0.744 OA
ENDBRANCH  86  87
ENDBRANCH  58  81
BRANCH  70  91
ATOM     91  C   UNL A   1      44.324  26.339  34.160  1.00  0.00    -0.014 A 
ATOM     92  C   UNL A   1      43.673  25.290  34.823  1.00  0.00     0.010 A 
ATOM     93  C   UNL A   1      45.744  26.326  34.206  1.00  0.00     0.010 A 
ATOM     94  C   UNL A   1      44.394  24.308  35.525  1.00  0.00     0.020 A 
ATOM     95  C   UNL A   1      46.473  25.331  34.864  1.00  0.00     0.020 A 
ATOM     96  C   UNL A   1      45.788  24.333  35.540  1.00  0.00     0.054 A 
BRANCH  96  97
ATOM     97  S   UNL A   1      46.700  23.018  36.386  1.00  0.00     0.124 S 
ATOM     98  O   UNL A   1      45.642  22.358  37.146  1.00  0.00    -0.237 OA
ATOM     99  O   UNL A   1      47.253  22.243  35.278  1.00  0.00    -0.237 OA
ATOM    100  O   UNL A   1      47.688  23.740  37.184  1.00  0.00    -0.744 OA
ENDBRANCH  96  97
ENDBRANCH  70  91
ENDBRANCH  44  45
ENDBRANCH  36  39
ENDBRANCH  34  35
ENDBRANCH  33  34
ENDBRANCH  32  33
ENDBRANCH   1  32
TORSDOF 19
ENDMDL
MODEL 2
REMARK VINA RESULT:     -11.2      7.494     12.095
REMARK SMILES Cc1ccc(C(=O)NCCCCCCNC(=O)c2ccc(-c3c4nc(c(-c5ccc(S(=O)(=O)[O-])cc5)c5ccc([nH]5)c(-c5ccc(S(=O)(=O)[O-])cc5)c5nc(c(-c6ccc(S(=O)(=O)[O-])cc6)c6ccc3[nH]6)C=C5)C=C4)cc2)cc1N1C(=O)/C(=C/c2ccc([N+](=O)[O-])cc2)SC1=S
REMARK SMILES IDX 11 1 10 2 9 3 8 4 6 5 7 6 5 8 1 9 2 10 3 11 79 12 4 13 78 14
REMARK SMILES IDX 80 15 81 16 95 17 82 18 83 19 94 20 96 21 84 22 85 23 86 24
REMARK SMILES IDX 93 25 87 26 92 27 88 28 89 29 90 30 91 31 12 32 13 33 14 34
REMARK SMILES IDX 15 35 16 36 17 38 18 39 19 40 77 41 20 42 76 43 21 44 22 45
REMARK SMILES IDX 23 46 70 47 24 48 75 49 69 50 71 51 25 52 74 53 68 54 67 55
REMARK SMILES IDX 26 57 56 58 37 59 55 60 38 61 41 62 54 63 72 64 39 65 40 66
REMARK SMILES IDX 53 68 73 69 42 70 27 71 28 72 36 73 29 74 35 75 30 76 31 77
REMARK SMILES IDX 32 78 33 79 34 80 57 81 58 82 66 83 59 84 65 85 60 86 61 87
REMARK SMILES IDX 62 88 63 89 64 90 43 91 44 92 52 93 45 94 51 95 46 96 47 97
REMARK SMILES IDX 48 98 49 99 50 100
REMARK H PARENT 8 7 15 37 71 56 41 67
REMARK Flexibility Score: inf
ROOT
ATOM      1  C   UNL A   1      40.629  34.524  31.064  1.00  0.00     0.002 C 
ENDROOT
BRANCH   1   2
ATOM      2  C   UNL A   1      41.666  34.342  29.953  1.00  0.00     0.021 C 
BRANCH   2   3
ATOM      3  C   UNL A   1      41.544  35.260  28.740  1.00  0.00     0.116 C 
BRANCH   3   4
ATOM      4  N   UNL A   1      42.663  35.212  27.818  1.00  0.00    -0.352 N 
ATOM      5  C   UNL A   1      43.672  36.074  27.460  1.00  0.00     0.251 C 
ATOM      6  O   UNL A   1      44.569  35.600  26.754  1.00  0.00    -0.269 OA
ATOM      7  H   UNL A   1      42.712  34.357  27.333  1.00  0.00     0.163 HD
BRANCH   5   8
ATOM      8  C   UNL A   1      43.756  37.533  27.800  1.00  0.00     0.041 A 
ATOM      9  C   UNL A   1      44.298  41.643  29.152  1.00  0.00     0.046 C 
ATOM     10  C   UNL A   1      44.123  40.236  28.656  1.00  0.00    -0.027 A 
ATOM     11  C   UNL A   1      43.971  39.200  29.587  1.00  0.00     0.006 A 
ATOM     12  C   UNL A   1      44.064  39.906  27.298  1.00  0.00     0.054 A 
ATOM     13  C   UNL A   1      43.826  37.870  29.163  1.00  0.00     0.014 A 
ATOM     14  C   UNL A   1      43.804  38.584  26.895  1.00  0.00     0.041 A 
BRANCH  12  15
ATOM     15  N   UNL A   1      44.399  40.832  26.276  1.00  0.00    -0.261 N 
ATOM     16  C   UNL A   1      43.404  41.501  25.583  1.00  0.00     0.270 C 
ATOM     17  C   UNL A   1      45.707  41.010  25.837  1.00  0.00     0.152 C 
ATOM     18  O   UNL A   1      42.201  41.486  25.810  1.00  0.00    -0.268 OA
ATOM     19  C   UNL A   1      44.011  42.251  24.445  1.00  0.00     0.081 C 
ATOM     20  S   UNL A   1      45.723  42.144  24.493  1.00  0.00    -0.054 SA
ATOM     21  S   UNL A   1      47.115  40.326  26.424  1.00  0.00    -0.051 S 
ATOM     22  C   UNL A   1      43.263  42.876  23.529  1.00  0.00     0.029 C 
BRANCH  22  23
ATOM     23  C   UNL A   1      43.770  43.661  22.400  1.00  0.00    -0.024 A 
ATOM     24  C   UNL A   1      44.575  44.792  22.589  1.00  0.00     0.015 A 
ATOM     25  C   UNL A   1      43.460  43.239  21.101  1.00  0.00     0.015 A 
ATOM     26  C   UNL A   1      45.101  45.477  21.486  1.00  0.00     0.086 A 
ATOM     27  C   UNL A   1      43.978  43.915  19.995  1.00  0.00     0.086 A 
ATOM     28  C   UNL A   1      44.812  45.023  20.191  1.00  0.00     0.269 A 
BRANCH  28  29
ATOM     29  N   UNL A   1      45.429  45.679  19.030  1.00  0.00     0.062 N 
ATOM     30  O   UNL A   1      44.904  46.718  18.606  1.00  0.00    -0.258 OA
ATOM     31  O   UNL A   1      46.465  45.176  18.570  1.00  0.00    -0.258 OA
ENDBRANCH  28  29
ENDBRANCH  22  23
ENDBRANCH  12  15
ENDBRANCH   5   8
ENDBRANCH   3   4
ENDBRANCH   2   3
ENDBRANCH   1   2
BRANCH   1  32
ATOM     32  C   UNL A   1      39.433  33.561  31.080  1.00  0.00     0.002 C 
BRANCH  32  33
ATOM     33  C   UNL A   1      38.412  33.687  29.947  1.00  0.00     0.021 C 
BRANCH  33  34
ATOM     34  C   UNL A   1      38.238  32.428  29.108  1.00  0.00     0.116 C 
BRANCH  34  35
ATOM     35  N   UNL A   1      36.843  32.146  28.800  1.00  0.00    -0.352 N 
ATOM     36  C   UNL A   1      36.338  31.051  28.121  1.00  0.00     0.251 C 
ATOM     37  H   UNL A   1      36.183  32.807  29.112  1.00  0.00     0.163 HD
ATOM     38  O   UNL A   1      35.203  31.000  27.678  1.00  0.00    -0.269 OA
BRANCH  36  39
ATOM     39  C   UNL A   1      37.214  29.865  28.071  1.00  0.00     0.039 A 
ATOM     40  C   UNL A   1      37.301  29.094  29.236  1.00  0.00     0.014 A 
ATOM     41  C   UNL A   1      38.134  29.729  27.036  1.00  0.00     0.014 A 
ATOM     42  C   UNL A   1      38.419  28.292  29.437  1.00  0.00     0.010 A 
ATOM     43  C   UNL A   1      39.284  29.007  27.277  1.00  0.00     0.010 A 
ATOM     44  C   UNL A   1      39.444  28.324  28.492  1.00  0.00    -0.014 A 
BRANCH  44  45
ATOM     45  C   UNL A   1      40.748  27.715  28.709  1.00  0.00     0.031 A 
ATOM     46  C   UNL A   1      40.949  26.287  28.380  1.00  0.00     0.074 A 
ATOM     47  C   UNL A   1      41.791  28.460  29.138  1.00  0.00     0.049 A 
ATOM     48  N   UNL A   1      41.840  25.531  28.931  1.00  0.00    -0.248 NA
ATOM     49  C   UNL A   1      40.113  25.583  27.410  1.00  0.00     0.031 C 
ATOM     50  C   UNL A   1      43.199  28.072  29.141  1.00  0.00     0.029 A 
ATOM     51  N   UNL A   1      41.768  29.647  29.873  1.00  0.00    -0.354 N 
ATOM     52  C   UNL A   1      41.913  24.385  28.174  1.00  0.00     0.074 A 
ATOM     53  C   UNL A   1      40.762  24.420  27.302  1.00  0.00     0.031 C 
ATOM     54  C   UNL A   1      43.840  28.797  30.071  1.00  0.00     0.029 A 
ATOM     55  C   UNL A   1      42.829  29.556  30.788  1.00  0.00     0.049 A 
ATOM     56  H   UNL A   1      41.137  30.396  29.770  1.00  0.00     0.167 HD
ATOM     57  C   UNL A   1      43.025  23.601  28.226  1.00  0.00     0.031 A 
ATOM     58  C   UNL A   1      42.670  29.568  32.144  1.00  0.00     0.031 A 
ATOM     59  C   UNL A   1      44.006  24.101  29.183  1.00  0.00     0.049 A 
ATOM     60  C   UNL A   1      43.255  28.342  32.819  1.00  0.00     0.074 A 
ATOM     61  C   UNL A   1      45.174  24.833  29.042  1.00  0.00     0.029 A 
ATOM     62  N   UNL A   1      43.685  24.131  30.535  1.00  0.00    -0.354 N 
ATOM     63  N   UNL A   1      43.564  27.241  32.193  1.00  0.00    -0.248 NA
ATOM     64  C   UNL A   1      43.506  28.249  34.253  1.00  0.00     0.031 C 
ATOM     65  C   UNL A   1      45.528  25.348  30.315  1.00  0.00     0.029 A 
ATOM     66  C   UNL A   1      44.587  24.913  31.231  1.00  0.00     0.049 A 
ATOM     67  H   UNL A   1      42.920  23.661  30.941  1.00  0.00     0.167 HD
ATOM     68  C   UNL A   1      44.056  26.317  33.082  1.00  0.00     0.074 A 
ATOM     69  C   UNL A   1      44.001  27.001  34.361  1.00  0.00     0.031 C 
ATOM     70  C   UNL A   1      44.463  25.076  32.675  1.00  0.00     0.031 A 
BRANCH  57  71
ATOM     71  C   UNL A   1      43.326  22.586  27.151  1.00  0.00    -0.014 A 
ATOM     72  C   UNL A   1      42.675  21.337  27.167  1.00  0.00     0.010 A 
ATOM     73  C   UNL A   1      44.285  22.783  26.138  1.00  0.00     0.010 A 
ATOM     74  C   UNL A   1      43.036  20.301  26.296  1.00  0.00     0.020 A 
ATOM     75  C   UNL A   1      44.683  21.742  25.283  1.00  0.00     0.020 A 
ATOM     76  C   UNL A   1      44.062  20.500  25.377  1.00  0.00     0.054 A 
BRANCH  76  77
ATOM     77  S   UNL A   1      44.581  19.111  24.334  1.00  0.00     0.124 S 
ATOM     78  O   UNL A   1      45.954  18.878  24.777  1.00  0.00    -0.237 OA
ATOM     79  O   UNL A   1      43.619  18.074  24.694  1.00  0.00    -0.237 OA
ATOM     80  O   UNL A   1      44.455  19.633  22.975  1.00  0.00    -0.744 OA
ENDBRANCH  76  77
ENDBRANCH  57  71
BRANCH  58  81
ATOM     81  C   UNL A   1      41.473  30.318  32.618  1.00  0.00    -0.014 A 
ATOM     82  C   UNL A   1      40.284  29.586  32.825  1.00  0.00     0.010 A 
ATOM     83  C   UNL A   1      41.617  31.569  33.242  1.00  0.00     0.010 A 
ATOM     84  C   UNL A   1      39.337  30.014  33.761  1.00  0.00     0.020 A 
ATOM     85  C   UNL A   1      40.663  32.004  34.175  1.00  0.00     0.020 A 
ATOM     86  C   UNL A   1      39.564  31.192  34.472  1.00  0.00     0.054 A 
BRANCH  86  87
ATOM     87  S   UNL A   1      38.507  31.538  35.912  1.00  0.00     0.124 S 
ATOM     88  O   UNL A   1      37.251  31.939  35.287  1.00  0.00    -0.237 OA
ATOM     89  O   UNL A   1      38.483  30.245  36.596  1.00  0.00    -0.237 OA
ATOM     90  O   UNL A   1      39.230  32.595  36.612  1.00  0.00    -0.744 OA
ENDBRANCH  86  87
ENDBRANCH  58  81
BRANCH  70  91
ATOM     91  C   UNL A   1      44.868  23.896  33.543  1.00  0.00    -0.014 A 
ATOM     92  C   UNL A   1      44.024  22.844  33.923  1.00  0.00     0.010 A 
ATOM     93  C   UNL A   1      46.230  23.780  33.932  1.00  0.00     0.010 A 
ATOM     94  C   UNL A   1      44.500  21.760  34.681  1.00  0.00     0.020 A 
ATOM     95  C   UNL A   1      46.724  22.686  34.648  1.00  0.00     0.020 A 
ATOM     96  C   UNL A   1      45.846  21.686  35.037  1.00  0.00     0.054 A 
BRANCH  96  97
ATOM     97  S   UNL A   1      46.455  20.245  35.948  1.00  0.00     0.124 S 
ATOM     98  O   UNL A   1      45.723  20.352  37.206  1.00  0.00    -0.237 OA
ATOM     99  O   UNL A   1      46.065  19.130  35.088  1.00  0.00    -0.237 OA
ATOM    100  O   UNL A   1      47.894  20.477  36.039  1.00  0.00    -0.744 OA
ENDBRANCH  96  97
ENDBRANCH  70  91
ENDBRANCH  44  45
ENDBRANCH  36  39
ENDBRANCH  34  35
ENDBRANCH  33  34
ENDBRANCH  32  33
ENDBRANCH   1  32
TORSDOF 19
ENDMDL
MODEL 3
REMARK VINA RESULT:     -10.6      4.602     10.780
REMARK SMILES Cc1ccc(C(=O)NCCCCCCNC(=O)c2ccc(-c3c4nc(c(-c5ccc(S(=O)(=O)[O-])cc5)c5ccc([nH]5)c(-c5ccc(S(=O)(=O)[O-])cc5)c5nc(c(-c6ccc(S(=O)(=O)[O-])cc6)c6ccc3[nH]6)C=C5)C=C4)cc2)cc1N1C(=O)/C(=C/c2ccc([N+](=O)[O-])cc2)SC1=S
REMARK SMILES IDX 11 1 10 2 9 3 8 4 6 5 7 6 5 8 1 9 2 10 3 11 79 12 4 13 78 14
REMARK SMILES IDX 80 15 81 16 95 17 82 18 83 19 94 20 96 21 84 22 85 23 86 24
REMARK SMILES IDX 93 25 87 26 92 27 88 28 89 29 90 30 91 31 12 32 13 33 14 34
REMARK SMILES IDX 15 35 16 36 17 38 18 39 19 40 77 41 20 42 76 43 21 44 22 45
REMARK SMILES IDX 23 46 70 47 24 48 75 49 69 50 71 51 25 52 74 53 68 54 67 55
REMARK SMILES IDX 26 57 56 58 37 59 55 60 38 61 41 62 54 63 72 64 39 65 40 66
REMARK SMILES IDX 53 68 73 69 42 70 27 71 28 72 36 73 29 74 35 75 30 76 31 77
REMARK SMILES IDX 32 78 33 79 34 80 57 81 58 82 66 83 59 84 65 85 60 86 61 87
REMARK SMILES IDX 62 88 63 89 64 90 43 91 44 92 52 93 45 94 51 95 46 96 47 97
REMARK SMILES IDX 48 98 49 99 50 100
REMARK H PARENT 8 7 15 37 71 56 41 67
REMARK Flexibility Score: inf
ROOT
ATOM      1  C   UNL A   1      38.278  28.594  27.988  1.00  0.00     0.002 C 
ENDROOT
BRANCH   1   2
ATOM      2  C   UNL A   1      37.095  29.382  28.554  1.00  0.00     0.021 C 
BRANCH   2   3
ATOM      3  C   UNL A   1      35.845  29.467  27.682  1.00  0.00     0.116 C 
BRANCH   3   4
ATOM      4  N   UNL A   1      35.045  30.663  27.872  1.00  0.00    -0.352 N 
ATOM      5  C   UNL A   1      33.752  31.030  27.582  1.00  0.00     0.251 C 
ATOM      6  O   UNL A   1      33.366  32.097  28.072  1.00  0.00    -0.269 OA
ATOM      7  H   UNL A   1      35.548  31.384  28.314  1.00  0.00     0.163 HD
BRANCH   5   8
ATOM      8  C   UNL A   1      32.796  30.287  26.696  1.00  0.00     0.041 A 
ATOM      9  C   UNL A   1      30.052  28.503  23.815  1.00  0.00     0.046 C 
ATOM     10  C   UNL A   1      31.016  29.091  24.804  1.00  0.00    -0.027 A 
ATOM     11  C   UNL A   1      30.953  30.461  25.086  1.00  0.00     0.006 A 
ATOM     12  C   UNL A   1      31.961  28.325  25.497  1.00  0.00     0.054 A 
ATOM     13  C   UNL A   1      31.852  31.051  25.989  1.00  0.00     0.014 A 
ATOM     14  C   UNL A   1      32.774  28.915  26.482  1.00  0.00     0.041 A 
BRANCH  12  15
ATOM     15  N   UNL A   1      32.247  26.979  25.154  1.00  0.00    -0.261 N 
ATOM     16  C   UNL A   1      31.795  25.941  25.952  1.00  0.00     0.270 C 
ATOM     17  C   UNL A   1      33.090  26.647  24.099  1.00  0.00     0.152 C 
ATOM     18  O   UNL A   1      31.048  26.018  26.918  1.00  0.00    -0.268 OA
ATOM     19  C   UNL A   1      32.396  24.659  25.484  1.00  0.00     0.081 C 
ATOM     20  S   UNL A   1      33.299  24.900  24.046  1.00  0.00    -0.054 SA
ATOM     21  S   UNL A   1      33.829  27.652  22.986  1.00  0.00    -0.051 S 
ATOM     22  C   UNL A   1      32.237  23.514  26.159  1.00  0.00     0.029 C 
BRANCH  22  23
ATOM     23  C   UNL A   1      32.761  22.205  25.759  1.00  0.00    -0.024 A 
ATOM     24  C   UNL A   1      31.965  21.260  25.099  1.00  0.00     0.015 A 
ATOM     25  C   UNL A   1      34.106  21.916  26.023  1.00  0.00     0.015 A 
ATOM     26  C   UNL A   1      32.517  20.048  24.669  1.00  0.00     0.086 A 
ATOM     27  C   UNL A   1      34.666  20.709  25.599  1.00  0.00     0.086 A 
ATOM     28  C   UNL A   1      33.874  19.785  24.907  1.00  0.00     0.269 A 
BRANCH  28  29
ATOM     29  N   UNL A   1      34.486  18.556  24.383  1.00  0.00     0.062 N 
ATOM     30  O   UNL A   1      35.686  18.363  24.617  1.00  0.00    -0.258 OA
ATOM     31  O   UNL A   1      33.751  17.763  23.775  1.00  0.00    -0.258 OA
ENDBRANCH  28  29
ENDBRANCH  22  23
ENDBRANCH  12  15
ENDBRANCH   5   8
ENDBRANCH   3   4
ENDBRANCH   2   3
ENDBRANCH   1   2
BRANCH   1  32
ATOM     32  C   UNL A   1      38.919  27.531  28.893  1.00  0.00     0.002 C 
BRANCH  32  33
ATOM     33  C   UNL A   1      39.178  26.151  28.284  1.00  0.00     0.021 C 
BRANCH  33  34
ATOM     34  C   UNL A   1      40.182  26.145  27.138  1.00  0.00     0.116 C 
BRANCH  34  35
ATOM     35  N   UNL A   1      40.880  24.872  27.010  1.00  0.00    -0.352 N 
ATOM     36  C   UNL A   1      42.248  24.663  27.003  1.00  0.00     0.251 C 
ATOM     37  H   UNL A   1      40.316  24.071  26.920  1.00  0.00     0.163 HD
ATOM     38  O   UNL A   1      42.765  23.619  26.640  1.00  0.00    -0.269 OA
BRANCH  36  39
ATOM     39  C   UNL A   1      43.067  25.738  27.594  1.00  0.00     0.039 A 
ATOM     40  C   UNL A   1      43.126  25.792  28.991  1.00  0.00     0.014 A 
ATOM     41  C   UNL A   1      43.474  26.809  26.805  1.00  0.00     0.014 A 
ATOM     42  C   UNL A   1      43.443  26.995  29.611  1.00  0.00     0.010 A 
ATOM     43  C   UNL A   1      43.697  28.023  27.420  1.00  0.00     0.010 A 
ATOM     44  C   UNL A   1      43.641  28.124  28.817  1.00  0.00    -0.014 A 
BRANCH  44  45
ATOM     45  C   UNL A   1      43.746  29.471  29.359  1.00  0.00     0.031 A 
ATOM     46  C   UNL A   1      42.517  30.262  29.587  1.00  0.00     0.074 A 
ATOM     47  C   UNL A   1      44.947  29.975  29.722  1.00  0.00     0.049 A 
ATOM     48  N   UNL A   1      42.474  31.553  29.600  1.00  0.00    -0.248 NA
ATOM     49  C   UNL A   1      41.211  29.638  29.782  1.00  0.00     0.031 C 
ATOM     50  C   UNL A   1      45.187  31.173  30.520  1.00  0.00     0.029 A 
ATOM     51  N   UNL A   1      46.215  29.624  29.253  1.00  0.00    -0.354 N 
ATOM     52  C   UNL A   1      41.251  31.905  30.122  1.00  0.00     0.074 A 
ATOM     53  C   UNL A   1      40.468  30.692  30.130  1.00  0.00     0.031 C 
ATOM     54  C   UNL A   1      46.417  31.633  30.242  1.00  0.00     0.029 A 
ATOM     55  C   UNL A   1      46.934  30.825  29.150  1.00  0.00     0.049 A 
ATOM     56  H   UNL A   1      46.538  28.720  29.038  1.00  0.00     0.167 HD
ATOM     57  C   UNL A   1      41.068  33.143  30.661  1.00  0.00     0.031 A 
ATOM     58  C   UNL A   1      47.436  31.316  27.980  1.00  0.00     0.031 A 
ATOM     59  C   UNL A   1      42.259  33.976  30.541  1.00  0.00     0.049 A 
ATOM     60  C   UNL A   1      46.937  32.713  27.662  1.00  0.00     0.074 A 
ATOM     61  C   UNL A   1      43.265  34.318  31.430  1.00  0.00     0.029 A 
ATOM     62  N   UNL A   1      42.711  34.342  29.278  1.00  0.00    -0.354 N 
ATOM     63  N   UNL A   1      45.898  33.263  28.224  1.00  0.00    -0.248 NA
ATOM     64  C   UNL A   1      47.547  33.584  26.662  1.00  0.00     0.031 C 
ATOM     65  C   UNL A   1      44.350  34.847  30.686  1.00  0.00     0.029 A 
ATOM     66  C   UNL A   1      43.995  34.846  29.349  1.00  0.00     0.049 A 
ATOM     67  H   UNL A   1      42.187  34.254  28.448  1.00  0.00     0.167 HD
ATOM     68  C   UNL A   1      45.697  34.522  27.713  1.00  0.00     0.074 A 
ATOM     69  C   UNL A   1      46.761  34.674  26.737  1.00  0.00     0.031 C 
ATOM     70  C   UNL A   1      44.671  35.317  28.145  1.00  0.00     0.031 A 
BRANCH  57  71
ATOM     71  C   UNL A   1      39.913  33.437  31.585  1.00  0.00    -0.014 A 
ATOM     72  C   UNL A   1      39.955  32.988  32.920  1.00  0.00     0.010 A 
ATOM     73  C   UNL A   1      38.735  34.095  31.179  1.00  0.00     0.010 A 
ATOM     74  C   UNL A   1      38.846  33.087  33.771  1.00  0.00     0.020 A 
ATOM     75  C   UNL A   1      37.604  34.167  32.008  1.00  0.00     0.020 A 
ATOM     76  C   UNL A   1      37.664  33.649  33.299  1.00  0.00     0.054 A 
BRANCH  76  77
ATOM     77  S   UNL A   1      36.213  33.669  34.385  1.00  0.00     0.124 S 
ATOM     78  O   UNL A   1      35.323  32.704  33.744  1.00  0.00    -0.237 OA
ATOM     79  O   UNL A   1      36.776  33.252  35.666  1.00  0.00    -0.237 OA
ATOM     80  O   UNL A   1      35.756  35.057  34.328  1.00  0.00    -0.744 OA
ENDBRANCH  76  77
ENDBRANCH  57  71
BRANCH  58  81
ATOM     81  C   UNL A   1      47.773  30.275  26.968  1.00  0.00    -0.014 A 
ATOM     82  C   UNL A   1      48.922  29.489  27.199  1.00  0.00     0.010 A 
ATOM     83  C   UNL A   1      46.791  29.799  26.082  1.00  0.00     0.010 A 
ATOM     84  C   UNL A   1      49.012  28.190  26.689  1.00  0.00     0.020 A 
ATOM     85  C   UNL A   1      46.884  28.498  25.562  1.00  0.00     0.020 A 
ATOM     86  C   UNL A   1      47.962  27.684  25.923  1.00  0.00     0.054 A 
BRANCH  86  87
ATOM     87  S   UNL A   1      47.945  25.899  25.571  1.00  0.00     0.124 S 
ATOM     88  O   UNL A   1      47.999  25.867  24.114  1.00  0.00    -0.237 OA
ATOM     89  O   UNL A   1      49.153  25.437  26.255  1.00  0.00    -0.237 OA
ATOM     90  O   UNL A   1      46.689  25.452  26.166  1.00  0.00    -0.744 OA
ENDBRANCH  86  87
ENDBRANCH  58  81
BRANCH  70  91
ATOM     91  C   UNL A   1      44.217  36.648  27.571  1.00  0.00    -0.014 A 
ATOM     92  C   UNL A   1      42.896  36.978  27.242  1.00  0.00     0.010 A 
ATOM     93  C   UNL A   1      45.176  37.689  27.439  1.00  0.00     0.010 A 
ATOM     94  C   UNL A   1      42.556  38.258  26.770  1.00  0.00     0.020 A 
ATOM     95  C   UNL A   1      44.843  38.978  27.012  1.00  0.00     0.020 A 
ATOM     96  C   UNL A   1      43.530  39.250  26.660  1.00  0.00     0.054 A 
BRANCH  96  97
ATOM     97  S   UNL A   1      43.060  40.914  26.122  1.00  0.00     0.124 S 
ATOM     98  O   UNL A   1      43.828  41.061  24.889  1.00  0.00    -0.237 OA
ATOM     99  O   UNL A   1      41.613  40.801  25.950  1.00  0.00    -0.237 OA
ATOM    100  O   UNL A   1      43.482  41.767  27.229  1.00  0.00    -0.744 OA
ENDBRANCH  96  97
ENDBRANCH  70  91
ENDBRANCH  44  45
ENDBRANCH  36  39
ENDBRANCH  34  35
ENDBRANCH  33  34
ENDBRANCH  32  33
ENDBRANCH   1  32
TORSDOF 19
ENDMDL
