MODEL 1
REMARK VINA RESULT:     -10.7      0.000      0.000
REMARK SMILES CC(C)[C@H](NC(=O)[C@H](C)NC(=O)CNC(=O)OCc1ccccc1)C(=O)NCCCCCCNC(=O)c1ccc(-c2c3nc(c(-c4ccc(S(=O)(=O)[O-])cc4)c4ccc([nH]4)c(-c4ccc(S(=O)(=O)[O-])cc4)c4nc(c(-c5ccc(S(=O)(=O)[O-])cc5)c5ccc2[nH]5)C=C4)C=C3)cc1
REMARK SMILES IDX 28 1 27 2 25 3 26 4 4 6 2 7 1 8 3 9 5 10 6 11 7 13 8 14 9 15
REMARK SMILES IDX 10 16 11 17 12 19 13 20 14 21 15 22 16 24 17 25 18 26 19 27
REMARK SMILES IDX 20 28 24 29 21 30 23 31 22 32 29 33 30 34 31 35 32 36 33 37
REMARK SMILES IDX 34 38 35 39 36 41 37 42 38 43 96 44 39 45 95 46 40 47 41 48
REMARK SMILES IDX 42 49 89 50 43 51 94 52 88 53 90 54 44 55 93 56 87 57 86 58
REMARK SMILES IDX 45 60 75 61 56 62 74 63 57 64 60 65 73 66 91 67 58 68 59 69
REMARK SMILES IDX 72 71 92 72 61 73 46 74 47 75 55 76 48 77 54 78 49 79 50 80
REMARK SMILES IDX 51 81 52 82 53 83 76 84 77 85 85 86 78 87 84 88 79 89 80 90
REMARK SMILES IDX 81 91 82 92 83 93 62 94 63 95 71 96 64 97 70 98 65 99 66 100
REMARK SMILES IDX 67 101 68 102 69 103
REMARK H PARENT 27 5 5 12 10 18 14 23 34 40 90 59 60 70
REMARK Flexibility Score: inf
ROOT
ATOM      1  C   UNL A   1      36.792  21.848  24.178  1.00  0.00     0.116 C 
ENDROOT
BRANCH   1   2
ATOM      2  N   UNL A   1      36.288  23.185  24.390  1.00  0.00    -0.354 N 
ATOM      3  C   UNL A   1      35.102  23.628  24.875  1.00  0.00     0.242 C 
ATOM      4  O   UNL A   1      34.983  24.850  25.032  1.00  0.00    -0.273 OA
ATOM      5  H   UNL A   1      36.917  23.900  24.138  1.00  0.00     0.163 HD
BRANCH   3   6
ATOM      6  C   UNL A   1      33.937  22.695  25.275  1.00  0.00     0.173 C 
BRANCH   6   7
ATOM      7  C   UNL A   1      34.134  21.784  26.505  1.00  0.00     0.015 C 
ATOM      8  C   UNL A   1      33.561  22.286  27.825  1.00  0.00     0.010 C 
ATOM      9  C   UNL A   1      33.614  20.371  26.219  1.00  0.00     0.010 C 
ENDBRANCH   6   7
BRANCH   6  10
ATOM     10  N   UNL A   1      33.337  22.003  24.135  1.00  0.00    -0.342 N 
ATOM     11  C   UNL A   1      32.607  22.467  23.086  1.00  0.00     0.242 C 
ATOM     12  H   UNL A   1      33.486  21.030  24.126  1.00  0.00     0.164 HD
ATOM     13  O   UNL A   1      32.428  21.671  22.156  1.00  0.00    -0.273 OA
BRANCH  11  14
ATOM     14  C   UNL A   1      32.115  23.928  22.940  1.00  0.00     0.168 C 
ATOM     15  C   UNL A   1      30.713  24.077  23.517  1.00  0.00     0.041 C 
BRANCH  14  16
ATOM     16  N   UNL A   1      32.179  24.528  21.609  1.00  0.00    -0.343 N 
ATOM     17  C   UNL A   1      32.840  25.656  21.209  1.00  0.00     0.240 C 
ATOM     18  H   UNL A   1      31.678  24.056  20.905  1.00  0.00     0.164 HD
ATOM     19  O   UNL A   1      33.046  25.825  20.007  1.00  0.00    -0.273 OA
BRANCH  17  20
ATOM     20  C   UNL A   1      33.268  26.691  22.248  1.00  0.00     0.219 C 
BRANCH  20  21
ATOM     21  N   UNL A   1      32.426  27.857  22.044  1.00  0.00    -0.312 N 
ATOM     22  C   UNL A   1      31.133  27.977  22.443  1.00  0.00     0.407 C 
ATOM     23  H   UNL A   1      32.827  28.627  21.579  1.00  0.00     0.167 HD
ATOM     24  O   UNL A   1      30.383  28.789  21.924  1.00  0.00    -0.225 OA
BRANCH  22  25
ATOM     25  O   UNL A   1      30.814  27.110  23.432  1.00  0.00    -0.445 OA
BRANCH  25  26
ATOM     26  C   UNL A   1      30.459  27.701  24.690  1.00  0.00     0.270 C 
BRANCH  26  27
ATOM     27  C   UNL A   1      31.612  28.332  25.440  1.00  0.00    -0.011 A 
ATOM     28  C   UNL A   1      32.542  27.493  26.074  1.00  0.00     0.007 A 
ATOM     29  C   UNL A   1      31.768  29.720  25.569  1.00  0.00     0.007 A 
ATOM     30  C   UNL A   1      33.574  28.031  26.846  1.00  0.00     0.000 A 
ATOM     31  C   UNL A   1      32.787  30.256  26.355  1.00  0.00     0.000 A 
ATOM     32  C   UNL A   1      33.688  29.411  26.998  1.00  0.00     0.000 A 
ENDBRANCH  26  27
ENDBRANCH  25  26
ENDBRANCH  22  25
ENDBRANCH  20  21
ENDBRANCH  17  20
ENDBRANCH  14  16
ENDBRANCH  11  14
ENDBRANCH   6  10
ENDBRANCH   3   6
ENDBRANCH   1   2
BRANCH   1  33
ATOM     33  C   UNL A   1      37.616  21.339  25.354  1.00  0.00     0.021 C 
BRANCH  33  34
ATOM     34  C   UNL A   1      38.598  22.354  25.948  1.00  0.00     0.002 C 
BRANCH  34  35
ATOM     35  C   UNL A   1      39.988  21.814  26.304  1.00  0.00     0.002 C 
BRANCH  35  36
ATOM     36  C   UNL A   1      40.545  22.247  27.663  1.00  0.00     0.021 C 
BRANCH  36  37
ATOM     37  C   UNL A   1      41.895  22.953  27.617  1.00  0.00     0.116 C 
BRANCH  37  38
ATOM     38  N   UNL A   1      42.098  23.683  26.381  1.00  0.00    -0.352 N 
ATOM     39  C   UNL A   1      41.965  25.027  26.141  1.00  0.00     0.251 C 
ATOM     40  H   UNL A   1      42.368  23.139  25.606  1.00  0.00     0.163 HD
ATOM     41  O   UNL A   1      42.023  25.451  24.990  1.00  0.00    -0.269 OA
BRANCH  39  42
ATOM     42  C   UNL A   1      41.730  25.960  27.266  1.00  0.00     0.039 A 
ATOM     43  C   UNL A   1      40.524  25.876  27.967  1.00  0.00     0.014 A 
ATOM     44  C   UNL A   1      42.678  26.927  27.616  1.00  0.00     0.014 A 
ATOM     45  C   UNL A   1      40.282  26.741  29.037  1.00  0.00     0.010 A 
ATOM     46  C   UNL A   1      42.465  27.740  28.727  1.00  0.00     0.010 A 
ATOM     47  C   UNL A   1      41.257  27.669  29.435  1.00  0.00    -0.014 A 
BRANCH  47  48
ATOM     48  C   UNL A   1      41.008  28.610  30.556  1.00  0.00     0.031 A 
ATOM     49  C   UNL A   1      41.844  28.520  31.806  1.00  0.00     0.074 A 
ATOM     50  C   UNL A   1      40.015  29.518  30.468  1.00  0.00     0.049 A 
ATOM     51  N   UNL A   1      41.752  29.214  32.912  1.00  0.00    -0.248 NA
ATOM     52  C   UNL A   1      42.905  27.500  31.825  1.00  0.00     0.031 C 
ATOM     53  C   UNL A   1      39.119  29.686  29.323  1.00  0.00     0.029 A 
ATOM     54  N   UNL A   1      39.594  30.470  31.362  1.00  0.00    -0.354 N 
ATOM     55  C   UNL A   1      42.730  28.704  33.760  1.00  0.00     0.074 A 
ATOM     56  C   UNL A   1      43.366  27.609  33.062  1.00  0.00     0.031 C 
ATOM     57  C   UNL A   1      38.273  30.700  29.573  1.00  0.00     0.029 A 
ATOM     58  C   UNL A   1      38.543  31.229  30.906  1.00  0.00     0.049 A 
ATOM     59  H   UNL A   1      40.005  30.596  32.247  1.00  0.00     0.167 HD
ATOM     60  C   UNL A   1      43.085  29.124  34.997  1.00  0.00     0.031 A 
ATOM     61  C   UNL A   1      37.873  32.238  31.495  1.00  0.00     0.031 A 
ATOM     62  C   UNL A   1      42.465  30.227  35.681  1.00  0.00     0.049 A 
ATOM     63  C   UNL A   1      38.285  32.687  32.872  1.00  0.00     0.074 A 
ATOM     64  C   UNL A   1      42.774  30.754  36.923  1.00  0.00     0.029 A 
ATOM     65  N   UNL A   1      41.415  30.979  35.177  1.00  0.00    -0.354 N 
ATOM     66  N   UNL A   1      39.239  32.217  33.640  1.00  0.00    -0.248 NA
ATOM     67  C   UNL A   1      37.542  33.814  33.452  1.00  0.00     0.031 C 
ATOM     68  C   UNL A   1      41.887  31.803  37.185  1.00  0.00     0.029 A 
ATOM     69  C   UNL A   1      41.060  31.961  36.084  1.00  0.00     0.049 A 
ATOM     70  H   UNL A   1      40.986  30.835  34.303  1.00  0.00     0.167 HD
ATOM     71  C   UNL A   1      39.233  33.016  34.779  1.00  0.00     0.074 A 
ATOM     72  C   UNL A   1      38.189  34.002  34.595  1.00  0.00     0.031 C 
ATOM     73  C   UNL A   1      40.025  32.943  35.877  1.00  0.00     0.031 A 
BRANCH  60  74
ATOM     74  C   UNL A   1      44.202  28.386  35.687  1.00  0.00    -0.014 A 
ATOM     75  C   UNL A   1      45.540  28.794  35.535  1.00  0.00     0.010 A 
ATOM     76  C   UNL A   1      43.911  27.294  36.524  1.00  0.00     0.010 A 
ATOM     77  C   UNL A   1      46.569  28.097  36.172  1.00  0.00     0.020 A 
ATOM     78  C   UNL A   1      44.936  26.611  37.185  1.00  0.00     0.020 A 
ATOM     79  C   UNL A   1      46.261  27.006  36.990  1.00  0.00     0.054 A 
BRANCH  79  80
ATOM     80  S   UNL A   1      47.616  26.132  37.821  1.00  0.00     0.124 S 
ATOM     81  O   UNL A   1      48.371  27.236  38.406  1.00  0.00    -0.237 OA
ATOM     82  O   UNL A   1      46.910  25.279  38.774  1.00  0.00    -0.237 OA
ATOM     83  O   UNL A   1      48.289  25.423  36.736  1.00  0.00    -0.744 OA
ENDBRANCH  79  80
ENDBRANCH  60  74
BRANCH  61  84
ATOM     84  C   UNL A   1      36.758  32.916  30.778  1.00  0.00    -0.014 A 
ATOM     85  C   UNL A   1      35.423  32.574  31.050  1.00  0.00     0.010 A 
ATOM     86  C   UNL A   1      37.028  33.906  29.815  1.00  0.00     0.010 A 
ATOM     87  C   UNL A   1      34.376  33.187  30.355  1.00  0.00     0.020 A 
ATOM     88  C   UNL A   1      35.983  34.542  29.137  1.00  0.00     0.020 A 
ATOM     89  C   UNL A   1      34.665  34.166  29.400  1.00  0.00     0.054 A 
BRANCH  89  90
ATOM     90  S   UNL A   1      33.291  34.974  28.532  1.00  0.00     0.124 S 
ATOM     91  O   UNL A   1      32.513  35.521  29.639  1.00  0.00    -0.237 OA
ATOM     92  O   UNL A   1      33.977  35.953  27.693  1.00  0.00    -0.237 OA
ATOM     93  O   UNL A   1      32.657  33.877  27.803  1.00  0.00    -0.744 OA
ENDBRANCH  89  90
ENDBRANCH  61  84
BRANCH  73  94
ATOM     94  C   UNL A   1      39.831  33.987  36.942  1.00  0.00    -0.014 A 
ATOM     95  C   UNL A   1      38.956  33.779  38.021  1.00  0.00     0.010 A 
ATOM     96  C   UNL A   1      40.580  35.177  36.882  1.00  0.00     0.010 A 
ATOM     97  C   UNL A   1      38.808  34.761  39.007  1.00  0.00     0.020 A 
ATOM     98  C   UNL A   1      40.454  36.148  37.878  1.00  0.00     0.020 A 
ATOM     99  C   UNL A   1      39.556  35.939  38.928  1.00  0.00     0.054 A 
BRANCH  99 100
ATOM    100  S   UNL A   1      39.376  37.179  40.238  1.00  0.00     0.124 S 
ATOM    101  O   UNL A   1      40.764  37.541  40.507  1.00  0.00    -0.237 OA
ATOM    102  O   UNL A   1      38.570  38.214  39.593  1.00  0.00    -0.237 OA
ATOM    103  O   UNL A   1      38.701  36.454  41.313  1.00  0.00    -0.744 OA
ENDBRANCH  99 100
ENDBRANCH  73  94
ENDBRANCH  47  48
ENDBRANCH  39  42
ENDBRANCH  37  38
ENDBRANCH  36  37
ENDBRANCH  35  36
ENDBRANCH  34  35
ENDBRANCH  33  34
ENDBRANCH   1  33
TORSDOF 25
ENDMDL
MODEL 2
REMARK VINA RESULT:     -10.6      0.731      7.792
REMARK SMILES CC(C)[C@H](NC(=O)[C@H](C)NC(=O)CNC(=O)OCc1ccccc1)C(=O)NCCCCCCNC(=O)c1ccc(-c2c3nc(c(-c4ccc(S(=O)(=O)[O-])cc4)c4ccc([nH]4)c(-c4ccc(S(=O)(=O)[O-])cc4)c4nc(c(-c5ccc(S(=O)(=O)[O-])cc5)c5ccc2[nH]5)C=C4)C=C3)cc1
REMARK SMILES IDX 28 1 27 2 25 3 26 4 4 6 2 7 1 8 3 9 5 10 6 11 7 13 8 14 9 15
REMARK SMILES IDX 10 16 11 17 12 19 13 20 14 21 15 22 16 24 17 25 18 26 19 27
REMARK SMILES IDX 20 28 24 29 21 30 23 31 22 32 29 33 30 34 31 35 32 36 33 37
REMARK SMILES IDX 34 38 35 39 36 41 37 42 38 43 96 44 39 45 95 46 40 47 41 48
REMARK SMILES IDX 42 49 89 50 43 51 94 52 88 53 90 54 44 55 93 56 87 57 86 58
REMARK SMILES IDX 45 60 75 61 56 62 74 63 57 64 60 65 73 66 91 67 58 68 59 69
REMARK SMILES IDX 72 71 92 72 61 73 46 74 47 75 55 76 48 77 54 78 49 79 50 80
REMARK SMILES IDX 51 81 52 82 53 83 76 84 77 85 85 86 78 87 84 88 79 89 80 90
REMARK SMILES IDX 81 91 82 92 83 93 62 94 63 95 71 96 64 97 70 98 65 99 66 100
REMARK SMILES IDX 67 101 68 102 69 103
REMARK H PARENT 27 5 5 12 10 18 14 23 34 40 90 59 60 70
REMARK Flexibility Score: inf
ROOT
ATOM      1  C   UNL A   1      36.707  21.977  24.234  1.00  0.00     0.116 C 
ENDROOT
BRANCH   1   2
ATOM      2  N   UNL A   1      36.248  23.311  24.545  1.00  0.00    -0.354 N 
ATOM      3  C   UNL A   1      35.073  23.757  25.055  1.00  0.00     0.242 C 
ATOM      4  O   UNL A   1      34.995  24.967  25.305  1.00  0.00    -0.273 OA
ATOM      5  H   UNL A   1      36.903  24.021  24.353  1.00  0.00     0.163 HD
BRANCH   3   6
ATOM      6  C   UNL A   1      33.873  22.836  25.374  1.00  0.00     0.173 C 
BRANCH   6   7
ATOM      7  C   UNL A   1      33.975  21.924  26.615  1.00  0.00     0.015 C 
ATOM      8  C   UNL A   1      33.191  22.358  27.847  1.00  0.00     0.010 C 
ATOM      9  C   UNL A   1      33.615  20.479  26.253  1.00  0.00     0.010 C 
ENDBRANCH   6   7
BRANCH   6  10
ATOM     10  N   UNL A   1      33.344  22.151  24.195  1.00  0.00    -0.342 N 
ATOM     11  C   UNL A   1      32.580  22.598  23.165  1.00  0.00     0.242 C 
ATOM     12  H   UNL A   1      33.584  21.198  24.139  1.00  0.00     0.164 HD
ATOM     13  O   UNL A   1      32.479  21.837  22.194  1.00  0.00    -0.273 OA
BRANCH  11  14
ATOM     14  C   UNL A   1      31.954  24.013  23.087  1.00  0.00     0.168 C 
ATOM     15  C   UNL A   1      30.471  23.958  23.431  1.00  0.00     0.041 C 
BRANCH  14  16
ATOM     16  N   UNL A   1      32.158  24.771  21.856  1.00  0.00    -0.343 N 
ATOM     17  C   UNL A   1      32.947  25.868  21.645  1.00  0.00     0.240 C 
ATOM     18  H   UNL A   1      31.660  24.448  21.070  1.00  0.00     0.164 HD
ATOM     19  O   UNL A   1      33.244  26.170  20.489  1.00  0.00    -0.273 OA
BRANCH  17  20
ATOM     20  C   UNL A   1      33.405  26.709  22.835  1.00  0.00     0.219 C 
BRANCH  20  21
ATOM     21  N   UNL A   1      32.368  27.700  23.067  1.00  0.00    -0.312 N 
ATOM     22  C   UNL A   1      31.443  27.657  24.061  1.00  0.00     0.407 C 
ATOM     23  H   UNL A   1      32.333  28.468  22.452  1.00  0.00     0.167 HD
ATOM     24  O   UNL A   1      30.396  28.281  23.980  1.00  0.00    -0.225 OA
BRANCH  22  25
ATOM     25  O   UNL A   1      31.824  26.861  25.088  1.00  0.00    -0.445 OA
BRANCH  25  26
ATOM     26  C   UNL A   1      31.678  27.422  26.399  1.00  0.00     0.270 C 
BRANCH  26  27
ATOM     27  C   UNL A   1      32.641  28.545  26.718  1.00  0.00    -0.011 A 
ATOM     28  C   UNL A   1      34.011  28.254  26.800  1.00  0.00     0.007 A 
ATOM     29  C   UNL A   1      32.220  29.858  26.981  1.00  0.00     0.007 A 
ATOM     30  C   UNL A   1      34.927  29.239  27.172  1.00  0.00     0.000 A 
ATOM     31  C   UNL A   1      33.133  30.837  27.371  1.00  0.00     0.000 A 
ATOM     32  C   UNL A   1      34.486  30.527  27.472  1.00  0.00     0.000 A 
ENDBRANCH  26  27
ENDBRANCH  25  26
ENDBRANCH  22  25
ENDBRANCH  20  21
ENDBRANCH  17  20
ENDBRANCH  14  16
ENDBRANCH  11  14
ENDBRANCH   6  10
ENDBRANCH   3   6
ENDBRANCH   1   2
BRANCH   1  33
ATOM     33  C   UNL A   1      37.648  21.419  25.294  1.00  0.00     0.021 C 
BRANCH  33  34
ATOM     34  C   UNL A   1      38.571  22.450  25.953  1.00  0.00     0.002 C 
BRANCH  34  35
ATOM     35  C   UNL A   1      39.991  21.972  26.272  1.00  0.00     0.002 C 
BRANCH  35  36
ATOM     36  C   UNL A   1      40.574  22.449  27.606  1.00  0.00     0.021 C 
BRANCH  36  37
ATOM     37  C   UNL A   1      41.766  23.392  27.494  1.00  0.00     0.116 C 
BRANCH  37  38
ATOM     38  N   UNL A   1      41.730  24.192  26.284  1.00  0.00    -0.352 N 
ATOM     39  C   UNL A   1      41.436  25.524  26.140  1.00  0.00     0.251 C 
ATOM     40  H   UNL A   1      41.944  23.712  25.452  1.00  0.00     0.163 HD
ATOM     41  O   UNL A   1      41.299  26.001  25.017  1.00  0.00    -0.269 OA
BRANCH  39  42
ATOM     42  C   UNL A   1      41.266  26.378  27.337  1.00  0.00     0.039 A 
ATOM     43  C   UNL A   1      42.167  27.425  27.547  1.00  0.00     0.014 A 
ATOM     44  C   UNL A   1      40.243  26.137  28.260  1.00  0.00     0.014 A 
ATOM     45  C   UNL A   1      42.024  28.250  28.666  1.00  0.00     0.010 A 
ATOM     46  C   UNL A   1      40.060  27.002  29.336  1.00  0.00     0.010 A 
ATOM     47  C   UNL A   1      40.960  28.054  29.561  1.00  0.00    -0.014 A 
BRANCH  47  48
ATOM     48  C   UNL A   1      40.804  28.907  30.767  1.00  0.00     0.031 A 
ATOM     49  C   UNL A   1      39.737  29.970  30.797  1.00  0.00     0.074 A 
ATOM     50  C   UNL A   1      41.638  28.752  31.815  1.00  0.00     0.049 A 
ATOM     51  N   UNL A   1      39.473  30.846  31.732  1.00  0.00    -0.248 NA
ATOM     52  C   UNL A   1      38.870  30.077  29.612  1.00  0.00     0.031 C 
ATOM     53  C   UNL A   1      42.728  27.778  31.895  1.00  0.00     0.029 A 
ATOM     54  N   UNL A   1      41.697  29.417  33.014  1.00  0.00    -0.354 N 
ATOM     55  C   UNL A   1      38.423  31.617  31.241  1.00  0.00     0.074 A 
ATOM     56  C   UNL A   1      38.136  31.139  29.907  1.00  0.00     0.031 C 
ATOM     57  C   UNL A   1      43.329  27.890  33.092  1.00  0.00     0.029 A 
ATOM     58  C   UNL A   1      42.692  28.964  33.847  1.00  0.00     0.049 A 
ATOM     59  H   UNL A   1      41.086  30.150  33.254  1.00  0.00     0.167 HD
ATOM     60  C   UNL A   1      37.742  32.613  31.853  1.00  0.00     0.031 A 
ATOM     61  C   UNL A   1      43.049  29.367  35.082  1.00  0.00     0.031 A 
ATOM     62  C   UNL A   1      38.016  33.073  33.188  1.00  0.00     0.049 A 
ATOM     63  C   UNL A   1      42.278  30.479  35.742  1.00  0.00     0.074 A 
ATOM     64  C   UNL A   1      37.362  34.055  33.913  1.00  0.00     0.029 A 
ATOM     65  N   UNL A   1      39.021  32.576  34.004  1.00  0.00    -0.354 N 
ATOM     66  N   UNL A   1      41.263  31.167  35.276  1.00  0.00    -0.248 NA
ATOM     67  C   UNL A   1      42.689  30.855  37.101  1.00  0.00     0.031 C 
ATOM     68  C   UNL A   1      37.994  34.175  35.154  1.00  0.00     0.029 A 
ATOM     69  C   UNL A   1      39.009  33.234  35.221  1.00  0.00     0.049 A 
ATOM     70  H   UNL A   1      39.649  31.862  33.754  1.00  0.00     0.167 HD
ATOM     71  C   UNL A   1      40.892  32.032  36.299  1.00  0.00     0.074 A 
ATOM     72  C   UNL A   1      41.784  31.775  37.410  1.00  0.00     0.031 C 
ATOM     73  C   UNL A   1      39.898  32.954  36.320  1.00  0.00     0.031 A 
BRANCH  60  74
ATOM     74  C   UNL A   1      36.629  33.271  31.080  1.00  0.00    -0.014 A 
ATOM     75  C   UNL A   1      36.905  34.067  29.952  1.00  0.00     0.010 A 
ATOM     76  C   UNL A   1      35.292  33.066  31.462  1.00  0.00     0.010 A 
ATOM     77  C   UNL A   1      35.866  34.680  29.248  1.00  0.00     0.020 A 
ATOM     78  C   UNL A   1      34.248  33.656  30.743  1.00  0.00     0.020 A 
ATOM     79  C   UNL A   1      34.543  34.475  29.651  1.00  0.00     0.054 A 
BRANCH  79  80
ATOM     80  S   UNL A   1      33.213  35.267  28.706  1.00  0.00     0.124 S 
ATOM     81  O   UNL A   1      32.637  34.131  27.990  1.00  0.00    -0.237 OA
ATOM     82  O   UNL A   1      32.372  35.840  29.754  1.00  0.00    -0.237 OA
ATOM     83  O   UNL A   1      33.912  36.239  27.871  1.00  0.00    -0.744 OA
ENDBRANCH  79  80
ENDBRANCH  60  74
BRANCH  61  84
ATOM     84  C   UNL A   1      44.175  28.700  35.791  1.00  0.00    -0.014 A 
ATOM     85  C   UNL A   1      43.938  27.588  36.618  1.00  0.00     0.010 A 
ATOM     86  C   UNL A   1      45.491  29.176  35.646  1.00  0.00     0.010 A 
ATOM     87  C   UNL A   1      44.990  26.980  37.309  1.00  0.00     0.020 A 
ATOM     88  C   UNL A   1      46.550  28.555  36.315  1.00  0.00     0.020 A 
ATOM     89  C   UNL A   1      46.290  27.470  37.155  1.00  0.00     0.054 A 
BRANCH  89  90
ATOM     90  S   UNL A   1      47.646  26.646  38.035  1.00  0.00     0.124 S 
ATOM     91  O   UNL A   1      47.929  27.591  39.109  1.00  0.00    -0.237 OA
ATOM     92  O   UNL A   1      47.038  25.383  38.444  1.00  0.00    -0.237 OA
ATOM     93  O   UNL A   1      48.689  26.525  37.016  1.00  0.00    -0.744 OA
ENDBRANCH  89  90
ENDBRANCH  61  84
BRANCH  73  94
ATOM     94  C   UNL A   1      39.686  33.716  37.600  1.00  0.00    -0.014 A 
ATOM     95  C   UNL A   1      38.781  33.269  38.577  1.00  0.00     0.010 A 
ATOM     96  C   UNL A   1      40.448  34.874  37.845  1.00  0.00     0.010 A 
ATOM     97  C   UNL A   1      38.617  33.988  39.766  1.00  0.00     0.020 A 
ATOM     98  C   UNL A   1      40.306  35.579  39.042  1.00  0.00     0.020 A 
ATOM     99  C   UNL A   1      39.378  35.138  39.989  1.00  0.00     0.054 A 
BRANCH  99 100
ATOM    100  S   UNL A   1      39.176  36.031  41.555  1.00  0.00     0.124 S 
ATOM    101  O   UNL A   1      39.180  37.423  41.113  1.00  0.00    -0.237 OA
ATOM    102  O   UNL A   1      37.894  35.531  42.048  1.00  0.00    -0.237 OA
ATOM    103  O   UNL A   1      40.339  35.623  42.340  1.00  0.00    -0.744 OA
ENDBRANCH  99 100
ENDBRANCH  73  94
ENDBRANCH  47  48
ENDBRANCH  39  42
ENDBRANCH  37  38
ENDBRANCH  36  37
ENDBRANCH  35  36
ENDBRANCH  34  35
ENDBRANCH  33  34
ENDBRANCH   1  33
TORSDOF 25
ENDMDL
MODEL 3
REMARK VINA RESULT:      -9.6      5.895      7.887
REMARK SMILES CC(C)[C@H](NC(=O)[C@H](C)NC(=O)CNC(=O)OCc1ccccc1)C(=O)NCCCCCCNC(=O)c1ccc(-c2c3nc(c(-c4ccc(S(=O)(=O)[O-])cc4)c4ccc([nH]4)c(-c4ccc(S(=O)(=O)[O-])cc4)c4nc(c(-c5ccc(S(=O)(=O)[O-])cc5)c5ccc2[nH]5)C=C4)C=C3)cc1
REMARK SMILES IDX 28 1 27 2 25 3 26 4 4 6 2 7 1 8 3 9 5 10 6 11 7 13 8 14 9 15
REMARK SMILES IDX 10 16 11 17 12 19 13 20 14 21 15 22 16 24 17 25 18 26 19 27
REMARK SMILES IDX 20 28 24 29 21 30 23 31 22 32 29 33 30 34 31 35 32 36 33 37
REMARK SMILES IDX 34 38 35 39 36 41 37 42 38 43 96 44 39 45 95 46 40 47 41 48
REMARK SMILES IDX 42 49 89 50 43 51 94 52 88 53 90 54 44 55 93 56 87 57 86 58
REMARK SMILES IDX 45 60 75 61 56 62 74 63 57 64 60 65 73 66 91 67 58 68 59 69
REMARK SMILES IDX 72 71 92 72 61 73 46 74 47 75 55 76 48 77 54 78 49 79 50 80
REMARK SMILES IDX 51 81 52 82 53 83 76 84 77 85 85 86 78 87 84 88 79 89 80 90
REMARK SMILES IDX 81 91 82 92 83 93 62 94 63 95 71 96 64 97 70 98 65 99 66 100
REMARK SMILES IDX 67 101 68 102 69 103
REMARK H PARENT 27 5 5 12 10 18 14 23 34 40 90 59 60 70
REMARK Flexibility Score: inf
ROOT
ATOM      1  C   UNL A   1      37.506  23.650  25.607  1.00  0.00     0.116 C 
ENDROOT
BRANCH   1   2
ATOM      2  N   UNL A   1      37.186  23.450  24.213  1.00  0.00    -0.354 N 
ATOM      3  C   UNL A   1      36.097  22.907  23.613  1.00  0.00     0.242 C 
ATOM      4  O   UNL A   1      36.059  22.953  22.377  1.00  0.00    -0.273 OA
ATOM      5  H   UNL A   1      37.881  23.762  23.588  1.00  0.00     0.163 HD
BRANCH   3   6
ATOM      6  C   UNL A   1      34.910  22.293  24.388  1.00  0.00     0.173 C 
BRANCH   6   7
ATOM      7  C   UNL A   1      35.230  21.388  25.597  1.00  0.00     0.015 C 
ATOM      8  C   UNL A   1      34.355  21.563  26.831  1.00  0.00     0.010 C 
ATOM      9  C   UNL A   1      35.246  19.914  25.178  1.00  0.00     0.010 C 
ENDBRANCH   6   7
BRANCH   6  10
ATOM     10  N   UNL A   1      33.875  21.743  23.514  1.00  0.00    -0.342 N 
ATOM     11  C   UNL A   1      32.692  22.260  23.088  1.00  0.00     0.242 C 
ATOM     12  H   UNL A   1      34.068  20.840  23.174  1.00  0.00     0.164 HD
ATOM     13  O   UNL A   1      32.132  21.649  22.169  1.00  0.00    -0.273 OA
BRANCH  11  14
ATOM     14  C   UNL A   1      32.091  23.598  23.586  1.00  0.00     0.168 C 
ATOM     15  C   UNL A   1      31.024  23.340  24.643  1.00  0.00     0.041 C 
BRANCH  14  16
ATOM     16  N   UNL A   1      31.586  24.524  22.576  1.00  0.00    -0.343 N 
ATOM     17  C   UNL A   1      32.276  25.441  21.834  1.00  0.00     0.240 C 
ATOM     18  H   UNL A   1      30.617  24.483  22.407  1.00  0.00     0.164 HD
ATOM     19  O   UNL A   1      31.749  25.897  20.818  1.00  0.00    -0.273 OA
BRANCH  17  20
ATOM     20  C   UNL A   1      33.656  25.905  22.297  1.00  0.00     0.219 C 
BRANCH  20  21
ATOM     21  N   UNL A   1      33.562  27.339  22.510  1.00  0.00    -0.312 N 
ATOM     22  C   UNL A   1      32.651  27.962  23.303  1.00  0.00     0.407 C 
ATOM     23  H   UNL A   1      34.213  27.909  22.040  1.00  0.00     0.167 HD
ATOM     24  O   UNL A   1      32.377  29.142  23.147  1.00  0.00    -0.225 OA
BRANCH  22  25
ATOM     25  O   UNL A   1      32.117  27.130  24.228  1.00  0.00    -0.445 OA
BRANCH  25  26
ATOM     26  C   UNL A   1      32.873  26.975  25.436  1.00  0.00     0.270 C 
BRANCH  26  27
ATOM     27  C   UNL A   1      33.111  28.257  26.204  1.00  0.00    -0.011 A 
ATOM     28  C   UNL A   1      32.005  29.045  26.558  1.00  0.00     0.007 A 
ATOM     29  C   UNL A   1      34.393  28.717  26.540  1.00  0.00     0.007 A 
ATOM     30  C   UNL A   1      32.182  30.276  27.193  1.00  0.00     0.000 A 
ATOM     31  C   UNL A   1      34.571  29.955  27.157  1.00  0.00     0.000 A 
ATOM     32  C   UNL A   1      33.465  30.737  27.479  1.00  0.00     0.000 A 
ENDBRANCH  26  27
ENDBRANCH  25  26
ENDBRANCH  22  25
ENDBRANCH  20  21
ENDBRANCH  17  20
ENDBRANCH  14  16
ENDBRANCH  11  14
ENDBRANCH   6  10
ENDBRANCH   3   6
ENDBRANCH   1   2
BRANCH   1  33
ATOM     33  C   UNL A   1      38.463  22.593  26.146  1.00  0.00     0.021 C 
BRANCH  33  34
ATOM     34  C   UNL A   1      39.679  23.141  26.901  1.00  0.00     0.002 C 
BRANCH  34  35
ATOM     35  C   UNL A   1      40.694  22.100  27.382  1.00  0.00     0.002 C 
BRANCH  35  36
ATOM     36  C   UNL A   1      40.694  20.766  26.630  1.00  0.00     0.021 C 
BRANCH  36  37
ATOM     37  C   UNL A   1      41.768  19.775  27.062  1.00  0.00     0.116 C 
BRANCH  37  38
ATOM     38  N   UNL A   1      42.604  19.345  25.958  1.00  0.00    -0.352 N 
ATOM     39  C   UNL A   1      43.491  20.078  25.211  1.00  0.00     0.251 C 
ATOM     40  H   UNL A   1      42.522  18.396  25.710  1.00  0.00     0.163 HD
ATOM     41  O   UNL A   1      43.998  19.584  24.208  1.00  0.00    -0.269 OA
BRANCH  39  42
ATOM     42  C   UNL A   1      43.818  21.467  25.604  1.00  0.00     0.039 A 
ATOM     43  C   UNL A   1      44.544  21.679  26.779  1.00  0.00     0.014 A 
ATOM     44  C   UNL A   1      43.392  22.557  24.837  1.00  0.00     0.014 A 
ATOM     45  C   UNL A   1      44.871  22.980  27.168  1.00  0.00     0.010 A 
ATOM     46  C   UNL A   1      43.779  23.848  25.188  1.00  0.00     0.010 A 
ATOM     47  C   UNL A   1      44.504  24.074  26.368  1.00  0.00    -0.014 A 
BRANCH  47  48
ATOM     48  C   UNL A   1      44.824  25.465  26.776  1.00  0.00     0.031 A 
ATOM     49  C   UNL A   1      46.198  26.023  26.514  1.00  0.00     0.074 A 
ATOM     50  C   UNL A   1      43.898  26.212  27.410  1.00  0.00     0.049 A 
ATOM     51  N   UNL A   1      46.689  27.192  26.837  1.00  0.00    -0.248 NA
ATOM     52  C   UNL A   1      47.154  25.142  25.821  1.00  0.00     0.031 C 
ATOM     53  C   UNL A   1      42.541  25.777  27.746  1.00  0.00     0.029 A 
ATOM     54  N   UNL A   1      43.961  27.498  27.886  1.00  0.00    -0.354 N 
ATOM     55  C   UNL A   1      48.011  27.180  26.401  1.00  0.00     0.074 A 
ATOM     56  C   UNL A   1      48.260  25.870  25.841  1.00  0.00     0.031 C 
ATOM     57  C   UNL A   1      41.892  26.787  28.348  1.00  0.00     0.029 A 
ATOM     58  C   UNL A   1      42.795  27.927  28.471  1.00  0.00     0.049 A 
ATOM     59  H   UNL A   1      44.767  28.059  27.815  1.00  0.00     0.167 HD
ATOM     60  C   UNL A   1      48.927  28.175  26.440  1.00  0.00     0.031 A 
ATOM     61  C   UNL A   1      42.487  29.108  29.043  1.00  0.00     0.031 A 
ATOM     62  C   UNL A   1      48.672  29.484  26.979  1.00  0.00     0.049 A 
ATOM     63  C   UNL A   1      43.523  30.200  29.075  1.00  0.00     0.074 A 
ATOM     64  C   UNL A   1      49.523  30.574  27.035  1.00  0.00     0.029 A 
ATOM     65  N   UNL A   1      47.471  29.883  27.548  1.00  0.00    -0.354 N 
ATOM     66  N   UNL A   1      44.754  30.181  28.622  1.00  0.00    -0.248 NA
ATOM     67  C   UNL A   1      43.121  31.477  29.680  1.00  0.00     0.031 C 
ATOM     68  C   UNL A   1      48.848  31.622  27.669  1.00  0.00     0.029 A 
ATOM     69  C   UNL A   1      47.561  31.200  27.962  1.00  0.00     0.049 A 
ATOM     70  H   UNL A   1      46.675  29.314  27.642  1.00  0.00     0.167 HD
ATOM     71  C   UNL A   1      45.261  31.455  28.854  1.00  0.00     0.074 A 
ATOM     72  C   UNL A   1      44.202  32.220  29.479  1.00  0.00     0.031 C 
ATOM     73  C   UNL A   1      46.491  31.949  28.571  1.00  0.00     0.031 A 
BRANCH  60  74
ATOM     74  C   UNL A   1      50.294  27.884  25.877  1.00  0.00    -0.014 A 
ATOM     75  C   UNL A   1      50.542  27.980  24.495  1.00  0.00     0.010 A 
ATOM     76  C   UNL A   1      51.351  27.543  26.740  1.00  0.00     0.010 A 
ATOM     77  C   UNL A   1      51.810  27.698  23.983  1.00  0.00     0.020 A 
ATOM     78  C   UNL A   1      52.629  27.287  26.233  1.00  0.00     0.020 A 
ATOM     79  C   UNL A   1      52.845  27.349  24.855  1.00  0.00     0.054 A 
BRANCH  79  80
ATOM     80  S   UNL A   1      54.487  27.008  24.164  1.00  0.00     0.124 S 
ATOM     81  O   UNL A   1      54.333  27.466  22.785  1.00  0.00    -0.237 OA
ATOM     82  O   UNL A   1      55.363  27.824  25.001  1.00  0.00    -0.237 OA
ATOM     83  O   UNL A   1      54.640  25.566  24.328  1.00  0.00    -0.744 OA
ENDBRANCH  79  80
ENDBRANCH  60  74
BRANCH  61  84
ATOM     84  C   UNL A   1      41.128  29.334  29.608  1.00  0.00    -0.014 A 
ATOM     85  C   UNL A   1      40.889  29.158  30.982  1.00  0.00     0.010 A 
ATOM     86  C   UNL A   1      40.064  29.724  28.774  1.00  0.00     0.010 A 
ATOM     87  C   UNL A   1      39.607  29.339  31.509  1.00  0.00     0.020 A 
ATOM     88  C   UNL A   1      38.786  29.932  29.301  1.00  0.00     0.020 A 
ATOM     89  C   UNL A   1      38.563  29.723  30.663  1.00  0.00     0.054 A 
BRANCH  89  90
ATOM     90  S   UNL A   1      36.913  29.986  31.373  1.00  0.00     0.124 S 
ATOM     91  O   UNL A   1      37.025  29.309  32.659  1.00  0.00    -0.237 OA
ATOM     92  O   UNL A   1      36.820  31.443  31.427  1.00  0.00    -0.237 OA
ATOM     93  O   UNL A   1      36.022  29.349  30.405  1.00  0.00    -0.744 OA
ENDBRANCH  89  90
ENDBRANCH  61  84
BRANCH  73  94
ATOM     94  C   UNL A   1      46.744  33.398  28.885  1.00  0.00    -0.014 A 
ATOM     95  C   UNL A   1      47.285  33.798  30.118  1.00  0.00     0.010 A 
ATOM     96  C   UNL A   1      46.481  34.371  27.902  1.00  0.00     0.010 A 
ATOM     97  C   UNL A   1      47.527  35.151  30.376  1.00  0.00     0.020 A 
ATOM     98  C   UNL A   1      46.745  35.720  28.146  1.00  0.00     0.020 A 
ATOM     99  C   UNL A   1      47.253  36.102  29.390  1.00  0.00     0.054 A 
BRANCH  99 100
ATOM    100  S   UNL A   1      47.612  37.847  29.734  1.00  0.00     0.124 S 
ATOM    101  O   UNL A   1      48.451  38.214  28.598  1.00  0.00    -0.237 OA
ATOM    102  O   UNL A   1      46.281  38.451  29.754  1.00  0.00    -0.237 OA
ATOM    103  O   UNL A   1      48.292  37.813  31.027  1.00  0.00    -0.744 OA
ENDBRANCH  99 100
ENDBRANCH  73  94
ENDBRANCH  47  48
ENDBRANCH  39  42
ENDBRANCH  37  38
ENDBRANCH  36  37
ENDBRANCH  35  36
ENDBRANCH  34  35
ENDBRANCH  33  34
ENDBRANCH   1  33
TORSDOF 25
ENDMDL
