MODEL 1
REMARK VINA RESULT:      -9.5      0.000      0.000
REMARK SMILES CNC(=O)CC[NH+]1CCC(CC(=O)NCCCCCCNC(=O)c2ccc(-c3c4nc(c(-c5ccc(S(=O)(=O)[O-])cc5)c5ccc([nH]5)c(-c5ccc(S(=O)(=O)[O-])cc5)c5nc(c(-c6ccc(S(=O)(=O)[O-])cc6)c6ccc3[nH]6)C=C5)C=C4)cc2)CC1
REMARK SMILES IDX 17 1 16 2 15 3 14 4 12 5 13 6 11 8 10 9 7 10 8 11 85 12 9 14
REMARK SMILES IDX 84 15 6 16 5 17 3 18 1 19 2 20 4 22 18 23 19 24 20 25 21 26
REMARK SMILES IDX 22 27 23 29 24 30 25 31 83 32 26 33 82 34 27 35 28 36 29 37
REMARK SMILES IDX 76 38 30 39 81 40 75 41 77 42 31 43 80 44 74 45 73 46 32 48
REMARK SMILES IDX 62 49 43 50 61 51 44 52 47 53 60 54 78 55 45 56 46 57 59 59
REMARK SMILES IDX 79 60 48 61 33 62 34 63 42 64 35 65 41 66 36 67 37 68 38 69
REMARK SMILES IDX 39 70 40 71 63 72 64 73 72 74 65 75 71 76 66 77 67 78 68 79
REMARK SMILES IDX 69 80 70 81 49 82 50 83 58 84 51 85 57 86 52 87 53 88 54 89
REMARK SMILES IDX 55 90 56 91
REMARK H PARENT 14 7 7 13 2 21 21 28 77 47 47 58
REMARK Flexibility Score: inf
ROOT
ATOM      1  C   UNL A   1      32.033  27.560  23.264  1.00  0.00     0.002 C 
ENDROOT
BRANCH   1   2
ATOM      2  C   UNL A   1      30.561  27.264  23.549  1.00  0.00     0.021 C 
BRANCH   2   3
ATOM      3  C   UNL A   1      30.204  25.772  23.611  1.00  0.00     0.116 C 
BRANCH   3   4
ATOM      4  N   UNL A   1      29.808  25.383  24.958  1.00  0.00    -0.356 N 
ATOM      5  C   UNL A   1      30.510  24.759  25.951  1.00  0.00     0.220 C 
ATOM      6  O   UNL A   1      29.914  24.443  26.982  1.00  0.00    -0.275 OA
ATOM      7  H   UNL A   1      28.879  25.608  25.193  1.00  0.00     0.163 HD
BRANCH   5   8
ATOM      8  C   UNL A   1      31.995  24.473  25.793  1.00  0.00     0.104 C 
BRANCH   8   9
ATOM      9  C   UNL A   1      32.406  22.990  25.954  1.00  0.00     0.009 C 
ATOM     10  N   UNL A   1      34.839  21.536  25.403  1.00  0.00    -0.334 N 
ATOM     11  C   UNL A   1      33.639  21.125  24.671  1.00  0.00     0.262 C 
ATOM     12  C   UNL A   1      34.476  21.671  26.816  1.00  0.00     0.262 C 
ATOM     13  H   UNL A   1      35.151  22.435  25.036  1.00  0.00     0.348 HD
ATOM     14  C   UNL A   1      32.756  22.359  24.604  1.00  0.00     0.066 C 
ATOM     15  C   UNL A   1      33.573  22.901  26.969  1.00  0.00     0.066 C 
BRANCH  10  16
ATOM     16  C   UNL A   1      36.018  20.691  25.177  1.00  0.00     0.272 C 
BRANCH  16  17
ATOM     17  C   UNL A   1      37.145  21.377  24.382  1.00  0.00     0.161 C 
BRANCH  17  18
ATOM     18  C   UNL A   1      36.926  22.843  24.064  1.00  0.00     0.225 C 
ATOM     19  C   UNL A   1      38.198  23.729  26.070  1.00  0.00     0.142 C 
ATOM     20  N   UNL A   1      37.373  23.823  24.894  1.00  0.00    -0.359 N 
ATOM     21  H   UNL A   1      37.088  24.735  24.656  1.00  0.00     0.163 HD
ATOM     22  O   UNL A   1      36.279  23.177  23.070  1.00  0.00    -0.275 OA
ENDBRANCH  17  18
ENDBRANCH  16  17
ENDBRANCH  10  16
ENDBRANCH   8   9
ENDBRANCH   5   8
ENDBRANCH   3   4
ENDBRANCH   2   3
ENDBRANCH   1   2
BRANCH   1  23
ATOM     23  C   UNL A   1      32.637  28.697  24.091  1.00  0.00     0.002 C 
BRANCH  23  24
ATOM     24  C   UNL A   1      34.035  28.433  24.662  1.00  0.00     0.021 C 
BRANCH  24  25
ATOM     25  C   UNL A   1      34.196  28.694  26.158  1.00  0.00     0.116 C 
BRANCH  25  26
ATOM     26  N   UNL A   1      33.795  30.041  26.525  1.00  0.00    -0.352 N 
ATOM     27  C   UNL A   1      34.301  30.877  27.489  1.00  0.00     0.251 C 
ATOM     28  H   UNL A   1      33.046  30.411  26.004  1.00  0.00     0.163 HD
ATOM     29  O   UNL A   1      33.687  31.897  27.787  1.00  0.00    -0.269 OA
BRANCH  27  30
ATOM     30  C   UNL A   1      35.570  30.549  28.177  1.00  0.00     0.039 A 
ATOM     31  C   UNL A   1      35.541  29.655  29.251  1.00  0.00     0.014 A 
ATOM     32  C   UNL A   1      36.776  31.145  27.799  1.00  0.00     0.014 A 
ATOM     33  C   UNL A   1      36.727  29.325  29.912  1.00  0.00     0.010 A 
ATOM     34  C   UNL A   1      37.968  30.764  28.415  1.00  0.00     0.010 A 
ATOM     35  C   UNL A   1      37.954  29.857  29.485  1.00  0.00    -0.014 A 
BRANCH  35  36
ATOM     36  C   UNL A   1      39.224  29.472  30.155  1.00  0.00     0.031 A 
ATOM     37  C   UNL A   1      39.680  30.188  31.399  1.00  0.00     0.074 A 
ATOM     38  C   UNL A   1      39.985  28.496  29.622  1.00  0.00     0.049 A 
ATOM     39  N   UNL A   1      40.754  29.983  32.121  1.00  0.00    -0.248 NA
ATOM     40  C   UNL A   1      38.835  31.290  31.883  1.00  0.00     0.031 C 
ATOM     41  C   UNL A   1      39.678  27.756  28.394  1.00  0.00     0.029 A 
ATOM     42  N   UNL A   1      41.173  27.954  30.045  1.00  0.00    -0.354 N 
ATOM     43  C   UNL A   1      40.717  30.934  33.135  1.00  0.00     0.074 A 
ATOM     44  C   UNL A   1      39.543  31.748  32.906  1.00  0.00     0.031 C 
ATOM     45  C   UNL A   1      40.635  26.837  28.184  1.00  0.00     0.029 A 
ATOM     46  C   UNL A   1      41.637  26.941  29.240  1.00  0.00     0.049 A 
ATOM     47  H   UNL A   1      41.649  28.261  30.851  1.00  0.00     0.167 HD
ATOM     48  C   UNL A   1      41.569  31.103  34.175  1.00  0.00     0.031 A 
ATOM     49  C   UNL A   1      42.741  26.176  29.340  1.00  0.00     0.031 A 
ATOM     50  C   UNL A   1      42.735  30.290  34.403  1.00  0.00     0.049 A 
ATOM     51  C   UNL A   1      43.665  26.374  30.510  1.00  0.00     0.074 A 
ATOM     52  C   UNL A   1      43.637  30.353  35.452  1.00  0.00     0.029 A 
ATOM     53  N   UNL A   1      43.160  29.265  33.573  1.00  0.00    -0.354 N 
ATOM     54  N   UNL A   1      43.577  27.237  31.494  1.00  0.00    -0.248 NA
ATOM     55  C   UNL A   1      44.826  25.477  30.594  1.00  0.00     0.031 C 
ATOM     56  C   UNL A   1      44.631  29.391  35.232  1.00  0.00     0.029 A 
ATOM     57  C   UNL A   1      44.316  28.693  34.078  1.00  0.00     0.049 A 
ATOM     58  H   UNL A   1      42.706  28.983  32.745  1.00  0.00     0.167 HD
ATOM     59  C   UNL A   1      44.653  26.966  32.331  1.00  0.00     0.074 A 
ATOM     60  C   UNL A   1      45.367  25.849  31.746  1.00  0.00     0.031 C 
ATOM     61  C   UNL A   1      45.017  27.582  33.484  1.00  0.00     0.031 A 
BRANCH  48  62
ATOM     62  C   UNL A   1      41.270  32.216  35.147  1.00  0.00    -0.014 A 
ATOM     63  C   UNL A   1      41.493  33.561  34.800  1.00  0.00     0.010 A 
ATOM     64  C   UNL A   1      40.723  31.918  36.408  1.00  0.00     0.010 A 
ATOM     65  C   UNL A   1      41.214  34.584  35.709  1.00  0.00     0.020 A 
ATOM     66  C   UNL A   1      40.415  32.942  37.310  1.00  0.00     0.020 A 
ATOM     67  C   UNL A   1      40.678  34.267  36.961  1.00  0.00     0.054 A 
BRANCH  67  68
ATOM     68  S   UNL A   1      40.302  35.618  38.112  1.00  0.00     0.124 S 
ATOM     69  O   UNL A   1      38.898  35.364  38.427  1.00  0.00    -0.237 OA
ATOM     70  O   UNL A   1      41.242  35.381  39.205  1.00  0.00    -0.237 OA
ATOM     71  O   UNL A   1      40.555  36.823  37.328  1.00  0.00    -0.744 OA
ENDBRANCH  67  68
ENDBRANCH  48  62
BRANCH  49  72
ATOM     72  C   UNL A   1      43.014  25.126  28.322  1.00  0.00    -0.014 A 
ATOM     73  C   UNL A   1      43.757  25.427  27.165  1.00  0.00     0.010 A 
ATOM     74  C   UNL A   1      42.538  23.815  28.504  1.00  0.00     0.010 A 
ATOM     75  C   UNL A   1      43.999  24.446  26.201  1.00  0.00     0.020 A 
ATOM     76  C   UNL A   1      42.801  22.823  27.555  1.00  0.00     0.020 A 
ATOM     77  C   UNL A   1      43.518  23.148  26.402  1.00  0.00     0.054 A 
BRANCH  77  78
ATOM     78  S   UNL A   1      43.882  21.876  25.160  1.00  0.00     0.124 S 
ATOM     79  O   UNL A   1      43.728  22.616  23.914  1.00  0.00    -0.237 OA
ATOM     80  O   UNL A   1      45.248  21.483  25.500  1.00  0.00    -0.237 OA
ATOM     81  O   UNL A   1      42.869  20.853  25.414  1.00  0.00    -0.744 OA
ENDBRANCH  77  78
ENDBRANCH  49  72
BRANCH  61  82
ATOM     82  C   UNL A   1      46.212  27.030  34.212  1.00  0.00    -0.014 A 
ATOM     83  C   UNL A   1      47.511  27.506  33.961  1.00  0.00     0.010 A 
ATOM     84  C   UNL A   1      46.026  26.025  35.181  1.00  0.00     0.010 A 
ATOM     85  C   UNL A   1      48.608  26.951  34.627  1.00  0.00     0.020 A 
ATOM     86  C   UNL A   1      47.117  25.489  35.870  1.00  0.00     0.020 A 
ATOM     87  C   UNL A   1      48.403  25.940  35.572  1.00  0.00     0.054 A 
BRANCH  87  88
ATOM     88  S   UNL A   1      49.840  25.240  36.431  1.00  0.00     0.124 S 
ATOM     89  O   UNL A   1      49.383  25.223  37.818  1.00  0.00    -0.237 OA
ATOM     90  O   UNL A   1      49.985  23.930  35.801  1.00  0.00    -0.237 OA
ATOM     91  O   UNL A   1      50.913  26.187  36.139  1.00  0.00    -0.744 OA
ENDBRANCH  87  88
ENDBRANCH  61  82
ENDBRANCH  35  36
ENDBRANCH  27  30
ENDBRANCH  25  26
ENDBRANCH  24  25
ENDBRANCH  23  24
ENDBRANCH   1  23
TORSDOF 20
ENDMDL
MODEL 2
REMARK VINA RESULT:      -9.3      2.818      8.573
REMARK SMILES CNC(=O)CC[NH+]1CCC(CC(=O)NCCCCCCNC(=O)c2ccc(-c3c4nc(c(-c5ccc(S(=O)(=O)[O-])cc5)c5ccc([nH]5)c(-c5ccc(S(=O)(=O)[O-])cc5)c5nc(c(-c6ccc(S(=O)(=O)[O-])cc6)c6ccc3[nH]6)C=C5)C=C4)cc2)CC1
REMARK SMILES IDX 17 1 16 2 15 3 14 4 12 5 13 6 11 8 10 9 7 10 8 11 85 12 9 14
REMARK SMILES IDX 84 15 6 16 5 17 3 18 1 19 2 20 4 22 18 23 19 24 20 25 21 26
REMARK SMILES IDX 22 27 23 29 24 30 25 31 83 32 26 33 82 34 27 35 28 36 29 37
REMARK SMILES IDX 76 38 30 39 81 40 75 41 77 42 31 43 80 44 74 45 73 46 32 48
REMARK SMILES IDX 62 49 43 50 61 51 44 52 47 53 60 54 78 55 45 56 46 57 59 59
REMARK SMILES IDX 79 60 48 61 33 62 34 63 42 64 35 65 41 66 36 67 37 68 38 69
REMARK SMILES IDX 39 70 40 71 63 72 64 73 72 74 65 75 71 76 66 77 67 78 68 79
REMARK SMILES IDX 69 80 70 81 49 82 50 83 58 84 51 85 57 86 52 87 53 88 54 89
REMARK SMILES IDX 55 90 56 91
REMARK H PARENT 14 7 7 13 2 21 21 28 77 47 47 58
REMARK Flexibility Score: inf
ROOT
ATOM      1  C   UNL A   1      31.758  27.212  23.578  1.00  0.00     0.002 C 
ENDROOT
BRANCH   1   2
ATOM      2  C   UNL A   1      30.550  26.438  24.104  1.00  0.00     0.021 C 
BRANCH   2   3
ATOM      3  C   UNL A   1      30.630  24.916  23.921  1.00  0.00     0.116 C 
BRANCH   3   4
ATOM      4  N   UNL A   1      30.419  24.225  25.186  1.00  0.00    -0.356 N 
ATOM      5  C   UNL A   1      31.188  24.172  26.315  1.00  0.00     0.220 C 
ATOM      6  O   UNL A   1      30.838  23.424  27.230  1.00  0.00    -0.275 OA
ATOM      7  H   UNL A   1      29.582  23.709  25.237  1.00  0.00     0.163 HD
BRANCH   5   8
ATOM      8  C   UNL A   1      32.440  25.025  26.445  1.00  0.00     0.104 C 
BRANCH   8   9
ATOM      9  C   UNL A   1      33.779  24.271  26.268  1.00  0.00     0.009 C 
ATOM     10  N   UNL A   1      34.457  21.630  25.318  1.00  0.00    -0.334 N 
ATOM     11  C   UNL A   1      34.820  21.953  26.700  1.00  0.00     0.262 C 
ATOM     12  C   UNL A   1      34.884  22.748  24.472  1.00  0.00     0.262 C 
ATOM     13  H   UNL A   1      33.445  21.521  25.266  1.00  0.00     0.348 HD
ATOM     14  C   UNL A   1      33.833  23.019  27.145  1.00  0.00     0.066 C 
ATOM     15  C   UNL A   1      33.979  23.951  24.766  1.00  0.00     0.066 C 
BRANCH  10  16
ATOM     16  C   UNL A   1      34.929  20.322  24.847  1.00  0.00     0.272 C 
BRANCH  16  17
ATOM     17  C   UNL A   1      33.835  19.241  24.784  1.00  0.00     0.161 C 
BRANCH  17  18
ATOM     18  C   UNL A   1      32.484  19.702  24.274  1.00  0.00     0.225 C 
ATOM     19  C   UNL A   1      32.388  18.090  22.320  1.00  0.00     0.142 C 
ATOM     20  N   UNL A   1      31.939  19.184  23.141  1.00  0.00    -0.359 N 
ATOM     21  H   UNL A   1      31.113  19.623  22.836  1.00  0.00     0.163 HD
ATOM     22  O   UNL A   1      31.876  20.608  24.847  1.00  0.00    -0.275 OA
ENDBRANCH  17  18
ENDBRANCH  16  17
ENDBRANCH  10  16
ENDBRANCH   8   9
ENDBRANCH   5   8
ENDBRANCH   3   4
ENDBRANCH   2   3
ENDBRANCH   1   2
BRANCH   1  23
ATOM     23  C   UNL A   1      32.280  28.309  24.508  1.00  0.00     0.002 C 
BRANCH  23  24
ATOM     24  C   UNL A   1      33.743  28.172  24.942  1.00  0.00     0.021 C 
BRANCH  24  25
ATOM     25  C   UNL A   1      33.999  28.296  26.443  1.00  0.00     0.116 C 
BRANCH  25  26
ATOM     26  N   UNL A   1      33.697  29.626  26.943  1.00  0.00    -0.352 N 
ATOM     27  C   UNL A   1      34.413  30.429  27.795  1.00  0.00     0.251 C 
ATOM     28  H   UNL A   1      32.849  30.010  26.622  1.00  0.00     0.163 HD
ATOM     29  O   UNL A   1      33.887  31.433  28.264  1.00  0.00    -0.269 OA
BRANCH  27  30
ATOM     30  C   UNL A   1      35.806  30.084  28.159  1.00  0.00     0.039 A 
ATOM     31  C   UNL A   1      36.793  30.143  27.171  1.00  0.00     0.014 A 
ATOM     32  C   UNL A   1      36.137  29.665  29.451  1.00  0.00     0.014 A 
ATOM     33  C   UNL A   1      38.116  29.828  27.492  1.00  0.00     0.010 A 
ATOM     34  C   UNL A   1      37.467  29.416  29.786  1.00  0.00     0.010 A 
ATOM     35  C   UNL A   1      38.470  29.485  28.807  1.00  0.00    -0.014 A 
BRANCH  35  36
ATOM     36  C   UNL A   1      39.883  29.195  29.164  1.00  0.00     0.031 A 
ATOM     37  C   UNL A   1      40.495  27.857  28.840  1.00  0.00     0.074 A 
ATOM     38  C   UNL A   1      40.609  30.129  29.810  1.00  0.00     0.049 A 
ATOM     39  N   UNL A   1      41.712  27.432  29.068  1.00  0.00    -0.248 NA
ATOM     40  C   UNL A   1      39.623  26.862  28.197  1.00  0.00     0.031 C 
ATOM     41  C   UNL A   1      40.119  31.448  30.223  1.00  0.00     0.029 A 
ATOM     42  N   UNL A   1      41.915  30.115  30.234  1.00  0.00    -0.354 N 
ATOM     43  C   UNL A   1      41.748  26.119  28.607  1.00  0.00     0.074 A 
ATOM     44  C   UNL A   1      40.418  25.804  28.134  1.00  0.00     0.031 C 
ATOM     45  C   UNL A   1      41.121  32.125  30.808  1.00  0.00     0.029 A 
ATOM     46  C   UNL A   1      42.311  31.283  30.842  1.00  0.00     0.049 A 
ATOM     47  H   UNL A   1      42.513  29.342  30.112  1.00  0.00     0.167 HD
ATOM     48  C   UNL A   1      42.796  25.261  28.563  1.00  0.00     0.031 A 
ATOM     49  C   UNL A   1      43.501  31.639  31.364  1.00  0.00     0.031 A 
ATOM     50  C   UNL A   1      44.119  25.578  29.031  1.00  0.00     0.049 A 
ATOM     51  C   UNL A   1      44.652  30.674  31.290  1.00  0.00     0.074 A 
ATOM     52  C   UNL A   1      45.259  24.793  28.988  1.00  0.00     0.029 A 
ATOM     53  N   UNL A   1      44.483  26.777  29.625  1.00  0.00    -0.354 N 
ATOM     54  N   UNL A   1      44.681  29.461  30.792  1.00  0.00    -0.248 NA
ATOM     55  C   UNL A   1      45.937  31.138  31.830  1.00  0.00     0.031 C 
ATOM     56  C   UNL A   1      46.302  25.503  29.596  1.00  0.00     0.029 A 
ATOM     57  C   UNL A   1      45.826  26.750  29.964  1.00  0.00     0.049 A 
ATOM     58  H   UNL A   1      43.876  27.536  29.783  1.00  0.00     0.167 HD
ATOM     59  C   UNL A   1      45.995  29.029  30.929  1.00  0.00     0.074 A 
ATOM     60  C   UNL A   1      46.731  30.115  31.542  1.00  0.00     0.031 C 
ATOM     61  C   UNL A   1      46.545  27.840  30.575  1.00  0.00     0.031 A 
BRANCH  48  62
ATOM     62  C   UNL A   1      42.549  23.891  27.985  1.00  0.00    -0.014 A 
ATOM     63  C   UNL A   1      42.479  22.756  28.815  1.00  0.00     0.010 A 
ATOM     64  C   UNL A   1      42.347  23.738  26.601  1.00  0.00     0.010 A 
ATOM     65  C   UNL A   1      42.252  21.491  28.268  1.00  0.00     0.020 A 
ATOM     66  C   UNL A   1      42.090  22.477  26.054  1.00  0.00     0.020 A 
ATOM     67  C   UNL A   1      42.062  21.359  26.889  1.00  0.00     0.054 A 
BRANCH  67  68
ATOM     68  S   UNL A   1      41.744  19.706  26.210  1.00  0.00     0.124 S 
ATOM     69  O   UNL A   1      40.333  19.798  25.842  1.00  0.00    -0.237 OA
ATOM     70  O   UNL A   1      42.680  19.632  25.092  1.00  0.00    -0.237 OA
ATOM     71  O   UNL A   1      42.039  18.811  27.326  1.00  0.00    -0.744 OA
ENDBRANCH  67  68
ENDBRANCH  48  62
BRANCH  49  72
ATOM     72  C   UNL A   1      43.673  32.988  31.970  1.00  0.00    -0.014 A 
ATOM     73  C   UNL A   1      43.438  33.191  33.342  1.00  0.00     0.010 A 
ATOM     74  C   UNL A   1      44.079  34.077  31.179  1.00  0.00     0.010 A 
ATOM     75  C   UNL A   1      43.584  34.460  33.907  1.00  0.00     0.020 A 
ATOM     76  C   UNL A   1      44.253  35.343  31.745  1.00  0.00     0.020 A 
ATOM     77  C   UNL A   1      43.990  35.530  33.104  1.00  0.00     0.054 A 
BRANCH  77  78
ATOM     78  S   UNL A   1      44.218  37.161  33.866  1.00  0.00     0.124 S 
ATOM     79  O   UNL A   1      44.909  36.823  35.105  1.00  0.00    -0.237 OA
ATOM     80  O   UNL A   1      45.016  37.869  32.867  1.00  0.00    -0.237 OA
ATOM     81  O   UNL A   1      42.852  37.657  34.023  1.00  0.00    -0.744 OA
ENDBRANCH  77  78
ENDBRANCH  49  72
BRANCH  61  82
ATOM     82  C   UNL A   1      48.024  27.673  30.799  1.00  0.00    -0.014 A 
ATOM     83  C   UNL A   1      48.533  27.183  32.014  1.00  0.00     0.010 A 
ATOM     84  C   UNL A   1      48.919  27.997  29.761  1.00  0.00     0.010 A 
ATOM     85  C   UNL A   1      49.914  27.071  32.208  1.00  0.00     0.020 A 
ATOM     86  C   UNL A   1      50.298  27.857  29.941  1.00  0.00     0.020 A 
ATOM     87  C   UNL A   1      50.787  27.415  31.171  1.00  0.00     0.054 A 
BRANCH  87  88
ATOM     88  S   UNL A   1      52.573  27.253  31.440  1.00  0.00     0.124 S 
ATOM     89  O   UNL A   1      52.686  27.486  32.877  1.00  0.00    -0.237 OA
ATOM     90  O   UNL A   1      52.843  25.885  31.003  1.00  0.00    -0.237 OA
ATOM     91  O   UNL A   1      53.147  28.295  30.592  1.00  0.00    -0.744 OA
ENDBRANCH  87  88
ENDBRANCH  61  82
ENDBRANCH  35  36
ENDBRANCH  27  30
ENDBRANCH  25  26
ENDBRANCH  24  25
ENDBRANCH  23  24
ENDBRANCH   1  23
TORSDOF 20
ENDMDL
MODEL 3
REMARK VINA RESULT:      -9.2      1.142      8.373
REMARK SMILES CNC(=O)CC[NH+]1CCC(CC(=O)NCCCCCCNC(=O)c2ccc(-c3c4nc(c(-c5ccc(S(=O)(=O)[O-])cc5)c5ccc([nH]5)c(-c5ccc(S(=O)(=O)[O-])cc5)c5nc(c(-c6ccc(S(=O)(=O)[O-])cc6)c6ccc3[nH]6)C=C5)C=C4)cc2)CC1
REMARK SMILES IDX 17 1 16 2 15 3 14 4 12 5 13 6 11 8 10 9 7 10 8 11 85 12 9 14
REMARK SMILES IDX 84 15 6 16 5 17 3 18 1 19 2 20 4 22 18 23 19 24 20 25 21 26
REMARK SMILES IDX 22 27 23 29 24 30 25 31 83 32 26 33 82 34 27 35 28 36 29 37
REMARK SMILES IDX 76 38 30 39 81 40 75 41 77 42 31 43 80 44 74 45 73 46 32 48
REMARK SMILES IDX 62 49 43 50 61 51 44 52 47 53 60 54 78 55 45 56 46 57 59 59
REMARK SMILES IDX 79 60 48 61 33 62 34 63 42 64 35 65 41 66 36 67 37 68 38 69
REMARK SMILES IDX 39 70 40 71 63 72 64 73 72 74 65 75 71 76 66 77 67 78 68 79
REMARK SMILES IDX 69 80 70 81 49 82 50 83 58 84 51 85 57 86 52 87 53 88 54 89
REMARK SMILES IDX 55 90 56 91
REMARK H PARENT 14 7 7 13 2 21 21 28 77 47 47 58
REMARK Flexibility Score: inf
ROOT
ATOM      1  C   UNL A   1      32.628  27.658  22.919  1.00  0.00     0.002 C 
ENDROOT
BRANCH   1   2
ATOM      2  C   UNL A   1      31.124  27.805  22.693  1.00  0.00     0.021 C 
BRANCH   2   3
ATOM      3  C   UNL A   1      30.247  26.932  23.601  1.00  0.00     0.116 C 
BRANCH   3   4
ATOM      4  N   UNL A   1      30.580  27.135  25.005  1.00  0.00    -0.356 N 
ATOM      5  C   UNL A   1      31.044  26.262  25.948  1.00  0.00     0.220 C 
ATOM      6  O   UNL A   1      31.154  26.657  27.110  1.00  0.00    -0.275 OA
ATOM      7  H   UNL A   1      30.450  28.056  25.328  1.00  0.00     0.163 HD
BRANCH   5   8
ATOM      8  C   UNL A   1      31.427  24.840  25.571  1.00  0.00     0.104 C 
BRANCH   8   9
ATOM      9  C   UNL A   1      32.647  24.708  24.628  1.00  0.00     0.009 C 
ATOM     10  N   UNL A   1      34.929  22.940  24.571  1.00  0.00    -0.334 N 
ATOM     11  C   UNL A   1      35.201  24.371  24.727  1.00  0.00     0.262 C 
ATOM     12  C   UNL A   1      33.966  22.785  23.477  1.00  0.00     0.262 C 
ATOM     13  H   UNL A   1      34.527  22.590  25.441  1.00  0.00     0.348 HD
ATOM     14  C   UNL A   1      33.959  24.957  25.377  1.00  0.00     0.066 C 
ATOM     15  C   UNL A   1      32.608  23.318  23.948  1.00  0.00     0.066 C 
BRANCH  10  16
ATOM     16  C   UNL A   1      36.123  22.098  24.428  1.00  0.00     0.272 C 
BRANCH  16  17
ATOM     17  C   UNL A   1      36.813  21.749  25.759  1.00  0.00     0.161 C 
BRANCH  17  18
ATOM     18  C   UNL A   1      38.329  21.731  25.729  1.00  0.00     0.225 C 
ATOM     19  C   UNL A   1      38.626  24.128  26.497  1.00  0.00     0.142 C 
ATOM     20  N   UNL A   1      39.057  22.844  26.011  1.00  0.00    -0.359 N 
ATOM     21  H   UNL A   1      40.026  22.758  25.860  1.00  0.00     0.163 HD
ATOM     22  O   UNL A   1      38.934  20.714  25.384  1.00  0.00    -0.275 OA
ENDBRANCH  17  18
ENDBRANCH  16  17
ENDBRANCH  10  16
ENDBRANCH   8   9
ENDBRANCH   5   8
ENDBRANCH   3   4
ENDBRANCH   2   3
ENDBRANCH   1   2
BRANCH   1  23
ATOM     23  C   UNL A   1      33.313  28.876  23.542  1.00  0.00     0.002 C 
BRANCH  23  24
ATOM     24  C   UNL A   1      34.405  28.569  24.573  1.00  0.00     0.021 C 
BRANCH  24  25
ATOM     25  C   UNL A   1      33.979  28.678  26.036  1.00  0.00     0.116 C 
BRANCH  25  26
ATOM     26  N   UNL A   1      33.600  30.032  26.397  1.00  0.00    -0.352 N 
ATOM     27  C   UNL A   1      34.108  30.859  27.368  1.00  0.00     0.251 C 
ATOM     28  H   UNL A   1      32.867  30.417  25.864  1.00  0.00     0.163 HD
ATOM     29  O   UNL A   1      33.510  31.891  27.657  1.00  0.00    -0.269 OA
BRANCH  27  30
ATOM     30  C   UNL A   1      35.360  30.506  28.075  1.00  0.00     0.039 A 
ATOM     31  C   UNL A   1      36.555  31.101  27.663  1.00  0.00     0.014 A 
ATOM     32  C   UNL A   1      35.369  29.565  29.109  1.00  0.00     0.014 A 
ATOM     33  C   UNL A   1      37.749  30.788  28.319  1.00  0.00     0.010 A 
ATOM     34  C   UNL A   1      36.549  29.305  29.806  1.00  0.00     0.010 A 
ATOM     35  C   UNL A   1      37.753  29.907  29.412  1.00  0.00    -0.014 A 
BRANCH  35  36
ATOM     36  C   UNL A   1      39.012  29.608  30.143  1.00  0.00     0.031 A 
ATOM     37  C   UNL A   1      39.936  28.520  29.662  1.00  0.00     0.074 A 
ATOM     38  C   UNL A   1      39.309  30.297  31.263  1.00  0.00     0.049 A 
ATOM     39  N   UNL A   1      41.079  28.126  30.167  1.00  0.00    -0.248 NA
ATOM     40  C   UNL A   1      39.514  27.762  28.474  1.00  0.00     0.031 C 
ATOM     41  C   UNL A   1      38.474  31.344  31.860  1.00  0.00     0.029 A 
ATOM     42  N   UNL A   1      40.394  30.224  32.100  1.00  0.00    -0.354 N 
ATOM     43  C   UNL A   1      41.505  27.072  29.366  1.00  0.00     0.074 A 
ATOM     44  C   UNL A   1      40.474  26.854  28.374  1.00  0.00     0.031 C 
ATOM     45  C   UNL A   1      39.095  31.835  32.945  1.00  0.00     0.029 A 
ATOM     46  C   UNL A   1      40.352  31.121  33.140  1.00  0.00     0.049 A 
ATOM     47  H   UNL A   1      41.135  29.588  31.966  1.00  0.00     0.167 HD
ATOM     48  C   UNL A   1      42.656  26.361  29.436  1.00  0.00     0.031 A 
ATOM     49  C   UNL A   1      41.229  31.350  34.137  1.00  0.00     0.031 A 
ATOM     50  C   UNL A   1      43.682  26.581  30.422  1.00  0.00     0.049 A 
ATOM     51  C   UNL A   1      42.506  30.557  34.185  1.00  0.00     0.074 A 
ATOM     52  C   UNL A   1      44.905  25.945  30.549  1.00  0.00     0.029 A 
ATOM     53  N   UNL A   1      43.607  27.510  31.448  1.00  0.00    -0.354 N 
ATOM     54  N   UNL A   1      42.918  29.607  33.380  1.00  0.00    -0.248 NA
ATOM     55  C   UNL A   1      43.446  30.885  35.266  1.00  0.00     0.031 C 
ATOM     56  C   UNL A   1      45.551  26.461  31.679  1.00  0.00     0.029 A 
ATOM     57  C   UNL A   1      44.757  27.458  32.220  1.00  0.00     0.049 A 
ATOM     58  H   UNL A   1      42.849  28.119  31.605  1.00  0.00     0.167 HD
ATOM     59  C   UNL A   1      44.181  29.247  33.838  1.00  0.00     0.074 A 
ATOM     60  C   UNL A   1      44.469  30.091  34.979  1.00  0.00     0.031 C 
ATOM     61  C   UNL A   1      45.029  28.304  33.354  1.00  0.00     0.031 A 
BRANCH  48  62
ATOM     62  C   UNL A   1      42.867  25.274  28.413  1.00  0.00    -0.014 A 
ATOM     63  C   UNL A   1      42.403  23.965  28.640  1.00  0.00     0.010 A 
ATOM     64  C   UNL A   1      43.503  25.571  27.193  1.00  0.00     0.010 A 
ATOM     65  C   UNL A   1      42.605  22.965  27.686  1.00  0.00     0.020 A 
ATOM     66  C   UNL A   1      43.681  24.579  26.223  1.00  0.00     0.020 A 
ATOM     67  C   UNL A   1      43.246  23.279  26.483  1.00  0.00     0.054 A 
BRANCH  67  68
ATOM     68  S   UNL A   1      43.473  21.965  25.252  1.00  0.00     0.124 S 
ATOM     69  O   UNL A   1      42.332  21.094  25.526  1.00  0.00    -0.237 OA
ATOM     70  O   UNL A   1      43.415  22.695  23.989  1.00  0.00    -0.237 OA
ATOM     71  O   UNL A   1      44.779  21.402  25.582  1.00  0.00    -0.744 OA
ENDBRANCH  67  68
ENDBRANCH  48  62
BRANCH  49  72
ATOM     72  C   UNL A   1      40.944  32.401  35.151  1.00  0.00    -0.014 A 
ATOM     73  C   UNL A   1      41.312  33.738  34.918  1.00  0.00     0.010 A 
ATOM     74  C   UNL A   1      40.298  32.071  36.356  1.00  0.00     0.010 A 
ATOM     75  C   UNL A   1      41.059  34.722  35.877  1.00  0.00     0.020 A 
ATOM     76  C   UNL A   1      40.018  33.057  37.307  1.00  0.00     0.020 A 
ATOM     77  C   UNL A   1      40.414  34.374  37.068  1.00  0.00     0.054 A 
BRANCH  77  78
ATOM     78  S   UNL A   1      40.054  35.674  38.282  1.00  0.00     0.124 S 
ATOM     79  O   UNL A   1      41.304  35.745  39.030  1.00  0.00    -0.237 OA
ATOM     80  O   UNL A   1      39.755  36.826  37.434  1.00  0.00    -0.237 OA
ATOM     81  O   UNL A   1      38.910  35.143  39.021  1.00  0.00    -0.744 OA
ENDBRANCH  77  78
ENDBRANCH  49  72
BRANCH  61  82
ATOM     82  C   UNL A   1      46.367  28.172  34.030  1.00  0.00    -0.014 A 
ATOM     83  C   UNL A   1      46.565  27.284  35.102  1.00  0.00     0.010 A 
ATOM     84  C   UNL A   1      47.452  28.941  33.567  1.00  0.00     0.010 A 
ATOM     85  C   UNL A   1      47.810  27.206  35.734  1.00  0.00     0.020 A 
ATOM     86  C   UNL A   1      48.705  28.843  34.177  1.00  0.00     0.020 A 
ATOM     87  C   UNL A   1      48.870  27.992  35.271  1.00  0.00     0.054 A 
BRANCH  87  88
ATOM     88  S   UNL A   1      50.479  27.869  36.099  1.00  0.00     0.124 S 
ATOM     89  O   UNL A   1      50.515  29.105  36.876  1.00  0.00    -0.237 OA
ATOM     90  O   UNL A   1      50.347  26.640  36.880  1.00  0.00    -0.237 OA
ATOM     91  O   UNL A   1      51.433  27.797  34.995  1.00  0.00    -0.744 OA
ENDBRANCH  87  88
ENDBRANCH  61  82
ENDBRANCH  35  36
ENDBRANCH  27  30
ENDBRANCH  25  26
ENDBRANCH  24  25
ENDBRANCH  23  24
ENDBRANCH   1  23
TORSDOF 20
ENDMDL
