MODEL 1
REMARK VINA RESULT:     -10.0      0.000      0.000
REMARK SMILES C[C@@](NC(=O)CSCc1ccccc1)(C(=O)NCCCCCCNC(=O)c1ccc(-c2c3nc(c(-c4ccc(S(=O)(=O)[O-])cc4)c4ccc([nH]4)c(-c4ccc(S(=O)(=O)[O-])cc4)c4nc(c(-c5ccc(S(=O)(=O)[O-])cc5)c5ccc2[nH]5)C=C4)C=C3)cc1)C1CC1
REMARK SMILES IDX 19 1 18 2 17 3 15 4 16 5 2 7 1 8 3 9 4 10 5 12 6 13 7 14
REMARK SMILES IDX 8 15 9 16 10 17 14 18 11 19 13 20 12 21 87 22 88 23 89 24
REMARK SMILES IDX 20 25 21 26 22 27 23 28 24 29 25 30 26 32 27 33 28 34 86 35
REMARK SMILES IDX 29 36 85 37 30 38 31 39 32 40 79 41 33 42 84 43 78 44 80 45
REMARK SMILES IDX 34 46 83 47 77 48 76 49 35 51 65 52 46 53 64 54 47 55 50 56
REMARK SMILES IDX 63 57 81 58 48 59 49 60 62 62 82 63 51 64 36 65 37 66 45 67
REMARK SMILES IDX 38 68 44 69 39 70 40 71 41 72 42 73 43 74 66 75 67 76 75 77
REMARK SMILES IDX 68 78 74 79 69 80 70 81 71 82 72 83 73 84 52 85 53 86 61 87
REMARK SMILES IDX 54 88 60 89 55 90 56 91 57 92 58 93 59 94
REMARK H PARENT 17 6 3 11 24 31 80 50 50 61
REMARK Flexibility Score: inf
ROOT
ATOM      1  C   UNL A   1      36.488  22.998  25.933  1.00  0.00     0.021 C 
ENDROOT
BRANCH   1   2
ATOM      2  C   UNL A   1      35.388  22.107  26.509  1.00  0.00     0.116 C 
BRANCH   2   3
ATOM      3  N   UNL A   1      34.174  22.847  26.789  1.00  0.00    -0.354 N 
ATOM      4  C   UNL A   1      32.949  22.864  26.188  1.00  0.00     0.245 C 
ATOM      5  O   UNL A   1      32.102  23.558  26.763  1.00  0.00    -0.272 OA
ATOM      6  H   UNL A   1      34.247  23.453  27.561  1.00  0.00     0.163 HD
BRANCH   4   7
ATOM      7  C   UNL A   1      32.663  22.130  24.834  1.00  0.00     0.119 C 
ATOM      8  C   UNL A   1      31.335  22.702  24.255  1.00  0.00     0.046 C 
BRANCH   7   9
ATOM      9  N   UNL A   1      33.727  22.364  23.837  1.00  0.00    -0.341 N 
ATOM     10  C   UNL A   1      34.030  23.454  23.081  1.00  0.00     0.230 C 
ATOM     11  H   UNL A   1      34.323  21.594  23.694  1.00  0.00     0.164 HD
ATOM     12  O   UNL A   1      35.189  23.518  22.656  1.00  0.00    -0.274 OA
BRANCH  10  13
ATOM     13  C   UNL A   1      33.024  24.530  22.724  1.00  0.00     0.169 C 
BRANCH  13  14
ATOM     14  S   UNL A   1      33.518  26.236  23.158  1.00  0.00    -0.147 SA
BRANCH  14  15
ATOM     15  C   UNL A   1      33.608  26.201  24.976  1.00  0.00     0.105 C 
BRANCH  15  16
ATOM     16  C   UNL A   1      32.972  27.390  25.644  1.00  0.00    -0.038 A 
ATOM     17  C   UNL A   1      33.259  28.700  25.229  1.00  0.00     0.004 A 
ATOM     18  C   UNL A   1      32.146  27.199  26.757  1.00  0.00     0.004 A 
ATOM     19  C   UNL A   1      32.781  29.794  25.950  1.00  0.00     0.000 A 
ATOM     20  C   UNL A   1      31.655  28.293  27.467  1.00  0.00     0.000 A 
ATOM     21  C   UNL A   1      31.984  29.588  27.073  1.00  0.00     0.000 A 
ENDBRANCH  15  16
ENDBRANCH  14  15
ENDBRANCH  13  14
ENDBRANCH  10  13
ENDBRANCH   7   9
BRANCH   7  22
ATOM     22  C   UNL A   1      32.415  20.614  24.896  1.00  0.00     0.024 C 
ATOM     23  C   UNL A   1      32.417  19.621  23.757  1.00  0.00     0.007 C 
ATOM     24  C   UNL A   1      33.571  19.648  24.722  1.00  0.00     0.007 C 
ENDBRANCH   7  22
ENDBRANCH   4   7
ENDBRANCH   2   3
ENDBRANCH   1   2
BRANCH   1  25
ATOM     25  C   UNL A   1      37.574  22.277  25.123  1.00  0.00     0.002 C 
BRANCH  25  26
ATOM     26  C   UNL A   1      37.217  20.881  24.608  1.00  0.00     0.002 C 
BRANCH  26  27
ATOM     27  C   UNL A   1      38.218  19.782  24.958  1.00  0.00     0.021 C 
BRANCH  27  28
ATOM     28  C   UNL A   1      39.284  20.199  25.958  1.00  0.00     0.116 C 
BRANCH  28  29
ATOM     29  N   UNL A   1      40.407  19.273  25.975  1.00  0.00    -0.352 N 
ATOM     30  C   UNL A   1      41.755  19.524  26.028  1.00  0.00     0.251 C 
ATOM     31  H   UNL A   1      40.162  18.319  25.943  1.00  0.00     0.163 HD
ATOM     32  O   UNL A   1      42.551  18.607  25.806  1.00  0.00    -0.269 OA
BRANCH  30  33
ATOM     33  C   UNL A   1      42.261  20.882  26.332  1.00  0.00     0.039 A 
ATOM     34  C   UNL A   1      42.511  21.240  27.661  1.00  0.00     0.014 A 
ATOM     35  C   UNL A   1      42.474  21.813  25.315  1.00  0.00     0.014 A 
ATOM     36  C   UNL A   1      43.024  22.507  27.956  1.00  0.00     0.010 A 
ATOM     37  C   UNL A   1      43.097  23.022  25.597  1.00  0.00     0.010 A 
ATOM     38  C   UNL A   1      43.355  23.397  26.922  1.00  0.00    -0.014 A 
BRANCH  38  39
ATOM     39  C   UNL A   1      43.932  24.741  27.192  1.00  0.00     0.031 A 
ATOM     40  C   UNL A   1      43.038  25.853  27.682  1.00  0.00     0.074 A 
ATOM     41  C   UNL A   1      45.231  24.982  26.927  1.00  0.00     0.049 A 
ATOM     42  N   UNL A   1      43.324  27.114  27.887  1.00  0.00    -0.248 NA
ATOM     43  C   UNL A   1      41.628  25.512  27.940  1.00  0.00     0.031 C 
ATOM     44  C   UNL A   1      46.189  24.002  26.408  1.00  0.00     0.029 A 
ATOM     45  N   UNL A   1      45.970  26.131  27.054  1.00  0.00    -0.354 N 
ATOM     46  C   UNL A   1      42.126  27.716  28.261  1.00  0.00     0.074 A 
ATOM     47  C   UNL A   1      41.102  26.700  28.194  1.00  0.00     0.031 C 
ATOM     48  C   UNL A   1      47.397  24.579  26.304  1.00  0.00     0.029 A 
ATOM     49  C   UNL A   1      47.291  25.980  26.699  1.00  0.00     0.049 A 
ATOM     50  H   UNL A   1      45.593  26.982  27.371  1.00  0.00     0.167 HD
ATOM     51  C   UNL A   1      41.902  28.994  28.650  1.00  0.00     0.031 A 
ATOM     52  C   UNL A   1      48.302  26.871  26.689  1.00  0.00     0.031 A 
ATOM     53  C   UNL A   1      42.933  29.992  28.745  1.00  0.00     0.049 A 
ATOM     54  C   UNL A   1      48.030  28.284  27.127  1.00  0.00     0.074 A 
ATOM     55  C   UNL A   1      42.829  31.297  29.194  1.00  0.00     0.029 A 
ATOM     56  N   UNL A   1      44.258  29.794  28.387  1.00  0.00    -0.354 N 
ATOM     57  N   UNL A   1      46.904  28.818  27.539  1.00  0.00    -0.248 NA
ATOM     58  C   UNL A   1      49.169  29.213  27.109  1.00  0.00     0.031 C 
ATOM     59  C   UNL A   1      44.082  31.904  29.056  1.00  0.00     0.029 A 
ATOM     60  C   UNL A   1      44.978  30.959  28.581  1.00  0.00     0.049 A 
ATOM     61  H   UNL A   1      44.631  28.949  28.045  1.00  0.00     0.167 HD
ATOM     62  C   UNL A   1      47.207  30.138  27.858  1.00  0.00     0.074 A 
ATOM     63  C   UNL A   1      48.623  30.314  27.605  1.00  0.00     0.031 C 
ATOM     64  C   UNL A   1      46.388  31.114  28.323  1.00  0.00     0.031 A 
BRANCH  51  65
ATOM     65  C   UNL A   1      40.485  29.378  28.998  1.00  0.00    -0.014 A 
ATOM     66  C   UNL A   1      39.531  29.638  27.996  1.00  0.00     0.010 A 
ATOM     67  C   UNL A   1      40.097  29.469  30.346  1.00  0.00     0.010 A 
ATOM     68  C   UNL A   1      38.236  30.038  28.336  1.00  0.00     0.020 A 
ATOM     69  C   UNL A   1      38.792  29.835  30.691  1.00  0.00     0.020 A 
ATOM     70  C   UNL A   1      37.876  30.139  29.682  1.00  0.00     0.054 A 
BRANCH  70  71
ATOM     71  S   UNL A   1      36.188  30.658  30.094  1.00  0.00     0.124 S 
ATOM     72  O   UNL A   1      36.297  32.115  30.030  1.00  0.00    -0.237 OA
ATOM     73  O   UNL A   1      35.395  30.042  29.033  1.00  0.00    -0.237 OA
ATOM     74  O   UNL A   1      35.971  30.109  31.429  1.00  0.00    -0.744 OA
ENDBRANCH  70  71
ENDBRANCH  51  65
BRANCH  52  75
ATOM     75  C   UNL A   1      49.670  26.443  26.283  1.00  0.00    -0.014 A 
ATOM     76  C   UNL A   1      50.140  26.707  24.985  1.00  0.00     0.010 A 
ATOM     77  C   UNL A   1      50.516  25.781  27.193  1.00  0.00     0.010 A 
ATOM     78  C   UNL A   1      51.421  26.306  24.597  1.00  0.00     0.020 A 
ATOM     79  C   UNL A   1      51.809  25.403  26.818  1.00  0.00     0.020 A 
ATOM     80  C   UNL A   1      52.249  25.658  25.518  1.00  0.00     0.054 A 
BRANCH  80  81
ATOM     81  S   UNL A   1      53.925  25.188  25.005  1.00  0.00     0.124 S 
ATOM     82  O   UNL A   1      54.741  25.764  26.070  1.00  0.00    -0.237 OA
ATOM     83  O   UNL A   1      53.849  23.730  24.983  1.00  0.00    -0.237 OA
ATOM     84  O   UNL A   1      54.071  25.817  23.695  1.00  0.00    -0.744 OA
ENDBRANCH  80  81
ENDBRANCH  52  75
BRANCH  64  85
ATOM     85  C   UNL A   1      47.010  32.452  28.624  1.00  0.00    -0.014 A 
ATOM     86  C   UNL A   1      47.537  32.744  29.894  1.00  0.00     0.010 A 
ATOM     87  C   UNL A   1      47.117  33.409  27.598  1.00  0.00     0.010 A 
ATOM     88  C   UNL A   1      48.132  33.984  30.141  1.00  0.00     0.020 A 
ATOM     89  C   UNL A   1      47.738  34.637  27.834  1.00  0.00     0.020 A 
ATOM     90  C   UNL A   1      48.230  34.923  29.108  1.00  0.00     0.054 A 
BRANCH  90  91
ATOM     91  S   UNL A   1      49.049  36.505  29.443  1.00  0.00     0.124 S 
ATOM     92  O   UNL A   1      49.247  36.444  30.890  1.00  0.00    -0.237 OA
ATOM     93  O   UNL A   1      50.265  36.413  28.638  1.00  0.00    -0.237 OA
ATOM     94  O   UNL A   1      48.081  37.500  28.988  1.00  0.00    -0.744 OA
ENDBRANCH  90  91
ENDBRANCH  64  85
ENDBRANCH  38  39
ENDBRANCH  30  33
ENDBRANCH  28  29
ENDBRANCH  27  28
ENDBRANCH  26  27
ENDBRANCH  25  26
ENDBRANCH   1  25
TORSDOF 22
ENDMDL
MODEL 2
REMARK VINA RESULT:      -9.7      6.015     10.751
REMARK SMILES C[C@@](NC(=O)CSCc1ccccc1)(C(=O)NCCCCCCNC(=O)c1ccc(-c2c3nc(c(-c4ccc(S(=O)(=O)[O-])cc4)c4ccc([nH]4)c(-c4ccc(S(=O)(=O)[O-])cc4)c4nc(c(-c5ccc(S(=O)(=O)[O-])cc5)c5ccc2[nH]5)C=C4)C=C3)cc1)C1CC1
REMARK SMILES IDX 19 1 18 2 17 3 15 4 16 5 2 7 1 8 3 9 4 10 5 12 6 13 7 14
REMARK SMILES IDX 8 15 9 16 10 17 14 18 11 19 13 20 12 21 87 22 88 23 89 24
REMARK SMILES IDX 20 25 21 26 22 27 23 28 24 29 25 30 26 32 27 33 28 34 86 35
REMARK SMILES IDX 29 36 85 37 30 38 31 39 32 40 79 41 33 42 84 43 78 44 80 45
REMARK SMILES IDX 34 46 83 47 77 48 76 49 35 51 65 52 46 53 64 54 47 55 50 56
REMARK SMILES IDX 63 57 81 58 48 59 49 60 62 62 82 63 51 64 36 65 37 66 45 67
REMARK SMILES IDX 38 68 44 69 39 70 40 71 41 72 42 73 43 74 66 75 67 76 75 77
REMARK SMILES IDX 68 78 74 79 69 80 70 81 71 82 72 83 73 84 52 85 53 86 61 87
REMARK SMILES IDX 54 88 60 89 55 90 56 91 57 92 58 93 59 94
REMARK H PARENT 17 6 3 11 24 31 80 50 50 61
REMARK Flexibility Score: inf
ROOT
ATOM      1  C   UNL A   1      39.243  23.141  26.476  1.00  0.00     0.021 C 
ENDROOT
BRANCH   1   2
ATOM      2  C   UNL A   1      37.810  22.811  26.058  1.00  0.00     0.116 C 
BRANCH   2   3
ATOM      3  N   UNL A   1      37.631  22.870  24.621  1.00  0.00    -0.354 N 
ATOM      4  C   UNL A   1      36.521  22.988  23.838  1.00  0.00     0.245 C 
ATOM      5  O   UNL A   1      36.753  23.106  22.629  1.00  0.00    -0.272 OA
ATOM      6  H   UNL A   1      38.472  22.813  24.113  1.00  0.00     0.163 HD
BRANCH   4   7
ATOM      7  C   UNL A   1      35.067  22.902  24.416  1.00  0.00     0.119 C 
ATOM      8  C   UNL A   1      34.923  24.004  25.507  1.00  0.00     0.046 C 
BRANCH   7   9
ATOM      9  N   UNL A   1      34.041  23.153  23.384  1.00  0.00    -0.341 N 
ATOM     10  C   UNL A   1      33.574  24.309  22.839  1.00  0.00     0.230 C 
ATOM     11  H   UNL A   1      33.620  22.339  23.025  1.00  0.00     0.164 HD
ATOM     12  O   UNL A   1      33.036  24.212  21.730  1.00  0.00    -0.274 OA
BRANCH  10  13
ATOM     13  C   UNL A   1      33.654  25.653  23.536  1.00  0.00     0.169 C 
BRANCH  13  14
ATOM     14  S   UNL A   1      33.603  27.109  22.433  1.00  0.00    -0.147 SA
BRANCH  14  15
ATOM     15  C   UNL A   1      32.602  28.312  23.364  1.00  0.00     0.105 C 
BRANCH  15  16
ATOM     16  C   UNL A   1      31.117  28.102  23.236  1.00  0.00    -0.038 A 
ATOM     17  C   UNL A   1      30.303  29.036  22.578  1.00  0.00     0.004 A 
ATOM     18  C   UNL A   1      30.518  27.002  23.859  1.00  0.00     0.004 A 
ATOM     19  C   UNL A   1      28.914  28.905  22.597  1.00  0.00     0.000 A 
ATOM     20  C   UNL A   1      29.131  26.863  23.863  1.00  0.00     0.000 A 
ATOM     21  C   UNL A   1      28.330  27.821  23.246  1.00  0.00     0.000 A 
ENDBRANCH  15  16
ENDBRANCH  14  15
ENDBRANCH  13  14
ENDBRANCH  10  13
ENDBRANCH   7   9
BRANCH   7  22
ATOM     22  C   UNL A   1      34.678  21.606  25.146  1.00  0.00     0.024 C 
ATOM     23  C   UNL A   1      33.840  20.460  24.630  1.00  0.00     0.007 C 
ATOM     24  C   UNL A   1      35.329  20.292  24.761  1.00  0.00     0.007 C 
ENDBRANCH   7  22
ENDBRANCH   4   7
ENDBRANCH   2   3
ENDBRANCH   1   2
BRANCH   1  25
ATOM     25  C   UNL A   1      40.062  21.967  27.032  1.00  0.00     0.002 C 
BRANCH  25  26
ATOM     26  C   UNL A   1      41.496  21.838  26.514  1.00  0.00     0.002 C 
BRANCH  26  27
ATOM     27  C   UNL A   1      42.588  22.093  27.551  1.00  0.00     0.021 C 
BRANCH  27  28
ATOM     28  C   UNL A   1      43.140  23.508  27.546  1.00  0.00     0.116 C 
BRANCH  28  29
ATOM     29  N   UNL A   1      42.860  24.197  26.294  1.00  0.00    -0.352 N 
ATOM     30  C   UNL A   1      42.219  25.389  26.068  1.00  0.00     0.251 C 
ATOM     31  H   UNL A   1      43.182  23.738  25.484  1.00  0.00     0.163 HD
ATOM     32  O   UNL A   1      41.887  25.689  24.918  1.00  0.00    -0.269 OA
BRANCH  30  33
ATOM     33  C   UNL A   1      41.909  26.306  27.188  1.00  0.00     0.039 A 
ATOM     34  C   UNL A   1      40.884  25.978  28.081  1.00  0.00     0.014 A 
ATOM     35  C   UNL A   1      42.614  27.499  27.355  1.00  0.00     0.014 A 
ATOM     36  C   UNL A   1      40.608  26.820  29.164  1.00  0.00     0.010 A 
ATOM     37  C   UNL A   1      42.422  28.268  28.495  1.00  0.00     0.010 A 
ATOM     38  C   UNL A   1      41.400  27.954  29.400  1.00  0.00    -0.014 A 
BRANCH  38  39
ATOM     39  C   UNL A   1      41.159  28.857  30.557  1.00  0.00     0.031 A 
ATOM     40  C   UNL A   1      42.012  28.731  31.795  1.00  0.00     0.074 A 
ATOM     41  C   UNL A   1      40.134  29.732  30.527  1.00  0.00     0.049 A 
ATOM     42  N   UNL A   1      41.905  29.354  32.940  1.00  0.00    -0.248 NA
ATOM     43  C   UNL A   1      43.106  27.745  31.753  1.00  0.00     0.031 C 
ATOM     44  C   UNL A   1      39.209  29.919  29.406  1.00  0.00     0.029 A 
ATOM     45  N   UNL A   1      39.695  30.626  31.471  1.00  0.00    -0.354 N 
ATOM     46  C   UNL A   1      42.891  28.812  33.759  1.00  0.00     0.074 A 
ATOM     47  C   UNL A   1      43.543  27.768  33.003  1.00  0.00     0.031 C 
ATOM     48  C   UNL A   1      38.341  30.898  29.710  1.00  0.00     0.029 A 
ATOM     49  C   UNL A   1      38.614  31.374  31.062  1.00  0.00     0.049 A 
ATOM     50  H   UNL A   1      40.113  30.725  32.355  1.00  0.00     0.167 HD
ATOM     51  C   UNL A   1      43.241  29.167  35.019  1.00  0.00     0.031 A 
ATOM     52  C   UNL A   1      37.919  32.332  31.706  1.00  0.00     0.031 A 
ATOM     53  C   UNL A   1      42.608  30.229  35.754  1.00  0.00     0.049 A 
ATOM     54  C   UNL A   1      38.327  32.712  33.104  1.00  0.00     0.074 A 
ATOM     55  C   UNL A   1      42.929  30.717  37.008  1.00  0.00     0.029 A 
ATOM     56  N   UNL A   1      41.527  30.967  35.299  1.00  0.00    -0.354 N 
ATOM     57  N   UNL A   1      39.304  32.232  33.837  1.00  0.00    -0.248 NA
ATOM     58  C   UNL A   1      37.544  33.770  33.757  1.00  0.00     0.031 C 
ATOM     59  C   UNL A   1      42.006  31.716  37.333  1.00  0.00     0.029 A 
ATOM     60  C   UNL A   1      41.150  31.892  36.257  1.00  0.00     0.049 A 
ATOM     61  H   UNL A   1      41.090  30.851  34.424  1.00  0.00     0.167 HD
ATOM     62  C   UNL A   1      39.272  32.952  35.026  1.00  0.00     0.074 A 
ATOM     63  C   UNL A   1      38.190  33.908  34.907  1.00  0.00     0.031 C 
ATOM     64  C   UNL A   1      40.069  32.836  36.117  1.00  0.00     0.031 A 
BRANCH  51  65
ATOM     65  C   UNL A   1      44.357  28.393  35.676  1.00  0.00    -0.014 A 
ATOM     66  C   UNL A   1      44.098  27.234  36.430  1.00  0.00     0.010 A 
ATOM     67  C   UNL A   1      45.687  28.825  35.527  1.00  0.00     0.010 A 
ATOM     68  C   UNL A   1      45.140  26.556  37.070  1.00  0.00     0.020 A 
ATOM     69  C   UNL A   1      46.736  28.130  36.137  1.00  0.00     0.020 A 
ATOM     70  C   UNL A   1      46.452  27.012  36.924  1.00  0.00     0.054 A 
BRANCH  70  71
ATOM     71  S   UNL A   1      47.784  26.112  37.764  1.00  0.00     0.124 S 
ATOM     72  O   UNL A   1      47.188  25.847  39.073  1.00  0.00    -0.237 OA
ATOM     73  O   UNL A   1      47.967  24.941  36.911  1.00  0.00    -0.237 OA
ATOM     74  O   UNL A   1      48.896  27.058  37.767  1.00  0.00    -0.744 OA
ENDBRANCH  70  71
ENDBRANCH  51  65
BRANCH  52  75
ATOM     75  C   UNL A   1      36.791  33.022  31.022  1.00  0.00    -0.014 A 
ATOM     76  C   UNL A   1      35.466  32.791  31.430  1.00  0.00     0.010 A 
ATOM     77  C   UNL A   1      37.032  33.926  29.969  1.00  0.00     0.010 A 
ATOM     78  C   UNL A   1      34.402  33.433  30.790  1.00  0.00     0.020 A 
ATOM     79  C   UNL A   1      35.973  34.592  29.345  1.00  0.00     0.020 A 
ATOM     80  C   UNL A   1      34.663  34.332  29.753  1.00  0.00     0.054 A 
BRANCH  80  81
ATOM     81  S   UNL A   1      33.268  35.190  28.969  1.00  0.00     0.124 S 
ATOM     82  O   UNL A   1      32.681  34.132  28.153  1.00  0.00    -0.237 OA
ATOM     83  O   UNL A   1      32.476  35.617  30.119  1.00  0.00    -0.237 OA
ATOM     84  O   UNL A   1      33.908  36.273  28.225  1.00  0.00    -0.744 OA
ENDBRANCH  80  81
ENDBRANCH  52  75
BRANCH  64  85
ATOM     85  C   UNL A   1      39.826  33.790  37.256  1.00  0.00    -0.014 A 
ATOM     86  C   UNL A   1      40.453  35.047  37.305  1.00  0.00     0.010 A 
ATOM     87  C   UNL A   1      38.907  33.442  38.264  1.00  0.00     0.010 A 
ATOM     88  C   UNL A   1      40.191  35.926  38.358  1.00  0.00     0.020 A 
ATOM     89  C   UNL A   1      38.619  34.330  39.302  1.00  0.00     0.020 A 
ATOM     90  C   UNL A   1      39.274  35.562  39.350  1.00  0.00     0.054 A 
BRANCH  90  91
ATOM     91  S   UNL A   1      38.916  36.739  40.681  1.00  0.00     0.124 S 
ATOM     92  O   UNL A   1      38.279  37.835  39.954  1.00  0.00    -0.237 OA
ATOM     93  O   UNL A   1      38.035  35.972  41.560  1.00  0.00    -0.237 OA
ATOM     94  O   UNL A   1      40.232  37.044  41.238  1.00  0.00    -0.744 OA
ENDBRANCH  90  91
ENDBRANCH  64  85
ENDBRANCH  38  39
ENDBRANCH  30  33
ENDBRANCH  28  29
ENDBRANCH  27  28
ENDBRANCH  26  27
ENDBRANCH  25  26
ENDBRANCH   1  25
TORSDOF 22
ENDMDL
MODEL 3
REMARK VINA RESULT:      -9.7      5.938     10.617
REMARK SMILES C[C@@](NC(=O)CSCc1ccccc1)(C(=O)NCCCCCCNC(=O)c1ccc(-c2c3nc(c(-c4ccc(S(=O)(=O)[O-])cc4)c4ccc([nH]4)c(-c4ccc(S(=O)(=O)[O-])cc4)c4nc(c(-c5ccc(S(=O)(=O)[O-])cc5)c5ccc2[nH]5)C=C4)C=C3)cc1)C1CC1
REMARK SMILES IDX 19 1 18 2 17 3 15 4 16 5 2 7 1 8 3 9 4 10 5 12 6 13 7 14
REMARK SMILES IDX 8 15 9 16 10 17 14 18 11 19 13 20 12 21 87 22 88 23 89 24
REMARK SMILES IDX 20 25 21 26 22 27 23 28 24 29 25 30 26 32 27 33 28 34 86 35
REMARK SMILES IDX 29 36 85 37 30 38 31 39 32 40 79 41 33 42 84 43 78 44 80 45
REMARK SMILES IDX 34 46 83 47 77 48 76 49 35 51 65 52 46 53 64 54 47 55 50 56
REMARK SMILES IDX 63 57 81 58 48 59 49 60 62 62 82 63 51 64 36 65 37 66 45 67
REMARK SMILES IDX 38 68 44 69 39 70 40 71 41 72 42 73 43 74 66 75 67 76 75 77
REMARK SMILES IDX 68 78 74 79 69 80 70 81 71 82 72 83 73 84 52 85 53 86 61 87
REMARK SMILES IDX 54 88 60 89 55 90 56 91 57 92 58 93 59 94
REMARK H PARENT 17 6 3 11 24 31 80 50 50 61
REMARK Flexibility Score: inf
ROOT
ATOM      1  C   UNL A   1      37.633  20.801  25.015  1.00  0.00     0.021 C 
ENDROOT
BRANCH   1   2
ATOM      2  C   UNL A   1      36.267  21.428  24.735  1.00  0.00     0.116 C 
BRANCH   2   3
ATOM      3  N   UNL A   1      35.497  21.625  25.947  1.00  0.00    -0.354 N 
ATOM      4  C   UNL A   1      34.180  21.426  26.240  1.00  0.00     0.245 C 
ATOM      5  O   UNL A   1      33.881  21.612  27.426  1.00  0.00    -0.272 OA
ATOM      6  H   UNL A   1      36.026  21.968  26.703  1.00  0.00     0.163 HD
BRANCH   4   7
ATOM      7  C   UNL A   1      33.115  21.071  25.146  1.00  0.00     0.119 C 
ATOM      8  C   UNL A   1      31.749  21.664  25.602  1.00  0.00     0.046 C 
BRANCH   7   9
ATOM      9  N   UNL A   1      33.447  21.659  23.833  1.00  0.00    -0.341 N 
ATOM     10  C   UNL A   1      33.312  22.924  23.352  1.00  0.00     0.230 C 
ATOM     11  H   UNL A   1      33.835  21.022  23.191  1.00  0.00     0.164 HD
ATOM     12  O   UNL A   1      34.037  23.226  22.397  1.00  0.00    -0.274 OA
BRANCH  10  13
ATOM     13  C   UNL A   1      32.315  23.926  23.902  1.00  0.00     0.169 C 
BRANCH  13  14
ATOM     14  S   UNL A   1      32.626  25.668  23.446  1.00  0.00    -0.147 SA
BRANCH  14  15
ATOM     15  C   UNL A   1      33.693  26.275  24.790  1.00  0.00     0.105 C 
BRANCH  15  16
ATOM     16  C   UNL A   1      33.110  27.427  25.562  1.00  0.00    -0.038 A 
ATOM     17  C   UNL A   1      33.576  28.738  25.378  1.00  0.00     0.004 A 
ATOM     18  C   UNL A   1      32.147  27.184  26.547  1.00  0.00     0.004 A 
ATOM     19  C   UNL A   1      33.134  29.771  26.204  1.00  0.00     0.000 A 
ATOM     20  C   UNL A   1      31.693  28.220  27.361  1.00  0.00     0.000 A 
ATOM     21  C   UNL A   1      32.196  29.509  27.200  1.00  0.00     0.000 A 
ENDBRANCH  15  16
ENDBRANCH  14  15
ENDBRANCH  13  14
ENDBRANCH  10  13
ENDBRANCH   7   9
BRANCH   7  22
ATOM     22  C   UNL A   1      32.813  19.580  24.920  1.00  0.00     0.024 C 
ATOM     23  C   UNL A   1      32.571  18.865  23.611  1.00  0.00     0.007 C 
ATOM     24  C   UNL A   1      33.875  18.670  24.336  1.00  0.00     0.007 C 
ENDBRANCH   7  22
ENDBRANCH   4   7
ENDBRANCH   2   3
ENDBRANCH   1   2
BRANCH   1  25
ATOM     25  C   UNL A   1      38.646  21.704  25.732  1.00  0.00     0.002 C 
BRANCH  25  26
ATOM     26  C   UNL A   1      39.800  20.994  26.443  1.00  0.00     0.002 C 
BRANCH  26  27
ATOM     27  C   UNL A   1      40.792  21.913  27.153  1.00  0.00     0.021 C 
BRANCH  27  28
ATOM     28  C   UNL A   1      40.452  23.391  27.063  1.00  0.00     0.116 C 
BRANCH  28  29
ATOM     29  N   UNL A   1      41.275  24.080  26.079  1.00  0.00    -0.352 N 
ATOM     30  C   UNL A   1      41.619  25.405  25.991  1.00  0.00     0.251 C 
ATOM     31  H   UNL A   1      41.642  23.507  25.368  1.00  0.00     0.163 HD
ATOM     32  O   UNL A   1      42.142  25.828  24.956  1.00  0.00    -0.269 OA
BRANCH  30  33
ATOM     33  C   UNL A   1      41.357  26.332  27.116  1.00  0.00     0.039 A 
ATOM     34  C   UNL A   1      40.401  25.991  28.078  1.00  0.00     0.014 A 
ATOM     35  C   UNL A   1      42.036  27.546  27.218  1.00  0.00     0.014 A 
ATOM     36  C   UNL A   1      40.172  26.842  29.164  1.00  0.00     0.010 A 
ATOM     37  C   UNL A   1      41.897  28.329  28.358  1.00  0.00     0.010 A 
ATOM     38  C   UNL A   1      40.945  28.002  29.332  1.00  0.00    -0.014 A 
BRANCH  38  39
ATOM     39  C   UNL A   1      40.754  28.916  30.489  1.00  0.00     0.031 A 
ATOM     40  C   UNL A   1      41.621  28.764  31.714  1.00  0.00     0.074 A 
ATOM     41  C   UNL A   1      39.759  29.826  30.472  1.00  0.00     0.049 A 
ATOM     42  N   UNL A   1      41.554  29.395  32.858  1.00  0.00    -0.248 NA
ATOM     43  C   UNL A   1      42.680  27.741  31.659  1.00  0.00     0.031 C 
ATOM     44  C   UNL A   1      38.824  30.042  29.364  1.00  0.00     0.029 A 
ATOM     45  N   UNL A   1      39.367  30.739  31.418  1.00  0.00    -0.354 N 
ATOM     46  C   UNL A   1      42.533  28.821  33.664  1.00  0.00     0.074 A 
ATOM     47  C   UNL A   1      43.136  27.753  32.902  1.00  0.00     0.031 C 
ATOM     48  C   UNL A   1      37.996  31.052  29.677  1.00  0.00     0.029 A 
ATOM     49  C   UNL A   1      38.307  31.522  31.023  1.00  0.00     0.049 A 
ATOM     50  H   UNL A   1      39.802  30.826  32.295  1.00  0.00     0.167 HD
ATOM     51  C   UNL A   1      42.915  29.169  34.916  1.00  0.00     0.031 A 
ATOM     52  C   UNL A   1      37.656  32.507  31.674  1.00  0.00     0.031 A 
ATOM     53  C   UNL A   1      42.331  30.255  35.657  1.00  0.00     0.049 A 
ATOM     54  C   UNL A   1      38.099  32.877  33.064  1.00  0.00     0.074 A 
ATOM     55  C   UNL A   1      42.689  30.736  36.904  1.00  0.00     0.029 A 
ATOM     56  N   UNL A   1      41.269  31.029  35.216  1.00  0.00    -0.354 N 
ATOM     57  N   UNL A   1      39.069  32.365  33.783  1.00  0.00    -0.248 NA
ATOM     58  C   UNL A   1      37.363  33.964  33.724  1.00  0.00     0.031 C 
ATOM     59  C   UNL A   1      41.805  31.768  37.240  1.00  0.00     0.029 A 
ATOM     60  C   UNL A   1      40.940  31.970  36.176  1.00  0.00     0.049 A 
ATOM     61  H   UNL A   1      40.815  30.925  34.348  1.00  0.00     0.167 HD
ATOM     62  C   UNL A   1      39.081  33.090  34.970  1.00  0.00     0.074 A 
ATOM     63  C   UNL A   1      38.031  34.083  34.864  1.00  0.00     0.031 C 
ATOM     64  C   UNL A   1      39.891  32.950  36.049  1.00  0.00     0.031 A 
BRANCH  51  65
ATOM     65  C   UNL A   1      44.014  28.359  35.559  1.00  0.00    -0.014 A 
ATOM     66  C   UNL A   1      45.342  28.823  35.591  1.00  0.00     0.010 A 
ATOM     67  C   UNL A   1      43.711  27.120  36.153  1.00  0.00     0.010 A 
ATOM     68  C   UNL A   1      46.355  28.038  36.150  1.00  0.00     0.020 A 
ATOM     69  C   UNL A   1      44.716  26.348  36.744  1.00  0.00     0.020 A 
ATOM     70  C   UNL A   1      46.036  26.802  36.718  1.00  0.00     0.054 A 
BRANCH  70  71
ATOM     71  S   UNL A   1      47.369  25.807  37.438  1.00  0.00     0.124 S 
ATOM     72  O   UNL A   1      47.381  24.638  36.559  1.00  0.00    -0.237 OA
ATOM     73  O   UNL A   1      48.527  26.689  37.322  1.00  0.00    -0.237 OA
ATOM     74  O   UNL A   1      46.916  25.553  38.803  1.00  0.00    -0.744 OA
ENDBRANCH  70  71
ENDBRANCH  51  65
BRANCH  52  75
ATOM     75  C   UNL A   1      36.542  33.234  31.004  1.00  0.00    -0.014 A 
ATOM     76  C   UNL A   1      36.814  34.187  30.008  1.00  0.00     0.010 A 
ATOM     77  C   UNL A   1      35.202  32.968  31.346  1.00  0.00     0.010 A 
ATOM     78  C   UNL A   1      35.773  34.874  29.378  1.00  0.00     0.020 A 
ATOM     79  C   UNL A   1      34.156  33.633  30.698  1.00  0.00     0.020 A 
ATOM     80  C   UNL A   1      34.450  34.591  29.725  1.00  0.00     0.054 A 
BRANCH  80  81
ATOM     81  S   UNL A   1      33.113  35.462  28.860  1.00  0.00     0.124 S 
ATOM     82  O   UNL A   1      33.853  36.418  28.042  1.00  0.00    -0.237 OA
ATOM     83  O   UNL A   1      32.454  34.381  28.131  1.00  0.00    -0.237 OA
ATOM     84  O   UNL A   1      32.326  36.043  29.944  1.00  0.00    -0.744 OA
ENDBRANCH  80  81
ENDBRANCH  52  75
BRANCH  64  85
ATOM     85  C   UNL A   1      39.699  33.916  37.188  1.00  0.00    -0.014 A 
ATOM     86  C   UNL A   1      38.893  33.593  38.294  1.00  0.00     0.010 A 
ATOM     87  C   UNL A   1      40.385  35.145  37.173  1.00  0.00     0.010 A 
ATOM     88  C   UNL A   1      38.752  34.496  39.351  1.00  0.00     0.020 A 
ATOM     89  C   UNL A   1      40.270  36.036  38.242  1.00  0.00     0.020 A 
ATOM     90  C   UNL A   1      39.443  35.712  39.318  1.00  0.00     0.054 A 
BRANCH  90  91
ATOM     91  S   UNL A   1      39.279  36.845  40.724  1.00  0.00     0.124 S 
ATOM     92  O   UNL A   1      38.518  37.947  40.139  1.00  0.00    -0.237 OA
ATOM     93  O   UNL A   1      38.559  36.035  41.705  1.00  0.00    -0.237 OA
ATOM     94  O   UNL A   1      40.661  37.161  41.078  1.00  0.00    -0.744 OA
ENDBRANCH  90  91
ENDBRANCH  64  85
ENDBRANCH  38  39
ENDBRANCH  30  33
ENDBRANCH  28  29
ENDBRANCH  27  28
ENDBRANCH  26  27
ENDBRANCH  25  26
ENDBRANCH   1  25
TORSDOF 22
ENDMDL
