MODEL 1
REMARK VINA RESULT:     -10.8      0.000      0.000
REMARK SMILES COc1cccc(C[C@H](C(=O)NCCCCCCNC(=O)c2ccc(-c3c4nc(c(-c5ccc(S(=O)(=O)[O-])cc5)c5ccc([nH]5)c(-c5ccc(S(=O)(=O)[O-])cc5)c5nc(c(-c6ccc(S(=O)(=O)[O-])cc6)c6ccc3[nH]6)C=C5)C=C4)cc2)c2cccc(C)c2)n1
REMARK SMILES IDX 15 1 14 2 13 3 12 4 10 5 11 6 9 8 8 9 7 10 3 11 4 12 89 13
REMARK SMILES IDX 5 14 6 15 2 16 1 17 82 18 83 19 88 20 84 21 86 22 85 23
REMARK SMILES IDX 87 24 16 25 17 26 18 27 19 28 20 29 21 31 22 32 23 33 81 34
REMARK SMILES IDX 24 35 80 36 25 37 26 38 27 39 74 40 28 41 79 42 73 43 75 44
REMARK SMILES IDX 29 45 78 46 72 47 71 48 30 50 60 51 41 52 59 53 42 54 45 55
REMARK SMILES IDX 58 56 76 57 43 58 44 59 57 61 77 62 46 63 31 64 32 65 40 66
REMARK SMILES IDX 33 67 39 68 34 69 35 70 36 71 37 72 38 73 61 74 62 75 70 76
REMARK SMILES IDX 63 77 69 78 64 79 65 80 66 81 67 82 68 83 47 84 48 85 56 86
REMARK SMILES IDX 49 87 55 88 50 89 51 90 52 91 53 92 54 93
REMARK H PARENT 12 7 19 30 75 49 45 60
REMARK Flexibility Score: inf
ROOT
ATOM      1  C   UNL A   1      34.533  25.572  25.736  1.00  0.00     0.002 C 
ENDROOT
BRANCH   1   2
ATOM      2  C   UNL A   1      33.646  26.435  24.837  1.00  0.00     0.021 C 
BRANCH   2   3
ATOM      3  C   UNL A   1      32.704  27.350  25.617  1.00  0.00     0.116 C 
BRANCH   3   4
ATOM      4  N   UNL A   1      31.440  26.722  25.947  1.00  0.00    -0.356 N 
ATOM      5  C   UNL A   1      30.464  26.135  25.201  1.00  0.00     0.227 C 
ATOM      6  O   UNL A   1      29.575  25.574  25.862  1.00  0.00    -0.274 OA
ATOM      7  H   UNL A   1      31.245  26.721  26.913  1.00  0.00     0.163 HD
BRANCH   5   8
ATOM      8  C   UNL A   1      30.444  26.058  23.657  1.00  0.00     0.114 C 
BRANCH   8   9
ATOM      9  C   UNL A   1      30.749  27.487  23.108  1.00  0.00     0.074 C 
BRANCH   9  10
ATOM     10  C   UNL A   1      29.551  28.320  22.711  1.00  0.00     0.046 A 
ATOM     11  C   UNL A   1      28.791  30.366  21.978  1.00  0.00     0.213 A 
ATOM     12  C   UNL A   1      27.521  30.145  22.482  1.00  0.00     0.068 A 
ATOM     13  N   UNL A   1      29.776  29.451  22.008  1.00  0.00    -0.219 NA
ATOM     14  C   UNL A   1      27.259  28.918  23.077  1.00  0.00     0.007 A 
ATOM     15  C   UNL A   1      28.290  27.991  23.204  1.00  0.00     0.024 A 
BRANCH  11  16
ATOM     16  O   UNL A   1      29.142  31.584  21.458  1.00  0.00    -0.481 OA
ATOM     17  C   UNL A   1      27.990  32.266  20.957  1.00  0.00     0.280 C 
ENDBRANCH  11  16
ENDBRANCH   9  10
ENDBRANCH   8   9
BRANCH   8  18
ATOM     18  C   UNL A   1      31.314  24.960  23.059  1.00  0.00    -0.035 A 
ATOM     19  C   UNL A   1      32.215  25.199  22.014  1.00  0.00     0.004 A 
ATOM     20  C   UNL A   1      31.237  23.663  23.611  1.00  0.00     0.008 A 
ATOM     21  C   UNL A   1      33.050  24.175  21.566  1.00  0.00     0.001 A 
ATOM     22  C   UNL A   1      32.152  22.672  23.244  1.00  0.00    -0.051 A 
ATOM     23  C   UNL A   1      33.036  22.926  22.193  1.00  0.00     0.003 A 
ATOM     24  C   UNL A   1      32.193  21.381  24.007  1.00  0.00     0.044 C 
ENDBRANCH   8  18
ENDBRANCH   5   8
ENDBRANCH   3   4
ENDBRANCH   2   3
ENDBRANCH   1   2
BRANCH   1  25
ATOM     25  C   UNL A   1      34.223  24.069  25.739  1.00  0.00     0.002 C 
BRANCH  25  26
ATOM     26  C   UNL A   1      35.353  23.146  25.275  1.00  0.00     0.021 C 
BRANCH  26  27
ATOM     27  C   UNL A   1      36.749  23.761  25.301  1.00  0.00     0.116 C 
BRANCH  27  28
ATOM     28  N   UNL A   1      37.774  22.782  25.629  1.00  0.00    -0.352 N 
ATOM     29  C   UNL A   1      39.002  22.948  26.204  1.00  0.00     0.251 C 
ATOM     30  H   UNL A   1      37.546  21.851  25.400  1.00  0.00     0.163 HD
ATOM     31  O   UNL A   1      39.805  22.009  26.204  1.00  0.00    -0.269 OA
BRANCH  29  32
ATOM     32  C   UNL A   1      39.380  24.236  26.816  1.00  0.00     0.039 A 
ATOM     33  C   UNL A   1      39.008  24.491  28.139  1.00  0.00     0.014 A 
ATOM     34  C   UNL A   1      40.066  25.210  26.082  1.00  0.00     0.014 A 
ATOM     35  C   UNL A   1      39.364  25.699  28.740  1.00  0.00     0.010 A 
ATOM     36  C   UNL A   1      40.481  26.385  26.705  1.00  0.00     0.010 A 
ATOM     37  C   UNL A   1      40.129  26.644  28.038  1.00  0.00    -0.014 A 
BRANCH  37  38
ATOM     38  C   UNL A   1      40.567  27.907  28.684  1.00  0.00     0.031 A 
ATOM     39  C   UNL A   1      41.952  28.024  29.260  1.00  0.00     0.074 A 
ATOM     40  C   UNL A   1      39.699  28.932  28.794  1.00  0.00     0.049 A 
ATOM     41  N   UNL A   1      42.496  29.028  29.899  1.00  0.00    -0.248 NA
ATOM     42  C   UNL A   1      42.835  26.853  29.122  1.00  0.00     0.031 C 
ATOM     43  C   UNL A   1      38.317  28.928  28.304  1.00  0.00     0.029 A 
ATOM     44  N   UNL A   1      39.847  30.175  29.356  1.00  0.00    -0.354 N 
ATOM     45  C   UNL A   1      43.775  28.608  30.249  1.00  0.00     0.074 A 
ATOM     46  C   UNL A   1      43.908  27.240  29.797  1.00  0.00     0.031 C 
ATOM     47  C   UNL A   1      37.755  30.120  28.562  1.00  0.00     0.029 A 
ATOM     48  C   UNL A   1      38.717  30.956  29.273  1.00  0.00     0.049 A 
ATOM     49  H   UNL A   1      40.682  30.479  29.779  1.00  0.00     0.167 HD
ATOM     50  C   UNL A   1      44.755  29.303  30.874  1.00  0.00     0.031 A 
ATOM     51  C   UNL A   1      38.477  32.202  29.726  1.00  0.00     0.031 A 
ATOM     52  C   UNL A   1      44.619  30.667  31.316  1.00  0.00     0.049 A 
ATOM     53  C   UNL A   1      39.576  32.946  30.436  1.00  0.00     0.074 A 
ATOM     54  C   UNL A   1      45.570  31.475  31.914  1.00  0.00     0.029 A 
ATOM     55  N   UNL A   1      43.460  31.421  31.213  1.00  0.00    -0.354 N 
ATOM     56  N   UNL A   1      40.800  32.553  30.700  1.00  0.00    -0.248 NA
ATOM     57  C   UNL A   1      39.267  34.306  30.895  1.00  0.00     0.031 C 
ATOM     58  C   UNL A   1      44.970  32.699  32.225  1.00  0.00     0.029 A 
ATOM     59  C   UNL A   1      43.664  32.677  31.761  1.00  0.00     0.049 A 
ATOM     60  H   UNL A   1      42.618  31.111  30.810  1.00  0.00     0.167 HD
ATOM     61  C   UNL A   1      41.414  33.628  31.333  1.00  0.00     0.074 A 
ATOM     62  C   UNL A   1      40.432  34.693  31.394  1.00  0.00     0.031 C 
ATOM     63  C   UNL A   1      42.677  33.726  31.816  1.00  0.00     0.031 A 
BRANCH  50  64
ATOM     64  C   UNL A   1      46.064  28.598  31.124  1.00  0.00    -0.014 A 
ATOM     65  C   UNL A   1      46.277  27.854  32.298  1.00  0.00     0.010 A 
ATOM     66  C   UNL A   1      47.076  28.638  30.148  1.00  0.00     0.010 A 
ATOM     67  C   UNL A   1      47.492  27.196  32.509  1.00  0.00     0.020 A 
ATOM     68  C   UNL A   1      48.282  27.956  30.342  1.00  0.00     0.020 A 
ATOM     69  C   UNL A   1      48.487  27.252  31.529  1.00  0.00     0.054 A 
BRANCH  69  70
ATOM     70  S   UNL A   1      50.042  26.365  31.819  1.00  0.00     0.124 S 
ATOM     71  O   UNL A   1      50.890  26.887  30.750  1.00  0.00    -0.237 OA
ATOM     72  O   UNL A   1      50.404  26.787  33.170  1.00  0.00    -0.237 OA
ATOM     73  O   UNL A   1      49.670  24.958  31.687  1.00  0.00    -0.744 OA
ENDBRANCH  69  70
ENDBRANCH  50  64
BRANCH  51  74
ATOM     74  C   UNL A   1      37.142  32.826  29.517  1.00  0.00    -0.014 A 
ATOM     75  C   UNL A   1      36.156  32.761  30.518  1.00  0.00     0.010 A 
ATOM     76  C   UNL A   1      36.851  33.498  28.316  1.00  0.00     0.010 A 
ATOM     77  C   UNL A   1      34.898  33.335  30.313  1.00  0.00     0.020 A 
ATOM     78  C   UNL A   1      35.606  34.101  28.118  1.00  0.00     0.020 A 
ATOM     79  C   UNL A   1      34.632  34.004  29.114  1.00  0.00     0.054 A 
BRANCH  79  80
ATOM     80  S   UNL A   1      33.007  34.777  28.888  1.00  0.00     0.124 S 
ATOM     81  O   UNL A   1      32.359  33.858  27.958  1.00  0.00    -0.237 OA
ATOM     82  O   UNL A   1      32.472  34.788  30.247  1.00  0.00    -0.237 OA
ATOM     83  O   UNL A   1      33.329  36.095  28.342  1.00  0.00    -0.744 OA
ENDBRANCH  79  80
ENDBRANCH  51  74
BRANCH  63  84
ATOM     84  C   UNL A   1      43.087  35.042  32.424  1.00  0.00    -0.014 A 
ATOM     85  C   UNL A   1      43.950  35.924  31.749  1.00  0.00     0.010 A 
ATOM     86  C   UNL A   1      42.552  35.426  33.667  1.00  0.00     0.010 A 
ATOM     87  C   UNL A   1      44.297  37.150  32.322  1.00  0.00     0.020 A 
ATOM     88  C   UNL A   1      42.872  36.664  34.229  1.00  0.00     0.020 A 
ATOM     89  C   UNL A   1      43.754  37.513  33.559  1.00  0.00     0.054 A 
BRANCH  89  90
ATOM     90  S   UNL A   1      44.184  39.129  34.260  1.00  0.00     0.124 S 
ATOM     91  O   UNL A   1      45.367  39.491  33.484  1.00  0.00    -0.237 OA
ATOM     92  O   UNL A   1      42.987  39.923  33.990  1.00  0.00    -0.237 OA
ATOM     93  O   UNL A   1      44.429  38.842  35.671  1.00  0.00    -0.744 OA
ENDBRANCH  89  90
ENDBRANCH  63  84
ENDBRANCH  37  38
ENDBRANCH  29  32
ENDBRANCH  27  28
ENDBRANCH  26  27
ENDBRANCH  25  26
ENDBRANCH   1  25
TORSDOF 20
ENDMDL
MODEL 2
REMARK VINA RESULT:     -10.5      4.235      8.268
REMARK SMILES COc1cccc(C[C@H](C(=O)NCCCCCCNC(=O)c2ccc(-c3c4nc(c(-c5ccc(S(=O)(=O)[O-])cc5)c5ccc([nH]5)c(-c5ccc(S(=O)(=O)[O-])cc5)c5nc(c(-c6ccc(S(=O)(=O)[O-])cc6)c6ccc3[nH]6)C=C5)C=C4)cc2)c2cccc(C)c2)n1
REMARK SMILES IDX 15 1 14 2 13 3 12 4 10 5 11 6 9 8 8 9 7 10 3 11 4 12 89 13
REMARK SMILES IDX 5 14 6 15 2 16 1 17 82 18 83 19 88 20 84 21 86 22 85 23
REMARK SMILES IDX 87 24 16 25 17 26 18 27 19 28 20 29 21 31 22 32 23 33 81 34
REMARK SMILES IDX 24 35 80 36 25 37 26 38 27 39 74 40 28 41 79 42 73 43 75 44
REMARK SMILES IDX 29 45 78 46 72 47 71 48 30 50 60 51 41 52 59 53 42 54 45 55
REMARK SMILES IDX 58 56 76 57 43 58 44 59 57 61 77 62 46 63 31 64 32 65 40 66
REMARK SMILES IDX 33 67 39 68 34 69 35 70 36 71 37 72 38 73 61 74 62 75 70 76
REMARK SMILES IDX 63 77 69 78 64 79 65 80 66 81 67 82 68 83 47 84 48 85 56 86
REMARK SMILES IDX 49 87 55 88 50 89 51 90 52 91 53 92 54 93
REMARK H PARENT 12 7 19 30 75 49 45 60
REMARK Flexibility Score: inf
ROOT
ATOM      1  C   UNL A   1      35.264  30.448  28.617  1.00  0.00     0.002 C 
ENDROOT
BRANCH   1   2
ATOM      2  C   UNL A   1      35.559  29.384  27.559  1.00  0.00     0.021 C 
BRANCH   2   3
ATOM      3  C   UNL A   1      34.364  29.084  26.654  1.00  0.00     0.116 C 
BRANCH   3   4
ATOM      4  N   UNL A   1      33.147  28.800  27.390  1.00  0.00    -0.356 N 
ATOM      5  C   UNL A   1      31.955  28.241  27.046  1.00  0.00     0.227 C 
ATOM      6  O   UNL A   1      31.188  28.032  27.998  1.00  0.00    -0.274 OA
ATOM      7  H   UNL A   1      33.192  29.069  28.336  1.00  0.00     0.163 HD
BRANCH   5   8
ATOM      8  C   UNL A   1      31.554  27.797  25.619  1.00  0.00     0.114 C 
BRANCH   8   9
ATOM      9  C   UNL A   1      31.474  29.078  24.731  1.00  0.00     0.074 C 
BRANCH   9  10
ATOM     10  C   UNL A   1      30.222  29.233  23.896  1.00  0.00     0.046 A 
ATOM     11  C   UNL A   1      28.452  30.590  23.320  1.00  0.00     0.213 A 
ATOM     12  C   UNL A   1      27.678  29.516  22.917  1.00  0.00     0.068 A 
ATOM     13  N   UNL A   1      29.730  30.480  23.725  1.00  0.00    -0.219 NA
ATOM     14  C   UNL A   1      28.246  28.249  22.961  1.00  0.00     0.007 A 
ATOM     15  C   UNL A   1      29.535  28.099  23.467  1.00  0.00     0.024 A 
BRANCH  11  16
ATOM     16  O   UNL A   1      27.927  31.854  23.385  1.00  0.00    -0.481 OA
ATOM     17  C   UNL A   1      28.709  32.762  22.605  1.00  0.00     0.280 C 
ENDBRANCH  11  16
ENDBRANCH   9  10
ENDBRANCH   8   9
BRANCH   8  18
ATOM     18  C   UNL A   1      32.410  26.683  25.032  1.00  0.00    -0.035 A 
ATOM     19  C   UNL A   1      32.891  26.716  23.717  1.00  0.00     0.004 A 
ATOM     20  C   UNL A   1      32.765  25.597  25.862  1.00  0.00     0.008 A 
ATOM     21  C   UNL A   1      33.742  25.709  23.261  1.00  0.00     0.001 A 
ATOM     22  C   UNL A   1      33.709  24.654  25.445  1.00  0.00    -0.051 A 
ATOM     23  C   UNL A   1      34.169  24.698  24.126  1.00  0.00     0.003 A 
ATOM     24  C   UNL A   1      34.236  23.648  26.424  1.00  0.00     0.044 C 
ENDBRANCH   8  18
ENDBRANCH   5   8
ENDBRANCH   3   4
ENDBRANCH   2   3
ENDBRANCH   1   2
BRANCH   1  25
ATOM     25  C   UNL A   1      35.292  31.904  28.129  1.00  0.00     0.002 C 
BRANCH  25  26
ATOM     26  C   UNL A   1      33.933  32.596  27.996  1.00  0.00     0.021 C 
BRANCH  26  27
ATOM     27  C   UNL A   1      33.980  34.121  27.957  1.00  0.00     0.116 C 
BRANCH  27  28
ATOM     28  N   UNL A   1      33.164  34.721  29.001  1.00  0.00    -0.352 N 
ATOM     29  C   UNL A   1      33.310  34.697  30.360  1.00  0.00     0.251 C 
ATOM     30  H   UNL A   1      32.382  35.225  28.678  1.00  0.00     0.163 HD
ATOM     31  O   UNL A   1      32.387  35.097  31.077  1.00  0.00    -0.269 OA
BRANCH  29  32
ATOM     32  C   UNL A   1      34.552  34.193  30.976  1.00  0.00     0.039 A 
ATOM     33  C   UNL A   1      34.522  32.973  31.657  1.00  0.00     0.014 A 
ATOM     34  C   UNL A   1      35.737  34.934  30.921  1.00  0.00     0.014 A 
ATOM     35  C   UNL A   1      35.688  32.473  32.239  1.00  0.00     0.010 A 
ATOM     36  C   UNL A   1      36.914  34.402  31.441  1.00  0.00     0.010 A 
ATOM     37  C   UNL A   1      36.901  33.169  32.111  1.00  0.00    -0.014 A 
BRANCH  37  38
ATOM     38  C   UNL A   1      38.162  32.621  32.672  1.00  0.00     0.031 A 
ATOM     39  C   UNL A   1      39.042  31.734  31.835  1.00  0.00     0.074 A 
ATOM     40  C   UNL A   1      38.487  32.884  33.953  1.00  0.00     0.049 A 
ATOM     41  N   UNL A   1      40.154  31.128  32.166  1.00  0.00    -0.248 NA
ATOM     42  C   UNL A   1      38.608  31.474  30.452  1.00  0.00     0.031 C 
ATOM     43  C   UNL A   1      37.697  33.704  34.877  1.00  0.00     0.029 A 
ATOM     44  N   UNL A   1      39.565  32.487  34.703  1.00  0.00    -0.354 N 
ATOM     45  C   UNL A   1      40.544  30.408  31.042  1.00  0.00     0.074 A 
ATOM     46  C   UNL A   1      39.524  30.610  30.037  1.00  0.00     0.031 C 
ATOM     47  C   UNL A   1      38.331  33.771  36.058  1.00  0.00     0.029 A 
ATOM     48  C   UNL A   1      39.546  32.966  35.993  1.00  0.00     0.049 A 
ATOM     49  H   UNL A   1      40.284  31.913  34.352  1.00  0.00     0.167 HD
ATOM     50  C   UNL A   1      41.658  29.660  30.858  1.00  0.00     0.031 A 
ATOM     51  C   UNL A   1      40.406  32.772  37.012  1.00  0.00     0.031 A 
ATOM     52  C   UNL A   1      42.674  29.468  31.860  1.00  0.00     0.049 A 
ATOM     53  C   UNL A   1      41.626  31.921  36.788  1.00  0.00     0.074 A 
ATOM     54  C   UNL A   1      43.864  28.770  31.755  1.00  0.00     0.029 A 
ATOM     55  N   UNL A   1      42.618  29.970  33.152  1.00  0.00    -0.354 N 
ATOM     56  N   UNL A   1      42.009  31.300  35.697  1.00  0.00    -0.248 NA
ATOM     57  C   UNL A   1      42.538  31.755  37.928  1.00  0.00     0.031 C 
ATOM     58  C   UNL A   1      44.500  28.801  32.999  1.00  0.00     0.029 A 
ATOM     59  C   UNL A   1      43.739  29.574  33.862  1.00  0.00     0.049 A 
ATOM     60  H   UNL A   1      41.889  30.525  33.511  1.00  0.00     0.167 HD
ATOM     61  C   UNL A   1      43.219  30.693  36.013  1.00  0.00     0.074 A 
ATOM     62  C   UNL A   1      43.513  31.036  37.390  1.00  0.00     0.031 C 
ATOM     63  C   UNL A   1      44.017  29.923  35.232  1.00  0.00     0.031 A 
BRANCH  50  64
ATOM     64  C   UNL A   1      41.837  28.987  29.521  1.00  0.00    -0.014 A 
ATOM     65  C   UNL A   1      42.456  29.654  28.448  1.00  0.00     0.010 A 
ATOM     66  C   UNL A   1      41.426  27.653  29.350  1.00  0.00     0.010 A 
ATOM     67  C   UNL A   1      42.625  29.011  27.218  1.00  0.00     0.020 A 
ATOM     68  C   UNL A   1      41.621  26.996  28.131  1.00  0.00     0.020 A 
ATOM     69  C   UNL A   1      42.206  27.686  27.067  1.00  0.00     0.054 A 
BRANCH  69  70
ATOM     70  S   UNL A   1      42.464  26.870  25.469  1.00  0.00     0.124 S 
ATOM     71  O   UNL A   1      43.693  26.118  25.710  1.00  0.00    -0.237 OA
ATOM     72  O   UNL A   1      41.254  26.064  25.322  1.00  0.00    -0.237 OA
ATOM     73  O   UNL A   1      42.588  27.980  24.527  1.00  0.00    -0.744 OA
ENDBRANCH  69  70
ENDBRANCH  50  64
BRANCH  51  74
ATOM     74  C   UNL A   1      40.145  33.402  38.335  1.00  0.00    -0.014 A 
ATOM     75  C   UNL A   1      40.683  34.664  38.646  1.00  0.00     0.010 A 
ATOM     76  C   UNL A   1      39.349  32.747  39.291  1.00  0.00     0.010 A 
ATOM     77  C   UNL A   1      40.449  35.247  39.895  1.00  0.00     0.020 A 
ATOM     78  C   UNL A   1      39.086  33.339  40.530  1.00  0.00     0.020 A 
ATOM     79  C   UNL A   1      39.650  34.580  40.829  1.00  0.00     0.054 A 
BRANCH  79  80
ATOM     80  S   UNL A   1      39.325  35.375  42.427  1.00  0.00     0.124 S 
ATOM     81  O   UNL A   1      40.148  36.578  42.341  1.00  0.00    -0.237 OA
ATOM     82  O   UNL A   1      37.881  35.590  42.384  1.00  0.00    -0.237 OA
ATOM     83  O   UNL A   1      39.771  34.380  43.400  1.00  0.00    -0.744 OA
ENDBRANCH  79  80
ENDBRANCH  51  74
BRANCH  63  84
ATOM     84  C   UNL A   1      45.305  29.426  35.834  1.00  0.00    -0.014 A 
ATOM     85  C   UNL A   1      46.485  30.189  35.772  1.00  0.00     0.010 A 
ATOM     86  C   UNL A   1      45.319  28.200  36.523  1.00  0.00     0.010 A 
ATOM     87  C   UNL A   1      47.663  29.719  36.359  1.00  0.00     0.020 A 
ATOM     88  C   UNL A   1      46.486  27.740  37.138  1.00  0.00     0.020 A 
ATOM     89  C   UNL A   1      47.655  28.497  37.039  1.00  0.00     0.054 A 
BRANCH  89  90
ATOM     90  S   UNL A   1      49.185  27.930  37.832  1.00  0.00     0.124 S 
ATOM     91  O   UNL A   1      49.114  26.485  37.630  1.00  0.00    -0.237 OA
ATOM     92  O   UNL A   1      50.217  28.622  37.064  1.00  0.00    -0.237 OA
ATOM     93  O   UNL A   1      49.044  28.373  39.216  1.00  0.00    -0.744 OA
ENDBRANCH  89  90
ENDBRANCH  63  84
ENDBRANCH  37  38
ENDBRANCH  29  32
ENDBRANCH  27  28
ENDBRANCH  26  27
ENDBRANCH  25  26
ENDBRANCH   1  25
TORSDOF 20
ENDMDL
MODEL 3
REMARK VINA RESULT:     -10.5      4.153     10.095
REMARK SMILES COc1cccc(C[C@H](C(=O)NCCCCCCNC(=O)c2ccc(-c3c4nc(c(-c5ccc(S(=O)(=O)[O-])cc5)c5ccc([nH]5)c(-c5ccc(S(=O)(=O)[O-])cc5)c5nc(c(-c6ccc(S(=O)(=O)[O-])cc6)c6ccc3[nH]6)C=C5)C=C4)cc2)c2cccc(C)c2)n1
REMARK SMILES IDX 15 1 14 2 13 3 12 4 10 5 11 6 9 8 8 9 7 10 3 11 4 12 89 13
REMARK SMILES IDX 5 14 6 15 2 16 1 17 82 18 83 19 88 20 84 21 86 22 85 23
REMARK SMILES IDX 87 24 16 25 17 26 18 27 19 28 20 29 21 31 22 32 23 33 81 34
REMARK SMILES IDX 24 35 80 36 25 37 26 38 27 39 74 40 28 41 79 42 73 43 75 44
REMARK SMILES IDX 29 45 78 46 72 47 71 48 30 50 60 51 41 52 59 53 42 54 45 55
REMARK SMILES IDX 58 56 76 57 43 58 44 59 57 61 77 62 46 63 31 64 32 65 40 66
REMARK SMILES IDX 33 67 39 68 34 69 35 70 36 71 37 72 38 73 61 74 62 75 70 76
REMARK SMILES IDX 63 77 69 78 64 79 65 80 66 81 67 82 68 83 47 84 48 85 56 86
REMARK SMILES IDX 49 87 55 88 50 89 51 90 52 91 53 92 54 93
REMARK H PARENT 12 7 19 30 75 49 45 60
REMARK Flexibility Score: inf
ROOT
ATOM      1  C   UNL A   1      38.960  23.020  26.477  1.00  0.00     0.002 C 
ENDROOT
BRANCH   1   2
ATOM      2  C   UNL A   1      37.769  22.361  25.780  1.00  0.00     0.021 C 
BRANCH   2   3
ATOM      3  C   UNL A   1      36.474  23.164  25.907  1.00  0.00     0.116 C 
BRANCH   3   4
ATOM      4  N   UNL A   1      35.486  22.525  26.755  1.00  0.00    -0.356 N 
ATOM      5  C   UNL A   1      34.413  21.726  26.502  1.00  0.00     0.227 C 
ATOM      6  O   UNL A   1      33.874  21.250  27.513  1.00  0.00    -0.274 OA
ATOM      7  H   UNL A   1      35.618  22.708  27.713  1.00  0.00     0.163 HD
BRANCH   5   8
ATOM      8  C   UNL A   1      33.903  21.332  25.096  1.00  0.00     0.114 C 
BRANCH   8   9
ATOM      9  C   UNL A   1      32.772  20.272  25.283  1.00  0.00     0.074 C 
BRANCH   9  10
ATOM     10  C   UNL A   1      33.123  18.850  24.908  1.00  0.00     0.046 A 
ATOM     11  C   UNL A   1      32.882  16.615  25.410  1.00  0.00     0.213 A 
ATOM     12  C   UNL A   1      34.051  16.277  24.752  1.00  0.00     0.068 A 
ATOM     13  N   UNL A   1      32.368  17.857  25.427  1.00  0.00    -0.219 NA
ATOM     14  C   UNL A   1      34.747  17.285  24.097  1.00  0.00     0.007 A 
ATOM     15  C   UNL A   1      34.285  18.595  24.181  1.00  0.00     0.024 A 
BRANCH  11  16
ATOM     16  O   UNL A   1      32.194  15.689  26.148  1.00  0.00    -0.481 OA
ATOM     17  C   UNL A   1      32.542  14.364  25.740  1.00  0.00     0.280 C 
ENDBRANCH  11  16
ENDBRANCH   9  10
ENDBRANCH   8   9
BRANCH   8  18
ATOM     18  C   UNL A   1      33.518  22.504  24.203  1.00  0.00    -0.035 A 
ATOM     19  C   UNL A   1      34.366  23.001  23.205  1.00  0.00     0.004 A 
ATOM     20  C   UNL A   1      32.239  23.081  24.363  1.00  0.00     0.008 A 
ATOM     21  C   UNL A   1      33.925  24.019  22.360  1.00  0.00     0.001 A 
ATOM     22  C   UNL A   1      31.755  24.017  23.443  1.00  0.00    -0.051 A 
ATOM     23  C   UNL A   1      32.619  24.508  22.462  1.00  0.00     0.003 A 
ATOM     24  C   UNL A   1      30.318  24.441  23.505  1.00  0.00     0.044 C 
ENDBRANCH   8  18
ENDBRANCH   5   8
ENDBRANCH   3   4
ENDBRANCH   2   3
ENDBRANCH   1   2
BRANCH   1  25
ATOM     25  C   UNL A   1      40.278  22.235  26.437  1.00  0.00     0.002 C 
BRANCH  25  26
ATOM     26  C   UNL A   1      41.242  22.474  27.603  1.00  0.00     0.021 C 
BRANCH  26  27
ATOM     27  C   UNL A   1      42.458  23.334  27.276  1.00  0.00     0.116 C 
BRANCH  27  28
ATOM     28  N   UNL A   1      42.224  24.205  26.135  1.00  0.00    -0.352 N 
ATOM     29  C   UNL A   1      41.724  25.476  26.082  1.00  0.00     0.251 C 
ATOM     30  H   UNL A   1      42.462  23.818  25.262  1.00  0.00     0.163 HD
ATOM     31  O   UNL A   1      41.411  25.960  24.990  1.00  0.00    -0.269 OA
BRANCH  29  32
ATOM     32  C   UNL A   1      41.551  26.271  27.313  1.00  0.00     0.039 A 
ATOM     33  C   UNL A   1      42.473  27.280  27.601  1.00  0.00     0.014 A 
ATOM     34  C   UNL A   1      40.507  26.001  28.204  1.00  0.00     0.014 A 
ATOM     35  C   UNL A   1      42.322  28.050  28.756  1.00  0.00     0.010 A 
ATOM     36  C   UNL A   1      40.317  26.815  29.318  1.00  0.00     0.010 A 
ATOM     37  C   UNL A   1      41.226  27.843  29.609  1.00  0.00    -0.014 A 
BRANCH  37  38
ATOM     38  C   UNL A   1      41.017  28.694  30.808  1.00  0.00     0.031 A 
ATOM     39  C   UNL A   1      39.917  29.720  30.829  1.00  0.00     0.074 A 
ATOM     40  C   UNL A   1      41.852  28.575  31.859  1.00  0.00     0.049 A 
ATOM     41  N   UNL A   1      39.612  30.581  31.765  1.00  0.00    -0.248 NA
ATOM     42  C   UNL A   1      39.061  29.806  29.634  1.00  0.00     0.031 C 
ATOM     43  C   UNL A   1      42.979  27.640  31.945  1.00  0.00     0.029 A 
ATOM     44  N   UNL A   1      41.889  29.246  33.055  1.00  0.00    -0.354 N 
ATOM     45  C   UNL A   1      38.541  31.318  31.270  1.00  0.00     0.074 A 
ATOM     46  C   UNL A   1      38.282  30.837  29.931  1.00  0.00     0.031 C 
ATOM     47  C   UNL A   1      43.575  27.778  33.139  1.00  0.00     0.029 A 
ATOM     48  C   UNL A   1      42.906  28.838  33.886  1.00  0.00     0.049 A 
ATOM     49  H   UNL A   1      41.247  29.953  33.297  1.00  0.00     0.167 HD
ATOM     50  C   UNL A   1      37.827  32.293  31.882  1.00  0.00     0.031 A 
ATOM     51  C   UNL A   1      43.267  29.273  35.109  1.00  0.00     0.031 A 
ATOM     52  C   UNL A   1      38.085  32.762  33.219  1.00  0.00     0.049 A 
ATOM     53  C   UNL A   1      42.470  30.372  35.759  1.00  0.00     0.074 A 
ATOM     54  C   UNL A   1      37.387  33.711  33.946  1.00  0.00     0.029 A 
ATOM     55  N   UNL A   1      39.123  32.323  34.026  1.00  0.00    -0.354 N 
ATOM     56  N   UNL A   1      41.421  31.012  35.299  1.00  0.00    -0.248 NA
ATOM     57  C   UNL A   1      42.897  30.798  37.098  1.00  0.00     0.031 C 
ATOM     58  C   UNL A   1      38.037  33.887  35.171  1.00  0.00     0.029 A 
ATOM     59  C   UNL A   1      39.101  33.001  35.234  1.00  0.00     0.049 A 
ATOM     60  H   UNL A   1      39.779  31.632  33.778  1.00  0.00     0.167 HD
ATOM     61  C   UNL A   1      41.047  31.896  36.304  1.00  0.00     0.074 A 
ATOM     62  C   UNL A   1      41.971  31.696  37.403  1.00  0.00     0.031 C 
ATOM     63  C   UNL A   1      40.028  32.791  36.318  1.00  0.00     0.031 A 
BRANCH  50  64
ATOM     64  C   UNL A   1      36.698  32.924  31.108  1.00  0.00    -0.014 A 
ATOM     65  C   UNL A   1      35.373  32.869  31.578  1.00  0.00     0.010 A 
ATOM     66  C   UNL A   1      36.972  33.626  29.920  1.00  0.00     0.010 A 
ATOM     67  C   UNL A   1      34.340  33.470  30.854  1.00  0.00     0.020 A 
ATOM     68  C   UNL A   1      35.945  34.255  29.209  1.00  0.00     0.020 A 
ATOM     69  C   UNL A   1      34.632  34.159  29.674  1.00  0.00     0.054 A 
BRANCH  69  70
ATOM     70  S   UNL A   1      33.274  34.953  28.772  1.00  0.00     0.124 S 
ATOM     71  O   UNL A   1      32.345  35.279  29.852  1.00  0.00    -0.237 OA
ATOM     72  O   UNL A   1      33.932  36.096  28.144  1.00  0.00    -0.237 OA
ATOM     73  O   UNL A   1      32.817  33.917  27.850  1.00  0.00    -0.744 OA
ENDBRANCH  69  70
ENDBRANCH  50  64
BRANCH  51  74
ATOM     74  C   UNL A   1      44.436  28.664  35.802  1.00  0.00    -0.014 A 
ATOM     75  C   UNL A   1      44.268  27.551  36.645  1.00  0.00     0.010 A 
ATOM     76  C   UNL A   1      45.727  29.189  35.614  1.00  0.00     0.010 A 
ATOM     77  C   UNL A   1      45.365  26.990  37.306  1.00  0.00     0.020 A 
ATOM     78  C   UNL A   1      46.832  28.612  36.248  1.00  0.00     0.020 A 
ATOM     79  C   UNL A   1      46.641  27.524  37.101  1.00  0.00     0.054 A 
BRANCH  79  80
ATOM     80  S   UNL A   1      48.054  26.753  37.936  1.00  0.00     0.124 S 
ATOM     81  O   UNL A   1      48.967  26.506  36.824  1.00  0.00    -0.237 OA
ATOM     82  O   UNL A   1      48.468  27.790  38.878  1.00  0.00    -0.237 OA
ATOM     83  O   UNL A   1      47.478  25.558  38.550  1.00  0.00    -0.744 OA
ENDBRANCH  79  80
ENDBRANCH  51  74
BRANCH  63  84
ATOM     84  C   UNL A   1      39.833  33.601  37.573  1.00  0.00    -0.014 A 
ATOM     85  C   UNL A   1      40.331  34.912  37.684  1.00  0.00     0.010 A 
ATOM     86  C   UNL A   1      39.090  33.059  38.637  1.00  0.00     0.010 A 
ATOM     87  C   UNL A   1      40.116  35.652  38.849  1.00  0.00     0.020 A 
ATOM     88  C   UNL A   1      38.846  33.807  39.791  1.00  0.00     0.020 A 
ATOM     89  C   UNL A   1      39.374  35.095  39.895  1.00  0.00     0.054 A 
BRANCH  89  90
ATOM     90  S   UNL A   1      39.071  36.094  41.379  1.00  0.00     0.124 S 
ATOM     91  O   UNL A   1      37.880  35.459  41.934  1.00  0.00    -0.237 OA
ATOM     92  O   UNL A   1      40.300  35.906  42.146  1.00  0.00    -0.237 OA
ATOM     93  O   UNL A   1      38.871  37.443  40.854  1.00  0.00    -0.744 OA
ENDBRANCH  89  90
ENDBRANCH  63  84
ENDBRANCH  37  38
ENDBRANCH  29  32
ENDBRANCH  27  28
ENDBRANCH  26  27
ENDBRANCH  25  26
ENDBRANCH   1  25
TORSDOF 20
ENDMDL
