MODEL 1
REMARK VINA RESULT:     -10.1      0.000      0.000
REMARK SMILES [NH3+][C@]1(C(=O)NCCCCCCNC(=O)c2ccc(-c3c4nc(c(-c5ccc(S(=O)(=O)[O-])cc5)c5ccc([nH]5)c(-c5ccc(S(=O)(=O)[O-])cc5)c5nc(c(-c6ccc(S(=O)(=O)[O-])cc6)c6ccc3[nH]6)C=C5)C=C4)cc2)CCC[C@H]1CC[NH+]1CCCCC1
REMARK SMILES IDX 8 1 7 2 6 3 5 4 3 5 4 6 2 8 75 9 78 10 76 11 77 12 1 13
REMARK SMILES IDX 79 17 80 18 81 19 82 20 86 21 83 23 85 24 84 25 9 26 10 27
REMARK SMILES IDX 11 28 12 29 13 30 14 32 15 33 16 34 74 35 17 36 73 37 18 38
REMARK SMILES IDX 19 39 20 40 67 41 21 42 72 43 66 44 68 45 22 46 71 47 65 48
REMARK SMILES IDX 64 49 23 51 53 52 34 53 52 54 35 55 38 56 51 57 69 58 36 59
REMARK SMILES IDX 37 60 50 62 70 63 39 64 24 65 25 66 33 67 26 68 32 69 27 70
REMARK SMILES IDX 28 71 29 72 30 73 31 74 54 75 55 76 63 77 56 78 62 79 57 80
REMARK SMILES IDX 58 81 59 82 60 83 61 84 40 85 41 86 49 87 42 88 48 89 43 90
REMARK SMILES IDX 44 91 45 92 46 93 47 94
REMARK H PARENT 5 7 1 14 1 15 1 16 81 22 12 31 68 50 38 61
REMARK Flexibility Score: inf
ROOT
ATOM      1  C   UNL A   1      31.450  26.096  25.446  1.00  0.00     0.002 C 
ENDROOT
BRANCH   1   2
ATOM      2  C   UNL A   1      30.568  24.952  25.961  1.00  0.00     0.021 C 
BRANCH   2   3
ATOM      3  C   UNL A   1      31.061  23.577  25.541  1.00  0.00     0.116 C 
BRANCH   3   4
ATOM      4  N   UNL A   1      31.490  23.553  24.159  1.00  0.00    -0.351 N 
ATOM      5  C   UNL A   1      32.646  23.120  23.596  1.00  0.00     0.281 C 
ATOM      6  O   UNL A   1      32.674  23.094  22.357  1.00  0.00    -0.268 OA
ATOM      7  H   UNL A   1      30.831  23.910  23.520  1.00  0.00     0.163 HD
BRANCH   5   8
ATOM      8  C   UNL A   1      33.898  22.708  24.425  1.00  0.00     0.177 C 
ATOM      9  C   UNL A   1      34.210  23.742  25.526  1.00  0.00     0.079 C 
ATOM     10  C   UNL A   1      33.954  21.302  25.108  1.00  0.00     0.066 C 
ATOM     11  C   UNL A   1      35.044  22.983  26.543  1.00  0.00     0.008 C 
ATOM     12  C   UNL A   1      34.432  21.593  26.554  1.00  0.00     0.011 C 
BRANCH   8  13
ATOM     13  N   UNL A   1      35.088  22.788  23.509  1.00  0.00    -0.345 N 
ATOM     14  H   UNL A   1      35.942  22.636  24.046  1.00  0.00     0.345 HD
ATOM     15  H   UNL A   1      35.120  23.709  23.072  1.00  0.00     0.345 HD
ATOM     16  H   UNL A   1      35.009  22.072  22.786  1.00  0.00     0.345 HD
ENDBRANCH   8  13
BRANCH  10  17
ATOM     17  C   UNL A   1      32.749  20.338  25.175  1.00  0.00     0.072 C 
BRANCH  17  18
ATOM     18  C   UNL A   1      32.375  19.480  23.960  1.00  0.00     0.262 C 
BRANCH  18  19
ATOM     19  N   UNL A   1      32.673  18.065  24.194  1.00  0.00    -0.335 N 
ATOM     20  C   UNL A   1      34.018  17.723  23.707  1.00  0.00     0.262 C 
ATOM     21  C   UNL A   1      32.551  17.709  25.614  1.00  0.00     0.262 C 
ATOM     22  H   UNL A   1      31.983  17.526  23.670  1.00  0.00     0.348 HD
ATOM     23  C   UNL A   1      34.255  16.218  23.810  1.00  0.00     0.062 C 
ATOM     24  C   UNL A   1      32.708  16.200  25.790  1.00  0.00     0.062 C 
ATOM     25  C   UNL A   1      34.042  15.714  25.234  1.00  0.00     0.012 C 
ENDBRANCH  18  19
ENDBRANCH  17  18
ENDBRANCH  10  17
ENDBRANCH   5   8
ENDBRANCH   3   4
ENDBRANCH   2   3
ENDBRANCH   1   2
BRANCH   1  26
ATOM     26  C   UNL A   1      32.320  26.785  26.507  1.00  0.00     0.002 C 
BRANCH  26  27
ATOM     27  C   UNL A   1      32.637  28.258  26.238  1.00  0.00     0.021 C 
BRANCH  27  28
ATOM     28  C   UNL A   1      33.916  28.763  26.894  1.00  0.00     0.116 C 
BRANCH  28  29
ATOM     29  N   UNL A   1      33.759  30.093  27.455  1.00  0.00    -0.352 N 
ATOM     30  C   UNL A   1      34.619  30.802  28.256  1.00  0.00     0.251 C 
ATOM     31  H   UNL A   1      32.917  30.552  27.229  1.00  0.00     0.163 HD
ATOM     32  O   UNL A   1      34.253  31.846  28.780  1.00  0.00    -0.269 OA
BRANCH  30  33
ATOM     33  C   UNL A   1      35.980  30.279  28.498  1.00  0.00     0.039 A 
ATOM     34  C   UNL A   1      36.922  30.350  27.470  1.00  0.00     0.014 A 
ATOM     35  C   UNL A   1      36.327  29.732  29.737  1.00  0.00     0.014 A 
ATOM     36  C   UNL A   1      38.229  29.923  27.702  1.00  0.00     0.010 A 
ATOM     37  C   UNL A   1      37.649  29.382  29.992  1.00  0.00     0.010 A 
ATOM     38  C   UNL A   1      38.612  29.467  28.975  1.00  0.00    -0.014 A 
BRANCH  38  39
ATOM     39  C   UNL A   1      40.014  29.071  29.260  1.00  0.00     0.031 A 
ATOM     40  C   UNL A   1      40.959  30.047  29.906  1.00  0.00     0.074 A 
ATOM     41  C   UNL A   1      40.449  27.850  28.889  1.00  0.00     0.049 A 
ATOM     42  N   UNL A   1      42.226  29.898  30.199  1.00  0.00    -0.248 NA
ATOM     43  C   UNL A   1      40.417  31.373  30.246  1.00  0.00     0.031 C 
ATOM     44  C   UNL A   1      39.639  26.827  28.225  1.00  0.00     0.029 A 
ATOM     45  N   UNL A   1      41.683  27.263  29.017  1.00  0.00    -0.354 N 
ATOM     46  C   UNL A   1      42.633  31.111  30.743  1.00  0.00     0.074 A 
ATOM     47  C   UNL A   1      41.497  32.003  30.685  1.00  0.00     0.031 C 
ATOM     48  C   UNL A   1      40.385  25.726  28.039  1.00  0.00     0.029 A 
ATOM     49  C   UNL A   1      41.737  25.980  28.525  1.00  0.00     0.049 A 
ATOM     50  H   UNL A   1      42.456  27.717  29.423  1.00  0.00     0.167 HD
ATOM     51  C   UNL A   1      43.838  31.446  31.262  1.00  0.00     0.031 A 
ATOM     52  C   UNL A   1      42.762  25.107  28.466  1.00  0.00     0.031 A 
ATOM     53  C   UNL A   1      44.967  30.553  31.315  1.00  0.00     0.049 A 
ATOM     54  C   UNL A   1      44.101  25.513  29.018  1.00  0.00     0.074 A 
ATOM     55  C   UNL A   1      46.216  30.779  31.865  1.00  0.00     0.029 A 
ATOM     56  N   UNL A   1      44.984  29.267  30.795  1.00  0.00    -0.354 N 
ATOM     57  N   UNL A   1      44.449  26.642  29.590  1.00  0.00    -0.248 NA
ATOM     58  C   UNL A   1      45.184  24.525  28.926  1.00  0.00     0.031 C 
ATOM     59  C   UNL A   1      47.009  29.653  31.620  1.00  0.00     0.029 A 
ATOM     60  C   UNL A   1      46.233  28.699  30.983  1.00  0.00     0.049 A 
ATOM     61  H   UNL A   1      44.222  28.825  30.357  1.00  0.00     0.167 HD
ATOM     62  C   UNL A   1      45.782  26.485  29.956  1.00  0.00     0.074 A 
ATOM     63  C   UNL A   1      46.171  25.150  29.553  1.00  0.00     0.031 C 
ATOM     64  C   UNL A   1      46.607  27.367  30.574  1.00  0.00     0.031 A 
BRANCH  51  65
ATOM     65  C   UNL A   1      43.999  32.845  31.802  1.00  0.00    -0.014 A 
ATOM     66  C   UNL A   1      43.713  33.146  33.147  1.00  0.00     0.010 A 
ATOM     67  C   UNL A   1      44.466  33.870  30.959  1.00  0.00     0.010 A 
ATOM     68  C   UNL A   1      43.839  34.453  33.622  1.00  0.00     0.020 A 
ATOM     69  C   UNL A   1      44.626  35.173  31.440  1.00  0.00     0.020 A 
ATOM     70  C   UNL A   1      44.291  35.460  32.764  1.00  0.00     0.054 A 
BRANCH  70  71
ATOM     71  S   UNL A   1      44.451  37.146  33.413  1.00  0.00     0.124 S 
ATOM     72  O   UNL A   1      43.736  37.049  34.683  1.00  0.00    -0.237 OA
ATOM     73  O   UNL A   1      45.899  37.312  33.518  1.00  0.00    -0.237 OA
ATOM     74  O   UNL A   1      43.805  37.972  32.396  1.00  0.00    -0.744 OA
ENDBRANCH  70  71
ENDBRANCH  51  65
BRANCH  52  75
ATOM     75  C   UNL A   1      42.556  23.753  27.880  1.00  0.00    -0.014 A 
ATOM     76  C   UNL A   1      42.247  22.658  28.706  1.00  0.00     0.010 A 
ATOM     77  C   UNL A   1      42.656  23.553  26.491  1.00  0.00     0.010 A 
ATOM     78  C   UNL A   1      42.063  21.386  28.158  1.00  0.00     0.020 A 
ATOM     79  C   UNL A   1      42.442  22.288  25.935  1.00  0.00     0.020 A 
ATOM     80  C   UNL A   1      42.159  21.210  26.775  1.00  0.00     0.054 A 
BRANCH  80  81
ATOM     81  S   UNL A   1      41.869  19.558  26.083  1.00  0.00     0.124 S 
ATOM     82  O   UNL A   1      42.254  18.692  27.192  1.00  0.00    -0.237 OA
ATOM     83  O   UNL A   1      40.442  19.594  25.771  1.00  0.00    -0.237 OA
ATOM     84  O   UNL A   1      42.752  19.515  24.919  1.00  0.00    -0.744 OA
ENDBRANCH  80  81
ENDBRANCH  52  75
BRANCH  64  85
ATOM     85  C   UNL A   1      48.005  26.904  30.889  1.00  0.00    -0.014 A 
ATOM     86  C   UNL A   1      49.077  27.155  30.013  1.00  0.00     0.010 A 
ATOM     87  C   UNL A   1      48.259  26.254  32.111  1.00  0.00     0.010 A 
ATOM     88  C   UNL A   1      50.369  26.735  30.339  1.00  0.00     0.020 A 
ATOM     89  C   UNL A   1      49.554  25.861  32.455  1.00  0.00     0.020 A 
ATOM     90  C   UNL A   1      50.599  26.092  31.559  1.00  0.00     0.054 A 
BRANCH  90  91
ATOM     91  S   UNL A   1      52.293  25.598  31.978  1.00  0.00     0.124 S 
ATOM     92  O   UNL A   1      52.597  26.477  33.105  1.00  0.00    -0.237 OA
ATOM     93  O   UNL A   1      52.142  24.183  32.307  1.00  0.00    -0.237 OA
ATOM     94  O   UNL A   1      53.047  25.871  30.755  1.00  0.00    -0.744 OA
ENDBRANCH  90  91
ENDBRANCH  64  85
ENDBRANCH  38  39
ENDBRANCH  30  33
ENDBRANCH  28  29
ENDBRANCH  27  28
ENDBRANCH  26  27
ENDBRANCH   1  26
TORSDOF 20
ENDMDL
MODEL 2
REMARK VINA RESULT:      -9.9      3.412      9.646
REMARK SMILES [NH3+][C@]1(C(=O)NCCCCCCNC(=O)c2ccc(-c3c4nc(c(-c5ccc(S(=O)(=O)[O-])cc5)c5ccc([nH]5)c(-c5ccc(S(=O)(=O)[O-])cc5)c5nc(c(-c6ccc(S(=O)(=O)[O-])cc6)c6ccc3[nH]6)C=C5)C=C4)cc2)CCC[C@H]1CC[NH+]1CCCCC1
REMARK SMILES IDX 8 1 7 2 6 3 5 4 3 5 4 6 2 8 75 9 78 10 76 11 77 12 1 13
REMARK SMILES IDX 79 17 80 18 81 19 82 20 86 21 83 23 85 24 84 25 9 26 10 27
REMARK SMILES IDX 11 28 12 29 13 30 14 32 15 33 16 34 74 35 17 36 73 37 18 38
REMARK SMILES IDX 19 39 20 40 67 41 21 42 72 43 66 44 68 45 22 46 71 47 65 48
REMARK SMILES IDX 64 49 23 51 53 52 34 53 52 54 35 55 38 56 51 57 69 58 36 59
REMARK SMILES IDX 37 60 50 62 70 63 39 64 24 65 25 66 33 67 26 68 32 69 27 70
REMARK SMILES IDX 28 71 29 72 30 73 31 74 54 75 55 76 63 77 56 78 62 79 57 80
REMARK SMILES IDX 58 81 59 82 60 83 61 84 40 85 41 86 49 87 42 88 48 89 43 90
REMARK SMILES IDX 44 91 45 92 46 93 47 94
REMARK H PARENT 5 7 1 14 1 15 1 16 81 22 12 31 68 50 38 61
REMARK Flexibility Score: inf
ROOT
ATOM      1  C   UNL A   1      36.510  21.649  25.775  1.00  0.00     0.002 C 
ENDROOT
BRANCH   1   2
ATOM      2  C   UNL A   1      35.370  22.568  25.321  1.00  0.00     0.021 C 
BRANCH   2   3
ATOM      3  C   UNL A   1      34.280  21.840  24.551  1.00  0.00     0.116 C 
BRANCH   3   4
ATOM      4  N   UNL A   1      33.802  22.612  23.424  1.00  0.00    -0.351 N 
ATOM      5  C   UNL A   1      32.769  23.486  23.321  1.00  0.00     0.281 C 
ATOM      6  O   UNL A   1      32.686  24.109  22.252  1.00  0.00    -0.268 OA
ATOM      7  H   UNL A   1      34.312  22.480  22.592  1.00  0.00     0.163 HD
BRANCH   5   8
ATOM      8  C   UNL A   1      31.711  23.694  24.443  1.00  0.00     0.177 C 
ATOM      9  C   UNL A   1      31.326  22.358  25.111  1.00  0.00     0.079 C 
ATOM     10  C   UNL A   1      31.991  24.705  25.604  1.00  0.00     0.066 C 
ATOM     11  C   UNL A   1      30.761  22.750  26.464  1.00  0.00     0.008 C 
ATOM     12  C   UNL A   1      31.620  23.926  26.893  1.00  0.00     0.011 C 
BRANCH   8  13
ATOM     13  N   UNL A   1      30.438  24.145  23.781  1.00  0.00    -0.345 N 
ATOM     14  H   UNL A   1      29.732  23.414  23.867  1.00  0.00     0.345 HD
ATOM     15  H   UNL A   1      30.615  24.331  22.794  1.00  0.00     0.345 HD
ATOM     16  H   UNL A   1      30.103  24.996  24.232  1.00  0.00     0.345 HD
ENDBRANCH   8  13
BRANCH  10  17
ATOM     17  C   UNL A   1      33.356  25.393  25.823  1.00  0.00     0.072 C 
BRANCH  17  18
ATOM     18  C   UNL A   1      33.673  26.725  25.131  1.00  0.00     0.262 C 
BRANCH  18  19
ATOM     19  N   UNL A   1      32.782  27.792  25.593  1.00  0.00    -0.335 N 
ATOM     20  C   UNL A   1      33.444  28.631  26.604  1.00  0.00     0.262 C 
ATOM     21  C   UNL A   1      32.311  28.628  24.481  1.00  0.00     0.262 C 
ATOM     22  H   UNL A   1      31.971  27.339  26.016  1.00  0.00     0.348 HD
ATOM     23  C   UNL A   1      32.456  29.636  27.191  1.00  0.00     0.062 C 
ATOM     24  C   UNL A   1      31.262  29.620  24.980  1.00  0.00     0.062 C 
ATOM     25  C   UNL A   1      31.813  30.491  26.103  1.00  0.00     0.012 C 
ENDBRANCH  18  19
ENDBRANCH  17  18
ENDBRANCH  10  17
ENDBRANCH   5   8
ENDBRANCH   3   4
ENDBRANCH   2   3
ENDBRANCH   1   2
BRANCH   1  26
ATOM     26  C   UNL A   1      37.378  21.072  24.648  1.00  0.00     0.002 C 
BRANCH  26  27
ATOM     27  C   UNL A   1      38.328  19.946  25.063  1.00  0.00     0.021 C 
BRANCH  27  28
ATOM     28  C   UNL A   1      39.523  20.396  25.894  1.00  0.00     0.116 C 
BRANCH  28  29
ATOM     29  N   UNL A   1      40.507  19.341  26.059  1.00  0.00    -0.352 N 
ATOM     30  C   UNL A   1      41.862  19.444  26.256  1.00  0.00     0.251 C 
ATOM     31  H   UNL A   1      40.154  18.422  26.024  1.00  0.00     0.163 HD
ATOM     32  O   UNL A   1      42.569  18.446  26.204  1.00  0.00    -0.269 OA
BRANCH  30  33
ATOM     33  C   UNL A   1      42.458  20.773  26.506  1.00  0.00     0.039 A 
ATOM     34  C   UNL A   1      42.900  21.528  25.418  1.00  0.00     0.014 A 
ATOM     35  C   UNL A   1      42.567  21.276  27.806  1.00  0.00     0.014 A 
ATOM     36  C   UNL A   1      43.403  22.812  25.629  1.00  0.00     0.010 A 
ATOM     37  C   UNL A   1      42.992  22.586  28.006  1.00  0.00     0.010 A 
ATOM     38  C   UNL A   1      43.422  23.364  26.921  1.00  0.00    -0.014 A 
BRANCH  38  39
ATOM     39  C   UNL A   1      43.891  24.753  27.157  1.00  0.00     0.031 A 
ATOM     40  C   UNL A   1      45.341  25.104  26.961  1.00  0.00     0.074 A 
ATOM     41  C   UNL A   1      43.020  25.684  27.595  1.00  0.00     0.049 A 
ATOM     42  N   UNL A   1      45.944  26.250  27.152  1.00  0.00    -0.248 NA
ATOM     43  C   UNL A   1      46.235  24.023  26.518  1.00  0.00     0.031 C 
ATOM     44  C   UNL A   1      41.596  25.458  27.854  1.00  0.00     0.029 A 
ATOM     45  N   UNL A   1      43.206  27.008  27.903  1.00  0.00    -0.354 N 
ATOM     46  C   UNL A   1      47.286  26.023  26.865  1.00  0.00     0.074 A 
ATOM     47  C   UNL A   1      47.417  24.619  26.546  1.00  0.00     0.031 C 
ATOM     48  C   UNL A   1      41.031  26.612  28.243  1.00  0.00     0.029 A 
ATOM     49  C   UNL A   1      42.058  27.647  28.309  1.00  0.00     0.049 A 
ATOM     50  H   UNL A   1      44.078  27.459  27.838  1.00  0.00     0.167 HD
ATOM     51  C   UNL A   1      48.311  26.907  26.850  1.00  0.00     0.031 A 
ATOM     52  C   UNL A   1      41.854  28.921  28.696  1.00  0.00     0.031 A 
ATOM     53  C   UNL A   1      48.173  28.304  27.171  1.00  0.00     0.049 A 
ATOM     54  C   UNL A   1      43.016  29.877  28.704  1.00  0.00     0.074 A 
ATOM     55  C   UNL A   1      49.140  29.293  27.138  1.00  0.00     0.029 A 
ATOM     56  N   UNL A   1      46.997  28.908  27.589  1.00  0.00    -0.354 N 
ATOM     57  N   UNL A   1      44.265  29.660  28.364  1.00  0.00    -0.248 NA
ATOM     58  C   UNL A   1      42.739  31.253  29.137  1.00  0.00     0.031 C 
ATOM     59  C   UNL A   1      48.563  30.481  27.598  1.00  0.00     0.029 A 
ATOM     60  C   UNL A   1      47.220  30.250  27.847  1.00  0.00     0.049 A 
ATOM     61  H   UNL A   1      46.131  28.450  27.688  1.00  0.00     0.167 HD
ATOM     62  C   UNL A   1      44.914  30.881  28.511  1.00  0.00     0.074 A 
ATOM     63  C   UNL A   1      43.918  31.833  28.956  1.00  0.00     0.031 C 
ATOM     64  C   UNL A   1      46.217  31.186  28.293  1.00  0.00     0.031 A 
BRANCH  51  65
ATOM     65  C   UNL A   1      49.677  26.382  26.486  1.00  0.00    -0.014 A 
ATOM     66  C   UNL A   1      50.137  26.405  25.155  1.00  0.00     0.010 A 
ATOM     67  C   UNL A   1      50.524  25.880  27.491  1.00  0.00     0.010 A 
ATOM     68  C   UNL A   1      51.394  25.887  24.832  1.00  0.00     0.020 A 
ATOM     69  C   UNL A   1      51.796  25.392  27.175  1.00  0.00     0.020 A 
ATOM     70  C   UNL A   1      52.214  25.380  25.844  1.00  0.00     0.054 A 
BRANCH  70  71
ATOM     71  S   UNL A   1      53.842  24.721  25.393  1.00  0.00     0.124 S 
ATOM     72  O   UNL A   1      53.518  23.343  25.030  1.00  0.00    -0.237 OA
ATOM     73  O   UNL A   1      54.241  25.585  24.285  1.00  0.00    -0.237 OA
ATOM     74  O   UNL A   1      54.629  24.874  26.614  1.00  0.00    -0.744 OA
ENDBRANCH  70  71
ENDBRANCH  51  65
BRANCH  52  75
ATOM     75  C   UNL A   1      40.490  29.373  29.089  1.00  0.00    -0.014 A 
ATOM     76  C   UNL A   1      39.542  29.716  28.108  1.00  0.00     0.010 A 
ATOM     77  C   UNL A   1      40.127  29.452  30.445  1.00  0.00     0.010 A 
ATOM     78  C   UNL A   1      38.266  30.149  28.476  1.00  0.00     0.020 A 
ATOM     79  C   UNL A   1      38.841  29.856  30.818  1.00  0.00     0.020 A 
ATOM     80  C   UNL A   1      37.922  30.213  29.830  1.00  0.00     0.054 A 
BRANCH  80  81
ATOM     81  S   UNL A   1      36.243  30.733  30.280  1.00  0.00     0.124 S 
ATOM     82  O   UNL A   1      35.980  29.918  31.462  1.00  0.00    -0.237 OA
ATOM     83  O   UNL A   1      36.412  32.164  30.521  1.00  0.00    -0.237 OA
ATOM     84  O   UNL A   1      35.453  30.396  29.098  1.00  0.00    -0.744 OA
ENDBRANCH  80  81
ENDBRANCH  52  75
BRANCH  64  85
ATOM     85  C   UNL A   1      46.637  32.619  28.494  1.00  0.00    -0.014 A 
ATOM     86  C   UNL A   1      46.536  33.566  27.459  1.00  0.00     0.010 A 
ATOM     87  C   UNL A   1      47.090  33.035  29.760  1.00  0.00     0.010 A 
ATOM     88  C   UNL A   1      46.912  34.894  27.677  1.00  0.00     0.020 A 
ATOM     89  C   UNL A   1      47.435  34.368  29.992  1.00  0.00     0.020 A 
ATOM     90  C   UNL A   1      47.357  35.287  28.943  1.00  0.00     0.054 A 
BRANCH  90  91
ATOM     91  S   UNL A   1      47.795  37.026  29.212  1.00  0.00     0.124 S 
ATOM     92  O   UNL A   1      48.858  36.922  30.208  1.00  0.00    -0.237 OA
ATOM     93  O   UNL A   1      48.218  37.459  27.882  1.00  0.00    -0.237 OA
ATOM     94  O   UNL A   1      46.551  37.627  29.690  1.00  0.00    -0.744 OA
ENDBRANCH  90  91
ENDBRANCH  64  85
ENDBRANCH  38  39
ENDBRANCH  30  33
ENDBRANCH  28  29
ENDBRANCH  27  28
ENDBRANCH  26  27
ENDBRANCH   1  26
TORSDOF 20
ENDMDL
MODEL 3
REMARK VINA RESULT:      -9.9      2.986      3.702
REMARK SMILES [NH3+][C@]1(C(=O)NCCCCCCNC(=O)c2ccc(-c3c4nc(c(-c5ccc(S(=O)(=O)[O-])cc5)c5ccc([nH]5)c(-c5ccc(S(=O)(=O)[O-])cc5)c5nc(c(-c6ccc(S(=O)(=O)[O-])cc6)c6ccc3[nH]6)C=C5)C=C4)cc2)CCC[C@H]1CC[NH+]1CCCCC1
REMARK SMILES IDX 8 1 7 2 6 3 5 4 3 5 4 6 2 8 75 9 78 10 76 11 77 12 1 13
REMARK SMILES IDX 79 17 80 18 81 19 82 20 86 21 83 23 85 24 84 25 9 26 10 27
REMARK SMILES IDX 11 28 12 29 13 30 14 32 15 33 16 34 74 35 17 36 73 37 18 38
REMARK SMILES IDX 19 39 20 40 67 41 21 42 72 43 66 44 68 45 22 46 71 47 65 48
REMARK SMILES IDX 64 49 23 51 53 52 34 53 52 54 35 55 38 56 51 57 69 58 36 59
REMARK SMILES IDX 37 60 50 62 70 63 39 64 24 65 25 66 33 67 26 68 32 69 27 70
REMARK SMILES IDX 28 71 29 72 30 73 31 74 54 75 55 76 63 77 56 78 62 79 57 80
REMARK SMILES IDX 58 81 59 82 60 83 61 84 40 85 41 86 49 87 42 88 48 89 43 90
REMARK SMILES IDX 44 91 45 92 46 93 47 94
REMARK H PARENT 5 7 1 14 1 15 1 16 81 22 12 31 68 50 38 61
REMARK Flexibility Score: inf
ROOT
ATOM      1  C   UNL A   1      31.906  28.404  26.052  1.00  0.00     0.002 C 
ENDROOT
BRANCH   1   2
ATOM      2  C   UNL A   1      31.385  27.157  26.778  1.00  0.00     0.021 C 
BRANCH   2   3
ATOM      3  C   UNL A   1      31.453  25.897  25.932  1.00  0.00     0.116 C 
BRANCH   3   4
ATOM      4  N   UNL A   1      31.562  24.703  26.742  1.00  0.00    -0.351 N 
ATOM      5  C   UNL A   1      32.534  23.758  26.805  1.00  0.00     0.281 C 
ATOM      6  O   UNL A   1      32.419  22.915  27.706  1.00  0.00    -0.268 OA
ATOM      7  H   UNL A   1      30.803  24.551  27.351  1.00  0.00     0.163 HD
BRANCH   5   8
ATOM      8  C   UNL A   1      33.720  23.685  25.798  1.00  0.00     0.177 C 
ATOM      9  C   UNL A   1      35.044  23.342  26.510  1.00  0.00     0.079 C 
ATOM     10  C   UNL A   1      33.629  22.744  24.551  1.00  0.00     0.066 C 
ATOM     11  C   UNL A   1      35.937  22.782  25.417  1.00  0.00     0.008 C 
ATOM     12  C   UNL A   1      34.985  21.991  24.536  1.00  0.00     0.011 C 
BRANCH   8  13
ATOM     13  N   UNL A   1      33.945  25.075  25.270  1.00  0.00    -0.345 N 
ATOM     14  H   UNL A   1      34.586  25.574  25.886  1.00  0.00     0.345 HD
ATOM     15  H   UNL A   1      33.055  25.572  25.230  1.00  0.00     0.345 HD
ATOM     16  H   UNL A   1      34.346  25.022  24.333  1.00  0.00     0.345 HD
ENDBRANCH   8  13
BRANCH  10  17
ATOM     17  C   UNL A   1      32.496  21.717  24.340  1.00  0.00     0.072 C 
BRANCH  17  18
ATOM     18  C   UNL A   1      32.366  20.504  25.270  1.00  0.00     0.262 C 
BRANCH  18  19
ATOM     19  N   UNL A   1      32.513  19.247  24.532  1.00  0.00    -0.335 N 
ATOM     20  C   UNL A   1      32.305  19.455  23.090  1.00  0.00     0.262 C 
ATOM     21  C   UNL A   1      33.825  18.630  24.763  1.00  0.00     0.262 C 
ATOM     22  H   UNL A   1      31.796  18.612  24.882  1.00  0.00     0.348 HD
ATOM     23  C   UNL A   1      32.303  18.117  22.354  1.00  0.00     0.062 C 
ATOM     24  C   UNL A   1      33.876  17.249  24.111  1.00  0.00     0.062 C 
ATOM     25  C   UNL A   1      33.584  17.332  22.616  1.00  0.00     0.012 C 
ENDBRANCH  18  19
ENDBRANCH  17  18
ENDBRANCH  10  17
ENDBRANCH   5   8
ENDBRANCH   3   4
ENDBRANCH   2   3
ENDBRANCH   1   2
BRANCH   1  26
ATOM     26  C   UNL A   1      32.702  29.386  26.922  1.00  0.00     0.002 C 
BRANCH  26  27
ATOM     27  C   UNL A   1      34.183  29.528  26.561  1.00  0.00     0.021 C 
BRANCH  27  28
ATOM     28  C   UNL A   1      35.149  29.081  27.651  1.00  0.00     0.116 C 
BRANCH  28  29
ATOM     29  N   UNL A   1      35.224  30.035  28.744  1.00  0.00    -0.352 N 
ATOM     30  C   UNL A   1      36.299  30.365  29.533  1.00  0.00     0.251 C 
ATOM     31  H   UNL A   1      34.387  30.512  28.949  1.00  0.00     0.163 HD
ATOM     32  O   UNL A   1      36.142  31.068  30.523  1.00  0.00    -0.269 OA
BRANCH  30  33
ATOM     33  C   UNL A   1      37.637  29.842  29.188  1.00  0.00     0.039 A 
ATOM     34  C   UNL A   1      38.042  29.858  27.852  1.00  0.00     0.014 A 
ATOM     35  C   UNL A   1      38.491  29.351  30.180  1.00  0.00     0.014 A 
ATOM     36  C   UNL A   1      39.328  29.431  27.517  1.00  0.00     0.010 A 
ATOM     37  C   UNL A   1      39.798  29.002  29.855  1.00  0.00     0.010 A 
ATOM     38  C   UNL A   1      40.228  29.031  28.520  1.00  0.00    -0.014 A 
BRANCH  38  39
ATOM     39  C   UNL A   1      41.620  28.638  28.189  1.00  0.00     0.031 A 
ATOM     40  C   UNL A   1      42.711  29.674  28.157  1.00  0.00     0.074 A 
ATOM     41  C   UNL A   1      41.891  27.357  27.869  1.00  0.00     0.049 A 
ATOM     42  N   UNL A   1      43.976  29.530  27.855  1.00  0.00    -0.248 NA
ATOM     43  C   UNL A   1      42.326  31.057  28.482  1.00  0.00     0.031 C 
ATOM     44  C   UNL A   1      40.914  26.267  27.832  1.00  0.00     0.029 A 
ATOM     45  N   UNL A   1      43.072  26.755  27.510  1.00  0.00    -0.354 N 
ATOM     46  C   UNL A   1      44.533  30.801  27.941  1.00  0.00     0.074 A 
ATOM     47  C   UNL A   1      43.457  31.712  28.265  1.00  0.00     0.031 C 
ATOM     48  C   UNL A   1      41.540  25.124  27.510  1.00  0.00     0.029 A 
ATOM     49  C   UNL A   1      42.952  25.406  27.270  1.00  0.00     0.049 A 
ATOM     50  H   UNL A   1      43.923  27.241  27.434  1.00  0.00     0.167 HD
ATOM     51  C   UNL A   1      45.825  31.174  27.785  1.00  0.00     0.031 A 
ATOM     52  C   UNL A   1      43.873  24.499  26.892  1.00  0.00     0.031 A 
ATOM     53  C   UNL A   1      46.891  30.262  27.461  1.00  0.00     0.049 A 
ATOM     54  C   UNL A   1      45.297  24.943  26.691  1.00  0.00     0.074 A 
ATOM     55  C   UNL A   1      48.242  30.531  27.328  1.00  0.00     0.029 A 
ATOM     56  N   UNL A   1      46.726  28.907  27.213  1.00  0.00    -0.354 N 
ATOM     57  N   UNL A   1      45.817  26.138  26.843  1.00  0.00    -0.248 NA
ATOM     58  C   UNL A   1      46.260  23.914  26.278  1.00  0.00     0.031 C 
ATOM     59  C   UNL A   1      48.884  29.351  26.937  1.00  0.00     0.029 A 
ATOM     60  C   UNL A   1      47.946  28.332  26.897  1.00  0.00     0.049 A 
ATOM     61  H   UNL A   1      45.869  28.426  27.254  1.00  0.00     0.167 HD
ATOM     62  C   UNL A   1      47.175  25.996  26.576  1.00  0.00     0.074 A 
ATOM     63  C   UNL A   1      47.396  24.598  26.267  1.00  0.00     0.031 C 
ATOM     64  C   UNL A   1      48.150  26.938  26.589  1.00  0.00     0.031 A 
BRANCH  51  65
ATOM     65  C   UNL A   1      46.152  32.637  27.950  1.00  0.00    -0.014 A 
ATOM     66  C   UNL A   1      46.109  33.522  26.856  1.00  0.00     0.010 A 
ATOM     67  C   UNL A   1      46.484  33.140  29.221  1.00  0.00     0.010 A 
ATOM     68  C   UNL A   1      46.444  34.868  27.021  1.00  0.00     0.020 A 
ATOM     69  C   UNL A   1      46.786  34.494  29.396  1.00  0.00     0.020 A 
ATOM     70  C   UNL A   1      46.784  35.345  28.290  1.00  0.00     0.054 A 
BRANCH  70  71
ATOM     71  S   UNL A   1      47.207  37.099  28.473  1.00  0.00     0.124 S 
ATOM     72  O   UNL A   1      48.668  37.057  28.474  1.00  0.00    -0.237 OA
ATOM     73  O   UNL A   1      46.596  37.700  27.290  1.00  0.00    -0.237 OA
ATOM     74  O   UNL A   1      46.594  37.473  29.745  1.00  0.00    -0.744 OA
ENDBRANCH  70  71
ENDBRANCH  51  65
BRANCH  52  75
ATOM     75  C   UNL A   1      43.483  23.074  26.701  1.00  0.00    -0.014 A 
ATOM     76  C   UNL A   1      43.679  22.441  25.461  1.00  0.00     0.010 A 
ATOM     77  C   UNL A   1      42.923  22.339  27.762  1.00  0.00     0.010 A 
ATOM     78  C   UNL A   1      43.304  21.107  25.279  1.00  0.00     0.020 A 
ATOM     79  C   UNL A   1      42.575  20.995  27.593  1.00  0.00     0.020 A 
ATOM     80  C   UNL A   1      42.757  20.391  26.348  1.00  0.00     0.054 A 
BRANCH  80  81
ATOM     81  S   UNL A   1      42.323  18.647  26.100  1.00  0.00     0.124 S 
ATOM     82  O   UNL A   1      43.232  18.257  25.027  1.00  0.00    -0.237 OA
ATOM     83  O   UNL A   1      42.601  18.065  27.411  1.00  0.00    -0.237 OA
ATOM     84  O   UNL A   1      40.908  18.696  25.735  1.00  0.00    -0.744 OA
ENDBRANCH  80  81
ENDBRANCH  52  75
BRANCH  64  85
ATOM     85  C   UNL A   1      49.557  26.484  26.299  1.00  0.00    -0.014 A 
ATOM     86  C   UNL A   1      50.138  26.660  25.030  1.00  0.00     0.010 A 
ATOM     87  C   UNL A   1      50.328  25.919  27.332  1.00  0.00     0.010 A 
ATOM     88  C   UNL A   1      51.452  26.251  24.792  1.00  0.00     0.020 A 
ATOM     89  C   UNL A   1      51.653  25.538  27.107  1.00  0.00     0.020 A 
ATOM     90  C   UNL A   1      52.202  25.693  25.833  1.00  0.00     0.054 A 
BRANCH  90  91
ATOM     91  S   UNL A   1      53.920  25.212  25.510  1.00  0.00     0.124 S 
ATOM     92  O   UNL A   1      53.870  23.764  25.690  1.00  0.00    -0.237 OA
ATOM     93  O   UNL A   1      54.127  25.668  24.137  1.00  0.00    -0.237 OA
ATOM     94  O   UNL A   1      54.682  25.940  26.523  1.00  0.00    -0.744 OA
ENDBRANCH  90  91
ENDBRANCH  64  85
ENDBRANCH  38  39
ENDBRANCH  30  33
ENDBRANCH  28  29
ENDBRANCH  27  28
ENDBRANCH  26  27
ENDBRANCH   1  26
TORSDOF 20
ENDMDL
