MODEL 1
REMARK VINA RESULT:     -10.9      0.000      0.000
REMARK SMILES [NH3+][C@H](CC(=O)NCCCCCCNC(=O)c1ccc(-c2c3nc(c(-c4ccc(S(=O)(=O)[O-])cc4)c4ccc([nH]4)c(-c4ccc(S(=O)(=O)[O-])cc4)c4nc(c(-c5ccc(S(=O)(=O)[O-])cc5)c5ccc2[nH]5)C=C4)C=C3)cc1)c1ccc2c(c1)OC(F)(F)O2
REMARK SMILES IDX 10 1 9 2 8 3 7 4 6 5 4 6 5 7 3 9 2 10 1 11 76 15 77 16 81 17
REMARK SMILES IDX 78 18 80 19 79 20 82 21 86 22 83 23 84 24 85 25 11 26 12 27
REMARK SMILES IDX 13 28 14 29 15 31 16 32 17 33 75 34 18 35 74 36 19 37 20 38
REMARK SMILES IDX 21 39 68 40 22 41 73 42 67 43 69 44 23 45 72 46 66 47 65 48
REMARK SMILES IDX 24 50 54 51 35 52 53 53 36 54 39 55 52 56 70 57 37 58 38 59
REMARK SMILES IDX 51 61 71 62 40 63 25 64 26 65 34 66 27 67 33 68 28 69 29 70
REMARK SMILES IDX 30 71 31 72 32 73 55 74 56 75 64 76 57 77 63 78 58 79 59 80
REMARK SMILES IDX 60 81 61 82 62 83 41 84 42 85 50 86 43 87 49 88 44 89 45 90
REMARK SMILES IDX 46 91 47 92 48 93
REMARK H PARENT 6 8 1 12 1 13 1 14 13 30 69 49 39 60
REMARK Flexibility Score: inf
ROOT
ATOM      1  C   UNL A   1      42.483  22.300  28.047  1.00  0.00     0.002 C 
ENDROOT
BRANCH   1   2
ATOM      2  C   UNL A   1      42.771  23.407  29.065  1.00  0.00     0.002 C 
BRANCH   2   3
ATOM      3  C   UNL A   1      44.067  24.181  28.827  1.00  0.00     0.021 C 
BRANCH   3   4
ATOM      4  C   UNL A   1      44.881  23.729  27.613  1.00  0.00     0.116 C 
BRANCH   4   5
ATOM      5  N   UNL A   1      45.188  24.870  26.761  1.00  0.00    -0.356 N 
ATOM      6  C   UNL A   1      45.139  24.981  25.402  1.00  0.00     0.226 C 
ATOM      7  O   UNL A   1      45.686  25.952  24.872  1.00  0.00    -0.275 OA
ATOM      8  H   UNL A   1      45.474  25.682  27.238  1.00  0.00     0.163 HD
BRANCH   6   9
ATOM      9  C   UNL A   1      44.382  23.969  24.566  1.00  0.00     0.170 C 
BRANCH   9  10
ATOM     10  C   UNL A   1      45.258  22.880  23.924  1.00  0.00     0.221 C 
BRANCH  10  11
ATOM     11  N   UNL A   1      46.677  23.248  23.841  1.00  0.00    -0.351 N 
ATOM     12  H   UNL A   1      46.776  24.255  23.971  1.00  0.00     0.345 HD
ATOM     13  H   UNL A   1      47.043  22.986  22.925  1.00  0.00     0.345 HD
ATOM     14  H   UNL A   1      47.199  22.759  24.568  1.00  0.00     0.345 HD
ENDBRANCH  10  11
BRANCH  10  15
ATOM     15  C   UNL A   1      45.050  21.500  24.529  1.00  0.00     0.014 A 
ATOM     16  C   UNL A   1      46.133  20.583  24.555  1.00  0.00     0.014 A 
ATOM     17  C   UNL A   1      43.807  21.097  25.051  1.00  0.00     0.060 A 
ATOM     18  C   UNL A   1      45.989  19.297  25.088  1.00  0.00     0.051 A 
ATOM     19  C   UNL A   1      43.694  19.824  25.575  1.00  0.00     0.173 A 
ATOM     20  C   UNL A   1      44.755  18.948  25.589  1.00  0.00     0.172 A 
ATOM     21  O   UNL A   1      42.561  19.279  26.093  1.00  0.00    -0.395 OA
ATOM     22  O   UNL A   1      44.426  17.740  26.120  1.00  0.00    -0.395 OA
ATOM     23  C   UNL A   1      43.068  18.001  26.501  1.00  0.00     0.586 C 
ATOM     24  F   UNL A   1      42.971  17.912  27.850  1.00  0.00    -0.125 F 
ATOM     25  F   UNL A   1      42.278  17.037  25.966  1.00  0.00    -0.125 F 
ENDBRANCH  10  15
ENDBRANCH   9  10
ENDBRANCH   6   9
ENDBRANCH   4   5
ENDBRANCH   3   4
ENDBRANCH   2   3
ENDBRANCH   1   2
BRANCH   1  26
ATOM     26  C   UNL A   1      41.005  21.947  27.830  1.00  0.00     0.021 C 
BRANCH  26  27
ATOM     27  C   UNL A   1      40.110  23.087  27.341  1.00  0.00     0.116 C 
BRANCH  27  28
ATOM     28  N   UNL A   1      40.733  23.869  26.286  1.00  0.00    -0.352 N 
ATOM     29  C   UNL A   1      41.023  25.210  26.212  1.00  0.00     0.251 C 
ATOM     30  H   UNL A   1      40.991  23.350  25.490  1.00  0.00     0.163 HD
ATOM     31  O   UNL A   1      41.370  25.687  25.134  1.00  0.00    -0.269 OA
BRANCH  29  32
ATOM     32  C   UNL A   1      40.901  26.096  27.395  1.00  0.00     0.039 A 
ATOM     33  C   UNL A   1      41.952  26.975  27.680  1.00  0.00     0.014 A 
ATOM     34  C   UNL A   1      39.807  26.027  28.262  1.00  0.00     0.014 A 
ATOM     35  C   UNL A   1      41.877  27.824  28.788  1.00  0.00     0.010 A 
ATOM     36  C   UNL A   1      39.706  26.919  29.335  1.00  0.00     0.010 A 
ATOM     37  C   UNL A   1      40.737  27.831  29.608  1.00  0.00    -0.014 A 
BRANCH  37  38
ATOM     38  C   UNL A   1      40.610  28.795  30.736  1.00  0.00     0.031 A 
ATOM     39  C   UNL A   1      41.489  28.682  31.954  1.00  0.00     0.074 A 
ATOM     40  C   UNL A   1      39.668  29.760  30.683  1.00  0.00     0.049 A 
ATOM     41  N   UNL A   1      41.493  29.416  33.039  1.00  0.00    -0.248 NA
ATOM     42  C   UNL A   1      42.479  27.594  31.962  1.00  0.00     0.031 C 
ATOM     43  C   UNL A   1      38.734  29.970  29.576  1.00  0.00     0.029 A 
ATOM     44  N   UNL A   1      39.339  30.743  31.583  1.00  0.00    -0.354 N 
ATOM     45  C   UNL A   1      42.476  28.877  33.862  1.00  0.00     0.074 A 
ATOM     46  C   UNL A   1      43.015  27.726  33.168  1.00  0.00     0.031 C 
ATOM     47  C   UNL A   1      37.956  31.030  29.850  1.00  0.00     0.029 A 
ATOM     48  C   UNL A   1      38.307  31.551  31.168  1.00  0.00     0.049 A 
ATOM     49  H   UNL A   1      39.799  30.860  32.447  1.00  0.00     0.167 HD
ATOM     50  C   UNL A   1      42.904  29.307  35.074  1.00  0.00     0.031 A 
ATOM     51  C   UNL A   1      37.700  32.591  31.776  1.00  0.00     0.031 A 
ATOM     52  C   UNL A   1      42.369  30.451  35.767  1.00  0.00     0.049 A 
ATOM     53  C   UNL A   1      38.170  33.029  33.136  1.00  0.00     0.074 A 
ATOM     54  C   UNL A   1      42.769  30.986  36.980  1.00  0.00     0.029 A 
ATOM     55  N   UNL A   1      41.317  31.232  35.315  1.00  0.00    -0.354 N 
ATOM     56  N   UNL A   1      39.140  32.538  33.869  1.00  0.00    -0.248 NA
ATOM     57  C   UNL A   1      37.470  34.170  33.743  1.00  0.00     0.031 C 
ATOM     58  C   UNL A   1      41.924  32.058  37.286  1.00  0.00     0.029 A 
ATOM     59  C   UNL A   1      41.036  32.229  36.237  1.00  0.00     0.049 A 
ATOM     60  H   UNL A   1      40.838  31.099  34.466  1.00  0.00     0.167 HD
ATOM     61  C   UNL A   1      39.183  33.327  35.015  1.00  0.00     0.074 A 
ATOM     62  C   UNL A   1      38.153  34.335  34.869  1.00  0.00     0.031 C 
ATOM     63  C   UNL A   1      40.005  33.226  36.087  1.00  0.00     0.031 A 
BRANCH  50  64
ATOM     64  C   UNL A   1      44.008  28.524  35.739  1.00  0.00    -0.014 A 
ATOM     65  C   UNL A   1      45.333  28.994  35.739  1.00  0.00     0.010 A 
ATOM     66  C   UNL A   1      43.709  27.322  36.409  1.00  0.00     0.010 A 
ATOM     67  C   UNL A   1      46.348  28.255  36.354  1.00  0.00     0.020 A 
ATOM     68  C   UNL A   1      44.716  26.594  37.050  1.00  0.00     0.020 A 
ATOM     69  C   UNL A   1      46.033  27.056  37.001  1.00  0.00     0.054 A 
BRANCH  69  70
ATOM     70  S   UNL A   1      47.368  26.123  37.799  1.00  0.00     0.124 S 
ATOM     71  O   UNL A   1      47.552  25.010  36.872  1.00  0.00    -0.237 OA
ATOM     72  O   UNL A   1      48.459  27.093  37.840  1.00  0.00    -0.237 OA
ATOM     73  O   UNL A   1      46.810  25.763  39.101  1.00  0.00    -0.744 OA
ENDBRANCH  69  70
ENDBRANCH  50  64
BRANCH  51  74
ATOM     74  C   UNL A   1      36.582  33.298  31.093  1.00  0.00    -0.014 A 
ATOM     75  C   UNL A   1      35.264  33.173  31.567  1.00  0.00     0.010 A 
ATOM     76  C   UNL A   1      36.831  34.110  29.972  1.00  0.00     0.010 A 
ATOM     77  C   UNL A   1      34.214  33.834  30.924  1.00  0.00     0.020 A 
ATOM     78  C   UNL A   1      35.788  34.796  29.344  1.00  0.00     0.020 A 
ATOM     79  C   UNL A   1      34.484  34.645  29.817  1.00  0.00     0.054 A 
BRANCH  79  80
ATOM     80  S   UNL A   1      33.114  35.540  29.032  1.00  0.00     0.124 S 
ATOM     81  O   UNL A   1      32.380  36.046  30.186  1.00  0.00    -0.237 OA
ATOM     82  O   UNL A   1      33.811  36.545  28.232  1.00  0.00    -0.237 OA
ATOM     83  O   UNL A   1      32.432  34.505  28.258  1.00  0.00    -0.744 OA
ENDBRANCH  79  80
ENDBRANCH  51  74
BRANCH  63  84
ATOM     84  C   UNL A   1      39.849  34.249  37.182  1.00  0.00    -0.014 A 
ATOM     85  C   UNL A   1      40.511  35.488  37.125  1.00  0.00     0.010 A 
ATOM     86  C   UNL A   1      38.985  33.985  38.261  1.00  0.00     0.010 A 
ATOM     87  C   UNL A   1      40.337  36.431  38.142  1.00  0.00     0.020 A 
ATOM     88  C   UNL A   1      38.786  34.935  39.266  1.00  0.00     0.020 A 
ATOM     89  C   UNL A   1      39.476  36.148  39.206  1.00  0.00     0.054 A 
BRANCH  89  90
ATOM     90  S   UNL A   1      39.234  37.405  40.493  1.00  0.00     0.124 S 
ATOM     91  O   UNL A   1      38.209  38.257  39.896  1.00  0.00    -0.237 OA
ATOM     92  O   UNL A   1      38.801  36.611  41.641  1.00  0.00    -0.237 OA
ATOM     93  O   UNL A   1      40.553  38.018  40.630  1.00  0.00    -0.744 OA
ENDBRANCH  89  90
ENDBRANCH  63  84
ENDBRANCH  37  38
ENDBRANCH  29  32
ENDBRANCH  27  28
ENDBRANCH  26  27
ENDBRANCH   1  26
TORSDOF 19
ENDMDL
MODEL 2
REMARK VINA RESULT:     -10.7      0.481      8.205
REMARK SMILES [NH3+][C@H](CC(=O)NCCCCCCNC(=O)c1ccc(-c2c3nc(c(-c4ccc(S(=O)(=O)[O-])cc4)c4ccc([nH]4)c(-c4ccc(S(=O)(=O)[O-])cc4)c4nc(c(-c5ccc(S(=O)(=O)[O-])cc5)c5ccc2[nH]5)C=C4)C=C3)cc1)c1ccc2c(c1)OC(F)(F)O2
REMARK SMILES IDX 10 1 9 2 8 3 7 4 6 5 4 6 5 7 3 9 2 10 1 11 76 15 77 16 81 17
REMARK SMILES IDX 78 18 80 19 79 20 82 21 86 22 83 23 84 24 85 25 11 26 12 27
REMARK SMILES IDX 13 28 14 29 15 31 16 32 17 33 75 34 18 35 74 36 19 37 20 38
REMARK SMILES IDX 21 39 68 40 22 41 73 42 67 43 69 44 23 45 72 46 66 47 65 48
REMARK SMILES IDX 24 50 54 51 35 52 53 53 36 54 39 55 52 56 70 57 37 58 38 59
REMARK SMILES IDX 51 61 71 62 40 63 25 64 26 65 34 66 27 67 33 68 28 69 29 70
REMARK SMILES IDX 30 71 31 72 32 73 55 74 56 75 64 76 57 77 63 78 58 79 59 80
REMARK SMILES IDX 60 81 61 82 62 83 41 84 42 85 50 86 43 87 49 88 44 89 45 90
REMARK SMILES IDX 46 91 47 92 48 93
REMARK H PARENT 6 8 1 12 1 13 1 14 13 30 69 49 39 60
REMARK Flexibility Score: inf
ROOT
ATOM      1  C   UNL A   1      42.240  22.392  27.999  1.00  0.00     0.002 C 
ENDROOT
BRANCH   1   2
ATOM      2  C   UNL A   1      42.426  23.375  29.158  1.00  0.00     0.002 C 
BRANCH   2   3
ATOM      3  C   UNL A   1      43.500  24.439  28.935  1.00  0.00     0.021 C 
BRANCH   3   4
ATOM      4  C   UNL A   1      44.511  24.122  27.833  1.00  0.00     0.116 C 
BRANCH   4   5
ATOM      5  N   UNL A   1      44.690  25.278  26.966  1.00  0.00    -0.356 N 
ATOM      6  C   UNL A   1      44.730  25.350  25.604  1.00  0.00     0.226 C 
ATOM      7  O   UNL A   1      45.148  26.387  25.082  1.00  0.00    -0.275 OA
ATOM      8  H   UNL A   1      44.797  26.138  27.434  1.00  0.00     0.163 HD
BRANCH   6   9
ATOM      9  C   UNL A   1      44.221  24.206  24.750  1.00  0.00     0.170 C 
BRANCH   9  10
ATOM     10  C   UNL A   1      45.311  23.247  24.242  1.00  0.00     0.221 C 
BRANCH  10  11
ATOM     11  N   UNL A   1      46.675  23.723  24.506  1.00  0.00    -0.351 N 
ATOM     12  H   UNL A   1      46.861  23.686  25.509  1.00  0.00     0.345 HD
ATOM     13  H   UNL A   1      46.768  24.685  24.178  1.00  0.00     0.345 HD
ATOM     14  H   UNL A   1      47.344  23.130  24.014  1.00  0.00     0.345 HD
ENDBRANCH  10  11
BRANCH  10  15
ATOM     15  C   UNL A   1      45.103  21.805  24.681  1.00  0.00     0.014 A 
ATOM     16  C   UNL A   1      46.161  20.873  24.523  1.00  0.00     0.014 A 
ATOM     17  C   UNL A   1      43.884  21.362  25.226  1.00  0.00     0.060 A 
ATOM     18  C   UNL A   1      46.016  19.531  24.899  1.00  0.00     0.051 A 
ATOM     19  C   UNL A   1      43.770  20.036  25.591  1.00  0.00     0.173 A 
ATOM     20  C   UNL A   1      44.806  19.145  25.429  1.00  0.00     0.172 A 
ATOM     21  O   UNL A   1      42.656  19.451  26.108  1.00  0.00    -0.395 OA
ATOM     22  O   UNL A   1      44.478  17.886  25.824  1.00  0.00    -0.395 OA
ATOM     23  C   UNL A   1      43.152  18.122  26.320  1.00  0.00     0.586 C 
ATOM     24  F   UNL A   1      43.134  17.864  27.650  1.00  0.00    -0.125 F 
ATOM     25  F   UNL A   1      42.307  17.248  25.719  1.00  0.00    -0.125 F 
ENDBRANCH  10  15
ENDBRANCH   9  10
ENDBRANCH   6   9
ENDBRANCH   4   5
ENDBRANCH   3   4
ENDBRANCH   2   3
ENDBRANCH   1   2
BRANCH   1  26
ATOM     26  C   UNL A   1      40.792  22.118  27.568  1.00  0.00     0.021 C 
BRANCH  26  27
ATOM     27  C   UNL A   1      39.957  23.349  27.212  1.00  0.00     0.116 C 
BRANCH  27  28
ATOM     28  N   UNL A   1      40.588  24.174  26.196  1.00  0.00    -0.352 N 
ATOM     29  C   UNL A   1      40.904  25.512  26.191  1.00  0.00     0.251 C 
ATOM     30  H   UNL A   1      40.830  23.694  25.371  1.00  0.00     0.163 HD
ATOM     31  O   UNL A   1      41.254  26.039  25.137  1.00  0.00    -0.269 OA
BRANCH  29  32
ATOM     32  C   UNL A   1      40.809  26.335  27.421  1.00  0.00     0.039 A 
ATOM     33  C   UNL A   1      41.730  27.373  27.600  1.00  0.00     0.014 A 
ATOM     34  C   UNL A   1      39.879  26.059  28.427  1.00  0.00     0.014 A 
ATOM     35  C   UNL A   1      41.676  28.170  28.748  1.00  0.00     0.010 A 
ATOM     36  C   UNL A   1      39.787  26.894  29.545  1.00  0.00     0.010 A 
ATOM     37  C   UNL A   1      40.681  27.962  29.717  1.00  0.00    -0.014 A 
BRANCH  37  38
ATOM     38  C   UNL A   1      40.560  28.863  30.897  1.00  0.00     0.031 A 
ATOM     39  C   UNL A   1      39.535  29.966  30.927  1.00  0.00     0.074 A 
ATOM     40  C   UNL A   1      41.408  28.715  31.936  1.00  0.00     0.049 A 
ATOM     41  N   UNL A   1      39.313  30.860  31.858  1.00  0.00    -0.248 NA
ATOM     42  C   UNL A   1      38.657  30.092  29.753  1.00  0.00     0.031 C 
ATOM     43  C   UNL A   1      42.465  27.706  32.029  1.00  0.00     0.029 A 
ATOM     44  N   UNL A   1      41.517  29.415  33.112  1.00  0.00    -0.354 N 
ATOM     45  C   UNL A   1      38.278  31.658  31.382  1.00  0.00     0.074 A 
ATOM     46  C   UNL A   1      37.949  31.170  30.060  1.00  0.00     0.031 C 
ATOM     47  C   UNL A   1      43.096  27.835  33.207  1.00  0.00     0.029 A 
ATOM     48  C   UNL A   1      42.519  28.960  33.937  1.00  0.00     0.049 A 
ATOM     49  H   UNL A   1      40.933  30.174  33.344  1.00  0.00     0.167 HD
ATOM     50  C   UNL A   1      37.648  32.691  31.993  1.00  0.00     0.031 A 
ATOM     51  C   UNL A   1      42.937  29.397  35.142  1.00  0.00     0.031 A 
ATOM     52  C   UNL A   1      37.974  33.181  33.308  1.00  0.00     0.049 A 
ATOM     53  C   UNL A   1      42.244  30.567  35.786  1.00  0.00     0.074 A 
ATOM     54  C   UNL A   1      37.361  34.195  34.025  1.00  0.00     0.029 A 
ATOM     55  N   UNL A   1      39.003  32.698  34.102  1.00  0.00    -0.354 N 
ATOM     56  N   UNL A   1      41.230  31.270  35.340  1.00  0.00    -0.248 NA
ATOM     57  C   UNL A   1      42.745  30.993  37.100  1.00  0.00     0.031 C 
ATOM     58  C   UNL A   1      38.053  34.360  35.230  1.00  0.00     0.029 A 
ATOM     59  C   UNL A   1      39.059  33.410  35.290  1.00  0.00     0.049 A 
ATOM     60  H   UNL A   1      39.605  31.958  33.859  1.00  0.00     0.167 HD
ATOM     61  C   UNL A   1      40.956  32.206  36.332  1.00  0.00     0.074 A 
ATOM     62  C   UNL A   1      41.900  31.969  37.406  1.00  0.00     0.031 C 
ATOM     63  C   UNL A   1      40.005  33.172  36.352  1.00  0.00     0.031 A 
BRANCH  50  64
ATOM     64  C   UNL A   1      36.539  33.376  31.234  1.00  0.00    -0.014 A 
ATOM     65  C   UNL A   1      35.253  33.506  31.789  1.00  0.00     0.010 A 
ATOM     66  C   UNL A   1      36.796  33.932  29.966  1.00  0.00     0.010 A 
ATOM     67  C   UNL A   1      34.232  34.137  31.071  1.00  0.00     0.020 A 
ATOM     68  C   UNL A   1      35.785  34.589  29.259  1.00  0.00     0.020 A 
ATOM     69  C   UNL A   1      34.504  34.669  29.808  1.00  0.00     0.054 A 
BRANCH  69  70
ATOM     70  S   UNL A   1      33.163  35.492  28.905  1.00  0.00     0.124 S 
ATOM     71  O   UNL A   1      33.898  36.460  28.094  1.00  0.00    -0.237 OA
ATOM     72  O   UNL A   1      32.551  34.390  28.166  1.00  0.00    -0.237 OA
ATOM     73  O   UNL A   1      32.333  36.066  29.961  1.00  0.00    -0.744 OA
ENDBRANCH  69  70
ENDBRANCH  50  64
BRANCH  51  74
ATOM     74  C   UNL A   1      44.069  28.714  35.826  1.00  0.00    -0.014 A 
ATOM     75  C   UNL A   1      45.391  29.147  35.621  1.00  0.00     0.010 A 
ATOM     76  C   UNL A   1      43.830  27.634  36.694  1.00  0.00     0.010 A 
ATOM     77  C   UNL A   1      46.455  28.504  36.261  1.00  0.00     0.020 A 
ATOM     78  C   UNL A   1      44.888  27.006  37.357  1.00  0.00     0.020 A 
ATOM     79  C   UNL A   1      46.195  27.438  37.129  1.00  0.00     0.054 A 
BRANCH  79  80
ATOM     80  S   UNL A   1      47.585  26.654  37.992  1.00  0.00     0.124 S 
ATOM     81  O   UNL A   1      47.463  25.264  37.564  1.00  0.00    -0.237 OA
ATOM     82  O   UNL A   1      48.736  27.382  37.464  1.00  0.00    -0.237 OA
ATOM     83  O   UNL A   1      47.294  26.904  39.402  1.00  0.00    -0.744 OA
ENDBRANCH  79  80
ENDBRANCH  51  74
BRANCH  63  84
ATOM     84  C   UNL A   1      39.913  34.031  37.585  1.00  0.00    -0.014 A 
ATOM     85  C   UNL A   1      40.674  35.206  37.716  1.00  0.00     0.010 A 
ATOM     86  C   UNL A   1      39.012  33.682  38.610  1.00  0.00     0.010 A 
ATOM     87  C   UNL A   1      40.560  36.000  38.862  1.00  0.00     0.020 A 
ATOM     88  C   UNL A   1      38.875  34.487  39.743  1.00  0.00     0.020 A 
ATOM     89  C   UNL A   1      39.661  35.634  39.868  1.00  0.00     0.054 A 
BRANCH  89  90
ATOM     90  S   UNL A   1      39.500  36.703  41.327  1.00  0.00     0.124 S 
ATOM     91  O   UNL A   1      40.886  36.823  41.769  1.00  0.00    -0.237 OA
ATOM     92  O   UNL A   1      38.911  37.919  40.769  1.00  0.00    -0.237 OA
ATOM     93  O   UNL A   1      38.624  35.945  42.217  1.00  0.00    -0.744 OA
ENDBRANCH  89  90
ENDBRANCH  63  84
ENDBRANCH  37  38
ENDBRANCH  29  32
ENDBRANCH  27  28
ENDBRANCH  26  27
ENDBRANCH   1  26
TORSDOF 19
ENDMDL
MODEL 3
REMARK VINA RESULT:     -10.7      5.965     11.532
REMARK SMILES [NH3+][C@H](CC(=O)NCCCCCCNC(=O)c1ccc(-c2c3nc(c(-c4ccc(S(=O)(=O)[O-])cc4)c4ccc([nH]4)c(-c4ccc(S(=O)(=O)[O-])cc4)c4nc(c(-c5ccc(S(=O)(=O)[O-])cc5)c5ccc2[nH]5)C=C4)C=C3)cc1)c1ccc2c(c1)OC(F)(F)O2
REMARK SMILES IDX 10 1 9 2 8 3 7 4 6 5 4 6 5 7 3 9 2 10 1 11 76 15 77 16 81 17
REMARK SMILES IDX 78 18 80 19 79 20 82 21 86 22 83 23 84 24 85 25 11 26 12 27
REMARK SMILES IDX 13 28 14 29 15 31 16 32 17 33 75 34 18 35 74 36 19 37 20 38
REMARK SMILES IDX 21 39 68 40 22 41 73 42 67 43 69 44 23 45 72 46 66 47 65 48
REMARK SMILES IDX 24 50 54 51 35 52 53 53 36 54 39 55 52 56 70 57 37 58 38 59
REMARK SMILES IDX 51 61 71 62 40 63 25 64 26 65 34 66 27 67 33 68 28 69 29 70
REMARK SMILES IDX 30 71 31 72 32 73 55 74 56 75 64 76 57 77 63 78 58 79 59 80
REMARK SMILES IDX 60 81 61 82 62 83 41 84 42 85 50 86 43 87 49 88 44 89 45 90
REMARK SMILES IDX 46 91 47 92 48 93
REMARK H PARENT 6 8 1 12 1 13 1 14 13 30 69 49 39 60
REMARK Flexibility Score: inf
ROOT
ATOM      1  C   UNL A   1      31.632  27.308  25.649  1.00  0.00     0.002 C 
ENDROOT
BRANCH   1   2
ATOM      2  C   UNL A   1      31.560  28.435  24.615  1.00  0.00     0.002 C 
BRANCH   2   3
ATOM      3  C   UNL A   1      32.386  28.204  23.350  1.00  0.00     0.021 C 
BRANCH   3   4
ATOM      4  C   UNL A   1      33.612  27.309  23.529  1.00  0.00     0.116 C 
BRANCH   4   5
ATOM      5  N   UNL A   1      33.584  26.219  22.563  1.00  0.00    -0.356 N 
ATOM      6  C   UNL A   1      33.504  24.873  22.769  1.00  0.00     0.226 C 
ATOM      7  O   UNL A   1      33.754  24.118  21.826  1.00  0.00    -0.275 OA
ATOM      8  H   UNL A   1      33.630  26.496  21.619  1.00  0.00     0.163 HD
BRANCH   6   9
ATOM      9  C   UNL A   1      33.061  24.316  24.108  1.00  0.00     0.170 C 
BRANCH   9  10
ATOM     10  C   UNL A   1      32.070  23.143  24.022  1.00  0.00     0.221 C 
BRANCH  10  11
ATOM     11  N   UNL A   1      31.184  23.214  22.854  1.00  0.00    -0.351 N 
ATOM     12  H   UNL A   1      31.675  22.863  22.031  1.00  0.00     0.345 HD
ATOM     13  H   UNL A   1      30.906  24.184  22.696  1.00  0.00     0.345 HD
ATOM     14  H   UNL A   1      30.353  22.647  23.021  1.00  0.00     0.345 HD
ENDBRANCH  10  11
BRANCH  10  15
ATOM     15  C   UNL A   1      32.729  21.780  24.170  1.00  0.00     0.014 A 
ATOM     16  C   UNL A   1      33.889  21.655  24.978  1.00  0.00     0.014 A 
ATOM     17  C   UNL A   1      32.232  20.638  23.516  1.00  0.00     0.060 A 
ATOM     18  C   UNL A   1      34.541  20.426  25.136  1.00  0.00     0.051 A 
ATOM     19  C   UNL A   1      32.891  19.439  23.692  1.00  0.00     0.173 A 
ATOM     20  C   UNL A   1      34.017  19.337  24.477  1.00  0.00     0.172 A 
ATOM     21  O   UNL A   1      32.552  18.256  23.113  1.00  0.00    -0.395 OA
ATOM     22  O   UNL A   1      34.528  18.077  24.494  1.00  0.00    -0.395 OA
ATOM     23  C   UNL A   1      33.545  17.402  23.696  1.00  0.00     0.586 C 
ATOM     24  F   UNL A   1      32.920  16.479  24.466  1.00  0.00    -0.125 F 
ATOM     25  F   UNL A   1      34.182  16.743  22.697  1.00  0.00    -0.125 F 
ENDBRANCH  10  15
ENDBRANCH   9  10
ENDBRANCH   6   9
ENDBRANCH   4   5
ENDBRANCH   3   4
ENDBRANCH   2   3
ENDBRANCH   1   2
BRANCH   1  26
ATOM     26  C   UNL A   1      32.027  27.720  27.074  1.00  0.00     0.021 C 
BRANCH  26  27
ATOM     27  C   UNL A   1      33.422  28.330  27.231  1.00  0.00     0.116 C 
BRANCH  27  28
ATOM     28  N   UNL A   1      33.379  29.766  27.445  1.00  0.00    -0.352 N 
ATOM     29  C   UNL A   1      34.301  30.622  27.998  1.00  0.00     0.251 C 
ATOM     30  H   UNL A   1      32.548  30.201  27.142  1.00  0.00     0.163 HD
ATOM     31  O   UNL A   1      33.964  31.774  28.260  1.00  0.00    -0.269 OA
BRANCH  29  32
ATOM     32  C   UNL A   1      35.682  30.178  28.307  1.00  0.00     0.039 A 
ATOM     33  C   UNL A   1      36.641  30.230  27.289  1.00  0.00     0.014 A 
ATOM     34  C   UNL A   1      36.029  29.651  29.553  1.00  0.00     0.014 A 
ATOM     35  C   UNL A   1      37.954  29.817  27.539  1.00  0.00     0.010 A 
ATOM     36  C   UNL A   1      37.355  29.295  29.820  1.00  0.00     0.010 A 
ATOM     37  C   UNL A   1      38.334  29.378  28.817  1.00  0.00    -0.014 A 
BRANCH  37  38
ATOM     38  C   UNL A   1      39.750  29.024  29.115  1.00  0.00     0.031 A 
ATOM     39  C   UNL A   1      40.683  30.025  29.743  1.00  0.00     0.074 A 
ATOM     40  C   UNL A   1      40.214  27.802  28.781  1.00  0.00     0.049 A 
ATOM     41  N   UNL A   1      41.952  29.895  30.043  1.00  0.00    -0.248 NA
ATOM     42  C   UNL A   1      40.124  31.348  30.061  1.00  0.00     0.031 C 
ATOM     43  C   UNL A   1      39.427  26.743  28.144  1.00  0.00     0.029 A 
ATOM     44  N   UNL A   1      41.460  27.244  28.927  1.00  0.00    -0.354 N 
ATOM     45  C   UNL A   1      42.345  31.118  30.576  1.00  0.00     0.074 A 
ATOM     46  C   UNL A   1      41.192  31.991  30.516  1.00  0.00     0.031 C 
ATOM     47  C   UNL A   1      40.200  25.658  27.980  1.00  0.00     0.029 A 
ATOM     48  C   UNL A   1      41.547  25.954  28.459  1.00  0.00     0.049 A 
ATOM     49  H   UNL A   1      42.221  27.723  29.329  1.00  0.00     0.167 HD
ATOM     50  C   UNL A   1      43.549  31.479  31.084  1.00  0.00     0.031 A 
ATOM     51  C   UNL A   1      42.591  25.101  28.412  1.00  0.00     0.031 A 
ATOM     52  C   UNL A   1      44.700  30.614  31.145  1.00  0.00     0.049 A 
ATOM     53  C   UNL A   1      43.926  25.535  28.951  1.00  0.00     0.074 A 
ATOM     54  C   UNL A   1      45.948  30.880  31.681  1.00  0.00     0.029 A 
ATOM     55  N   UNL A   1      44.746  29.320  30.649  1.00  0.00    -0.354 N 
ATOM     56  N   UNL A   1      44.259  26.678  29.501  1.00  0.00    -0.248 NA
ATOM     57  C   UNL A   1      45.022  24.559  28.872  1.00  0.00     0.031 C 
ATOM     58  C   UNL A   1      46.766  29.765  31.461  1.00  0.00     0.029 A 
ATOM     59  C   UNL A   1      46.010  28.784  30.843  1.00  0.00     0.049 A 
ATOM     60  H   UNL A   1      43.994  28.851  30.222  1.00  0.00     0.167 HD
ATOM     61  C   UNL A   1      45.598  26.549  29.858  1.00  0.00     0.074 A 
ATOM     62  C   UNL A   1      46.007  25.213  29.475  1.00  0.00     0.031 C 
ATOM     63  C   UNL A   1      46.412  27.455  30.454  1.00  0.00     0.031 A 
BRANCH  50  64
ATOM     64  C   UNL A   1      43.688  32.886  31.610  1.00  0.00    -0.014 A 
ATOM     65  C   UNL A   1      43.480  33.176  32.971  1.00  0.00     0.010 A 
ATOM     66  C   UNL A   1      44.072  33.924  30.741  1.00  0.00     0.010 A 
ATOM     67  C   UNL A   1      43.606  34.485  33.443  1.00  0.00     0.020 A 
ATOM     68  C   UNL A   1      44.228  35.230  31.216  1.00  0.00     0.020 A 
ATOM     69  C   UNL A   1      43.973  35.505  32.561  1.00  0.00     0.054 A 
BRANCH  69  70
ATOM     70  S   UNL A   1      44.139  37.193  33.204  1.00  0.00     0.124 S 
ATOM     71  O   UNL A   1      42.934  37.323  34.020  1.00  0.00    -0.237 OA
ATOM     72  O   UNL A   1      45.396  37.132  33.946  1.00  0.00    -0.237 OA
ATOM     73  O   UNL A   1      44.169  38.022  32.002  1.00  0.00    -0.744 OA
ENDBRANCH  69  70
ENDBRANCH  50  64
BRANCH  51  74
ATOM     74  C   UNL A   1      42.410  23.740  27.836  1.00  0.00    -0.014 A 
ATOM     75  C   UNL A   1      42.631  23.509  26.467  1.00  0.00     0.010 A 
ATOM     76  C   UNL A   1      42.025  22.665  28.658  1.00  0.00     0.010 A 
ATOM     77  C   UNL A   1      42.458  22.231  25.927  1.00  0.00     0.020 A 
ATOM     78  C   UNL A   1      41.878  21.380  28.127  1.00  0.00     0.020 A 
ATOM     79  C   UNL A   1      42.085  21.173  26.763  1.00  0.00     0.054 A 
BRANCH  79  80
ATOM     80  S   UNL A   1      41.920  19.512  26.052  1.00  0.00     0.124 S 
ATOM     81  O   UNL A   1      42.771  19.601  24.870  1.00  0.00    -0.237 OA
ATOM     82  O   UNL A   1      42.415  18.658  27.128  1.00  0.00    -0.237 OA
ATOM     83  O   UNL A   1      40.488  19.397  25.786  1.00  0.00    -0.744 OA
ENDBRANCH  79  80
ENDBRANCH  51  74
BRANCH  63  84
ATOM     84  C   UNL A   1      47.824  27.027  30.757  1.00  0.00    -0.014 A 
ATOM     85  C   UNL A   1      48.875  27.288  29.861  1.00  0.00     0.010 A 
ATOM     86  C   UNL A   1      48.110  26.395  31.982  1.00  0.00     0.010 A 
ATOM     87  C   UNL A   1      50.182  26.899  30.171  1.00  0.00     0.020 A 
ATOM     88  C   UNL A   1      49.418  26.029  32.307  1.00  0.00     0.020 A 
ATOM     89  C   UNL A   1      50.444  26.271  31.392  1.00  0.00     0.054 A 
BRANCH  89  90
ATOM     90  S   UNL A   1      52.155  25.812  31.789  1.00  0.00     0.124 S 
ATOM     91  O   UNL A   1      52.473  26.737  32.873  1.00  0.00    -0.237 OA
ATOM     92  O   UNL A   1      52.030  24.409  32.176  1.00  0.00    -0.237 OA
ATOM     93  O   UNL A   1      52.875  26.045  30.539  1.00  0.00    -0.744 OA
ENDBRANCH  89  90
ENDBRANCH  63  84
ENDBRANCH  37  38
ENDBRANCH  29  32
ENDBRANCH  27  28
ENDBRANCH  26  27
ENDBRANCH   1  26
TORSDOF 19
ENDMDL
