MODEL 1
REMARK VINA RESULT:     -10.4      0.000      0.000
REMARK SMILES C[C@@H](C(=O)NCCCCCCNC(=O)c1ccc(-c2c3nc(c(-c4ccc(S(=O)(=O)[O-])cc4)c4ccc([nH]4)c(-c4ccc(S(=O)(=O)[O-])cc4)c4nc(c(-c5ccc(S(=O)(=O)[O-])cc5)c5ccc2[nH]5)C=C4)C=C3)cc1)c1ccc(C[C@H]2CCCC2=O)cc1
REMARK SMILES IDX 8 1 7 2 6 3 5 4 3 5 4 6 2 8 1 9 75 10 76 11 87 12 77 13
REMARK SMILES IDX 86 14 78 15 79 16 80 17 81 18 84 19 82 20 83 21 85 22 9 23
REMARK SMILES IDX 10 24 11 25 12 26 13 27 14 29 15 30 16 31 74 32 17 33 73 34
REMARK SMILES IDX 18 35 19 36 20 37 67 38 21 39 72 40 66 41 68 42 22 43 71 44
REMARK SMILES IDX 65 45 64 46 23 48 53 49 34 50 52 51 35 52 38 53 51 54 69 55
REMARK SMILES IDX 36 56 37 57 50 59 70 60 39 61 24 62 25 63 33 64 26 65 32 66
REMARK SMILES IDX 27 67 28 68 29 69 30 70 31 71 54 72 55 73 63 74 56 75 62 76
REMARK SMILES IDX 57 77 58 78 59 79 60 80 61 81 40 82 41 83 49 84 42 85 48 86
REMARK SMILES IDX 43 87 44 88 45 89 46 90 47 91
REMARK H PARENT 5 7 12 28 68 47 38 58
REMARK Flexibility Score: inf
ROOT
ATOM      1  C   UNL A   1      33.656  26.658  23.376  1.00  0.00     0.002 C 
ENDROOT
BRANCH   1   2
ATOM      2  C   UNL A   1      32.390  26.295  22.587  1.00  0.00     0.021 C 
BRANCH   2   3
ATOM      3  C   UNL A   1      31.470  25.305  23.304  1.00  0.00     0.116 C 
BRANCH   3   4
ATOM      4  N   UNL A   1      31.413  25.604  24.719  1.00  0.00    -0.356 N 
ATOM      5  C   UNL A   1      31.143  24.801  25.786  1.00  0.00     0.227 C 
ATOM      6  O   UNL A   1      31.050  25.372  26.875  1.00  0.00    -0.274 OA
ATOM      7  H   UNL A   1      31.601  26.542  24.949  1.00  0.00     0.163 HD
BRANCH   5   8
ATOM      8  C   UNL A   1      31.030  23.279  25.593  1.00  0.00     0.105 C 
ATOM      9  C   UNL A   1      30.177  22.584  26.660  1.00  0.00     0.023 C 
BRANCH   8  10
ATOM     10  C   UNL A   1      32.370  22.547  25.543  1.00  0.00    -0.036 A 
ATOM     11  C   UNL A   1      33.144  22.445  26.707  1.00  0.00     0.005 A 
ATOM     12  C   UNL A   1      32.906  22.070  24.339  1.00  0.00     0.005 A 
ATOM     13  C   UNL A   1      34.425  21.889  26.661  1.00  0.00     0.004 A 
ATOM     14  C   UNL A   1      34.180  21.507  24.293  1.00  0.00     0.004 A 
ATOM     15  C   UNL A   1      34.963  21.438  25.449  1.00  0.00    -0.047 A 
BRANCH  15  16
ATOM     16  C   UNL A   1      36.381  20.933  25.372  1.00  0.00     0.047 C 
BRANCH  16  17
ATOM     17  C   UNL A   1      37.421  21.955  24.898  1.00  0.00     0.060 C 
ATOM     18  C   UNL A   1      36.974  23.420  24.841  1.00  0.00     0.012 C 
ATOM     19  C   UNL A   1      38.617  22.023  25.820  1.00  0.00     0.136 C 
ATOM     20  C   UNL A   1      37.471  24.077  26.125  1.00  0.00     0.009 C 
ATOM     21  C   UNL A   1      38.769  23.367  26.481  1.00  0.00     0.076 C 
ATOM     22  O   UNL A   1      39.392  21.091  25.996  1.00  0.00    -0.299 OA
ENDBRANCH  16  17
ENDBRANCH  15  16
ENDBRANCH   8  10
ENDBRANCH   5   8
ENDBRANCH   3   4
ENDBRANCH   2   3
ENDBRANCH   1   2
BRANCH   1  23
ATOM     23  C   UNL A   1      33.766  28.132  23.777  1.00  0.00     0.002 C 
BRANCH  23  24
ATOM     24  C   UNL A   1      33.180  28.463  25.150  1.00  0.00     0.021 C 
BRANCH  24  25
ATOM     25  C   UNL A   1      34.177  29.084  26.118  1.00  0.00     0.116 C 
BRANCH  25  26
ATOM     26  N   UNL A   1      33.790  30.431  26.502  1.00  0.00    -0.352 N 
ATOM     27  C   UNL A   1      34.278  31.204  27.525  1.00  0.00     0.251 C 
ATOM     28  H   UNL A   1      33.085  30.845  25.954  1.00  0.00     0.163 HD
ATOM     29  O   UNL A   1      33.692  32.235  27.852  1.00  0.00    -0.269 OA
BRANCH  27  30
ATOM     30  C   UNL A   1      35.500  30.780  28.239  1.00  0.00     0.039 A 
ATOM     31  C   UNL A   1      35.419  29.748  29.175  1.00  0.00     0.014 A 
ATOM     32  C   UNL A   1      36.724  31.405  27.981  1.00  0.00     0.014 A 
ATOM     33  C   UNL A   1      36.576  29.317  29.827  1.00  0.00     0.010 A 
ATOM     34  C   UNL A   1      37.886  30.915  28.564  1.00  0.00     0.010 A 
ATOM     35  C   UNL A   1      37.823  29.883  29.511  1.00  0.00    -0.014 A 
BRANCH  35  36
ATOM     36  C   UNL A   1      39.066  29.440  30.191  1.00  0.00     0.031 A 
ATOM     37  C   UNL A   1      39.509  30.119  31.459  1.00  0.00     0.074 A 
ATOM     38  C   UNL A   1      39.822  28.467  29.643  1.00  0.00     0.049 A 
ATOM     39  N   UNL A   1      40.578  29.903  32.183  1.00  0.00    -0.248 NA
ATOM     40  C   UNL A   1      38.653  31.204  31.967  1.00  0.00     0.031 C 
ATOM     41  C   UNL A   1      39.517  27.754  28.401  1.00  0.00     0.029 A 
ATOM     42  N   UNL A   1      41.004  27.911  30.064  1.00  0.00    -0.354 N 
ATOM     43  C   UNL A   1      40.534  30.837  33.210  1.00  0.00     0.074 A 
ATOM     44  C   UNL A   1      39.367  31.660  32.984  1.00  0.00     0.031 C 
ATOM     45  C   UNL A   1      40.465  26.827  28.185  1.00  0.00     0.029 A 
ATOM     46  C   UNL A   1      41.465  26.909  29.244  1.00  0.00     0.049 A 
ATOM     47  H   UNL A   1      41.476  28.202  30.878  1.00  0.00     0.167 HD
ATOM     48  C   UNL A   1      41.377  30.988  34.261  1.00  0.00     0.031 A 
ATOM     49  C   UNL A   1      42.568  26.141  29.336  1.00  0.00     0.031 A 
ATOM     50  C   UNL A   1      42.533  30.160  34.484  1.00  0.00     0.049 A 
ATOM     51  C   UNL A   1      43.499  26.332  30.503  1.00  0.00     0.074 A 
ATOM     52  C   UNL A   1      43.418  30.189  35.547  1.00  0.00     0.029 A 
ATOM     53  N   UNL A   1      42.968  29.161  33.627  1.00  0.00    -0.354 N 
ATOM     54  N   UNL A   1      43.407  27.179  31.501  1.00  0.00    -0.248 NA
ATOM     55  C   UNL A   1      44.673  25.453  30.561  1.00  0.00     0.031 C 
ATOM     56  C   UNL A   1      44.425  29.249  35.299  1.00  0.00     0.029 A 
ATOM     57  C   UNL A   1      44.125  28.584  34.121  1.00  0.00     0.049 A 
ATOM     58  H   UNL A   1      42.519  28.899  32.790  1.00  0.00     0.167 HD
ATOM     59  C   UNL A   1      44.490  26.906  32.330  1.00  0.00     0.074 A 
ATOM     60  C   UNL A   1      45.219  25.813  31.716  1.00  0.00     0.031 C 
ATOM     61  C   UNL A   1      44.842  27.498  33.498  1.00  0.00     0.031 A 
BRANCH  48  62
ATOM     62  C   UNL A   1      41.087  32.108  35.227  1.00  0.00    -0.014 A 
ATOM     63  C   UNL A   1      40.244  31.921  36.340  1.00  0.00     0.010 A 
ATOM     64  C   UNL A   1      41.671  33.372  35.022  1.00  0.00     0.010 A 
ATOM     65  C   UNL A   1      39.939  32.990  37.186  1.00  0.00     0.020 A 
ATOM     66  C   UNL A   1      41.398  34.434  35.889  1.00  0.00     0.020 A 
ATOM     67  C   UNL A   1      40.512  34.242  36.950  1.00  0.00     0.054 A 
BRANCH  67  68
ATOM     68  S   UNL A   1      40.089  35.615  38.056  1.00  0.00     0.124 S 
ATOM     69  O   UNL A   1      39.805  36.689  37.108  1.00  0.00    -0.237 OA
ATOM     70  O   UNL A   1      38.932  35.096  38.782  1.00  0.00    -0.237 OA
ATOM     71  O   UNL A   1      41.295  35.798  38.861  1.00  0.00    -0.744 OA
ENDBRANCH  67  68
ENDBRANCH  48  62
BRANCH  49  72
ATOM     72  C   UNL A   1      42.824  25.090  28.313  1.00  0.00    -0.014 A 
ATOM     73  C   UNL A   1      43.489  25.413  27.116  1.00  0.00     0.010 A 
ATOM     74  C   UNL A   1      42.435  23.757  28.541  1.00  0.00     0.010 A 
ATOM     75  C   UNL A   1      43.751  24.425  26.163  1.00  0.00     0.020 A 
ATOM     76  C   UNL A   1      42.721  22.762  27.602  1.00  0.00     0.020 A 
ATOM     77  C   UNL A   1      43.372  23.104  26.416  1.00  0.00     0.054 A 
BRANCH  77  78
ATOM     78  S   UNL A   1      43.787  21.829  25.193  1.00  0.00     0.124 S 
ATOM     79  O   UNL A   1      42.705  20.867  25.377  1.00  0.00    -0.237 OA
ATOM     80  O   UNL A   1      43.763  22.578  23.939  1.00  0.00    -0.237 OA
ATOM     81  O   UNL A   1      45.111  21.372  25.611  1.00  0.00    -0.744 OA
ENDBRANCH  77  78
ENDBRANCH  49  72
BRANCH  61  82
ATOM     82  C   UNL A   1      46.043  26.946  34.223  1.00  0.00    -0.014 A 
ATOM     83  C   UNL A   1      47.333  27.465  34.020  1.00  0.00     0.010 A 
ATOM     84  C   UNL A   1      45.860  25.918  35.167  1.00  0.00     0.010 A 
ATOM     85  C   UNL A   1      48.424  26.939  34.719  1.00  0.00     0.020 A 
ATOM     86  C   UNL A   1      46.942  25.412  35.891  1.00  0.00     0.020 A 
ATOM     87  C   UNL A   1      48.221  25.916  35.650  1.00  0.00     0.054 A 
BRANCH  87  88
ATOM     88  S   UNL A   1      49.647  25.277  36.569  1.00  0.00     0.124 S 
ATOM     89  O   UNL A   1      50.763  25.930  35.891  1.00  0.00    -0.237 OA
ATOM     90  O   UNL A   1      49.383  25.735  37.931  1.00  0.00    -0.237 OA
ATOM     91  O   UNL A   1      49.563  23.830  36.379  1.00  0.00    -0.744 OA
ENDBRANCH  87  88
ENDBRANCH  61  82
ENDBRANCH  35  36
ENDBRANCH  27  30
ENDBRANCH  25  26
ENDBRANCH  24  25
ENDBRANCH  23  24
ENDBRANCH   1  23
TORSDOF 19
ENDMDL
MODEL 2
REMARK VINA RESULT:     -10.1      3.071      9.706
REMARK SMILES C[C@@H](C(=O)NCCCCCCNC(=O)c1ccc(-c2c3nc(c(-c4ccc(S(=O)(=O)[O-])cc4)c4ccc([nH]4)c(-c4ccc(S(=O)(=O)[O-])cc4)c4nc(c(-c5ccc(S(=O)(=O)[O-])cc5)c5ccc2[nH]5)C=C4)C=C3)cc1)c1ccc(C[C@H]2CCCC2=O)cc1
REMARK SMILES IDX 8 1 7 2 6 3 5 4 3 5 4 6 2 8 1 9 75 10 76 11 87 12 77 13
REMARK SMILES IDX 86 14 78 15 79 16 80 17 81 18 84 19 82 20 83 21 85 22 9 23
REMARK SMILES IDX 10 24 11 25 12 26 13 27 14 29 15 30 16 31 74 32 17 33 73 34
REMARK SMILES IDX 18 35 19 36 20 37 67 38 21 39 72 40 66 41 68 42 22 43 71 44
REMARK SMILES IDX 65 45 64 46 23 48 53 49 34 50 52 51 35 52 38 53 51 54 69 55
REMARK SMILES IDX 36 56 37 57 50 59 70 60 39 61 24 62 25 63 33 64 26 65 32 66
REMARK SMILES IDX 27 67 28 68 29 69 30 70 31 71 54 72 55 73 63 74 56 75 62 76
REMARK SMILES IDX 57 77 58 78 59 79 60 80 61 81 40 82 41 83 49 84 42 85 48 86
REMARK SMILES IDX 43 87 44 88 45 89 46 90 47 91
REMARK H PARENT 5 7 12 28 68 47 38 58
REMARK Flexibility Score: inf
ROOT
ATOM      1  C   UNL A   1      31.509  28.827  26.029  1.00  0.00     0.002 C 
ENDROOT
BRANCH   1   2
ATOM      2  C   UNL A   1      31.752  27.707  27.051  1.00  0.00     0.021 C 
BRANCH   2   3
ATOM      3  C   UNL A   1      32.255  26.400  26.435  1.00  0.00     0.116 C 
BRANCH   3   4
ATOM      4  N   UNL A   1      31.416  25.294  26.843  1.00  0.00    -0.356 N 
ATOM      5  C   UNL A   1      30.630  24.458  26.110  1.00  0.00     0.227 C 
ATOM      6  O   UNL A   1      29.931  23.675  26.757  1.00  0.00    -0.274 OA
ATOM      7  H   UNL A   1      31.413  25.116  27.812  1.00  0.00     0.163 HD
BRANCH   5   8
ATOM      8  C   UNL A   1      30.696  24.493  24.572  1.00  0.00     0.105 C 
ATOM      9  C   UNL A   1      31.999  23.928  23.999  1.00  0.00     0.023 C 
BRANCH   8  10
ATOM     10  C   UNL A   1      30.502  25.880  23.963  1.00  0.00    -0.036 A 
ATOM     11  C   UNL A   1      29.276  26.541  24.126  1.00  0.00     0.005 A 
ATOM     12  C   UNL A   1      31.476  26.470  23.146  1.00  0.00     0.005 A 
ATOM     13  C   UNL A   1      29.032  27.754  23.478  1.00  0.00     0.004 A 
ATOM     14  C   UNL A   1      31.237  27.685  22.506  1.00  0.00     0.004 A 
ATOM     15  C   UNL A   1      30.002  28.324  22.644  1.00  0.00    -0.047 A 
BRANCH  15  16
ATOM     16  C   UNL A   1      29.708  29.578  21.860  1.00  0.00     0.047 C 
BRANCH  16  17
ATOM     17  C   UNL A   1      28.484  30.376  22.325  1.00  0.00     0.060 C 
ATOM     18  C   UNL A   1      28.663  31.254  23.568  1.00  0.00     0.012 C 
ATOM     19  C   UNL A   1      28.029  31.379  21.291  1.00  0.00     0.136 C 
ATOM     20  C   UNL A   1      28.924  32.671  23.067  1.00  0.00     0.009 C 
ATOM     21  C   UNL A   1      28.143  32.803  21.768  1.00  0.00     0.076 C 
ATOM     22  O   UNL A   1      27.595  31.068  20.188  1.00  0.00    -0.299 OA
ENDBRANCH  16  17
ENDBRANCH  15  16
ENDBRANCH   8  10
ENDBRANCH   5   8
ENDBRANCH   3   4
ENDBRANCH   2   3
ENDBRANCH   1   2
BRANCH   1  23
ATOM     23  C   UNL A   1      32.550  29.950  26.046  1.00  0.00     0.002 C 
BRANCH  23  24
ATOM     24  C   UNL A   1      32.112  31.211  26.793  1.00  0.00     0.021 C 
BRANCH  24  25
ATOM     25  C   UNL A   1      33.259  31.992  27.420  1.00  0.00     0.116 C 
BRANCH  25  26
ATOM     26  N   UNL A   1      32.884  33.366  27.707  1.00  0.00    -0.352 N 
ATOM     27  C   UNL A   1      33.373  34.204  28.678  1.00  0.00     0.251 C 
ATOM     28  H   UNL A   1      32.185  33.748  27.127  1.00  0.00     0.163 HD
ATOM     29  O   UNL A   1      32.795  35.260  28.928  1.00  0.00    -0.269 OA
BRANCH  27  30
ATOM     30  C   UNL A   1      34.587  33.819  29.427  1.00  0.00     0.039 A 
ATOM     31  C   UNL A   1      34.468  32.965  30.524  1.00  0.00     0.014 A 
ATOM     32  C   UNL A   1      35.840  34.303  29.041  1.00  0.00     0.014 A 
ATOM     33  C   UNL A   1      35.615  32.567  31.215  1.00  0.00     0.010 A 
ATOM     34  C   UNL A   1      36.986  33.836  29.674  1.00  0.00     0.010 A 
ATOM     35  C   UNL A   1      36.885  32.983  30.782  1.00  0.00    -0.014 A 
BRANCH  35  36
ATOM     36  C   UNL A   1      38.118  32.572  31.500  1.00  0.00     0.031 A 
ATOM     37  C   UNL A   1      39.035  31.547  30.887  1.00  0.00     0.074 A 
ATOM     38  C   UNL A   1      38.385  33.076  32.721  1.00  0.00     0.049 A 
ATOM     39  N   UNL A   1      40.138  31.033  31.368  1.00  0.00    -0.248 NA
ATOM     40  C   UNL A   1      38.648  31.009  29.573  1.00  0.00     0.031 C 
ATOM     41  C   UNL A   1      37.558  34.051  33.435  1.00  0.00     0.029 A 
ATOM     42  N   UNL A   1      39.431  32.838  33.576  1.00  0.00    -0.354 N 
ATOM     43  C   UNL A   1      40.558  30.097  30.431  1.00  0.00     0.074 A 
ATOM     44  C   UNL A   1      39.563  30.071  29.383  1.00  0.00     0.031 C 
ATOM     45  C   UNL A   1      38.151  34.358  34.601  1.00  0.00     0.029 A 
ATOM     46  C   UNL A   1      39.373  33.573  34.737  1.00  0.00     0.049 A 
ATOM     47  H   UNL A   1      40.156  32.202  33.377  1.00  0.00     0.167 HD
ATOM     48  C   UNL A   1      41.682  29.339  30.429  1.00  0.00     0.031 A 
ATOM     49  C   UNL A   1      40.211  33.610  35.792  1.00  0.00     0.031 A 
ATOM     50  C   UNL A   1      42.673  29.374  31.472  1.00  0.00     0.049 A 
ATOM     51  C   UNL A   1      41.446  32.751  35.777  1.00  0.00     0.074 A 
ATOM     52  C   UNL A   1      43.875  28.694  31.539  1.00  0.00     0.029 A 
ATOM     53  N   UNL A   1      42.573  30.127  32.633  1.00  0.00    -0.354 N 
ATOM     54  N   UNL A   1      41.861  31.919  34.851  1.00  0.00    -0.248 NA
ATOM     55  C   UNL A   1      42.332  32.849  36.944  1.00  0.00     0.031 C 
ATOM     56  C   UNL A   1      44.472  28.985  32.771  1.00  0.00     0.029 A 
ATOM     57  C   UNL A   1      43.678  29.906  33.437  1.00  0.00     0.049 A 
ATOM     58  H   UNL A   1      41.827  30.730  32.852  1.00  0.00     0.167 HD
ATOM     59  C   UNL A   1      43.080  31.425  35.305  1.00  0.00     0.074 A 
ATOM     60  C   UNL A   1      43.334  32.056  36.586  1.00  0.00     0.031 C 
ATOM     61  C   UNL A   1      43.917  30.539  34.711  1.00  0.00     0.031 A 
BRANCH  48  62
ATOM     62  C   UNL A   1      41.877  28.390  29.274  1.00  0.00    -0.014 A 
ATOM     63  C   UNL A   1      41.214  27.149  29.221  1.00  0.00     0.010 A 
ATOM     64  C   UNL A   1      42.736  28.747  28.218  1.00  0.00     0.010 A 
ATOM     65  C   UNL A   1      41.459  26.258  28.172  1.00  0.00     0.020 A 
ATOM     66  C   UNL A   1      42.954  27.875  27.148  1.00  0.00     0.020 A 
ATOM     67  C   UNL A   1      42.334  26.624  27.146  1.00  0.00     0.054 A 
BRANCH  67  68
ATOM     68  S   UNL A   1      42.643  25.444  25.805  1.00  0.00     0.124 S 
ATOM     69  O   UNL A   1      41.533  25.724  24.897  1.00  0.00    -0.237 OA
ATOM     70  O   UNL A   1      43.964  25.845  25.324  1.00  0.00    -0.237 OA
ATOM     71  O   UNL A   1      42.592  24.143  26.468  1.00  0.00    -0.744 OA
ENDBRANCH  67  68
ENDBRANCH  48  62
BRANCH  49  72
ATOM     72  C   UNL A   1      39.928  34.529  36.928  1.00  0.00    -0.014 A 
ATOM     73  C   UNL A   1      39.127  34.102  38.003  1.00  0.00     0.010 A 
ATOM     74  C   UNL A   1      40.479  35.823  36.959  1.00  0.00     0.010 A 
ATOM     75  C   UNL A   1      38.877  34.953  39.082  1.00  0.00     0.020 A 
ATOM     76  C   UNL A   1      40.255  36.667  38.050  1.00  0.00     0.020 A 
ATOM     77  C   UNL A   1      39.449  36.229  39.102  1.00  0.00     0.054 A 
BRANCH  77  78
ATOM     78  S   UNL A   1      39.166  37.288  40.548  1.00  0.00     0.124 S 
ATOM     79  O   UNL A   1      38.176  38.234  40.043  1.00  0.00    -0.237 OA
ATOM     80  O   UNL A   1      38.682  36.336  41.545  1.00  0.00    -0.237 OA
ATOM     81  O   UNL A   1      40.486  37.850  40.824  1.00  0.00    -0.744 OA
ENDBRANCH  77  78
ENDBRANCH  49  72
BRANCH  61  82
ATOM     82  C   UNL A   1      45.216  30.233  35.411  1.00  0.00    -0.014 A 
ATOM     83  C   UNL A   1      45.337  29.161  36.313  1.00  0.00     0.010 A 
ATOM     84  C   UNL A   1      46.353  31.009  35.115  1.00  0.00     0.010 A 
ATOM     85  C   UNL A   1      46.560  28.896  36.935  1.00  0.00     0.020 A 
ATOM     86  C   UNL A   1      47.585  30.726  35.710  1.00  0.00     0.020 A 
ATOM     87  C   UNL A   1      47.677  29.681  36.629  1.00  0.00     0.054 A 
BRANCH  87  88
ATOM     88  S   UNL A   1      49.260  29.293  37.422  1.00  0.00     0.124 S 
ATOM     89  O   UNL A   1      49.116  27.867  37.706  1.00  0.00    -0.237 OA
ATOM     90  O   UNL A   1      50.231  29.634  36.385  1.00  0.00    -0.237 OA
ATOM     91  O   UNL A   1      49.282  30.162  38.597  1.00  0.00    -0.744 OA
ENDBRANCH  87  88
ENDBRANCH  61  82
ENDBRANCH  35  36
ENDBRANCH  27  30
ENDBRANCH  25  26
ENDBRANCH  24  25
ENDBRANCH  23  24
ENDBRANCH   1  23
TORSDOF 19
ENDMDL
MODEL 3
REMARK VINA RESULT:     -10.1      1.834      4.109
REMARK SMILES C[C@@H](C(=O)NCCCCCCNC(=O)c1ccc(-c2c3nc(c(-c4ccc(S(=O)(=O)[O-])cc4)c4ccc([nH]4)c(-c4ccc(S(=O)(=O)[O-])cc4)c4nc(c(-c5ccc(S(=O)(=O)[O-])cc5)c5ccc2[nH]5)C=C4)C=C3)cc1)c1ccc(C[C@H]2CCCC2=O)cc1
REMARK SMILES IDX 8 1 7 2 6 3 5 4 3 5 4 6 2 8 1 9 75 10 76 11 87 12 77 13
REMARK SMILES IDX 86 14 78 15 79 16 80 17 81 18 84 19 82 20 83 21 85 22 9 23
REMARK SMILES IDX 10 24 11 25 12 26 13 27 14 29 15 30 16 31 74 32 17 33 73 34
REMARK SMILES IDX 18 35 19 36 20 37 67 38 21 39 72 40 66 41 68 42 22 43 71 44
REMARK SMILES IDX 65 45 64 46 23 48 53 49 34 50 52 51 35 52 38 53 51 54 69 55
REMARK SMILES IDX 36 56 37 57 50 59 70 60 39 61 24 62 25 63 33 64 26 65 32 66
REMARK SMILES IDX 27 67 28 68 29 69 30 70 31 71 54 72 55 73 63 74 56 75 62 76
REMARK SMILES IDX 57 77 58 78 59 79 60 80 61 81 40 82 41 83 49 84 42 85 48 86
REMARK SMILES IDX 43 87 44 88 45 89 46 90 47 91
REMARK H PARENT 5 7 12 28 68 47 38 58
REMARK Flexibility Score: inf
ROOT
ATOM      1  C   UNL A   1      32.373  26.109  26.451  1.00  0.00     0.002 C 
ENDROOT
BRANCH   1   2
ATOM      2  C   UNL A   1      33.813  25.731  26.075  1.00  0.00     0.021 C 
BRANCH   2   3
ATOM      3  C   UNL A   1      34.023  24.235  25.838  1.00  0.00     0.116 C 
BRANCH   3   4
ATOM      4  N   UNL A   1      34.910  24.022  24.714  1.00  0.00    -0.356 N 
ATOM      5  C   UNL A   1      34.640  23.692  23.421  1.00  0.00     0.227 C 
ATOM      6  O   UNL A   1      35.621  23.461  22.711  1.00  0.00    -0.274 OA
ATOM      7  H   UNL A   1      35.866  24.134  24.919  1.00  0.00     0.163 HD
BRANCH   5   8
ATOM      8  C   UNL A   1      33.185  23.683  22.917  1.00  0.00     0.105 C 
ATOM      9  C   UNL A   1      33.023  23.087  21.515  1.00  0.00     0.023 C 
BRANCH   8  10
ATOM     10  C   UNL A   1      32.514  25.055  22.903  1.00  0.00    -0.036 A 
ATOM     11  C   UNL A   1      31.145  25.156  23.187  1.00  0.00     0.005 A 
ATOM     12  C   UNL A   1      33.200  26.209  22.501  1.00  0.00     0.005 A 
ATOM     13  C   UNL A   1      30.482  26.379  23.062  1.00  0.00     0.004 A 
ATOM     14  C   UNL A   1      32.543  27.432  22.385  1.00  0.00     0.004 A 
ATOM     15  C   UNL A   1      31.171  27.522  22.636  1.00  0.00    -0.047 A 
BRANCH  15  16
ATOM     16  C   UNL A   1      30.443  28.821  22.398  1.00  0.00     0.047 C 
BRANCH  16  17
ATOM     17  C   UNL A   1      29.568  29.310  23.558  1.00  0.00     0.060 C 
ATOM     18  C   UNL A   1      29.929  30.668  24.171  1.00  0.00     0.012 C 
ATOM     19  C   UNL A   1      28.132  29.522  23.141  1.00  0.00     0.136 C 
ATOM     20  C   UNL A   1      28.997  31.694  23.535  1.00  0.00     0.009 C 
ATOM     21  C   UNL A   1      27.695  30.958  23.256  1.00  0.00     0.076 C 
ATOM     22  O   UNL A   1      27.393  28.617  22.767  1.00  0.00    -0.299 OA
ENDBRANCH  16  17
ENDBRANCH  15  16
ENDBRANCH   8  10
ENDBRANCH   5   8
ENDBRANCH   3   4
ENDBRANCH   2   3
ENDBRANCH   1   2
BRANCH   1  23
ATOM     23  C   UNL A   1      32.049  27.601  26.345  1.00  0.00     0.002 C 
BRANCH  23  24
ATOM     24  C   UNL A   1      32.835  28.492  27.308  1.00  0.00     0.021 C 
BRANCH  24  25
ATOM     25  C   UNL A   1      33.913  29.334  26.638  1.00  0.00     0.116 C 
BRANCH  25  26
ATOM     26  N   UNL A   1      33.720  30.753  26.884  1.00  0.00    -0.352 N 
ATOM     27  C   UNL A   1      34.394  31.572  27.754  1.00  0.00     0.251 C 
ATOM     28  H   UNL A   1      33.011  31.186  26.355  1.00  0.00     0.163 HD
ATOM     29  O   UNL A   1      33.964  32.697  28.000  1.00  0.00    -0.269 OA
BRANCH  27  30
ATOM     30  C   UNL A   1      35.630  31.086  28.401  1.00  0.00     0.039 A 
ATOM     31  C   UNL A   1      36.837  31.738  28.141  1.00  0.00     0.014 A 
ATOM     32  C   UNL A   1      35.593  29.987  29.264  1.00  0.00     0.014 A 
ATOM     33  C   UNL A   1      38.003  31.309  28.778  1.00  0.00     0.010 A 
ATOM     34  C   UNL A   1      36.736  29.618  29.963  1.00  0.00     0.010 A 
ATOM     35  C   UNL A   1      37.959  30.258  29.710  1.00  0.00    -0.014 A 
BRANCH  35  36
ATOM     36  C   UNL A   1      39.185  29.785  30.399  1.00  0.00     0.031 A 
ATOM     37  C   UNL A   1      39.612  30.427  31.692  1.00  0.00     0.074 A 
ATOM     38  C   UNL A   1      39.941  28.819  29.840  1.00  0.00     0.049 A 
ATOM     39  N   UNL A   1      40.666  30.181  32.429  1.00  0.00    -0.248 NA
ATOM     40  C   UNL A   1      38.758  31.507  32.213  1.00  0.00     0.031 C 
ATOM     41  C   UNL A   1      39.651  28.142  28.575  1.00  0.00     0.029 A 
ATOM     42  N   UNL A   1      41.109  28.240  30.267  1.00  0.00    -0.354 N 
ATOM     43  C   UNL A   1      40.613  31.089  33.479  1.00  0.00     0.074 A 
ATOM     44  C   UNL A   1      39.459  31.929  33.254  1.00  0.00     0.031 C 
ATOM     45  C   UNL A   1      40.593  27.211  28.351  1.00  0.00     0.029 A 
ATOM     46  C   UNL A   1      41.575  27.255  29.429  1.00  0.00     0.049 A 
ATOM     47  H   UNL A   1      41.571  28.505  31.096  1.00  0.00     0.167 HD
ATOM     48  C   UNL A   1      41.439  31.203  34.548  1.00  0.00     0.031 A 
ATOM     49  C   UNL A   1      42.669  26.474  29.520  1.00  0.00     0.031 A 
ATOM     50  C   UNL A   1      42.583  30.359  34.770  1.00  0.00     0.049 A 
ATOM     51  C   UNL A   1      43.581  26.625  30.707  1.00  0.00     0.074 A 
ATOM     52  C   UNL A   1      43.449  30.350  35.848  1.00  0.00     0.029 A 
ATOM     53  N   UNL A   1      43.023  29.377  33.894  1.00  0.00    -0.354 N 
ATOM     54  N   UNL A   1      43.479  27.446  31.726  1.00  0.00    -0.248 NA
ATOM     55  C   UNL A   1      44.745  25.732  30.763  1.00  0.00     0.031 C 
ATOM     56  C   UNL A   1      44.451  29.407  35.593  1.00  0.00     0.029 A 
ATOM     57  C   UNL A   1      44.165  28.775  34.393  1.00  0.00     0.049 A 
ATOM     58  H   UNL A   1      42.587  29.142  33.043  1.00  0.00     0.167 HD
ATOM     59  C   UNL A   1      44.545  27.140  32.566  1.00  0.00     0.074 A 
ATOM     60  C   UNL A   1      45.274  26.057  31.936  1.00  0.00     0.031 C 
ATOM     61  C   UNL A   1      44.883  27.699  33.755  1.00  0.00     0.031 A 
BRANCH  48  62
ATOM     62  C   UNL A   1      41.143  32.301  35.538  1.00  0.00    -0.014 A 
ATOM     63  C   UNL A   1      40.342  32.072  36.673  1.00  0.00     0.010 A 
ATOM     64  C   UNL A   1      41.679  33.586  35.332  1.00  0.00     0.010 A 
ATOM     65  C   UNL A   1      40.029  33.120  37.543  1.00  0.00     0.020 A 
ATOM     66  C   UNL A   1      41.399  34.628  36.221  1.00  0.00     0.020 A 
ATOM     67  C   UNL A   1      40.553  34.394  37.306  1.00  0.00     0.054 A 
BRANCH  67  68
ATOM     68  S   UNL A   1      40.120  35.738  38.444  1.00  0.00     0.124 S 
ATOM     69  O   UNL A   1      39.820  36.828  37.520  1.00  0.00    -0.237 OA
ATOM     70  O   UNL A   1      38.973  35.190  39.164  1.00  0.00    -0.237 OA
ATOM     71  O   UNL A   1      41.329  35.917  39.247  1.00  0.00    -0.744 OA
ENDBRANCH  67  68
ENDBRANCH  48  62
BRANCH  49  72
ATOM     72  C   UNL A   1      42.932  25.447  28.475  1.00  0.00    -0.014 A 
ATOM     73  C   UNL A   1      43.808  25.728  27.409  1.00  0.00     0.010 A 
ATOM     74  C   UNL A   1      42.338  24.174  28.553  1.00  0.00     0.010 A 
ATOM     75  C   UNL A   1      44.076  24.759  26.438  1.00  0.00     0.020 A 
ATOM     76  C   UNL A   1      42.626  23.194  27.599  1.00  0.00     0.020 A 
ATOM     77  C   UNL A   1      43.488  23.495  26.544  1.00  0.00     0.054 A 
BRANCH  77  78
ATOM     78  S   UNL A   1      43.907  22.234  25.309  1.00  0.00     0.124 S 
ATOM     79  O   UNL A   1      43.218  22.728  24.122  1.00  0.00    -0.237 OA
ATOM     80  O   UNL A   1      45.366  22.306  25.270  1.00  0.00    -0.237 OA
ATOM     81  O   UNL A   1      43.368  21.002  25.881  1.00  0.00    -0.744 OA
ENDBRANCH  77  78
ENDBRANCH  49  72
BRANCH  61  82
ATOM     82  C   UNL A   1      46.065  27.116  34.486  1.00  0.00    -0.014 A 
ATOM     83  C   UNL A   1      47.364  27.627  34.320  1.00  0.00     0.010 A 
ATOM     84  C   UNL A   1      45.855  26.065  35.398  1.00  0.00     0.010 A 
ATOM     85  C   UNL A   1      48.437  27.073  35.024  1.00  0.00     0.020 A 
ATOM     86  C   UNL A   1      46.920  25.530  36.128  1.00  0.00     0.020 A 
ATOM     87  C   UNL A   1      48.207  26.026  35.923  1.00  0.00     0.054 A 
BRANCH  87  88
ATOM     88  S   UNL A   1      49.610  25.349  36.850  1.00  0.00     0.124 S 
ATOM     89  O   UNL A   1      50.693  25.445  35.875  1.00  0.00    -0.237 OA
ATOM     90  O   UNL A   1      49.708  26.255  37.991  1.00  0.00    -0.237 OA
ATOM     91  O   UNL A   1      49.186  23.989  37.177  1.00  0.00    -0.744 OA
ENDBRANCH  87  88
ENDBRANCH  61  82
ENDBRANCH  35  36
ENDBRANCH  27  30
ENDBRANCH  25  26
ENDBRANCH  24  25
ENDBRANCH  23  24
ENDBRANCH   1  23
TORSDOF 19
ENDMDL
