MODEL 1
REMARK VINA RESULT:     -11.6      0.000      0.000
REMARK SMILES Cc1ccccc1C(=O)Nc1ccc(OCC(=O)NCCCCCCNC(=O)c2ccc(-c3c4nc(c(-c5ccc(S(=O)(=O)[O-])cc5)c5ccc([nH]5)c(-c5ccc(S(=O)(=O)[O-])cc5)c5nc(c(-c6ccc(S(=O)(=O)[O-])cc6)c6ccc3[nH]6)C=C5)C=C4)cc2)c(-c2nc3ccccc3s2)c1
REMARK SMILES IDX 22 1 21 2 20 3 19 4 17 5 18 6 16 8 15 9 14 10 11 11 12 12
REMARK SMILES IDX 99 13 13 14 89 15 10 16 8 17 9 18 7 20 1 21 2 22 3 23 4 24
REMARK SMILES IDX 6 25 5 26 90 27 91 28 98 29 92 30 97 31 93 32 96 33 94 34
REMARK SMILES IDX 95 35 23 36 24 37 25 38 26 39 27 40 28 42 29 43 30 44 88 45
REMARK SMILES IDX 31 46 87 47 32 48 33 49 34 50 81 51 35 52 86 53 80 54 82 55
REMARK SMILES IDX 36 56 85 57 79 58 78 59 37 61 67 62 48 63 66 64 49 65 52 66
REMARK SMILES IDX 65 67 83 68 50 69 51 70 64 72 84 73 53 74 38 75 39 76 47 77
REMARK SMILES IDX 40 78 46 79 41 80 42 81 43 82 44 83 45 84 68 85 69 86 77 87
REMARK SMILES IDX 70 88 76 89 71 90 72 91 73 92 74 93 75 94 54 95 55 96 63 97
REMARK SMILES IDX 56 98 62 99 57 100 58 101 59 102 60 103 61 104
REMARK H PARENT 19 7 10 19 26 41 82 60 52 71
REMARK Flexibility Score: inf
ROOT
ATOM      1  C   UNL A   1      40.248  23.474  26.829  1.00  0.00     0.002 C 
ENDROOT
BRANCH   1   2
ATOM      2  C   UNL A   1      39.014  24.319  27.173  1.00  0.00     0.021 C 
BRANCH   2   3
ATOM      3  C   UNL A   1      37.733  23.970  26.422  1.00  0.00     0.116 C 
BRANCH   3   4
ATOM      4  N   UNL A   1      37.751  22.605  25.946  1.00  0.00    -0.353 N 
ATOM      5  C   UNL A   1      37.384  22.073  24.752  1.00  0.00     0.257 C 
ATOM      6  O   UNL A   1      37.520  20.854  24.634  1.00  0.00    -0.271 OA
ATOM      7  H   UNL A   1      38.087  21.950  26.599  1.00  0.00     0.163 HD
BRANCH   5   8
ATOM      8  C   UNL A   1      36.879  22.980  23.600  1.00  0.00     0.329 C 
BRANCH   8   9
ATOM      9  O   UNL A   1      35.538  22.941  23.112  1.00  0.00    -0.483 OA
BRANCH   9  10
ATOM     10  C   UNL A   1      34.643  23.573  23.932  1.00  0.00     0.130 A 
ATOM     11  C   UNL A   1      32.990  24.974  25.688  1.00  0.00     0.042 A 
ATOM     12  C   UNL A   1      33.843  25.674  24.836  1.00  0.00     0.030 A 
ATOM     13  C   UNL A   1      32.867  23.587  25.555  1.00  0.00     0.041 A 
ATOM     14  C   UNL A   1      34.698  24.972  23.988  1.00  0.00     0.049 A 
ATOM     15  C   UNL A   1      33.656  22.857  24.639  1.00  0.00     0.055 A 
BRANCH  11  16
ATOM     16  N   UNL A   1      32.312  25.710  26.669  1.00  0.00    -0.322 N 
ATOM     17  C   UNL A   1      31.578  26.873  26.570  1.00  0.00     0.255 C 
ATOM     18  O   UNL A   1      31.310  27.491  27.602  1.00  0.00    -0.269 OA
ATOM     19  H   UNL A   1      32.370  25.336  27.578  1.00  0.00     0.170 HD
BRANCH  17  20
ATOM     20  C   UNL A   1      31.024  27.375  25.275  1.00  0.00     0.043 A 
ATOM     21  C   UNL A   1      32.723  29.292  24.926  1.00  0.00     0.045 C 
ATOM     22  C   UNL A   1      31.518  28.477  24.546  1.00  0.00    -0.038 A 
ATOM     23  C   UNL A   1      30.877  28.839  23.345  1.00  0.00     0.004 A 
ATOM     24  C   UNL A   1      29.849  28.062  22.812  1.00  0.00     0.000 A 
ATOM     25  C   UNL A   1      30.011  26.581  24.705  1.00  0.00     0.014 A 
ATOM     26  C   UNL A   1      29.436  26.915  23.478  1.00  0.00     0.001 A 
ENDBRANCH  17  20
ENDBRANCH  11  16
BRANCH  15  27
ATOM     27  C   UNL A   1      33.433  21.391  24.563  1.00  0.00     0.128 A 
ATOM     28  N   UNL A   1      34.234  20.500  25.125  1.00  0.00    -0.236 NA
ATOM     29  S   UNL A   1      32.103  20.661  23.737  1.00  0.00    -0.114 S 
ATOM     30  C   UNL A   1      34.025  19.258  24.556  1.00  0.00     0.082 A 
ATOM     31  C   UNL A   1      32.971  19.190  23.648  1.00  0.00     0.055 A 
ATOM     32  C   UNL A   1      34.801  18.104  24.773  1.00  0.00     0.030 A 
ATOM     33  C   UNL A   1      32.732  18.060  22.856  1.00  0.00     0.021 A 
ATOM     34  C   UNL A   1      34.565  16.961  24.002  1.00  0.00     0.002 A 
ATOM     35  C   UNL A   1      33.564  16.952  23.033  1.00  0.00     0.002 A 
ENDBRANCH  15  27
ENDBRANCH   9  10
ENDBRANCH   8   9
ENDBRANCH   5   8
ENDBRANCH   3   4
ENDBRANCH   2   3
ENDBRANCH   1   2
BRANCH   1  36
ATOM     36  C   UNL A   1      40.625  22.347  27.802  1.00  0.00     0.002 C 
BRANCH  36  37
ATOM     37  C   UNL A   1      41.344  21.132  27.215  1.00  0.00     0.021 C 
BRANCH  37  38
ATOM     38  C   UNL A   1      42.138  21.428  25.951  1.00  0.00     0.116 C 
BRANCH  38  39
ATOM     39  N   UNL A   1      43.564  21.195  26.086  1.00  0.00    -0.352 N 
ATOM     40  C   UNL A   1      44.539  22.153  26.345  1.00  0.00     0.251 C 
ATOM     41  H   UNL A   1      43.872  20.266  25.985  1.00  0.00     0.163 HD
ATOM     42  O   UNL A   1      45.709  21.992  26.114  1.00  0.00    -0.269 OA
BRANCH  40  43
ATOM     43  C   UNL A   1      44.070  23.353  27.080  1.00  0.00     0.039 A 
ATOM     44  C   UNL A   1      43.908  24.528  26.337  1.00  0.00     0.014 A 
ATOM     45  C   UNL A   1      44.079  23.373  28.471  1.00  0.00     0.014 A 
ATOM     46  C   UNL A   1      43.910  25.756  26.994  1.00  0.00     0.010 A 
ATOM     47  C   UNL A   1      44.188  24.593  29.110  1.00  0.00     0.010 A 
ATOM     48  C   UNL A   1      44.138  25.782  28.370  1.00  0.00    -0.014 A 
BRANCH  48  49
ATOM     49  C   UNL A   1      44.377  27.006  29.124  1.00  0.00     0.031 A 
ATOM     50  C   UNL A   1      43.226  27.840  29.538  1.00  0.00     0.074 A 
ATOM     51  C   UNL A   1      45.628  27.345  29.509  1.00  0.00     0.049 A 
ATOM     52  N   UNL A   1      43.295  29.107  29.783  1.00  0.00    -0.248 NA
ATOM     53  C   UNL A   1      41.876  27.302  29.671  1.00  0.00     0.031 C 
ATOM     54  C   UNL A   1      45.993  28.365  30.490  1.00  0.00     0.029 A 
ATOM     55  N   UNL A   1      46.846  26.986  28.930  1.00  0.00    -0.354 N 
ATOM     56  C   UNL A   1      42.112  29.470  30.384  1.00  0.00     0.074 A 
ATOM     57  C   UNL A   1      41.232  28.336  30.218  1.00  0.00     0.031 C 
ATOM     58  C   UNL A   1      47.247  28.771  30.238  1.00  0.00     0.029 A 
ATOM     59  C   UNL A   1      47.668  28.123  29.007  1.00  0.00     0.049 A 
ATOM     60  H   UNL A   1      47.082  26.111  28.545  1.00  0.00     0.167 HD
ATOM     61  C   UNL A   1      42.036  30.626  31.100  1.00  0.00     0.031 A 
ATOM     62  C   UNL A   1      48.197  28.762  27.923  1.00  0.00     0.031 A 
ATOM     63  C   UNL A   1      43.285  31.379  31.053  1.00  0.00     0.049 A 
ATOM     64  C   UNL A   1      47.802  30.223  27.849  1.00  0.00     0.074 A 
ATOM     65  C   UNL A   1      44.348  31.495  31.934  1.00  0.00     0.029 A 
ATOM     66  N   UNL A   1      43.712  31.916  29.845  1.00  0.00    -0.354 N 
ATOM     67  N   UNL A   1      46.818  30.746  28.527  1.00  0.00    -0.248 NA
ATOM     68  C   UNL A   1      48.450  31.198  26.975  1.00  0.00     0.031 C 
ATOM     69  C   UNL A   1      45.447  32.041  31.224  1.00  0.00     0.029 A 
ATOM     70  C   UNL A   1      45.042  32.280  29.923  1.00  0.00     0.049 A 
ATOM     71  H   UNL A   1      43.147  32.020  29.045  1.00  0.00     0.167 HD
ATOM     72  C   UNL A   1      46.687  32.074  28.208  1.00  0.00     0.074 A 
ATOM     73  C   UNL A   1      47.739  32.310  27.236  1.00  0.00     0.031 C 
ATOM     74  C   UNL A   1      45.719  32.857  28.769  1.00  0.00     0.031 A 
BRANCH  61  75
ATOM     75  C   UNL A   1      40.930  30.889  32.095  1.00  0.00    -0.014 A 
ATOM     76  C   UNL A   1      39.672  31.328  31.636  1.00  0.00     0.010 A 
ATOM     77  C   UNL A   1      41.086  30.778  33.490  1.00  0.00     0.010 A 
ATOM     78  C   UNL A   1      38.663  31.742  32.516  1.00  0.00     0.020 A 
ATOM     79  C   UNL A   1      40.100  31.226  34.384  1.00  0.00     0.020 A 
ATOM     80  C   UNL A   1      38.895  31.717  33.889  1.00  0.00     0.054 A 
BRANCH  80  81
ATOM     81  S   UNL A   1      37.617  32.354  35.005  1.00  0.00     0.124 S 
ATOM     82  O   UNL A   1      38.081  33.713  35.275  1.00  0.00    -0.237 OA
ATOM     83  O   UNL A   1      36.411  32.249  34.190  1.00  0.00    -0.237 OA
ATOM     84  O   UNL A   1      37.676  31.447  36.151  1.00  0.00    -0.744 OA
ENDBRANCH  80  81
ENDBRANCH  61  75
BRANCH  62  85
ATOM     85  C   UNL A   1      48.434  27.881  26.746  1.00  0.00    -0.014 A 
ATOM     86  C   UNL A   1      47.349  27.655  25.874  1.00  0.00     0.010 A 
ATOM     87  C   UNL A   1      49.742  27.675  26.273  1.00  0.00     0.010 A 
ATOM     88  C   UNL A   1      47.568  27.412  24.514  1.00  0.00     0.020 A 
ATOM     89  C   UNL A   1      49.962  27.428  24.909  1.00  0.00     0.020 A 
ATOM     90  C   UNL A   1      48.875  27.372  24.031  1.00  0.00     0.054 A 
BRANCH  90  91
ATOM     91  S   UNL A   1      49.128  27.430  22.231  1.00  0.00     0.124 S 
ATOM     92  O   UNL A   1      48.312  28.573  21.835  1.00  0.00    -0.237 OA
ATOM     93  O   UNL A   1      50.575  27.626  22.127  1.00  0.00    -0.237 OA
ATOM     94  O   UNL A   1      48.649  26.127  21.781  1.00  0.00    -0.744 OA
ENDBRANCH  90  91
ENDBRANCH  62  85
BRANCH  74  95
ATOM     95  C   UNL A   1      45.348  34.268  28.365  1.00  0.00    -0.014 A 
ATOM     96  C   UNL A   1      45.399  34.758  27.052  1.00  0.00     0.010 A 
ATOM     97  C   UNL A   1      44.795  35.131  29.346  1.00  0.00     0.010 A 
ATOM     98  C   UNL A   1      44.973  36.061  26.742  1.00  0.00     0.020 A 
ATOM     99  C   UNL A   1      44.327  36.411  29.041  1.00  0.00     0.020 A 
ATOM    100  C   UNL A   1      44.442  36.880  27.740  1.00  0.00     0.054 A 
BRANCH 100 101
ATOM    101  S   UNL A   1      43.832  38.531  27.317  1.00  0.00     0.124 S 
ATOM    102  O   UNL A   1      44.860  39.006  26.395  1.00  0.00    -0.237 OA
ATOM    103  O   UNL A   1      42.529  38.255  26.712  1.00  0.00    -0.237 OA
ATOM    104  O   UNL A   1      43.778  39.217  28.605  1.00  0.00    -0.744 OA
ENDBRANCH 100 101
ENDBRANCH  74  95
ENDBRANCH  48  49
ENDBRANCH  40  43
ENDBRANCH  38  39
ENDBRANCH  37  38
ENDBRANCH  36  37
ENDBRANCH   1  36
TORSDOF 21
ENDMDL
MODEL 2
REMARK VINA RESULT:     -11.4      3.995      9.927
REMARK SMILES Cc1ccccc1C(=O)Nc1ccc(OCC(=O)NCCCCCCNC(=O)c2ccc(-c3c4nc(c(-c5ccc(S(=O)(=O)[O-])cc5)c5ccc([nH]5)c(-c5ccc(S(=O)(=O)[O-])cc5)c5nc(c(-c6ccc(S(=O)(=O)[O-])cc6)c6ccc3[nH]6)C=C5)C=C4)cc2)c(-c2nc3ccccc3s2)c1
REMARK SMILES IDX 22 1 21 2 20 3 19 4 17 5 18 6 16 8 15 9 14 10 11 11 12 12
REMARK SMILES IDX 99 13 13 14 89 15 10 16 8 17 9 18 7 20 1 21 2 22 3 23 4 24
REMARK SMILES IDX 6 25 5 26 90 27 91 28 98 29 92 30 97 31 93 32 96 33 94 34
REMARK SMILES IDX 95 35 23 36 24 37 25 38 26 39 27 40 28 42 29 43 30 44 88 45
REMARK SMILES IDX 31 46 87 47 32 48 33 49 34 50 81 51 35 52 86 53 80 54 82 55
REMARK SMILES IDX 36 56 85 57 79 58 78 59 37 61 67 62 48 63 66 64 49 65 52 66
REMARK SMILES IDX 65 67 83 68 50 69 51 70 64 72 84 73 53 74 38 75 39 76 47 77
REMARK SMILES IDX 40 78 46 79 41 80 42 81 43 82 44 83 45 84 68 85 69 86 77 87
REMARK SMILES IDX 70 88 76 89 71 90 72 91 73 92 74 93 75 94 54 95 55 96 63 97
REMARK SMILES IDX 56 98 62 99 57 100 58 101 59 102 60 103 61 104
REMARK H PARENT 19 7 10 19 26 41 82 60 52 71
REMARK Flexibility Score: inf
ROOT
ATOM      1  C   UNL A   1      39.220  26.718  28.123  1.00  0.00     0.002 C 
ENDROOT
BRANCH   1   2
ATOM      2  C   UNL A   1      39.441  25.368  27.429  1.00  0.00     0.021 C 
BRANCH   2   3
ATOM      3  C   UNL A   1      38.181  24.594  27.056  1.00  0.00     0.116 C 
BRANCH   3   4
ATOM      4  N   UNL A   1      38.484  23.229  26.691  1.00  0.00    -0.353 N 
ATOM      5  C   UNL A   1      38.004  22.447  25.690  1.00  0.00     0.257 C 
ATOM      6  O   UNL A   1      38.464  21.306  25.622  1.00  0.00    -0.271 OA
ATOM      7  H   UNL A   1      39.153  22.792  27.265  1.00  0.00     0.163 HD
BRANCH   5   8
ATOM      8  C   UNL A   1      36.979  23.005  24.668  1.00  0.00     0.329 C 
BRANCH   8   9
ATOM      9  O   UNL A   1      35.675  22.452  24.497  1.00  0.00    -0.483 OA
BRANCH   9  10
ATOM     10  C   UNL A   1      34.677  23.253  24.984  1.00  0.00     0.130 A 
ATOM     11  C   UNL A   1      32.789  24.954  26.131  1.00  0.00     0.042 A 
ATOM     12  C   UNL A   1      34.026  25.461  25.736  1.00  0.00     0.030 A 
ATOM     13  C   UNL A   1      32.454  23.633  25.821  1.00  0.00     0.041 A 
ATOM     14  C   UNL A   1      34.984  24.603  25.200  1.00  0.00     0.049 A 
ATOM     15  C   UNL A   1      33.373  22.762  25.194  1.00  0.00     0.055 A 
BRANCH  11  16
ATOM     16  N   UNL A   1      31.945  25.805  26.859  1.00  0.00    -0.322 N 
ATOM     17  C   UNL A   1      31.389  27.020  26.520  1.00  0.00     0.255 C 
ATOM     18  O   UNL A   1      30.911  27.720  27.415  1.00  0.00    -0.269 OA
ATOM     19  H   UNL A   1      31.713  25.482  27.760  1.00  0.00     0.170 HD
BRANCH  17  20
ATOM     20  C   UNL A   1      31.266  27.490  25.106  1.00  0.00     0.043 A 
ATOM     21  C   UNL A   1      29.188  26.086  24.483  1.00  0.00     0.045 C 
ATOM     22  C   UNL A   1      30.296  27.055  24.179  1.00  0.00    -0.038 A 
ATOM     23  C   UNL A   1      30.319  27.582  22.873  1.00  0.00     0.004 A 
ATOM     24  C   UNL A   1      31.202  28.603  22.522  1.00  0.00     0.000 A 
ATOM     25  C   UNL A   1      32.125  28.547  24.746  1.00  0.00     0.014 A 
ATOM     26  C   UNL A   1      32.085  29.106  23.468  1.00  0.00     0.001 A 
ENDBRANCH  17  20
ENDBRANCH  11  16
BRANCH  15  27
ATOM     27  C   UNL A   1      32.909  21.384  24.891  1.00  0.00     0.128 A 
ATOM     28  N   UNL A   1      32.900  20.404  25.780  1.00  0.00    -0.236 NA
ATOM     29  S   UNL A   1      32.324  20.885  23.345  1.00  0.00    -0.114 S 
ATOM     30  C   UNL A   1      32.824  19.185  25.133  1.00  0.00     0.082 A 
ATOM     31  C   UNL A   1      32.649  19.255  23.753  1.00  0.00     0.055 A 
ATOM     32  C   UNL A   1      32.958  17.918  25.729  1.00  0.00     0.030 A 
ATOM     33  C   UNL A   1      32.725  18.127  22.926  1.00  0.00     0.021 A 
ATOM     34  C   UNL A   1      33.019  16.779  24.920  1.00  0.00     0.002 A 
ATOM     35  C   UNL A   1      32.937  16.887  23.534  1.00  0.00     0.002 A 
ENDBRANCH  15  27
ENDBRANCH   9  10
ENDBRANCH   8   9
ENDBRANCH   5   8
ENDBRANCH   3   4
ENDBRANCH   2   3
ENDBRANCH   1   2
BRANCH   1  36
ATOM     36  C   UNL A   1      39.752  27.972  27.413  1.00  0.00     0.002 C 
BRANCH  36  37
ATOM     37  C   UNL A   1      38.992  29.278  27.646  1.00  0.00     0.021 C 
BRANCH  37  38
ATOM     38  C   UNL A   1      38.061  29.253  28.849  1.00  0.00     0.116 C 
BRANCH  38  39
ATOM     39  N   UNL A   1      37.477  30.543  29.167  1.00  0.00    -0.352 N 
ATOM     40  C   UNL A   1      37.756  31.326  30.281  1.00  0.00     0.251 C 
ATOM     41  H   UNL A   1      36.818  30.899  28.528  1.00  0.00     0.163 HD
ATOM     42  O   UNL A   1      37.027  32.197  30.683  1.00  0.00    -0.269 OA
BRANCH  40  43
ATOM     43  C   UNL A   1      39.103  31.134  30.872  1.00  0.00     0.039 A 
ATOM     44  C   UNL A   1      40.185  31.682  30.174  1.00  0.00     0.014 A 
ATOM     45  C   UNL A   1      39.296  30.213  31.897  1.00  0.00     0.014 A 
ATOM     46  C   UNL A   1      41.466  31.186  30.402  1.00  0.00     0.010 A 
ATOM     47  C   UNL A   1      40.547  29.648  32.045  1.00  0.00     0.010 A 
ATOM     48  C   UNL A   1      41.624  30.110  31.276  1.00  0.00    -0.014 A 
BRANCH  48  49
ATOM     49  C   UNL A   1      42.871  29.372  31.427  1.00  0.00     0.031 A 
ATOM     50  C   UNL A   1      43.061  28.104  30.687  1.00  0.00     0.074 A 
ATOM     51  C   UNL A   1      43.880  29.871  32.178  1.00  0.00     0.049 A 
ATOM     52  N   UNL A   1      43.860  27.158  31.055  1.00  0.00    -0.248 NA
ATOM     53  C   UNL A   1      42.314  27.787  29.473  1.00  0.00     0.031 C 
ATOM     54  C   UNL A   1      45.265  29.403  32.200  1.00  0.00     0.029 A 
ATOM     55  N   UNL A   1      43.812  30.769  33.243  1.00  0.00    -0.354 N 
ATOM     56  C   UNL A   1      43.962  26.279  30.001  1.00  0.00     0.074 A 
ATOM     57  C   UNL A   1      42.923  26.667  29.075  1.00  0.00     0.031 C 
ATOM     58  C   UNL A   1      45.816  29.755  33.372  1.00  0.00     0.029 A 
ATOM     59  C   UNL A   1      44.759  30.333  34.186  1.00  0.00     0.049 A 
ATOM     60  H   UNL A   1      43.220  31.552  33.319  1.00  0.00     0.167 HD
ATOM     61  C   UNL A   1      45.009  25.411  29.934  1.00  0.00     0.031 A 
ATOM     62  C   UNL A   1      44.453  29.956  35.462  1.00  0.00     0.031 A 
ATOM     63  C   UNL A   1      45.874  25.510  31.105  1.00  0.00     0.049 A 
ATOM     64  C   UNL A   1      44.890  28.541  35.779  1.00  0.00     0.074 A 
ATOM     65  C   UNL A   1      47.078  26.155  31.334  1.00  0.00     0.029 A 
ATOM     66  N   UNL A   1      45.381  25.139  32.350  1.00  0.00    -0.354 N 
ATOM     67  N   UNL A   1      45.214  27.659  34.874  1.00  0.00    -0.248 NA
ATOM     68  C   UNL A   1      44.954  27.993  37.132  1.00  0.00     0.031 C 
ATOM     69  C   UNL A   1      47.272  26.236  32.736  1.00  0.00     0.029 A 
ATOM     70  C   UNL A   1      46.201  25.616  33.354  1.00  0.00     0.049 A 
ATOM     71  H   UNL A   1      44.562  24.612  32.496  1.00  0.00     0.167 HD
ATOM     72  C   UNL A   1      45.519  26.465  35.477  1.00  0.00     0.074 A 
ATOM     73  C   UNL A   1      45.348  26.729  36.894  1.00  0.00     0.031 C 
ATOM     74  C   UNL A   1      45.879  25.363  34.752  1.00  0.00     0.031 A 
BRANCH  61  75
ATOM     75  C   UNL A   1      45.402  24.717  28.652  1.00  0.00    -0.014 A 
ATOM     76  C   UNL A   1      46.222  25.386  27.721  1.00  0.00     0.010 A 
ATOM     77  C   UNL A   1      44.950  23.436  28.282  1.00  0.00     0.010 A 
ATOM     78  C   UNL A   1      46.484  24.860  26.449  1.00  0.00     0.020 A 
ATOM     79  C   UNL A   1      45.171  22.913  26.997  1.00  0.00     0.020 A 
ATOM     80  C   UNL A   1      45.930  23.637  26.082  1.00  0.00     0.054 A 
BRANCH  80  81
ATOM     81  S   UNL A   1      46.196  23.024  24.397  1.00  0.00     0.124 S 
ATOM     82  O   UNL A   1      44.876  23.186  23.791  1.00  0.00    -0.237 OA
ATOM     83  O   UNL A   1      47.233  23.922  23.899  1.00  0.00    -0.237 OA
ATOM     84  O   UNL A   1      46.614  21.638  24.596  1.00  0.00    -0.744 OA
ENDBRANCH  80  81
ENDBRANCH  61  75
BRANCH  62  85
ATOM     85  C   UNL A   1      43.250  30.626  36.028  1.00  0.00    -0.014 A 
ATOM     86  C   UNL A   1      43.359  31.995  36.350  1.00  0.00     0.010 A 
ATOM     87  C   UNL A   1      41.973  30.075  35.817  1.00  0.00     0.010 A 
ATOM     88  C   UNL A   1      42.242  32.833  36.280  1.00  0.00     0.020 A 
ATOM     89  C   UNL A   1      40.851  30.916  35.750  1.00  0.00     0.020 A 
ATOM     90  C   UNL A   1      41.009  32.296  35.909  1.00  0.00     0.054 A 
BRANCH  90  91
ATOM     91  S   UNL A   1      39.671  33.444  35.463  1.00  0.00     0.124 S 
ATOM     92  O   UNL A   1      38.912  32.677  34.482  1.00  0.00    -0.237 OA
ATOM     93  O   UNL A   1      39.003  33.656  36.749  1.00  0.00    -0.237 OA
ATOM     94  O   UNL A   1      40.384  34.606  34.941  1.00  0.00    -0.744 OA
ENDBRANCH  90  91
ENDBRANCH  62  85
BRANCH  74  95
ATOM     95  C   UNL A   1      46.049  23.953  35.273  1.00  0.00    -0.014 A 
ATOM     96  C   UNL A   1      46.934  23.007  34.734  1.00  0.00     0.010 A 
ATOM     97  C   UNL A   1      45.366  23.581  36.460  1.00  0.00     0.010 A 
ATOM     98  C   UNL A   1      47.088  21.738  35.315  1.00  0.00     0.020 A 
ATOM     99  C   UNL A   1      45.546  22.338  37.072  1.00  0.00     0.020 A 
ATOM    100  C   UNL A   1      46.391  21.411  36.480  1.00  0.00     0.054 A 
BRANCH 100 101
ATOM    101  S   UNL A   1      46.649  19.797  37.259  1.00  0.00     0.124 S 
ATOM    102  O   UNL A   1      45.960  18.901  36.334  1.00  0.00    -0.237 OA
ATOM    103  O   UNL A   1      48.106  19.673  37.281  1.00  0.00    -0.237 OA
ATOM    104  O   UNL A   1      46.025  19.946  38.571  1.00  0.00    -0.744 OA
ENDBRANCH 100 101
ENDBRANCH  74  95
ENDBRANCH  48  49
ENDBRANCH  40  43
ENDBRANCH  38  39
ENDBRANCH  37  38
ENDBRANCH  36  37
ENDBRANCH   1  36
TORSDOF 21
ENDMDL
MODEL 3
REMARK VINA RESULT:     -11.4      1.580      2.137
REMARK SMILES Cc1ccccc1C(=O)Nc1ccc(OCC(=O)NCCCCCCNC(=O)c2ccc(-c3c4nc(c(-c5ccc(S(=O)(=O)[O-])cc5)c5ccc([nH]5)c(-c5ccc(S(=O)(=O)[O-])cc5)c5nc(c(-c6ccc(S(=O)(=O)[O-])cc6)c6ccc3[nH]6)C=C5)C=C4)cc2)c(-c2nc3ccccc3s2)c1
REMARK SMILES IDX 22 1 21 2 20 3 19 4 17 5 18 6 16 8 15 9 14 10 11 11 12 12
REMARK SMILES IDX 99 13 13 14 89 15 10 16 8 17 9 18 7 20 1 21 2 22 3 23 4 24
REMARK SMILES IDX 6 25 5 26 90 27 91 28 98 29 92 30 97 31 93 32 96 33 94 34
REMARK SMILES IDX 95 35 23 36 24 37 25 38 26 39 27 40 28 42 29 43 30 44 88 45
REMARK SMILES IDX 31 46 87 47 32 48 33 49 34 50 81 51 35 52 86 53 80 54 82 55
REMARK SMILES IDX 36 56 85 57 79 58 78 59 37 61 67 62 48 63 66 64 49 65 52 66
REMARK SMILES IDX 65 67 83 68 50 69 51 70 64 72 84 73 53 74 38 75 39 76 47 77
REMARK SMILES IDX 40 78 46 79 41 80 42 81 43 82 44 83 45 84 68 85 69 86 77 87
REMARK SMILES IDX 70 88 76 89 71 90 72 91 73 92 74 93 75 94 54 95 55 96 63 97
REMARK SMILES IDX 56 98 62 99 57 100 58 101 59 102 60 103 61 104
REMARK H PARENT 19 7 10 19 26 41 82 60 52 71
REMARK Flexibility Score: inf
ROOT
ATOM      1  C   UNL A   1      39.896  23.752  26.680  1.00  0.00     0.002 C 
ENDROOT
BRANCH   1   2
ATOM      2  C   UNL A   1      38.600  24.462  27.092  1.00  0.00     0.021 C 
BRANCH   2   3
ATOM      3  C   UNL A   1      37.338  24.034  26.351  1.00  0.00     0.116 C 
BRANCH   3   4
ATOM      4  N   UNL A   1      37.356  22.622  26.042  1.00  0.00    -0.353 N 
ATOM      5  C   UNL A   1      37.020  21.954  24.909  1.00  0.00     0.257 C 
ATOM      6  O   UNL A   1      37.147  20.729  24.941  1.00  0.00    -0.271 OA
ATOM      7  H   UNL A   1      37.664  22.048  26.778  1.00  0.00     0.163 HD
BRANCH   5   8
ATOM      8  C   UNL A   1      36.561  22.721  23.641  1.00  0.00     0.329 C 
BRANCH   8   9
ATOM      9  O   UNL A   1      35.208  22.732  23.188  1.00  0.00    -0.483 OA
BRANCH   9  10
ATOM     10  C   UNL A   1      34.372  23.465  23.987  1.00  0.00     0.130 A 
ATOM     11  C   UNL A   1      32.851  25.041  25.713  1.00  0.00     0.042 A 
ATOM     12  C   UNL A   1      33.844  25.631  24.932  1.00  0.00     0.030 A 
ATOM     13  C   UNL A   1      32.533  23.693  25.520  1.00  0.00     0.041 A 
ATOM     14  C   UNL A   1      34.631  24.837  24.100  1.00  0.00     0.049 A 
ATOM     15  C   UNL A   1      33.254  22.882  24.615  1.00  0.00     0.055 A 
BRANCH  11  16
ATOM     16  N   UNL A   1      32.237  25.838  26.688  1.00  0.00    -0.322 N 
ATOM     17  C   UNL A   1      31.529  27.015  26.567  1.00  0.00     0.255 C 
ATOM     18  O   UNL A   1      31.323  27.686  27.580  1.00  0.00    -0.269 OA
ATOM     19  H   UNL A   1      32.327  25.504  27.610  1.00  0.00     0.170 HD
BRANCH  17  20
ATOM     20  C   UNL A   1      30.930  27.473  25.276  1.00  0.00     0.043 A 
ATOM     21  C   UNL A   1      32.674  29.305  24.748  1.00  0.00     0.045 C 
ATOM     22  C   UNL A   1      31.425  28.518  24.468  1.00  0.00    -0.038 A 
ATOM     23  C   UNL A   1      30.738  28.844  23.282  1.00  0.00     0.004 A 
ATOM     24  C   UNL A   1      29.659  28.080  22.840  1.00  0.00     0.000 A 
ATOM     25  C   UNL A   1      29.863  26.689  24.796  1.00  0.00     0.014 A 
ATOM     26  C   UNL A   1      29.240  26.984  23.582  1.00  0.00     0.001 A 
ENDBRANCH  17  20
ENDBRANCH  11  16
BRANCH  15  27
ATOM     27  C   UNL A   1      32.821  21.469  24.471  1.00  0.00     0.128 A 
ATOM     28  N   UNL A   1      32.801  20.605  25.474  1.00  0.00    -0.236 NA
ATOM     29  S   UNL A   1      32.287  20.773  22.983  1.00  0.00    -0.114 S 
ATOM     30  C   UNL A   1      32.763  19.315  24.979  1.00  0.00     0.082 A 
ATOM     31  C   UNL A   1      32.626  19.212  23.597  1.00  0.00     0.055 A 
ATOM     32  C   UNL A   1      32.900  18.133  25.730  1.00  0.00     0.030 A 
ATOM     33  C   UNL A   1      32.743  17.993  22.918  1.00  0.00     0.021 A 
ATOM     34  C   UNL A   1      33.002  16.905  25.070  1.00  0.00     0.002 A 
ATOM     35  C   UNL A   1      32.958  16.841  23.679  1.00  0.00     0.002 A 
ENDBRANCH  15  27
ENDBRANCH   9  10
ENDBRANCH   8   9
ENDBRANCH   5   8
ENDBRANCH   3   4
ENDBRANCH   2   3
ENDBRANCH   1   2
BRANCH   1  36
ATOM     36  C   UNL A   1      40.488  22.734  27.667  1.00  0.00     0.002 C 
BRANCH  36  37
ATOM     37  C   UNL A   1      41.793  22.049  27.261  1.00  0.00     0.021 C 
BRANCH  37  38
ATOM     38  C   UNL A   1      42.653  22.862  26.304  1.00  0.00     0.116 C 
BRANCH  38  39
ATOM     39  N   UNL A   1      44.068  22.836  26.621  1.00  0.00    -0.352 N 
ATOM     40  C   UNL A   1      44.879  23.936  26.879  1.00  0.00     0.251 C 
ATOM     41  H   UNL A   1      44.497  21.951  26.659  1.00  0.00     0.163 HD
ATOM     42  O   UNL A   1      46.080  23.913  26.799  1.00  0.00    -0.269 OA
BRANCH  40  43
ATOM     43  C   UNL A   1      44.179  25.128  27.421  1.00  0.00     0.039 A 
ATOM     44  C   UNL A   1      44.048  26.228  26.565  1.00  0.00     0.014 A 
ATOM     45  C   UNL A   1      43.936  25.241  28.785  1.00  0.00     0.014 A 
ATOM     46  C   UNL A   1      43.822  27.491  27.108  1.00  0.00     0.010 A 
ATOM     47  C   UNL A   1      43.818  26.504  29.329  1.00  0.00     0.010 A 
ATOM     48  C   UNL A   1      43.795  27.631  28.495  1.00  0.00    -0.014 A 
BRANCH  48  49
ATOM     49  C   UNL A   1      43.783  28.920  29.175  1.00  0.00     0.031 A 
ATOM     50  C   UNL A   1      42.492  29.602  29.417  1.00  0.00     0.074 A 
ATOM     51  C   UNL A   1      44.929  29.460  29.648  1.00  0.00     0.049 A 
ATOM     52  N   UNL A   1      42.359  30.877  29.571  1.00  0.00    -0.248 NA
ATOM     53  C   UNL A   1      41.222  28.882  29.462  1.00  0.00     0.031 C 
ATOM     54  C   UNL A   1      45.046  30.579  30.580  1.00  0.00     0.029 A 
ATOM     55  N   UNL A   1      46.238  29.247  29.214  1.00  0.00    -0.354 N 
ATOM     56  C   UNL A   1      41.081  31.101  30.030  1.00  0.00     0.074 A 
ATOM     57  C   UNL A   1      40.389  29.843  29.868  1.00  0.00     0.031 C 
ATOM     58  C   UNL A   1      46.252  31.147  30.417  1.00  0.00     0.029 A 
ATOM     59  C   UNL A   1      46.882  30.493  29.282  1.00  0.00     0.049 A 
ATOM     60  H   UNL A   1      46.632  28.393  28.919  1.00  0.00     0.167 HD
ATOM     61  C   UNL A   1      40.773  32.275  30.648  1.00  0.00     0.031 A 
ATOM     62  C   UNL A   1      47.426  31.136  28.207  1.00  0.00     0.031 A 
ATOM     63  C   UNL A   1      41.904  33.197  30.661  1.00  0.00     0.049 A 
ATOM     64  C   UNL A   1      46.843  32.516  27.988  1.00  0.00     0.074 A 
ATOM     65  C   UNL A   1      42.844  33.519  31.627  1.00  0.00     0.029 A 
ATOM     66  N   UNL A   1      42.375  33.715  29.461  1.00  0.00    -0.354 N 
ATOM     67  N   UNL A   1      45.731  32.931  28.531  1.00  0.00    -0.248 NA
ATOM     68  C   UNL A   1      47.436  33.520  27.108  1.00  0.00     0.031 C 
ATOM     69  C   UNL A   1      43.924  34.175  30.983  1.00  0.00     0.029 A 
ATOM     70  C   UNL A   1      43.626  34.273  29.636  1.00  0.00     0.049 A 
ATOM     71  H   UNL A   1      41.886  33.688  28.607  1.00  0.00     0.167 HD
ATOM     72  C   UNL A   1      45.452  34.204  28.102  1.00  0.00     0.074 A 
ATOM     73  C   UNL A   1      46.555  34.531  27.218  1.00  0.00     0.031 C 
ATOM     74  C   UNL A   1      44.331  34.871  28.510  1.00  0.00     0.031 A 
BRANCH  61  75
ATOM     75  C   UNL A   1      39.545  32.434  31.513  1.00  0.00    -0.014 A 
ATOM     76  C   UNL A   1      38.507  33.292  31.097  1.00  0.00     0.010 A 
ATOM     77  C   UNL A   1      39.381  31.813  32.766  1.00  0.00     0.010 A 
ATOM     78  C   UNL A   1      37.424  33.605  31.928  1.00  0.00     0.020 A 
ATOM     79  C   UNL A   1      38.322  32.146  33.626  1.00  0.00     0.020 A 
ATOM     80  C   UNL A   1      37.353  33.052  33.204  1.00  0.00     0.054 A 
BRANCH  80  81
ATOM     81  S   UNL A   1      35.998  33.550  34.300  1.00  0.00     0.124 S 
ATOM     82  O   UNL A   1      34.871  32.780  33.779  1.00  0.00    -0.237 OA
ATOM     83  O   UNL A   1      36.491  33.138  35.611  1.00  0.00    -0.237 OA
ATOM     84  O   UNL A   1      35.901  34.994  34.096  1.00  0.00    -0.744 OA
ENDBRANCH  80  81
ENDBRANCH  61  75
BRANCH  62  85
ATOM     85  C   UNL A   1      47.903  30.228  27.127  1.00  0.00    -0.014 A 
ATOM     86  C   UNL A   1      49.267  29.870  27.134  1.00  0.00     0.010 A 
ATOM     87  C   UNL A   1      46.988  29.412  26.438  1.00  0.00     0.010 A 
ATOM     88  C   UNL A   1      49.680  28.634  26.627  1.00  0.00     0.020 A 
ATOM     89  C   UNL A   1      47.403  28.173  25.926  1.00  0.00     0.020 A 
ATOM     90  C   UNL A   1      48.731  27.765  26.091  1.00  0.00     0.054 A 
BRANCH  90  91
ATOM     91  S   UNL A   1      49.219  26.039  25.787  1.00  0.00     0.124 S 
ATOM     92  O   UNL A   1      50.652  26.157  25.539  1.00  0.00    -0.237 OA
ATOM     93  O   UNL A   1      48.850  25.387  27.045  1.00  0.00    -0.237 OA
ATOM     94  O   UNL A   1      48.408  25.658  24.635  1.00  0.00    -0.744 OA
ENDBRANCH  90  91
ENDBRANCH  62  85
BRANCH  74  95
ATOM     95  C   UNL A   1      43.813  36.186  27.969  1.00  0.00    -0.014 A 
ATOM     96  C   UNL A   1      42.677  36.319  27.157  1.00  0.00     0.010 A 
ATOM     97  C   UNL A   1      44.432  37.388  28.398  1.00  0.00     0.010 A 
ATOM     98  C   UNL A   1      42.215  37.581  26.749  1.00  0.00     0.020 A 
ATOM     99  C   UNL A   1      43.955  38.650  28.035  1.00  0.00     0.020 A 
ATOM    100  C   UNL A   1      42.859  38.739  27.189  1.00  0.00     0.054 A 
BRANCH 100 101
ATOM    101  S   UNL A   1      42.215  40.363  26.713  1.00  0.00     0.124 S 
ATOM    102  O   UNL A   1      43.440  41.147  26.580  1.00  0.00    -0.237 OA
ATOM    103  O   UNL A   1      41.513  40.083  25.462  1.00  0.00    -0.237 OA
ATOM    104  O   UNL A   1      41.353  40.730  27.833  1.00  0.00    -0.744 OA
ENDBRANCH 100 101
ENDBRANCH  74  95
ENDBRANCH  48  49
ENDBRANCH  40  43
ENDBRANCH  38  39
ENDBRANCH  37  38
ENDBRANCH  36  37
ENDBRANCH   1  36
TORSDOF 21
ENDMDL
