MODEL 1
REMARK VINA RESULT:      -9.6      0.000      0.000
REMARK SMILES CC[C@@](O)(C(=O)NCCCCCCNC(=O)c1ccc(-c2c3nc(c(-c4ccc(S(=O)(=O)[O-])cc4)c4ccc([nH]4)c(-c4ccc(S(=O)(=O)[O-])cc4)c4nc(c(-c5ccc(S(=O)(=O)[O-])cc5)c5ccc2[nH]5)C=C4)C=C3)cc1)[C@@H](C)c1ccc(OC(C)C)cc1
REMARK SMILES IDX 10 1 9 2 8 3 7 4 5 5 6 6 3 8 2 9 1 10 4 11 77 13 78 14 79 15
REMARK SMILES IDX 80 16 88 17 81 18 87 19 82 20 83 21 84 22 85 23 86 24 11 25
REMARK SMILES IDX 12 26 13 27 14 28 15 29 16 31 17 32 18 33 76 34 19 35 75 36
REMARK SMILES IDX 20 37 21 38 22 39 69 40 23 41 74 42 68 43 70 44 24 45 73 46
REMARK SMILES IDX 67 47 66 48 25 50 55 51 36 52 54 53 37 54 40 55 53 56 71 57
REMARK SMILES IDX 38 58 39 59 52 61 72 62 41 63 26 64 27 65 35 66 28 67 34 68
REMARK SMILES IDX 29 69 30 70 31 71 32 72 33 73 56 74 57 75 65 76 58 77 64 78
REMARK SMILES IDX 59 79 60 80 61 81 62 82 63 83 42 84 43 85 51 86 44 87 50 88
REMARK SMILES IDX 45 89 46 90 47 91 48 92 49 93
REMARK H PARENT 7 7 4 12 14 30 70 49 40 60
REMARK Flexibility Score: inf
ROOT
ATOM      1  C   UNL A   1      32.604  29.426  27.198  1.00  0.00     0.002 C 
ENDROOT
BRANCH   1   2
ATOM      2  C   UNL A   1      31.687  28.232  27.478  1.00  0.00     0.021 C 
BRANCH   2   3
ATOM      3  C   UNL A   1      31.129  27.579  26.214  1.00  0.00     0.116 C 
BRANCH   3   4
ATOM      4  N   UNL A   1      30.608  26.261  26.510  1.00  0.00    -0.354 N 
ATOM      5  C   UNL A   1      31.027  25.017  26.138  1.00  0.00     0.252 C 
ATOM      6  O   UNL A   1      30.373  24.082  26.610  1.00  0.00    -0.272 OA
ATOM      7  H   UNL A   1      29.807  26.263  27.083  1.00  0.00     0.163 HD
BRANCH   5   8
ATOM      8  C   UNL A   1      32.272  24.810  25.209  1.00  0.00     0.149 C 
BRANCH   8   9
ATOM      9  C   UNL A   1      32.227  25.779  23.989  1.00  0.00     0.043 C 
ATOM     10  C   UNL A   1      33.507  26.526  23.617  1.00  0.00     0.007 C 
ENDBRANCH   8   9
BRANCH   8  11
ATOM     11  O   UNL A   1      33.367  25.119  26.104  1.00  0.00    -0.379 OA
ATOM     12  H   UNL A   1      33.705  26.007  25.906  1.00  0.00     0.212 HD
ENDBRANCH   8  11
BRANCH   8  13
ATOM     13  C   UNL A   1      32.389  23.283  24.795  1.00  0.00     0.057 C 
ATOM     14  C   UNL A   1      31.761  22.997  23.409  1.00  0.00     0.016 C 
BRANCH  13  15
ATOM     15  C   UNL A   1      33.834  22.761  24.880  1.00  0.00    -0.042 A 
ATOM     16  C   UNL A   1      34.275  22.081  26.025  1.00  0.00     0.008 A 
ATOM     17  C   UNL A   1      34.783  23.019  23.884  1.00  0.00     0.008 A 
ATOM     18  C   UNL A   1      35.635  21.831  26.236  1.00  0.00     0.047 A 
ATOM     19  C   UNL A   1      36.138  22.743  24.085  1.00  0.00     0.047 A 
ATOM     20  C   UNL A   1      36.582  22.193  25.279  1.00  0.00     0.119 A 
BRANCH  20  21
ATOM     21  O   UNL A   1      37.874  21.979  25.651  1.00  0.00    -0.491 OA
BRANCH  21  22
ATOM     22  C   UNL A   1      38.602  20.811  25.262  1.00  0.00     0.167 C 
ATOM     23  C   UNL A   1      39.830  20.561  26.136  1.00  0.00     0.052 C 
ATOM     24  C   UNL A   1      37.727  19.585  24.997  1.00  0.00     0.052 C 
ENDBRANCH  21  22
ENDBRANCH  20  21
ENDBRANCH  13  15
ENDBRANCH   8  13
ENDBRANCH   5   8
ENDBRANCH   3   4
ENDBRANCH   2   3
ENDBRANCH   1   2
BRANCH   1  25
ATOM     25  C   UNL A   1      32.014  30.468  26.244  1.00  0.00     0.002 C 
BRANCH  25  26
ATOM     26  C   UNL A   1      31.816  31.854  26.861  1.00  0.00     0.021 C 
BRANCH  26  27
ATOM     27  C   UNL A   1      33.098  32.484  27.390  1.00  0.00     0.116 C 
BRANCH  27  28
ATOM     28  N   UNL A   1      32.910  33.889  27.712  1.00  0.00    -0.352 N 
ATOM     29  C   UNL A   1      33.470  34.618  28.727  1.00  0.00     0.251 C 
ATOM     30  H   UNL A   1      32.297  34.383  27.120  1.00  0.00     0.163 HD
ATOM     31  O   UNL A   1      33.029  35.732  29.005  1.00  0.00    -0.269 OA
BRANCH  29  32
ATOM     32  C   UNL A   1      34.600  34.050  29.490  1.00  0.00     0.039 A 
ATOM     33  C   UNL A   1      34.337  33.257  30.608  1.00  0.00     0.014 A 
ATOM     34  C   UNL A   1      35.917  34.300  29.094  1.00  0.00     0.014 A 
ATOM     35  C   UNL A   1      35.398  32.680  31.307  1.00  0.00     0.010 A 
ATOM     36  C   UNL A   1      36.967  33.656  29.739  1.00  0.00     0.010 A 
ATOM     37  C   UNL A   1      36.720  32.855  30.864  1.00  0.00    -0.014 A 
BRANCH  37  38
ATOM     38  C   UNL A   1      37.862  32.232  31.578  1.00  0.00     0.031 A 
ATOM     39  C   UNL A   1      38.306  32.781  32.908  1.00  0.00     0.074 A 
ATOM     40  C   UNL A   1      38.533  31.213  31.008  1.00  0.00     0.049 A 
ATOM     41  N   UNL A   1      39.302  32.401  33.666  1.00  0.00    -0.248 NA
ATOM     42  C   UNL A   1      37.548  33.925  33.441  1.00  0.00     0.031 C 
ATOM     43  C   UNL A   1      38.220  30.613  29.708  1.00  0.00     0.029 A 
ATOM     44  N   UNL A   1      39.619  30.500  31.450  1.00  0.00    -0.354 N 
ATOM     45  C   UNL A   1      39.303  33.270  34.752  1.00  0.00     0.074 A 
ATOM     46  C   UNL A   1      38.247  34.231  34.523  1.00  0.00     0.031 C 
ATOM     47  C   UNL A   1      39.069  29.600  29.477  1.00  0.00     0.029 A 
ATOM     48  C   UNL A   1      40.013  29.505  30.586  1.00  0.00     0.049 A 
ATOM     49  H   UNL A   1      40.072  30.684  32.303  1.00  0.00     0.167 HD
ATOM     50  C   UNL A   1      40.097  33.258  35.850  1.00  0.00     0.031 A 
ATOM     51  C   UNL A   1      41.023  28.617  30.676  1.00  0.00     0.031 A 
ATOM     52  C   UNL A   1      41.144  32.297  36.070  1.00  0.00     0.049 A 
ATOM     53  C   UNL A   1      41.906  28.634  31.893  1.00  0.00     0.074 A 
ATOM     54  C   UNL A   1      41.970  32.162  37.173  1.00  0.00     0.029 A 
ATOM     55  N   UNL A   1      41.516  31.311  35.168  1.00  0.00    -0.354 N 
ATOM     56  N   UNL A   1      41.851  29.422  32.941  1.00  0.00    -0.248 NA
ATOM     57  C   UNL A   1      42.978  27.632  31.946  1.00  0.00     0.031 C 
ATOM     58  C   UNL A   1      42.883  31.136  36.909  1.00  0.00     0.029 A 
ATOM     59  C   UNL A   1      42.581  30.583  35.675  1.00  0.00     0.049 A 
ATOM     60  H   UNL A   1      41.089  31.151  34.296  1.00  0.00     0.167 HD
ATOM     61  C   UNL A   1      42.860  28.987  33.794  1.00  0.00     0.074 A 
ATOM     62  C   UNL A   1      43.502  27.864  33.142  1.00  0.00     0.031 C 
ATOM     63  C   UNL A   1      43.215  29.469  35.012  1.00  0.00     0.031 A 
BRANCH  50  64
ATOM     64  C   UNL A   1      39.871  34.338  36.878  1.00  0.00    -0.014 A 
ATOM     65  C   UNL A   1      40.608  35.538  36.855  1.00  0.00     0.010 A 
ATOM     66  C   UNL A   1      38.907  34.151  37.884  1.00  0.00     0.010 A 
ATOM     67  C   UNL A   1      40.432  36.497  37.857  1.00  0.00     0.020 A 
ATOM     68  C   UNL A   1      38.701  35.124  38.867  1.00  0.00     0.020 A 
ATOM     69  C   UNL A   1      39.485  36.279  38.862  1.00  0.00     0.054 A 
BRANCH  69  70
ATOM     70  S   UNL A   1      39.289  37.532  40.158  1.00  0.00     0.124 S 
ATOM     71  O   UNL A   1      38.156  38.308  39.657  1.00  0.00    -0.237 OA
ATOM     72  O   UNL A   1      39.021  36.725  41.345  1.00  0.00    -0.237 OA
ATOM     73  O   UNL A   1      40.570  38.233  40.160  1.00  0.00    -0.744 OA
ENDBRANCH  69  70
ENDBRANCH  50  64
BRANCH  51  74
ATOM     74  C   UNL A   1      41.220  27.614  29.594  1.00  0.00    -0.014 A 
ATOM     75  C   UNL A   1      42.287  27.748  28.688  1.00  0.00     0.010 A 
ATOM     76  C   UNL A   1      40.368  26.499  29.487  1.00  0.00     0.010 A 
ATOM     77  C   UNL A   1      42.496  26.789  27.693  1.00  0.00     0.020 A 
ATOM     78  C   UNL A   1      40.590  25.524  28.511  1.00  0.00     0.020 A 
ATOM     79  C   UNL A   1      41.650  25.678  27.617  1.00  0.00     0.054 A 
BRANCH  79  80
ATOM     80  S   UNL A   1      41.990  24.410  26.363  1.00  0.00     0.124 S 
ATOM     81  O   UNL A   1      42.928  23.536  27.060  1.00  0.00    -0.237 OA
ATOM     82  O   UNL A   1      40.663  23.848  26.120  1.00  0.00    -0.237 OA
ATOM     83  O   UNL A   1      42.549  25.171  25.249  1.00  0.00    -0.744 OA
ENDBRANCH  79  80
ENDBRANCH  51  74
BRANCH  63  84
ATOM     84  C   UNL A   1      44.323  28.759  35.744  1.00  0.00    -0.014 A 
ATOM     85  C   UNL A   1      44.064  27.678  36.605  1.00  0.00     0.010 A 
ATOM     86  C   UNL A   1      45.657  29.149  35.519  1.00  0.00     0.010 A 
ATOM     87  C   UNL A   1      45.117  27.023  37.253  1.00  0.00     0.020 A 
ATOM     88  C   UNL A   1      46.712  28.477  36.139  1.00  0.00     0.020 A 
ATOM     89  C   UNL A   1      46.435  27.426  37.014  1.00  0.00     0.054 A 
BRANCH  89  90
ATOM     90  S   UNL A   1      47.782  26.533  37.834  1.00  0.00     0.124 S 
ATOM     91  O   UNL A   1      47.728  25.230  37.176  1.00  0.00    -0.237 OA
ATOM     92  O   UNL A   1      48.949  27.351  37.513  1.00  0.00    -0.237 OA
ATOM     93  O   UNL A   1      47.395  26.535  39.243  1.00  0.00    -0.744 OA
ENDBRANCH  89  90
ENDBRANCH  63  84
ENDBRANCH  37  38
ENDBRANCH  29  32
ENDBRANCH  27  28
ENDBRANCH  26  27
ENDBRANCH  25  26
ENDBRANCH   1  25
TORSDOF 22
ENDMDL
MODEL 2
REMARK VINA RESULT:      -8.5      6.436     12.619
REMARK SMILES CC[C@@](O)(C(=O)NCCCCCCNC(=O)c1ccc(-c2c3nc(c(-c4ccc(S(=O)(=O)[O-])cc4)c4ccc([nH]4)c(-c4ccc(S(=O)(=O)[O-])cc4)c4nc(c(-c5ccc(S(=O)(=O)[O-])cc5)c5ccc2[nH]5)C=C4)C=C3)cc1)[C@@H](C)c1ccc(OC(C)C)cc1
REMARK SMILES IDX 10 1 9 2 8 3 7 4 5 5 6 6 3 8 2 9 1 10 4 11 77 13 78 14 79 15
REMARK SMILES IDX 80 16 88 17 81 18 87 19 82 20 83 21 84 22 85 23 86 24 11 25
REMARK SMILES IDX 12 26 13 27 14 28 15 29 16 31 17 32 18 33 76 34 19 35 75 36
REMARK SMILES IDX 20 37 21 38 22 39 69 40 23 41 74 42 68 43 70 44 24 45 73 46
REMARK SMILES IDX 67 47 66 48 25 50 55 51 36 52 54 53 37 54 40 55 53 56 71 57
REMARK SMILES IDX 38 58 39 59 52 61 72 62 41 63 26 64 27 65 35 66 28 67 34 68
REMARK SMILES IDX 29 69 30 70 31 71 32 72 33 73 56 74 57 75 65 76 58 77 64 78
REMARK SMILES IDX 59 79 60 80 61 81 62 82 63 83 42 84 43 85 51 86 44 87 50 88
REMARK SMILES IDX 45 89 46 90 47 91 48 92 49 93
REMARK H PARENT 7 7 4 12 14 30 70 49 40 60
REMARK Flexibility Score: inf
ROOT
ATOM      1  C   UNL A   1      43.865  34.694  31.999  1.00  0.00     0.002 C 
ENDROOT
BRANCH   1   2
ATOM      2  C   UNL A   1      42.797  33.990  31.157  1.00  0.00     0.021 C 
BRANCH   2   3
ATOM      3  C   UNL A   1      41.414  33.978  31.808  1.00  0.00     0.116 C 
BRANCH   3   4
ATOM      4  N   UNL A   1      40.990  32.620  32.076  1.00  0.00    -0.354 N 
ATOM      5  C   UNL A   1      39.991  32.121  32.860  1.00  0.00     0.252 C 
ATOM      6  O   UNL A   1      39.866  30.893  32.830  1.00  0.00    -0.272 OA
ATOM      7  H   UNL A   1      41.517  31.933  31.608  1.00  0.00     0.163 HD
BRANCH   5   8
ATOM      8  C   UNL A   1      39.056  33.058  33.701  1.00  0.00     0.149 C 
BRANCH   8   9
ATOM      9  C   UNL A   1      39.868  33.830  34.784  1.00  0.00     0.043 C 
ATOM     10  C   UNL A   1      39.741  35.352  34.828  1.00  0.00     0.007 C 
ENDBRANCH   8   9
BRANCH   8  11
ATOM     11  O   UNL A   1      38.531  33.945  32.685  1.00  0.00    -0.379 OA
ATOM     12  H   UNL A   1      39.119  34.710  32.590  1.00  0.00     0.212 HD
ENDBRANCH   8  11
BRANCH   8  13
ATOM     13  C   UNL A   1      37.849  32.220  34.298  1.00  0.00     0.057 C 
ATOM     14  C   UNL A   1      37.935  32.074  35.837  1.00  0.00     0.016 C 
BRANCH  13  15
ATOM     15  C   UNL A   1      36.481  32.769  33.857  1.00  0.00    -0.042 A 
ATOM     16  C   UNL A   1      35.810  32.203  32.763  1.00  0.00     0.008 A 
ATOM     17  C   UNL A   1      35.898  33.894  34.453  1.00  0.00     0.008 A 
ATOM     18  C   UNL A   1      34.707  32.841  32.186  1.00  0.00     0.047 A 
ATOM     19  C   UNL A   1      34.779  34.513  33.890  1.00  0.00     0.047 A 
ATOM     20  C   UNL A   1      34.204  34.022  32.727  1.00  0.00     0.119 A 
BRANCH  20  21
ATOM     21  O   UNL A   1      33.190  34.587  32.014  1.00  0.00    -0.491 OA
BRANCH  21  22
ATOM     22  C   UNL A   1      32.753  35.931  32.233  1.00  0.00     0.167 C 
ATOM     23  C   UNL A   1      31.389  36.005  32.917  1.00  0.00     0.052 C 
ATOM     24  C   UNL A   1      33.826  36.853  32.813  1.00  0.00     0.052 C 
ENDBRANCH  21  22
ENDBRANCH  20  21
ENDBRANCH  13  15
ENDBRANCH   8  13
ENDBRANCH   5   8
ENDBRANCH   3   4
ENDBRANCH   2   3
ENDBRANCH   1   2
BRANCH   1  25
ATOM     25  C   UNL A   1      43.588  36.177  32.261  1.00  0.00     0.002 C 
BRANCH  25  26
ATOM     26  C   UNL A   1      44.762  37.106  31.946  1.00  0.00     0.021 C 
BRANCH  26  27
ATOM     27  C   UNL A   1      44.890  37.465  30.471  1.00  0.00     0.116 C 
BRANCH  27  28
ATOM     28  N   UNL A   1      46.251  37.841  30.128  1.00  0.00    -0.352 N 
ATOM     29  C   UNL A   1      47.279  37.041  29.703  1.00  0.00     0.251 C 
ATOM     30  H   UNL A   1      46.463  38.799  30.212  1.00  0.00     0.163 HD
ATOM     31  O   UNL A   1      48.430  37.475  29.681  1.00  0.00    -0.269 OA
BRANCH  29  32
ATOM     32  C   UNL A   1      46.994  35.654  29.284  1.00  0.00     0.039 A 
ATOM     33  C   UNL A   1      46.641  35.403  27.957  1.00  0.00     0.014 A 
ATOM     34  C   UNL A   1      47.082  34.605  30.204  1.00  0.00     0.014 A 
ATOM     35  C   UNL A   1      46.414  34.090  27.543  1.00  0.00     0.010 A 
ATOM     36  C   UNL A   1      46.940  33.292  29.770  1.00  0.00     0.010 A 
ATOM     37  C   UNL A   1      46.585  33.022  28.440  1.00  0.00    -0.014 A 
BRANCH  37  38
ATOM     38  C   UNL A   1      46.373  31.616  28.015  1.00  0.00     0.031 A 
ATOM     39  C   UNL A   1      44.994  31.014  28.074  1.00  0.00     0.074 A 
ATOM     40  C   UNL A   1      47.423  30.865  27.632  1.00  0.00     0.049 A 
ATOM     41  N   UNL A   1      44.612  29.796  27.784  1.00  0.00    -0.248 NA
ATOM     42  C   UNL A   1      43.907  31.887  28.548  1.00  0.00     0.031 C 
ATOM     43  C   UNL A   1      48.813  31.324  27.564  1.00  0.00     0.029 A 
ATOM     44  N   UNL A   1      47.485  29.556  27.227  1.00  0.00    -0.354 N 
ATOM     45  C   UNL A   1      43.250  29.752  28.060  1.00  0.00     0.074 A 
ATOM     46  C   UNL A   1      42.886  31.046  28.595  1.00  0.00     0.031 C 
ATOM     47  C   UNL A   1      49.583  30.324  27.105  1.00  0.00     0.029 A 
ATOM     48  C   UNL A   1      48.753  29.143  26.890  1.00  0.00     0.049 A 
ATOM     49  H   UNL A   1      46.697  28.968  27.182  1.00  0.00     0.167 HD
ATOM     50  C   UNL A   1      42.375  28.736  27.867  1.00  0.00     0.031 A 
ATOM     51  C   UNL A   1      49.198  27.947  26.458  1.00  0.00     0.031 A 
ATOM     52  C   UNL A   1      42.745  27.452  27.333  1.00  0.00     0.049 A 
ATOM     53  C   UNL A   1      48.215  26.824  26.270  1.00  0.00     0.074 A 
ATOM     54  C   UNL A   1      41.929  26.372  27.046  1.00  0.00     0.029 A 
ATOM     55  N   UNL A   1      44.040  27.072  27.012  1.00  0.00    -0.354 N 
ATOM     56  N   UNL A   1      46.919  26.821  26.474  1.00  0.00    -0.248 NA
ATOM     57  C   UNL A   1      48.754  25.549  25.780  1.00  0.00     0.031 C 
ATOM     58  C   UNL A   1      42.739  25.318  26.612  1.00  0.00     0.029 A 
ATOM     59  C   UNL A   1      44.050  25.762  26.559  1.00  0.00     0.049 A 
ATOM     60  H   UNL A   1      44.835  27.646  27.094  1.00  0.00     0.167 HD
ATOM     61  C   UNL A   1      46.482  25.553  26.103  1.00  0.00     0.074 A 
ATOM     62  C   UNL A   1      47.651  24.823  25.657  1.00  0.00     0.031 C 
ATOM     63  C   UNL A   1      45.223  25.045  26.122  1.00  0.00     0.031 A 
BRANCH  50  64
ATOM     64  C   UNL A   1      40.940  28.972  28.265  1.00  0.00    -0.014 A 
ATOM     65  C   UNL A   1      39.965  29.334  27.316  1.00  0.00     0.010 A 
ATOM     66  C   UNL A   1      40.559  28.832  29.611  1.00  0.00     0.010 A 
ATOM     67  C   UNL A   1      38.656  29.616  27.716  1.00  0.00     0.020 A 
ATOM     68  C   UNL A   1      39.241  29.075  30.010  1.00  0.00     0.020 A 
ATOM     69  C   UNL A   1      38.305  29.493  29.063  1.00  0.00     0.054 A 
BRANCH  69  70
ATOM     70  S   UNL A   1      36.603  29.880  29.557  1.00  0.00     0.124 S 
ATOM     71  O   UNL A   1      36.512  29.224  30.860  1.00  0.00    -0.237 OA
ATOM     72  O   UNL A   1      36.603  31.340  29.587  1.00  0.00    -0.237 OA
ATOM     73  O   UNL A   1      35.790  29.280  28.502  1.00  0.00    -0.744 OA
ENDBRANCH  69  70
ENDBRANCH  50  64
BRANCH  51  74
ATOM     74  C   UNL A   1      50.641  27.770  26.137  1.00  0.00    -0.014 A 
ATOM     75  C   UNL A   1      51.034  27.279  24.879  1.00  0.00     0.010 A 
ATOM     76  C   UNL A   1      51.631  28.129  27.070  1.00  0.00     0.010 A 
ATOM     77  C   UNL A   1      52.388  27.146  24.562  1.00  0.00     0.020 A 
ATOM     78  C   UNL A   1      52.987  28.023  26.747  1.00  0.00     0.020 A 
ATOM     79  C   UNL A   1      53.356  27.527  25.495  1.00  0.00     0.054 A 
BRANCH  79  80
ATOM     80  S   UNL A   1      55.107  27.415  25.030  1.00  0.00     0.124 S 
ATOM     81  O   UNL A   1      55.280  28.607  24.207  1.00  0.00    -0.237 OA
ATOM     82  O   UNL A   1      55.777  27.438  26.328  1.00  0.00    -0.237 OA
ATOM     83  O   UNL A   1      55.190  26.142  24.317  1.00  0.00    -0.744 OA
ENDBRANCH  79  80
ENDBRANCH  51  74
BRANCH  63  84
ATOM     84  C   UNL A   1      45.033  23.643  25.605  1.00  0.00    -0.014 A 
ATOM     85  C   UNL A   1      45.080  23.351  24.231  1.00  0.00     0.010 A 
ATOM     86  C   UNL A   1      44.860  22.589  26.523  1.00  0.00     0.010 A 
ATOM     87  C   UNL A   1      44.922  22.036  23.782  1.00  0.00     0.020 A 
ATOM     88  C   UNL A   1      44.736  21.271  26.080  1.00  0.00     0.020 A 
ATOM     89  C   UNL A   1      44.753  21.003  24.711  1.00  0.00     0.054 A 
BRANCH  89  90
ATOM     90  S   UNL A   1      44.594  19.302  24.105  1.00  0.00     0.124 S 
ATOM     91  O   UNL A   1      44.493  19.501  22.662  1.00  0.00    -0.237 OA
ATOM     92  O   UNL A   1      45.833  18.681  24.569  1.00  0.00    -0.237 OA
ATOM     93  O   UNL A   1      43.379  18.814  24.753  1.00  0.00    -0.744 OA
ENDBRANCH  89  90
ENDBRANCH  63  84
ENDBRANCH  37  38
ENDBRANCH  29  32
ENDBRANCH  27  28
ENDBRANCH  26  27
ENDBRANCH  25  26
ENDBRANCH   1  25
TORSDOF 22
ENDMDL
MODEL 3
REMARK VINA RESULT:      -8.4      5.263     15.868
REMARK SMILES CC[C@@](O)(C(=O)NCCCCCCNC(=O)c1ccc(-c2c3nc(c(-c4ccc(S(=O)(=O)[O-])cc4)c4ccc([nH]4)c(-c4ccc(S(=O)(=O)[O-])cc4)c4nc(c(-c5ccc(S(=O)(=O)[O-])cc5)c5ccc2[nH]5)C=C4)C=C3)cc1)[C@@H](C)c1ccc(OC(C)C)cc1
REMARK SMILES IDX 10 1 9 2 8 3 7 4 5 5 6 6 3 8 2 9 1 10 4 11 77 13 78 14 79 15
REMARK SMILES IDX 80 16 88 17 81 18 87 19 82 20 83 21 84 22 85 23 86 24 11 25
REMARK SMILES IDX 12 26 13 27 14 28 15 29 16 31 17 32 18 33 76 34 19 35 75 36
REMARK SMILES IDX 20 37 21 38 22 39 69 40 23 41 74 42 68 43 70 44 24 45 73 46
REMARK SMILES IDX 67 47 66 48 25 50 55 51 36 52 54 53 37 54 40 55 53 56 71 57
REMARK SMILES IDX 38 58 39 59 52 61 72 62 41 63 26 64 27 65 35 66 28 67 34 68
REMARK SMILES IDX 29 69 30 70 31 71 32 72 33 73 56 74 57 75 65 76 58 77 64 78
REMARK SMILES IDX 59 79 60 80 61 81 62 82 63 83 42 84 43 85 51 86 44 87 50 88
REMARK SMILES IDX 45 89 46 90 47 91 48 92 49 93
REMARK H PARENT 7 7 4 12 14 30 70 49 40 60
REMARK Flexibility Score: inf
ROOT
ATOM      1  C   UNL A   1      49.770  22.492  35.134  1.00  0.00     0.002 C 
ENDROOT
BRANCH   1   2
ATOM      2  C   UNL A   1      50.360  21.740  36.330  1.00  0.00     0.021 C 
BRANCH   2   3
ATOM      3  C   UNL A   1      49.800  20.328  36.502  1.00  0.00     0.116 C 
BRANCH   3   4
ATOM      4  N   UNL A   1      50.632  19.558  37.403  1.00  0.00    -0.354 N 
ATOM      5  C   UNL A   1      50.428  19.133  38.683  1.00  0.00     0.252 C 
ATOM      6  O   UNL A   1      51.337  18.443  39.157  1.00  0.00    -0.272 OA
ATOM      7  H   UNL A   1      51.501  19.292  37.023  1.00  0.00     0.163 HD
BRANCH   5   8
ATOM      8  C   UNL A   1      49.114  19.474  39.466  1.00  0.00     0.149 C 
BRANCH   8   9
ATOM      9  C   UNL A   1      49.093  20.971  39.899  1.00  0.00     0.043 C 
ATOM     10  C   UNL A   1      50.432  21.675  40.114  1.00  0.00     0.007 C 
ENDBRANCH   8   9
BRANCH   8  11
ATOM     11  O   UNL A   1      48.095  19.183  38.480  1.00  0.00    -0.379 OA
ATOM     12  H   UNL A   1      47.464  18.543  38.847  1.00  0.00     0.212 HD
ENDBRANCH   8  11
BRANCH   8  13
ATOM     13  C   UNL A   1      48.930  18.467  40.678  1.00  0.00     0.057 C 
ATOM     14  C   UNL A   1      49.528  19.013  41.997  1.00  0.00     0.016 C 
BRANCH  13  15
ATOM     15  C   UNL A   1      47.466  18.028  40.859  1.00  0.00    -0.042 A 
ATOM     16  C   UNL A   1      47.044  16.767  40.413  1.00  0.00     0.008 A 
ATOM     17  C   UNL A   1      46.487  18.884  41.378  1.00  0.00     0.008 A 
ATOM     18  C   UNL A   1      45.684  16.451  40.327  1.00  0.00     0.047 A 
ATOM     19  C   UNL A   1      45.131  18.554  41.316  1.00  0.00     0.047 A 
ATOM     20  C   UNL A   1      44.715  17.359  40.748  1.00  0.00     0.119 A 
BRANCH  20  21
ATOM     21  O   UNL A   1      43.431  16.965  40.522  1.00  0.00    -0.491 OA
BRANCH  21  22
ATOM     22  C   UNL A   1      42.773  15.987  41.334  1.00  0.00     0.167 C 
ATOM     23  C   UNL A   1      42.210  14.824  40.520  1.00  0.00     0.052 C 
ATOM     24  C   UNL A   1      43.549  15.591  42.591  1.00  0.00     0.052 C 
ENDBRANCH  21  22
ENDBRANCH  20  21
ENDBRANCH  13  15
ENDBRANCH   8  13
ENDBRANCH   5   8
ENDBRANCH   3   4
ENDBRANCH   2   3
ENDBRANCH   1   2
BRANCH   1  25
ATOM     25  C   UNL A   1      49.771  24.016  35.280  1.00  0.00     0.002 C 
BRANCH  25  26
ATOM     26  C   UNL A   1      48.449  24.689  34.910  1.00  0.00     0.021 C 
BRANCH  26  27
ATOM     27  C   UNL A   1      47.382  24.598  35.993  1.00  0.00     0.116 C 
BRANCH  27  28
ATOM     28  N   UNL A   1      47.798  25.270  37.213  1.00  0.00    -0.352 N 
ATOM     29  C   UNL A   1      47.459  26.519  37.660  1.00  0.00     0.251 C 
ATOM     30  H   UNL A   1      48.406  24.759  37.794  1.00  0.00     0.163 HD
ATOM     31  O   UNL A   1      48.079  27.031  38.591  1.00  0.00    -0.269 OA
BRANCH  29  32
ATOM     32  C   UNL A   1      46.351  27.247  37.010  1.00  0.00     0.039 A 
ATOM     33  C   UNL A   1      46.645  28.273  36.110  1.00  0.00     0.014 A 
ATOM     34  C   UNL A   1      45.024  26.910  37.289  1.00  0.00     0.014 A 
ATOM     35  C   UNL A   1      45.604  28.935  35.458  1.00  0.00     0.010 A 
ATOM     36  C   UNL A   1      43.993  27.511  36.575  1.00  0.00     0.010 A 
ATOM     37  C   UNL A   1      44.271  28.543  35.667  1.00  0.00    -0.014 A 
BRANCH  37  38
ATOM     38  C   UNL A   1      43.150  29.217  34.966  1.00  0.00     0.031 A 
ATOM     39  C   UNL A   1      42.762  28.782  33.578  1.00  0.00     0.074 A 
ATOM     40  C   UNL A   1      42.521  30.254  35.552  1.00  0.00     0.049 A 
ATOM     41  N   UNL A   1      41.840  29.270  32.788  1.00  0.00    -0.248 NA
ATOM     42  C   UNL A   1      43.530  27.672  32.991  1.00  0.00     0.031 C 
ATOM     43  C   UNL A   1      42.826  30.791  36.880  1.00  0.00     0.029 A 
ATOM     44  N   UNL A   1      41.491  31.042  35.103  1.00  0.00    -0.354 N 
ATOM     45  C   UNL A   1      41.931  28.542  31.607  1.00  0.00     0.074 A 
ATOM     46  C   UNL A   1      43.036  27.622  31.763  1.00  0.00     0.031 C 
ATOM     47  C   UNL A   1      41.977  31.793  37.154  1.00  0.00     0.029 A 
ATOM     48  C   UNL A   1      41.098  32.002  36.007  1.00  0.00     0.049 A 
ATOM     49  H   UNL A   1      41.074  30.932  34.219  1.00  0.00     0.167 HD
ATOM     50  C   UNL A   1      41.154  28.617  30.499  1.00  0.00     0.031 A 
ATOM     51  C   UNL A   1      40.139  32.944  35.922  1.00  0.00     0.031 A 
ATOM     52  C   UNL A   1      40.056  29.534  30.352  1.00  0.00     0.049 A 
ATOM     53  C   UNL A   1      39.301  33.026  34.675  1.00  0.00     0.074 A 
ATOM     54  C   UNL A   1      39.172  29.655  29.295  1.00  0.00     0.029 A 
ATOM     55  N   UNL A   1      39.696  30.494  31.287  1.00  0.00    -0.354 N 
ATOM     56  N   UNL A   1      39.359  32.285  33.593  1.00  0.00    -0.248 NA
ATOM     57  C   UNL A   1      38.259  34.060  34.645  1.00  0.00     0.031 C 
ATOM     58  C   UNL A   1      38.318  30.731  29.562  1.00  0.00     0.029 A 
ATOM     59  C   UNL A   1      38.622  31.233  30.818  1.00  0.00     0.049 A 
ATOM     60  H   UNL A   1      40.138  30.632  32.155  1.00  0.00     0.167 HD
ATOM     61  C   UNL A   1      38.338  32.743  32.768  1.00  0.00     0.074 A 
ATOM     62  C   UNL A   1      37.676  33.817  33.479  1.00  0.00     0.031 C 
ATOM     63  C   UNL A   1      37.975  32.304  31.535  1.00  0.00     0.031 A 
BRANCH  50  64
ATOM     64  C   UNL A   1      41.491  27.696  29.354  1.00  0.00    -0.014 A 
ATOM     65  C   UNL A   1      40.898  26.424  29.236  1.00  0.00     0.010 A 
ATOM     66  C   UNL A   1      42.417  28.106  28.379  1.00  0.00     0.010 A 
ATOM     67  C   UNL A   1      41.275  25.558  28.205  1.00  0.00     0.020 A 
ATOM     68  C   UNL A   1      42.770  27.259  27.325  1.00  0.00     0.020 A 
ATOM     69  C   UNL A   1      42.216  25.979  27.261  1.00  0.00     0.054 A 
BRANCH  69  70
ATOM     70  S   UNL A   1      42.699  24.830  25.944  1.00  0.00     0.124 S 
ATOM     71  O   UNL A   1      42.665  25.692  24.764  1.00  0.00    -0.237 OA
ATOM     72  O   UNL A   1      44.028  24.397  26.367  1.00  0.00    -0.237 OA
ATOM     73  O   UNL A   1      41.666  23.797  25.988  1.00  0.00    -0.744 OA
ENDBRANCH  69  70
ENDBRANCH  50  64
BRANCH  51  74
ATOM     74  C   UNL A   1      39.900  33.858  37.072  1.00  0.00    -0.014 A 
ATOM     75  C   UNL A   1      40.492  35.133  37.101  1.00  0.00     0.010 A 
ATOM     76  C   UNL A   1      39.048  33.476  38.125  1.00  0.00     0.010 A 
ATOM     77  C   UNL A   1      40.241  36.007  38.162  1.00  0.00     0.020 A 
ATOM     78  C   UNL A   1      38.773  34.357  39.174  1.00  0.00     0.020 A 
ATOM     79  C   UNL A   1      39.376  35.616  39.189  1.00  0.00     0.054 A 
BRANCH  79  80
ATOM     80  S   UNL A   1      39.008  36.798  40.516  1.00  0.00     0.124 S 
ATOM     81  O   UNL A   1      40.331  37.045  41.079  1.00  0.00    -0.237 OA
ATOM     82  O   UNL A   1      38.412  37.913  39.784  1.00  0.00    -0.237 OA
ATOM     83  O   UNL A   1      38.085  36.065  41.380  1.00  0.00    -0.744 OA
ENDBRANCH  79  80
ENDBRANCH  51  74
BRANCH  63  84
ATOM     84  C   UNL A   1      36.781  32.957  30.890  1.00  0.00    -0.014 A 
ATOM     85  C   UNL A   1      35.472  32.706  31.338  1.00  0.00     0.010 A 
ATOM     86  C   UNL A   1      36.981  33.883  29.849  1.00  0.00     0.010 A 
ATOM     87  C   UNL A   1      34.384  33.344  30.734  1.00  0.00     0.020 A 
ATOM     88  C   UNL A   1      35.900  34.547  29.265  1.00  0.00     0.020 A 
ATOM     89  C   UNL A   1      34.605  34.262  29.702  1.00  0.00     0.054 A 
BRANCH  89  90
ATOM     90  S   UNL A   1      33.181  35.107  28.965  1.00  0.00     0.124 S 
ATOM     91  O   UNL A   1      32.325  35.330  30.127  1.00  0.00    -0.237 OA
ATOM     92  O   UNL A   1      33.784  36.307  28.389  1.00  0.00    -0.237 OA
ATOM     93  O   UNL A   1      32.671  34.144  27.991  1.00  0.00    -0.744 OA
ENDBRANCH  89  90
ENDBRANCH  63  84
ENDBRANCH  37  38
ENDBRANCH  29  32
ENDBRANCH  27  28
ENDBRANCH  26  27
ENDBRANCH  25  26
ENDBRANCH   1  25
TORSDOF 22
ENDMDL
