MODEL 1
REMARK VINA RESULT:     -10.5      0.000      0.000
REMARK SMILES N#Cc1ccc(C(=O)N[C@@H]2C=C[C@@H](C(=O)NCCCCCCNC(=O)c3ccc(-c4c5nc(c(-c6ccc(S(=O)(=O)[O-])cc6)c6ccc([nH]6)c(-c6ccc(S(=O)(=O)[O-])cc6)c6nc(c(-c7ccc(S(=O)(=O)[O-])cc7)c7ccc4[nH]7)C=C6)C=C5)cc3)C2)cc1
REMARK SMILES IDX 19 1 18 2 17 3 16 4 14 5 15 6 13 8 10 9 11 10 86 11 12 12
REMARK SMILES IDX 9 13 7 14 8 15 6 17 3 18 4 19 88 20 5 21 87 22 2 23 1 24
REMARK SMILES IDX 20 25 21 26 22 27 23 28 24 29 25 31 26 32 27 33 85 34 28 35
REMARK SMILES IDX 84 36 29 37 30 38 31 39 78 40 32 41 83 42 77 43 79 44 33 45
REMARK SMILES IDX 82 46 76 47 75 48 34 50 64 51 45 52 63 53 46 54 49 55 62 56
REMARK SMILES IDX 80 57 47 58 48 59 61 61 81 62 50 63 35 64 36 65 44 66 37 67
REMARK SMILES IDX 43 68 38 69 39 70 40 71 41 72 42 73 65 74 66 75 74 76 67 77
REMARK SMILES IDX 73 78 68 79 69 80 70 81 71 82 72 83 51 84 52 85 60 86 53 87
REMARK SMILES IDX 59 88 54 89 55 90 56 91 57 92 58 93
REMARK H PARENT 16 7 9 16 23 30 79 49 49 60
REMARK Flexibility Score: inf
ROOT
ATOM      1  C   UNL A   1      31.671  27.377  26.201  1.00  0.00     0.002 C 
ENDROOT
BRANCH   1   2
ATOM      2  C   UNL A   1      30.451  26.474  26.004  1.00  0.00     0.021 C 
BRANCH   2   3
ATOM      3  C   UNL A   1      30.775  25.183  25.278  1.00  0.00     0.116 C 
BRANCH   3   4
ATOM      4  N   UNL A   1      30.087  24.085  25.912  1.00  0.00    -0.356 N 
ATOM      5  C   UNL A   1      30.533  22.831  26.140  1.00  0.00     0.227 C 
ATOM      6  O   UNL A   1      29.724  21.992  26.549  1.00  0.00    -0.274 OA
ATOM      7  H   UNL A   1      29.172  24.276  26.220  1.00  0.00     0.163 HD
BRANCH   5   8
ATOM      8  C   UNL A   1      31.996  22.466  25.942  1.00  0.00     0.103 C 
ATOM      9  C   UNL A   1      33.814  21.115  26.897  1.00  0.00     0.106 C 
ATOM     10  C   UNL A   1      33.200  20.447  25.718  1.00  0.00    -0.006 C 
ATOM     11  C   UNL A   1      32.877  22.307  27.188  1.00  0.00     0.047 C 
ATOM     12  C   UNL A   1      32.208  21.178  25.192  1.00  0.00    -0.016 C 
BRANCH   9  13
ATOM     13  N   UNL A   1      35.234  21.417  26.705  1.00  0.00    -0.346 N 
ATOM     14  C   UNL A   1      35.981  22.223  25.874  1.00  0.00     0.251 C 
ATOM     15  O   UNL A   1      37.205  22.101  25.864  1.00  0.00    -0.269 OA
ATOM     16  H   UNL A   1      35.802  20.913  27.330  1.00  0.00     0.164 HD
BRANCH  14  17
ATOM     17  C   UNL A   1      35.371  23.207  24.958  1.00  0.00     0.039 A 
ATOM     18  C   UNL A   1      33.913  24.977  23.354  1.00  0.00     0.052 A 
ATOM     19  C   UNL A   1      34.359  23.760  22.827  1.00  0.00     0.020 A 
ATOM     20  C   UNL A   1      34.321  25.359  24.633  1.00  0.00     0.020 A 
ATOM     21  C   UNL A   1      35.079  22.867  23.633  1.00  0.00     0.015 A 
ATOM     22  C   UNL A   1      35.118  24.500  25.395  1.00  0.00     0.015 A 
BRANCH  18  23
ATOM     23  C   UNL A   1      33.030  25.824  22.608  1.00  0.00     0.099 C 
ATOM     24  N   UNL A   1      32.302  26.523  22.030  1.00  0.00    -0.192 NA
ENDBRANCH  18  23
ENDBRANCH  14  17
ENDBRANCH   9  13
ENDBRANCH   5   8
ENDBRANCH   3   4
ENDBRANCH   2   3
ENDBRANCH   1   2
BRANCH   1  25
ATOM     25  C   UNL A   1      31.808  28.491  25.159  1.00  0.00     0.002 C 
BRANCH  25  26
ATOM     26  C   UNL A   1      33.247  28.945  24.909  1.00  0.00     0.021 C 
BRANCH  26  27
ATOM     27  C   UNL A   1      34.012  29.276  26.181  1.00  0.00     0.116 C 
BRANCH  27  28
ATOM     28  N   UNL A   1      33.734  30.628  26.635  1.00  0.00    -0.352 N 
ATOM     29  C   UNL A   1      34.359  31.327  27.635  1.00  0.00     0.251 C 
ATOM     30  H   UNL A   1      33.007  31.100  26.167  1.00  0.00     0.163 HD
ATOM     31  O   UNL A   1      33.881  32.369  28.068  1.00  0.00    -0.269 OA
BRANCH  29  32
ATOM     32  C   UNL A   1      35.609  30.776  28.188  1.00  0.00     0.039 A 
ATOM     33  C   UNL A   1      36.815  31.421  27.917  1.00  0.00     0.014 A 
ATOM     34  C   UNL A   1      35.562  29.664  29.034  1.00  0.00     0.014 A 
ATOM     35  C   UNL A   1      37.980  30.974  28.541  1.00  0.00     0.010 A 
ATOM     36  C   UNL A   1      36.703  29.282  29.722  1.00  0.00     0.010 A 
ATOM     37  C   UNL A   1      37.926  29.925  29.473  1.00  0.00    -0.014 A 
BRANCH  37  38
ATOM     38  C   UNL A   1      39.136  29.452  30.189  1.00  0.00     0.031 A 
ATOM     39  C   UNL A   1      39.575  30.165  31.438  1.00  0.00     0.074 A 
ATOM     40  C   UNL A   1      39.877  28.451  29.676  1.00  0.00     0.049 A 
ATOM     41  N   UNL A   1      40.668  30.002  32.138  1.00  0.00    -0.248 NA
ATOM     42  C   UNL A   1      38.685  31.220  31.949  1.00  0.00     0.031 C 
ATOM     43  C   UNL A   1      39.563  27.700  28.459  1.00  0.00     0.029 A 
ATOM     44  N   UNL A   1      41.060  27.905  30.108  1.00  0.00    -0.354 N 
ATOM     45  C   UNL A   1      40.602  30.943  33.159  1.00  0.00     0.074 A 
ATOM     46  C   UNL A   1      39.397  31.714  32.950  1.00  0.00     0.031 C 
ATOM     47  C   UNL A   1      40.520  26.780  28.252  1.00  0.00     0.029 A 
ATOM     48  C   UNL A   1      41.544  26.916  29.285  1.00  0.00     0.049 A 
ATOM     49  H   UNL A   1      41.519  28.195  30.930  1.00  0.00     0.167 HD
ATOM     50  C   UNL A   1      41.456  31.132  34.191  1.00  0.00     0.031 A 
ATOM     51  C   UNL A   1      42.693  26.213  29.339  1.00  0.00     0.031 A 
ATOM     52  C   UNL A   1      42.654  30.361  34.387  1.00  0.00     0.049 A 
ATOM     53  C   UNL A   1      43.657  26.476  30.465  1.00  0.00     0.074 A 
ATOM     54  C   UNL A   1      43.572  30.451  35.418  1.00  0.00     0.029 A 
ATOM     55  N   UNL A   1      43.104  29.366  33.533  1.00  0.00    -0.354 N 
ATOM     56  N   UNL A   1      43.557  27.337  31.449  1.00  0.00    -0.248 NA
ATOM     57  C   UNL A   1      44.887  25.670  30.494  1.00  0.00     0.031 C 
ATOM     58  C   UNL A   1      44.613  29.558  35.150  1.00  0.00     0.029 A 
ATOM     59  C   UNL A   1      44.300  28.851  33.999  1.00  0.00     0.049 A 
ATOM     60  H   UNL A   1      42.641  29.070  32.716  1.00  0.00     0.167 HD
ATOM     61  C   UNL A   1      44.687  27.147  32.237  1.00  0.00     0.074 A 
ATOM     62  C   UNL A   1      45.457  26.090  31.615  1.00  0.00     0.031 C 
ATOM     63  C   UNL A   1      45.047  27.785  33.378  1.00  0.00     0.031 A 
BRANCH  50  64
ATOM     64  C   UNL A   1      41.129  32.224  35.176  1.00  0.00    -0.014 A 
ATOM     65  C   UNL A   1      40.343  31.968  36.316  1.00  0.00     0.010 A 
ATOM     66  C   UNL A   1      41.638  33.520  34.977  1.00  0.00     0.010 A 
ATOM     67  C   UNL A   1      40.031  32.996  37.207  1.00  0.00     0.020 A 
ATOM     68  C   UNL A   1      41.361  34.543  35.888  1.00  0.00     0.020 A 
ATOM     69  C   UNL A   1      40.542  34.278  36.986  1.00  0.00     0.054 A 
BRANCH  69  70
ATOM     70  S   UNL A   1      40.132  35.588  38.171  1.00  0.00     0.124 S 
ATOM     71  O   UNL A   1      39.014  34.994  38.901  1.00  0.00    -0.237 OA
ATOM     72  O   UNL A   1      41.371  35.732  38.928  1.00  0.00    -0.237 OA
ATOM     73  O   UNL A   1      39.785  36.726  37.324  1.00  0.00    -0.744 OA
ENDBRANCH  69  70
ENDBRANCH  50  64
BRANCH  51  74
ATOM     74  C   UNL A   1      42.995  25.203  28.287  1.00  0.00    -0.014 A 
ATOM     75  C   UNL A   1      43.824  25.525  27.197  1.00  0.00     0.010 A 
ATOM     76  C   UNL A   1      42.467  23.902  28.381  1.00  0.00     0.010 A 
ATOM     77  C   UNL A   1      44.103  24.571  26.213  1.00  0.00     0.020 A 
ATOM     78  C   UNL A   1      42.772  22.935  27.418  1.00  0.00     0.020 A 
ATOM     79  C   UNL A   1      43.580  23.280  26.334  1.00  0.00     0.054 A 
BRANCH  79  80
ATOM     80  S   UNL A   1      43.999  22.045  25.073  1.00  0.00     0.124 S 
ATOM     81  O   UNL A   1      45.433  21.875  25.279  1.00  0.00    -0.237 OA
ATOM     82  O   UNL A   1      43.163  20.910  25.459  1.00  0.00    -0.237 OA
ATOM     83  O   UNL A   1      43.617  22.692  23.820  1.00  0.00    -0.744 OA
ENDBRANCH  79  80
ENDBRANCH  51  74
BRANCH  63  84
ATOM     84  C   UNL A   1      46.298  27.328  34.081  1.00  0.00    -0.014 A 
ATOM     85  C   UNL A   1      47.542  27.941  33.851  1.00  0.00     0.010 A 
ATOM     86  C   UNL A   1      46.195  26.342  35.083  1.00  0.00     0.010 A 
ATOM     87  C   UNL A   1      48.658  27.576  34.609  1.00  0.00     0.020 A 
ATOM     88  C   UNL A   1      47.299  25.998  35.862  1.00  0.00     0.020 A 
ATOM     89  C   UNL A   1      48.527  26.616  35.619  1.00  0.00     0.054 A 
BRANCH  89  90
ATOM     90  S   UNL A   1      49.967  26.236  36.654  1.00  0.00     0.124 S 
ATOM     91  O   UNL A   1      49.510  26.654  37.978  1.00  0.00    -0.237 OA
ATOM     92  O   UNL A   1      50.120  24.796  36.468  1.00  0.00    -0.237 OA
ATOM     93  O   UNL A   1      51.034  27.052  36.078  1.00  0.00    -0.744 OA
ENDBRANCH  89  90
ENDBRANCH  63  84
ENDBRANCH  37  38
ENDBRANCH  29  32
ENDBRANCH  27  28
ENDBRANCH  26  27
ENDBRANCH  25  26
ENDBRANCH   1  25
TORSDOF 19
ENDMDL
MODEL 2
REMARK VINA RESULT:     -10.2      2.967      8.798
REMARK SMILES N#Cc1ccc(C(=O)N[C@@H]2C=C[C@@H](C(=O)NCCCCCCNC(=O)c3ccc(-c4c5nc(c(-c6ccc(S(=O)(=O)[O-])cc6)c6ccc([nH]6)c(-c6ccc(S(=O)(=O)[O-])cc6)c6nc(c(-c7ccc(S(=O)(=O)[O-])cc7)c7ccc4[nH]7)C=C6)C=C5)cc3)C2)cc1
REMARK SMILES IDX 19 1 18 2 17 3 16 4 14 5 15 6 13 8 10 9 11 10 86 11 12 12
REMARK SMILES IDX 9 13 7 14 8 15 6 17 3 18 4 19 88 20 5 21 87 22 2 23 1 24
REMARK SMILES IDX 20 25 21 26 22 27 23 28 24 29 25 31 26 32 27 33 85 34 28 35
REMARK SMILES IDX 84 36 29 37 30 38 31 39 78 40 32 41 83 42 77 43 79 44 33 45
REMARK SMILES IDX 82 46 76 47 75 48 34 50 64 51 45 52 63 53 46 54 49 55 62 56
REMARK SMILES IDX 80 57 47 58 48 59 61 61 81 62 50 63 35 64 36 65 44 66 37 67
REMARK SMILES IDX 43 68 38 69 39 70 40 71 41 72 42 73 65 74 66 75 74 76 67 77
REMARK SMILES IDX 73 78 68 79 69 80 70 81 71 82 72 83 51 84 52 85 60 86 53 87
REMARK SMILES IDX 59 88 54 89 55 90 56 91 57 92 58 93
REMARK H PARENT 16 7 9 16 23 30 79 49 49 60
REMARK Flexibility Score: inf
ROOT
ATOM      1  C   UNL A   1      40.255  21.555  26.858  1.00  0.00     0.002 C 
ENDROOT
BRANCH   1   2
ATOM      2  C   UNL A   1      39.497  22.884  26.828  1.00  0.00     0.021 C 
BRANCH   2   3
ATOM      3  C   UNL A   1      38.343  22.890  25.845  1.00  0.00     0.116 C 
BRANCH   3   4
ATOM      4  N   UNL A   1      38.052  21.539  25.432  1.00  0.00    -0.356 N 
ATOM      5  C   UNL A   1      36.858  20.993  25.116  1.00  0.00     0.227 C 
ATOM      6  O   UNL A   1      36.804  19.771  24.948  1.00  0.00    -0.274 OA
ATOM      7  H   UNL A   1      38.827  20.936  25.371  1.00  0.00     0.163 HD
BRANCH   5   8
ATOM      8  C   UNL A   1      35.620  21.857  24.930  1.00  0.00     0.103 C 
ATOM      9  C   UNL A   1      34.749  24.122  25.321  1.00  0.00     0.106 C 
ATOM     10  C   UNL A   1      35.174  23.939  23.907  1.00  0.00    -0.006 C 
ATOM     11  C   UNL A   1      35.261  22.855  26.039  1.00  0.00     0.047 C 
ATOM     12  C   UNL A   1      35.650  22.706  23.687  1.00  0.00    -0.016 C 
BRANCH   9  13
ATOM     13  N   UNL A   1      33.323  24.429  25.452  1.00  0.00    -0.346 N 
ATOM     14  C   UNL A   1      32.136  23.845  25.070  1.00  0.00     0.251 C 
ATOM     15  O   UNL A   1      31.090  24.480  25.194  1.00  0.00    -0.269 OA
ATOM     16  H   UNL A   1      33.175  25.273  25.937  1.00  0.00     0.164 HD
BRANCH  14  17
ATOM     17  C   UNL A   1      32.065  22.494  24.477  1.00  0.00     0.039 A 
ATOM     18  C   UNL A   1      32.276  19.930  23.376  1.00  0.00     0.052 A 
ATOM     19  C   UNL A   1      32.088  21.038  22.541  1.00  0.00     0.020 A 
ATOM     20  C   UNL A   1      32.214  20.100  24.760  1.00  0.00     0.020 A 
ATOM     21  C   UNL A   1      31.996  22.324  23.091  1.00  0.00     0.015 A 
ATOM     22  C   UNL A   1      32.027  21.376  25.298  1.00  0.00     0.015 A 
BRANCH  18  23
ATOM     23  C   UNL A   1      32.548  18.634  22.831  1.00  0.00     0.099 C 
ATOM     24  N   UNL A   1      32.739  17.572  22.396  1.00  0.00    -0.192 NA
ENDBRANCH  18  23
ENDBRANCH  14  17
ENDBRANCH   9  13
ENDBRANCH   5   8
ENDBRANCH   3   4
ENDBRANCH   2   3
ENDBRANCH   1   2
BRANCH   1  25
ATOM     25  C   UNL A   1      41.777  21.693  26.754  1.00  0.00     0.002 C 
BRANCH  25  26
ATOM     26  C   UNL A   1      42.394  22.645  27.779  1.00  0.00     0.021 C 
BRANCH  26  27
ATOM     27  C   UNL A   1      43.394  23.621  27.181  1.00  0.00     0.116 C 
BRANCH  27  28
ATOM     28  N   UNL A   1      42.817  24.365  26.073  1.00  0.00    -0.352 N 
ATOM     29  C   UNL A   1      42.038  25.491  26.129  1.00  0.00     0.251 C 
ATOM     30  H   UNL A   1      43.010  24.017  25.173  1.00  0.00     0.163 HD
ATOM     31  O   UNL A   1      41.432  25.886  25.140  1.00  0.00    -0.269 OA
BRANCH  29  32
ATOM     32  C   UNL A   1      41.935  26.199  27.418  1.00  0.00     0.039 A 
ATOM     33  C   UNL A   1      42.790  27.269  27.678  1.00  0.00     0.014 A 
ATOM     34  C   UNL A   1      40.936  25.839  28.328  1.00  0.00     0.014 A 
ATOM     35  C   UNL A   1      42.609  28.017  28.841  1.00  0.00     0.010 A 
ATOM     36  C   UNL A   1      40.702  26.640  29.435  1.00  0.00     0.010 A 
ATOM     37  C   UNL A   1      41.543  27.729  29.709  1.00  0.00    -0.014 A 
BRANCH  37  38
ATOM     38  C   UNL A   1      41.294  28.529  30.932  1.00  0.00     0.031 A 
ATOM     39  C   UNL A   1      40.192  29.551  30.928  1.00  0.00     0.074 A 
ATOM     40  C   UNL A   1      42.102  28.400  32.002  1.00  0.00     0.049 A 
ATOM     41  N   UNL A   1      39.891  30.444  31.837  1.00  0.00    -0.248 NA
ATOM     42  C   UNL A   1      39.332  29.598  29.733  1.00  0.00     0.031 C 
ATOM     43  C   UNL A   1      43.217  27.458  32.114  1.00  0.00     0.029 A 
ATOM     44  N   UNL A   1      42.118  29.077  33.196  1.00  0.00    -0.354 N 
ATOM     45  C   UNL A   1      38.824  31.164  31.316  1.00  0.00     0.074 A 
ATOM     46  C   UNL A   1      38.570  30.650  29.989  1.00  0.00     0.031 C 
ATOM     47  C   UNL A   1      43.798  27.606  33.317  1.00  0.00     0.029 A 
ATOM     48  C   UNL A   1      43.136  28.691  34.036  1.00  0.00     0.049 A 
ATOM     49  H   UNL A   1      41.463  29.774  33.429  1.00  0.00     0.167 HD
ATOM     50  C   UNL A   1      38.104  32.150  31.899  1.00  0.00     0.031 A 
ATOM     51  C   UNL A   1      43.512  29.172  35.238  1.00  0.00     0.031 A 
ATOM     52  C   UNL A   1      38.367  32.657  33.219  1.00  0.00     0.049 A 
ATOM     53  C   UNL A   1      42.732  30.306  35.847  1.00  0.00     0.074 A 
ATOM     54  C   UNL A   1      37.678  33.632  33.916  1.00  0.00     0.029 A 
ATOM     55  N   UNL A   1      39.405  32.235  34.037  1.00  0.00    -0.354 N 
ATOM     56  N   UNL A   1      41.695  30.945  35.361  1.00  0.00    -0.248 NA
ATOM     57  C   UNL A   1      43.166  30.782  37.169  1.00  0.00     0.031 C 
ATOM     58  C   UNL A   1      38.341  33.850  35.127  1.00  0.00     0.029 A 
ATOM     59  C   UNL A   1      39.391  32.948  35.221  1.00  0.00     0.049 A 
ATOM     60  H   UNL A   1      40.055  31.532  33.808  1.00  0.00     0.167 HD
ATOM     61  C   UNL A   1      41.327  31.868  36.334  1.00  0.00     0.074 A 
ATOM     62  C   UNL A   1      42.252  31.704  37.436  1.00  0.00     0.031 C 
ATOM     63  C   UNL A   1      40.308  32.762  36.318  1.00  0.00     0.031 A 
BRANCH  50  64
ATOM     64  C   UNL A   1      36.974  32.752  31.105  1.00  0.00    -0.014 A 
ATOM     65  C   UNL A   1      35.640  32.357  31.320  1.00  0.00     0.010 A 
ATOM     66  C   UNL A   1      37.244  33.749  30.151  1.00  0.00     0.010 A 
ATOM     67  C   UNL A   1      34.606  32.909  30.561  1.00  0.00     0.020 A 
ATOM     68  C   UNL A   1      36.208  34.333  29.416  1.00  0.00     0.020 A 
ATOM     69  C   UNL A   1      34.898  33.893  29.612  1.00  0.00     0.054 A 
BRANCH  69  70
ATOM     70  S   UNL A   1      33.531  34.602  28.654  1.00  0.00     0.124 S 
ATOM     71  O   UNL A   1      32.561  34.914  29.700  1.00  0.00    -0.237 OA
ATOM     72  O   UNL A   1      34.156  35.755  28.013  1.00  0.00    -0.237 OA
ATOM     73  O   UNL A   1      33.144  33.522  27.750  1.00  0.00    -0.744 OA
ENDBRANCH  69  70
ENDBRANCH  50  64
BRANCH  51  74
ATOM     74  C   UNL A   1      44.691  28.586  35.935  1.00  0.00    -0.014 A 
ATOM     75  C   UNL A   1      45.982  29.104  35.726  1.00  0.00     0.010 A 
ATOM     76  C   UNL A   1      44.524  27.512  36.830  1.00  0.00     0.010 A 
ATOM     77  C   UNL A   1      47.083  28.548  36.385  1.00  0.00     0.020 A 
ATOM     78  C   UNL A   1      45.617  26.977  37.517  1.00  0.00     0.020 A 
ATOM     79  C   UNL A   1      46.892  27.492  37.281  1.00  0.00     0.054 A 
BRANCH  79  80
ATOM     80  S   UNL A   1      48.329  26.823  38.163  1.00  0.00     0.124 S 
ATOM     81  O   UNL A   1      49.163  28.009  38.330  1.00  0.00    -0.237 OA
ATOM     82  O   UNL A   1      47.726  26.294  39.385  1.00  0.00    -0.237 OA
ATOM     83  O   UNL A   1      48.853  25.812  37.248  1.00  0.00    -0.744 OA
ENDBRANCH  79  80
ENDBRANCH  51  74
BRANCH  63  84
ATOM     84  C   UNL A   1      40.082  33.601  37.549  1.00  0.00    -0.014 A 
ATOM     85  C   UNL A   1      40.608  34.899  37.665  1.00  0.00     0.010 A 
ATOM     86  C   UNL A   1      39.221  33.118  38.554  1.00  0.00     0.010 A 
ATOM     87  C   UNL A   1      40.278  35.697  38.765  1.00  0.00     0.020 A 
ATOM     88  C   UNL A   1      38.864  33.922  39.636  1.00  0.00     0.020 A 
ATOM     89  C   UNL A   1      39.398  35.208  39.737  1.00  0.00     0.054 A 
BRANCH  89  90
ATOM     90  S   UNL A   1      38.907  36.302  41.097  1.00  0.00     0.124 S 
ATOM     91  O   UNL A   1      38.537  37.524  40.388  1.00  0.00    -0.237 OA
ATOM     92  O   UNL A   1      37.800  35.570  41.709  1.00  0.00    -0.237 OA
ATOM     93  O   UNL A   1      40.112  36.399  41.918  1.00  0.00    -0.744 OA
ENDBRANCH  89  90
ENDBRANCH  63  84
ENDBRANCH  37  38
ENDBRANCH  29  32
ENDBRANCH  27  28
ENDBRANCH  26  27
ENDBRANCH  25  26
ENDBRANCH   1  25
TORSDOF 19
ENDMDL
MODEL 3
REMARK VINA RESULT:      -9.9      3.177      3.623
REMARK SMILES N#Cc1ccc(C(=O)N[C@@H]2C=C[C@@H](C(=O)NCCCCCCNC(=O)c3ccc(-c4c5nc(c(-c6ccc(S(=O)(=O)[O-])cc6)c6ccc([nH]6)c(-c6ccc(S(=O)(=O)[O-])cc6)c6nc(c(-c7ccc(S(=O)(=O)[O-])cc7)c7ccc4[nH]7)C=C6)C=C5)cc3)C2)cc1
REMARK SMILES IDX 19 1 18 2 17 3 16 4 14 5 15 6 13 8 10 9 11 10 86 11 12 12
REMARK SMILES IDX 9 13 7 14 8 15 6 17 3 18 4 19 88 20 5 21 87 22 2 23 1 24
REMARK SMILES IDX 20 25 21 26 22 27 23 28 24 29 25 31 26 32 27 33 85 34 28 35
REMARK SMILES IDX 84 36 29 37 30 38 31 39 78 40 32 41 83 42 77 43 79 44 33 45
REMARK SMILES IDX 82 46 76 47 75 48 34 50 64 51 45 52 63 53 46 54 49 55 62 56
REMARK SMILES IDX 80 57 47 58 48 59 61 61 81 62 50 63 35 64 36 65 44 66 37 67
REMARK SMILES IDX 43 68 38 69 39 70 40 71 41 72 42 73 65 74 66 75 74 76 67 77
REMARK SMILES IDX 73 78 68 79 69 80 70 81 71 82 72 83 51 84 52 85 60 86 53 87
REMARK SMILES IDX 59 88 54 89 55 90 56 91 57 92 58 93
REMARK H PARENT 16 7 9 16 23 30 79 49 49 60
REMARK Flexibility Score: inf
ROOT
ATOM      1  C   UNL A   1      31.983  27.788  26.861  1.00  0.00     0.002 C 
ENDROOT
BRANCH   1   2
ATOM      2  C   UNL A   1      30.795  26.824  26.811  1.00  0.00     0.021 C 
BRANCH   2   3
ATOM      3  C   UNL A   1      31.081  25.567  26.014  1.00  0.00     0.116 C 
BRANCH   3   4
ATOM      4  N   UNL A   1      30.303  24.472  26.541  1.00  0.00    -0.356 N 
ATOM      5  C   UNL A   1      30.591  23.152  26.529  1.00  0.00     0.227 C 
ATOM      6  O   UNL A   1      29.711  22.363  26.886  1.00  0.00    -0.274 OA
ATOM      7  H   UNL A   1      29.452  24.720  26.966  1.00  0.00     0.163 HD
BRANCH   5   8
ATOM      8  C   UNL A   1      31.969  22.649  26.129  1.00  0.00     0.103 C 
ATOM      9  C   UNL A   1      33.682  20.988  26.714  1.00  0.00     0.106 C 
ATOM     10  C   UNL A   1      32.877  20.549  25.543  1.00  0.00    -0.006 C 
ATOM     11  C   UNL A   1      32.939  22.233  27.243  1.00  0.00     0.047 C 
ATOM     12  C   UNL A   1      31.941  21.451  25.218  1.00  0.00    -0.016 C 
BRANCH   9  13
ATOM     13  N   UNL A   1      35.104  21.146  26.401  1.00  0.00    -0.346 N 
ATOM     14  C   UNL A   1      35.865  21.965  25.598  1.00  0.00     0.251 C 
ATOM     15  O   UNL A   1      37.056  21.704  25.434  1.00  0.00    -0.269 OA
ATOM     16  H   UNL A   1      35.659  20.497  26.891  1.00  0.00     0.164 HD
BRANCH  14  17
ATOM     17  C   UNL A   1      35.303  23.131  24.886  1.00  0.00     0.039 A 
ATOM     18  C   UNL A   1      33.938  25.260  23.689  1.00  0.00     0.052 A 
ATOM     19  C   UNL A   1      34.182  24.088  22.964  1.00  0.00     0.020 A 
ATOM     20  C   UNL A   1      34.504  25.409  24.956  1.00  0.00     0.020 A 
ATOM     21  C   UNL A   1      34.854  23.016  23.567  1.00  0.00     0.015 A 
ATOM     22  C   UNL A   1      35.252  24.369  25.512  1.00  0.00     0.015 A 
BRANCH  18  23
ATOM     23  C   UNL A   1      33.105  26.296  23.157  1.00  0.00     0.099 C 
ATOM     24  N   UNL A   1      32.451  27.158  22.730  1.00  0.00    -0.192 NA
ENDBRANCH  18  23
ENDBRANCH  14  17
ENDBRANCH   9  13
ENDBRANCH   5   8
ENDBRANCH   3   4
ENDBRANCH   2   3
ENDBRANCH   1   2
BRANCH   1  25
ATOM     25  C   UNL A   1      31.876  28.974  25.897  1.00  0.00     0.002 C 
BRANCH  25  26
ATOM     26  C   UNL A   1      33.080  29.917  25.923  1.00  0.00     0.021 C 
BRANCH  26  27
ATOM     27  C   UNL A   1      33.899  29.825  27.201  1.00  0.00     0.116 C 
BRANCH  27  28
ATOM     28  N   UNL A   1      33.730  31.006  28.030  1.00  0.00    -0.352 N 
ATOM     29  C   UNL A   1      34.574  31.484  28.999  1.00  0.00     0.251 C 
ATOM     30  H   UNL A   1      32.909  31.528  27.876  1.00  0.00     0.163 HD
ATOM     31  O   UNL A   1      34.208  32.357  29.776  1.00  0.00    -0.269 OA
BRANCH  29  32
ATOM     32  C   UNL A   1      35.924  30.901  29.090  1.00  0.00     0.039 A 
ATOM     33  C   UNL A   1      36.757  30.933  27.973  1.00  0.00     0.014 A 
ATOM     34  C   UNL A   1      36.379  30.393  30.311  1.00  0.00     0.014 A 
ATOM     35  C   UNL A   1      38.076  30.497  28.095  1.00  0.00     0.010 A 
ATOM     36  C   UNL A   1      37.714  30.047  30.452  1.00  0.00     0.010 A 
ATOM     37  C   UNL A   1      38.572  30.083  29.342  1.00  0.00    -0.014 A 
BRANCH  37  38
ATOM     38  C   UNL A   1      39.980  29.654  29.520  1.00  0.00     0.031 A 
ATOM     39  C   UNL A   1      41.005  30.661  29.964  1.00  0.00     0.074 A 
ATOM     40  C   UNL A   1      40.350  28.398  29.203  1.00  0.00     0.049 A 
ATOM     41  N   UNL A   1      42.303  30.532  30.053  1.00  0.00    -0.248 NA
ATOM     42  C   UNL A   1      40.507  31.999  30.328  1.00  0.00     0.031 C 
ATOM     43  C   UNL A   1      39.450  27.340  28.740  1.00  0.00     0.029 A 
ATOM     44  N   UNL A   1      41.587  27.803  29.207  1.00  0.00    -0.354 N 
ATOM     45  C   UNL A   1      42.776  31.772  30.465  1.00  0.00     0.074 A 
ATOM     46  C   UNL A   1      41.635  32.657  30.547  1.00  0.00     0.031 C 
ATOM     47  C   UNL A   1      40.163  26.222  28.521  1.00  0.00     0.029 A 
ATOM     48  C   UNL A   1      41.574  26.500  28.770  1.00  0.00     0.049 A 
ATOM     49  H   UNL A   1      42.406  28.267  29.496  1.00  0.00     0.167 HD
ATOM     50  C   UNL A   1      44.043  32.136  30.771  1.00  0.00     0.031 A 
ATOM     51  C   UNL A   1      42.586  25.633  28.567  1.00  0.00     0.031 A 
ATOM     52  C   UNL A   1      45.171  31.248  30.682  1.00  0.00     0.049 A 
ATOM     53  C   UNL A   1      43.996  26.073  28.860  1.00  0.00     0.074 A 
ATOM     54  C   UNL A   1      46.492  31.507  30.999  1.00  0.00     0.029 A 
ATOM     55  N   UNL A   1      45.113  29.935  30.240  1.00  0.00    -0.354 N 
ATOM     56  N   UNL A   1      44.420  27.236  29.294  1.00  0.00    -0.248 NA
ATOM     57  C   UNL A   1      45.063  25.086  28.644  1.00  0.00     0.031 C 
ATOM     58  C   UNL A   1      47.244  30.373  30.681  1.00  0.00     0.029 A 
ATOM     59  C   UNL A   1      46.379  29.379  30.249  1.00  0.00     0.049 A 
ATOM     60  H   UNL A   1      44.293  29.469  29.959  1.00  0.00     0.167 HD
ATOM     61  C   UNL A   1      45.797  27.106  29.444  1.00  0.00     0.074 A 
ATOM     62  C   UNL A   1      46.134  25.752  29.054  1.00  0.00     0.031 C 
ATOM     63  C   UNL A   1      46.697  28.023  29.875  1.00  0.00     0.031 A 
BRANCH  50  64
ATOM     64  C   UNL A   1      44.273  33.557  31.213  1.00  0.00    -0.014 A 
ATOM     65  C   UNL A   1      44.235  33.912  32.575  1.00  0.00     0.010 A 
ATOM     66  C   UNL A   1      44.562  34.548  30.259  1.00  0.00     0.010 A 
ATOM     67  C   UNL A   1      44.430  35.238  32.968  1.00  0.00     0.020 A 
ATOM     68  C   UNL A   1      44.795  35.870  30.650  1.00  0.00     0.020 A 
ATOM     69  C   UNL A   1      44.707  36.209  32.001  1.00  0.00     0.054 A 
BRANCH  69  70
ATOM     70  S   UNL A   1      44.971  37.919  32.545  1.00  0.00     0.124 S 
ATOM     71  O   UNL A   1      45.601  37.725  33.848  1.00  0.00    -0.237 OA
ATOM     72  O   UNL A   1      45.838  38.455  31.501  1.00  0.00    -0.237 OA
ATOM     73  O   UNL A   1      43.623  38.482  32.584  1.00  0.00    -0.744 OA
ENDBRANCH  69  70
ENDBRANCH  50  64
BRANCH  51  74
ATOM     74  C   UNL A   1      42.299  24.266  28.048  1.00  0.00    -0.014 A 
ATOM     75  C   UNL A   1      42.008  24.058  26.688  1.00  0.00     0.010 A 
ATOM     76  C   UNL A   1      42.332  23.157  28.915  1.00  0.00     0.010 A 
ATOM     77  C   UNL A   1      41.740  22.772  26.209  1.00  0.00     0.020 A 
ATOM     78  C   UNL A   1      42.099  21.866  28.433  1.00  0.00     0.020 A 
ATOM     79  C   UNL A   1      41.793  21.684  27.084  1.00  0.00     0.054 A 
BRANCH  79  80
ATOM     80  S   UNL A   1      41.493  20.018  26.429  1.00  0.00     0.124 S 
ATOM     81  O   UNL A   1      41.634  19.192  27.624  1.00  0.00    -0.237 OA
ATOM     82  O   UNL A   1      40.138  20.134  25.894  1.00  0.00    -0.237 OA
ATOM     83  O   UNL A   1      42.540  19.852  25.424  1.00  0.00    -0.744 OA
ENDBRANCH  79  80
ENDBRANCH  51  74
BRANCH  63  84
ATOM     84  C   UNL A   1      48.134  27.594  30.017  1.00  0.00    -0.014 A 
ATOM     85  C   UNL A   1      49.060  27.753  28.971  1.00  0.00     0.010 A 
ATOM     86  C   UNL A   1      48.587  27.135  31.270  1.00  0.00     0.010 A 
ATOM     87  C   UNL A   1      50.411  27.459  29.176  1.00  0.00     0.020 A 
ATOM     88  C   UNL A   1      49.939  26.871  31.487  1.00  0.00     0.020 A 
ATOM     89  C   UNL A   1      50.844  27.032  30.437  1.00  0.00     0.054 A 
BRANCH  89  90
ATOM     90  S   UNL A   1      52.617  26.758  30.702  1.00  0.00     0.124 S 
ATOM     91  O   UNL A   1      53.027  28.005  31.342  1.00  0.00    -0.237 OA
ATOM     92  O   UNL A   1      52.630  25.576  31.560  1.00  0.00    -0.237 OA
ATOM     93  O   UNL A   1      53.143  26.548  29.354  1.00  0.00    -0.744 OA
ENDBRANCH  89  90
ENDBRANCH  63  84
ENDBRANCH  37  38
ENDBRANCH  29  32
ENDBRANCH  27  28
ENDBRANCH  26  27
ENDBRANCH  25  26
ENDBRANCH   1  25
TORSDOF 19
ENDMDL
