MODEL 1
REMARK VINA RESULT:     -12.2      0.000      0.000
REMARK SMILES Cc1ccc(C)c(NC(=O)/C=C/C(=O)NCCCCCCNC(=O)c2ccc(-c3c4nc(c(-c5ccc(S(=O)(=O)[O-])cc5)c5ccc([nH]5)c(-c5ccc(S(=O)(=O)[O-])cc5)c5nc(c(-c6ccc(S(=O)(=O)[O-])cc6)c6ccc3[nH]6)C=C5)C=C4)cc2)c1
REMARK SMILES IDX 19 1 18 2 17 3 16 4 15 5 13 6 14 7 12 9 11 10 9 11 8 12
REMARK SMILES IDX 10 14 7 15 1 16 2 17 3 18 85 19 4 20 5 21 6 22 20 23 21 24
REMARK SMILES IDX 22 25 23 26 24 28 25 29 26 30 84 31 27 32 83 33 28 34 29 35
REMARK SMILES IDX 30 36 77 37 31 38 82 39 76 40 78 41 32 42 81 43 75 44 74 45
REMARK SMILES IDX 33 47 63 48 44 49 62 50 45 51 48 52 61 53 79 54 46 55 47 56
REMARK SMILES IDX 60 58 80 59 49 60 34 61 35 62 43 63 36 64 42 65 37 66 38 67
REMARK SMILES IDX 39 68 40 69 41 70 64 71 65 72 73 73 66 74 72 75 67 76 68 77
REMARK SMILES IDX 69 78 70 79 71 80 50 81 51 82 59 83 52 84 58 85 53 86 54 87
REMARK SMILES IDX 55 88 56 89 57 90
REMARK H PARENT 15 8 8 13 22 27 78 46 48 57
REMARK Flexibility Score: inf
ROOT
ATOM      1  C   UNL A   1      35.695  21.391  24.630  1.00  0.00     0.002 C 
ENDROOT
BRANCH   1   2
ATOM      2  C   UNL A   1      34.297  21.930  24.294  1.00  0.00     0.002 C 
BRANCH   2   3
ATOM      3  C   UNL A   1      34.165  22.945  23.156  1.00  0.00     0.021 C 
BRANCH   3   4
ATOM      4  C   UNL A   1      32.861  22.896  22.366  1.00  0.00     0.116 C 
BRANCH   4   5
ATOM      5  N   UNL A   1      32.845  23.809  21.240  1.00  0.00    -0.353 N 
ATOM      6  C   UNL A   1      32.798  25.169  21.238  1.00  0.00     0.244 C 
ATOM      7  O   UNL A   1      33.209  25.784  20.256  1.00  0.00    -0.270 OA
ATOM      8  H   UNL A   1      32.870  23.386  20.352  1.00  0.00     0.163 HD
BRANCH   6   9
ATOM      9  C   UNL A   1      32.252  25.928  22.382  1.00  0.00     0.077 C 
ATOM     10  C   UNL A   1      30.933  26.093  22.544  1.00  0.00     0.077 C 
BRANCH  10  11
ATOM     11  C   UNL A   1      30.391  27.078  23.483  1.00  0.00     0.248 C 
ATOM     12  N   UNL A   1      30.581  26.929  24.825  1.00  0.00    -0.322 N 
ATOM     13  H   UNL A   1      30.279  27.705  25.351  1.00  0.00     0.170 HD
ATOM     14  O   UNL A   1      29.745  28.024  23.034  1.00  0.00    -0.270 OA
BRANCH  12  15
ATOM     15  C   UNL A   1      31.122  25.890  25.618  1.00  0.00     0.044 A 
ATOM     16  C   UNL A   1      29.576  22.800  27.258  1.00  0.00     0.044 C 
ATOM     17  C   UNL A   1      30.581  23.746  26.676  1.00  0.00    -0.049 A 
ATOM     18  C   UNL A   1      31.941  23.457  26.771  1.00  0.00     0.004 A 
ATOM     19  C   UNL A   1      30.184  24.936  26.053  1.00  0.00     0.029 A 
ATOM     20  C   UNL A   1      32.873  24.435  26.443  1.00  0.00     0.006 A 
ATOM     21  C   UNL A   1      32.462  25.701  25.987  1.00  0.00    -0.027 A 
ATOM     22  C   UNL A   1      33.463  26.807  26.180  1.00  0.00     0.046 C 
ENDBRANCH  12  15
ENDBRANCH  10  11
ENDBRANCH   6   9
ENDBRANCH   4   5
ENDBRANCH   3   4
ENDBRANCH   2   3
ENDBRANCH   1   2
BRANCH   1  23
ATOM     23  C   UNL A   1      36.957  22.214  24.328  1.00  0.00     0.021 C 
BRANCH  23  24
ATOM     24  C   UNL A   1      37.753  22.828  25.476  1.00  0.00     0.116 C 
BRANCH  24  25
ATOM     25  N   UNL A   1      38.540  21.859  26.243  1.00  0.00    -0.352 N 
ATOM     26  C   UNL A   1      39.740  21.929  26.942  1.00  0.00     0.251 C 
ATOM     27  H   UNL A   1      38.131  20.963  26.268  1.00  0.00     0.163 HD
ATOM     28  O   UNL A   1      40.330  20.895  27.202  1.00  0.00    -0.269 OA
BRANCH  26  29
ATOM     29  C   UNL A   1      40.306  23.231  27.377  1.00  0.00     0.039 A 
ATOM     30  C   UNL A   1      41.597  23.387  27.884  1.00  0.00     0.014 A 
ATOM     31  C   UNL A   1      39.487  24.340  27.364  1.00  0.00     0.014 A 
ATOM     32  C   UNL A   1      41.936  24.623  28.450  1.00  0.00     0.010 A 
ATOM     33  C   UNL A   1      39.964  25.602  27.480  1.00  0.00     0.010 A 
ATOM     34  C   UNL A   1      41.060  25.707  28.287  1.00  0.00    -0.014 A 
BRANCH  34  35
ATOM     35  C   UNL A   1      41.216  27.004  28.915  1.00  0.00     0.031 A 
ATOM     36  C   UNL A   1      42.325  27.772  28.348  1.00  0.00     0.074 A 
ATOM     37  C   UNL A   1      40.287  27.613  29.687  1.00  0.00     0.049 A 
ATOM     38  N   UNL A   1      43.493  27.935  28.865  1.00  0.00    -0.248 NA
ATOM     39  C   UNL A   1      42.183  28.254  26.966  1.00  0.00     0.031 C 
ATOM     40  C   UNL A   1      38.918  27.187  30.015  1.00  0.00     0.029 A 
ATOM     41  N   UNL A   1      40.361  28.844  30.266  1.00  0.00    -0.354 N 
ATOM     42  C   UNL A   1      44.163  28.746  27.970  1.00  0.00     0.074 A 
ATOM     43  C   UNL A   1      43.416  28.705  26.736  1.00  0.00     0.031 C 
ATOM     44  C   UNL A   1      38.240  28.224  30.564  1.00  0.00     0.029 A 
ATOM     45  C   UNL A   1      39.161  29.329  30.768  1.00  0.00     0.049 A 
ATOM     46  H   UNL A   1      41.202  29.350  30.325  1.00  0.00     0.167 HD
ATOM     47  C   UNL A   1      45.116  29.620  28.386  1.00  0.00     0.031 A 
ATOM     48  C   UNL A   1      38.947  30.567  31.281  1.00  0.00     0.031 A 
ATOM     49  C   UNL A   1      45.481  29.410  29.766  1.00  0.00     0.049 A 
ATOM     50  C   UNL A   1      40.272  31.115  31.669  1.00  0.00     0.074 A 
ATOM     51  C   UNL A   1      45.970  28.336  30.484  1.00  0.00     0.029 A 
ATOM     52  N   UNL A   1      44.926  30.265  30.693  1.00  0.00    -0.354 N 
ATOM     53  N   UNL A   1      41.012  30.608  32.616  1.00  0.00    -0.248 NA
ATOM     54  C   UNL A   1      40.978  31.969  30.726  1.00  0.00     0.031 C 
ATOM     55  C   UNL A   1      45.286  28.380  31.736  1.00  0.00     0.029 A 
ATOM     56  C   UNL A   1      44.462  29.509  31.743  1.00  0.00     0.049 A 
ATOM     57  H   UNL A   1      44.870  31.246  30.616  1.00  0.00     0.167 HD
ATOM     58  C   UNL A   1      42.317  30.717  32.152  1.00  0.00     0.074 A 
ATOM     59  C   UNL A   1      42.240  31.667  31.046  1.00  0.00     0.031 C 
ATOM     60  C   UNL A   1      43.279  29.820  32.526  1.00  0.00     0.031 A 
BRANCH  47  61
ATOM     61  C   UNL A   1      45.407  30.895  27.653  1.00  0.00    -0.014 A 
ATOM     62  C   UNL A   1      46.704  31.126  27.168  1.00  0.00     0.010 A 
ATOM     63  C   UNL A   1      44.496  31.973  27.616  1.00  0.00     0.010 A 
ATOM     64  C   UNL A   1      47.073  32.387  26.683  1.00  0.00     0.020 A 
ATOM     65  C   UNL A   1      44.836  33.214  27.088  1.00  0.00     0.020 A 
ATOM     66  C   UNL A   1      46.135  33.423  26.652  1.00  0.00     0.054 A 
BRANCH  66  67
ATOM     67  S   UNL A   1      46.643  35.066  26.098  1.00  0.00     0.124 S 
ATOM     68  O   UNL A   1      47.581  34.742  25.028  1.00  0.00    -0.237 OA
ATOM     69  O   UNL A   1      45.377  35.659  25.677  1.00  0.00    -0.237 OA
ATOM     70  O   UNL A   1      47.236  35.661  27.294  1.00  0.00    -0.744 OA
ENDBRANCH  66  67
ENDBRANCH  47  61
BRANCH  48  71
ATOM     71  C   UNL A   1      37.725  31.406  31.191  1.00  0.00    -0.014 A 
ATOM     72  C   UNL A   1      36.490  30.955  31.692  1.00  0.00     0.010 A 
ATOM     73  C   UNL A   1      37.840  32.774  30.867  1.00  0.00     0.010 A 
ATOM     74  C   UNL A   1      35.430  31.851  31.921  1.00  0.00     0.020 A 
ATOM     75  C   UNL A   1      36.788  33.672  31.087  1.00  0.00     0.020 A 
ATOM     76  C   UNL A   1      35.594  33.210  31.637  1.00  0.00     0.054 A 
BRANCH  76  77
ATOM     77  S   UNL A   1      34.292  34.387  32.108  1.00  0.00     0.124 S 
ATOM     78  O   UNL A   1      33.602  34.611  30.842  1.00  0.00    -0.237 OA
ATOM     79  O   UNL A   1      33.540  33.643  33.116  1.00  0.00    -0.237 OA
ATOM     80  O   UNL A   1      35.036  35.538  32.620  1.00  0.00    -0.744 OA
ENDBRANCH  76  77
ENDBRANCH  48  71
BRANCH  60  81
ATOM     81  C   UNL A   1      42.986  28.911  33.704  1.00  0.00    -0.014 A 
ATOM     82  C   UNL A   1      43.066  29.320  35.051  1.00  0.00     0.010 A 
ATOM     83  C   UNL A   1      42.484  27.626  33.430  1.00  0.00     0.010 A 
ATOM     84  C   UNL A   1      42.685  28.457  36.090  1.00  0.00     0.020 A 
ATOM     85  C   UNL A   1      42.085  26.768  34.460  1.00  0.00     0.020 A 
ATOM     86  C   UNL A   1      42.197  27.183  35.787  1.00  0.00     0.054 A 
BRANCH  86  87
ATOM     87  S   UNL A   1      41.666  26.087  37.133  1.00  0.00     0.124 S 
ATOM     88  O   UNL A   1      41.497  24.806  36.451  1.00  0.00    -0.237 OA
ATOM     89  O   UNL A   1      42.784  26.156  38.071  1.00  0.00    -0.237 OA
ATOM     90  O   UNL A   1      40.428  26.698  37.613  1.00  0.00    -0.744 OA
ENDBRANCH  86  87
ENDBRANCH  60  81
ENDBRANCH  34  35
ENDBRANCH  26  29
ENDBRANCH  24  25
ENDBRANCH  23  24
ENDBRANCH   1  23
TORSDOF 18
ENDMDL
MODEL 2
REMARK VINA RESULT:     -12.2      1.395      2.114
REMARK SMILES Cc1ccc(C)c(NC(=O)/C=C/C(=O)NCCCCCCNC(=O)c2ccc(-c3c4nc(c(-c5ccc(S(=O)(=O)[O-])cc5)c5ccc([nH]5)c(-c5ccc(S(=O)(=O)[O-])cc5)c5nc(c(-c6ccc(S(=O)(=O)[O-])cc6)c6ccc3[nH]6)C=C5)C=C4)cc2)c1
REMARK SMILES IDX 19 1 18 2 17 3 16 4 15 5 13 6 14 7 12 9 11 10 9 11 8 12
REMARK SMILES IDX 10 14 7 15 1 16 2 17 3 18 85 19 4 20 5 21 6 22 20 23 21 24
REMARK SMILES IDX 22 25 23 26 24 28 25 29 26 30 84 31 27 32 83 33 28 34 29 35
REMARK SMILES IDX 30 36 77 37 31 38 82 39 76 40 78 41 32 42 81 43 75 44 74 45
REMARK SMILES IDX 33 47 63 48 44 49 62 50 45 51 48 52 61 53 79 54 46 55 47 56
REMARK SMILES IDX 60 58 80 59 49 60 34 61 35 62 43 63 36 64 42 65 37 66 38 67
REMARK SMILES IDX 39 68 40 69 41 70 64 71 65 72 73 73 66 74 72 75 67 76 68 77
REMARK SMILES IDX 69 78 70 79 71 80 50 81 51 82 59 83 52 84 58 85 53 86 54 87
REMARK SMILES IDX 55 88 56 89 57 90
REMARK H PARENT 15 8 8 13 22 27 78 46 48 57
REMARK Flexibility Score: inf
ROOT
ATOM      1  C   UNL A   1      36.134  21.374  24.606  1.00  0.00     0.002 C 
ENDROOT
BRANCH   1   2
ATOM      2  C   UNL A   1      34.998  20.687  25.377  1.00  0.00     0.002 C 
BRANCH   2   3
ATOM      3  C   UNL A   1      34.211  19.579  24.673  1.00  0.00     0.021 C 
BRANCH   3   4
ATOM      4  C   UNL A   1      32.747  19.887  24.376  1.00  0.00     0.116 C 
BRANCH   4   5
ATOM      5  N   UNL A   1      32.576  20.973  23.431  1.00  0.00    -0.353 N 
ATOM      6  C   UNL A   1      32.492  22.311  23.666  1.00  0.00     0.244 C 
ATOM      7  O   UNL A   1      32.770  23.099  22.765  1.00  0.00    -0.270 OA
ATOM      8  H   UNL A   1      32.510  20.706  22.486  1.00  0.00     0.163 HD
BRANCH   6   9
ATOM      9  C   UNL A   1      32.060  22.842  24.977  1.00  0.00     0.077 C 
ATOM     10  C   UNL A   1      30.854  23.398  25.140  1.00  0.00     0.077 C 
BRANCH  10  11
ATOM     11  C   UNL A   1      30.527  24.189  26.328  1.00  0.00     0.248 C 
ATOM     12  N   UNL A   1      30.699  25.543  26.326  1.00  0.00    -0.322 N 
ATOM     13  H   UNL A   1      30.339  25.984  27.129  1.00  0.00     0.170 HD
ATOM     14  O   UNL A   1      30.117  23.603  27.330  1.00  0.00    -0.270 OA
BRANCH  12  15
ATOM     15  C   UNL A   1      31.289  26.442  25.408  1.00  0.00     0.044 A 
ATOM     16  C   UNL A   1      29.842  28.666  22.654  1.00  0.00     0.044 C 
ATOM     17  C   UNL A   1      30.772  28.110  23.687  1.00  0.00    -0.049 A 
ATOM     18  C   UNL A   1      32.058  28.629  23.814  1.00  0.00     0.004 A 
ATOM     19  C   UNL A   1      30.383  27.055  24.523  1.00  0.00     0.029 A 
ATOM     20  C   UNL A   1      32.990  27.967  24.604  1.00  0.00     0.006 A 
ATOM     21  C   UNL A   1      32.642  26.796  25.303  1.00  0.00    -0.027 A 
ATOM     22  C   UNL A   1      33.794  25.897  25.659  1.00  0.00     0.046 C 
ENDBRANCH  12  15
ENDBRANCH  10  11
ENDBRANCH   6   9
ENDBRANCH   4   5
ENDBRANCH   3   4
ENDBRANCH   2   3
ENDBRANCH   1   2
BRANCH   1  23
ATOM     23  C   UNL A   1      36.328  22.898  24.667  1.00  0.00     0.021 C 
BRANCH  23  24
ATOM     24  C   UNL A   1      37.314  23.495  25.666  1.00  0.00     0.116 C 
BRANCH  24  25
ATOM     25  N   UNL A   1      38.252  22.523  26.234  1.00  0.00    -0.352 N 
ATOM     26  C   UNL A   1      39.517  22.623  26.803  1.00  0.00     0.251 C 
ATOM     27  H   UNL A   1      37.914  21.598  26.206  1.00  0.00     0.163 HD
ATOM     28  O   UNL A   1      40.206  21.621  26.885  1.00  0.00    -0.269 OA
BRANCH  26  29
ATOM     29  C   UNL A   1      40.035  23.918  27.313  1.00  0.00     0.039 A 
ATOM     30  C   UNL A   1      41.360  24.126  27.701  1.00  0.00     0.014 A 
ATOM     31  C   UNL A   1      39.145  24.954  27.498  1.00  0.00     0.014 A 
ATOM     32  C   UNL A   1      41.671  25.325  28.357  1.00  0.00     0.010 A 
ATOM     33  C   UNL A   1      39.542  26.233  27.698  1.00  0.00     0.010 A 
ATOM     34  C   UNL A   1      40.709  26.346  28.398  1.00  0.00    -0.014 A 
BRANCH  34  35
ATOM     35  C   UNL A   1      40.842  27.584  29.139  1.00  0.00     0.031 A 
ATOM     36  C   UNL A   1      41.889  28.453  28.599  1.00  0.00     0.074 A 
ATOM     37  C   UNL A   1      39.928  28.075  30.006  1.00  0.00     0.049 A 
ATOM     38  N   UNL A   1      43.073  28.620  29.075  1.00  0.00    -0.248 NA
ATOM     39  C   UNL A   1      41.659  29.055  27.277  1.00  0.00     0.031 C 
ATOM     40  C   UNL A   1      38.596  27.557  30.354  1.00  0.00     0.029 A 
ATOM     41  N   UNL A   1      39.979  29.248  30.697  1.00  0.00    -0.354 N 
ATOM     42  C   UNL A   1      43.664  29.542  28.233  1.00  0.00     0.074 A 
ATOM     43  C   UNL A   1      42.859  29.582  27.036  1.00  0.00     0.031 C 
ATOM     44  C   UNL A   1      37.904  28.506  31.030  1.00  0.00     0.029 A 
ATOM     45  C   UNL A   1      38.787  29.628  31.297  1.00  0.00     0.049 A 
ATOM     46  H   UNL A   1      40.801  29.785  30.766  1.00  0.00     0.167 HD
ATOM     47  C   UNL A   1      44.599  30.415  28.687  1.00  0.00     0.031 A 
ATOM     48  C   UNL A   1      38.547  30.802  31.935  1.00  0.00     0.031 A 
ATOM     49  C   UNL A   1      45.040  30.094  30.022  1.00  0.00     0.049 A 
ATOM     50  C   UNL A   1      39.865  31.371  32.314  1.00  0.00     0.074 A 
ATOM     51  C   UNL A   1      45.608  28.981  30.612  1.00  0.00     0.029 A 
ATOM     52  N   UNL A   1      44.496  30.832  31.051  1.00  0.00    -0.354 N 
ATOM     53  N   UNL A   1      40.672  30.812  33.173  1.00  0.00    -0.248 NA
ATOM     54  C   UNL A   1      40.488  32.341  31.426  1.00  0.00     0.031 C 
ATOM     55  C   UNL A   1      44.986  28.877  31.891  1.00  0.00     0.029 A 
ATOM     56  C   UNL A   1      44.117  29.961  32.044  1.00  0.00     0.049 A 
ATOM     57  H   UNL A   1      44.396  31.812  31.071  1.00  0.00     0.167 HD
ATOM     58  C   UNL A   1      41.946  31.024  32.664  1.00  0.00     0.074 A 
ATOM     59  C   UNL A   1      41.776  32.069  31.658  1.00  0.00     0.031 C 
ATOM     60  C   UNL A   1      42.962  30.142  32.906  1.00  0.00     0.031 A 
BRANCH  47  61
ATOM     61  C   UNL A   1      44.801  31.766  28.067  1.00  0.00    -0.014 A 
ATOM     62  C   UNL A   1      46.031  32.065  27.461  1.00  0.00     0.010 A 
ATOM     63  C   UNL A   1      43.890  32.828  28.254  1.00  0.00     0.010 A 
ATOM     64  C   UNL A   1      46.339  33.376  27.076  1.00  0.00     0.020 A 
ATOM     65  C   UNL A   1      44.164  34.124  27.827  1.00  0.00     0.020 A 
ATOM     66  C   UNL A   1      45.402  34.396  27.267  1.00  0.00     0.054 A 
BRANCH  66  67
ATOM     67  S   UNL A   1      45.840  36.097  26.838  1.00  0.00     0.124 S 
ATOM     68  O   UNL A   1      46.555  35.911  25.579  1.00  0.00    -0.237 OA
ATOM     69  O   UNL A   1      44.533  36.739  26.738  1.00  0.00    -0.237 OA
ATOM     70  O   UNL A   1      46.659  36.533  27.967  1.00  0.00    -0.744 OA
ENDBRANCH  66  67
ENDBRANCH  47  61
BRANCH  48  71
ATOM     71  C   UNL A   1      37.288  31.588  31.982  1.00  0.00    -0.014 A 
ATOM     72  C   UNL A   1      36.721  31.990  33.206  1.00  0.00     0.010 A 
ATOM     73  C   UNL A   1      36.797  32.189  30.804  1.00  0.00     0.010 A 
ATOM     74  C   UNL A   1      35.745  33.003  33.254  1.00  0.00     0.020 A 
ATOM     75  C   UNL A   1      35.822  33.194  30.844  1.00  0.00     0.020 A 
ATOM     76  C   UNL A   1      35.318  33.614  32.072  1.00  0.00     0.054 A 
BRANCH  76  77
ATOM     77  S   UNL A   1      34.199  35.044  32.158  1.00  0.00     0.124 S 
ATOM     78  O   UNL A   1      34.034  35.395  30.751  1.00  0.00    -0.237 OA
ATOM     79  O   UNL A   1      33.020  34.487  32.815  1.00  0.00    -0.237 OA
ATOM     80  O   UNL A   1      34.946  36.018  32.955  1.00  0.00    -0.744 OA
ENDBRANCH  76  77
ENDBRANCH  48  71
BRANCH  60  81
ATOM     81  C   UNL A   1      42.766  29.114  34.004  1.00  0.00    -0.014 A 
ATOM     82  C   UNL A   1      43.089  29.338  35.357  1.00  0.00     0.010 A 
ATOM     83  C   UNL A   1      42.107  27.917  33.670  1.00  0.00     0.010 A 
ATOM     84  C   UNL A   1      42.790  28.381  36.339  1.00  0.00     0.020 A 
ATOM     85  C   UNL A   1      41.788  26.967  34.645  1.00  0.00     0.020 A 
ATOM     86  C   UNL A   1      42.141  27.198  35.975  1.00  0.00     0.054 A 
BRANCH  86  87
ATOM     87  S   UNL A   1      41.718  25.981  37.254  1.00  0.00     0.124 S 
ATOM     88  O   UNL A   1      42.776  26.178  38.242  1.00  0.00    -0.237 OA
ATOM     89  O   UNL A   1      40.382  26.401  37.673  1.00  0.00    -0.237 OA
ATOM     90  O   UNL A   1      41.762  24.702  36.548  1.00  0.00    -0.744 OA
ENDBRANCH  86  87
ENDBRANCH  60  81
ENDBRANCH  34  35
ENDBRANCH  26  29
ENDBRANCH  24  25
ENDBRANCH  23  24
ENDBRANCH   1  23
TORSDOF 18
ENDMDL
MODEL 3
REMARK VINA RESULT:     -12.1      1.365      2.166
REMARK SMILES Cc1ccc(C)c(NC(=O)/C=C/C(=O)NCCCCCCNC(=O)c2ccc(-c3c4nc(c(-c5ccc(S(=O)(=O)[O-])cc5)c5ccc([nH]5)c(-c5ccc(S(=O)(=O)[O-])cc5)c5nc(c(-c6ccc(S(=O)(=O)[O-])cc6)c6ccc3[nH]6)C=C5)C=C4)cc2)c1
REMARK SMILES IDX 19 1 18 2 17 3 16 4 15 5 13 6 14 7 12 9 11 10 9 11 8 12
REMARK SMILES IDX 10 14 7 15 1 16 2 17 3 18 85 19 4 20 5 21 6 22 20 23 21 24
REMARK SMILES IDX 22 25 23 26 24 28 25 29 26 30 84 31 27 32 83 33 28 34 29 35
REMARK SMILES IDX 30 36 77 37 31 38 82 39 76 40 78 41 32 42 81 43 75 44 74 45
REMARK SMILES IDX 33 47 63 48 44 49 62 50 45 51 48 52 61 53 79 54 46 55 47 56
REMARK SMILES IDX 60 58 80 59 49 60 34 61 35 62 43 63 36 64 42 65 37 66 38 67
REMARK SMILES IDX 39 68 40 69 41 70 64 71 65 72 73 73 66 74 72 75 67 76 68 77
REMARK SMILES IDX 69 78 70 79 71 80 50 81 51 82 59 83 52 84 58 85 53 86 54 87
REMARK SMILES IDX 55 88 56 89 57 90
REMARK H PARENT 15 8 8 13 22 27 78 46 48 57
REMARK Flexibility Score: inf
ROOT
ATOM      1  C   UNL A   1      35.807  23.033  23.452  1.00  0.00     0.002 C 
ENDROOT
BRANCH   1   2
ATOM      2  C   UNL A   1      34.651  23.970  23.828  1.00  0.00     0.002 C 
BRANCH   2   3
ATOM      3  C   UNL A   1      34.118  24.930  22.761  1.00  0.00     0.021 C 
BRANCH   3   4
ATOM      4  C   UNL A   1      32.989  24.395  21.886  1.00  0.00     0.116 C 
BRANCH   4   5
ATOM      5  N   UNL A   1      32.010  25.407  21.542  1.00  0.00    -0.353 N 
ATOM      6  C   UNL A   1      31.239  26.172  22.362  1.00  0.00     0.244 C 
ATOM      7  O   UNL A   1      30.794  27.240  21.947  1.00  0.00    -0.270 OA
ATOM      8  H   UNL A   1      31.883  25.563  20.578  1.00  0.00     0.163 HD
BRANCH   6   9
ATOM      9  C   UNL A   1      30.912  25.745  23.739  1.00  0.00     0.077 C 
ATOM     10  C   UNL A   1      30.412  26.605  24.635  1.00  0.00     0.077 C 
BRANCH  10  11
ATOM     11  C   UNL A   1      30.366  26.285  26.063  1.00  0.00     0.248 C 
ATOM     12  N   UNL A   1      31.088  27.018  26.959  1.00  0.00    -0.322 N 
ATOM     13  H   UNL A   1      30.892  26.794  27.897  1.00  0.00     0.170 HD
ATOM     14  O   UNL A   1      29.681  25.331  26.430  1.00  0.00    -0.270 OA
BRANCH  12  15
ATOM     15  C   UNL A   1      32.062  28.034  26.816  1.00  0.00     0.044 A 
ATOM     16  C   UNL A   1      31.870  31.852  26.930  1.00  0.00     0.044 C 
ATOM     17  C   UNL A   1      32.409  30.456  26.977  1.00  0.00    -0.049 A 
ATOM     18  C   UNL A   1      33.782  30.246  27.075  1.00  0.00     0.004 A 
ATOM     19  C   UNL A   1      31.558  29.345  26.901  1.00  0.00     0.029 A 
ATOM     20  C   UNL A   1      34.296  28.968  26.886  1.00  0.00     0.006 A 
ATOM     21  C   UNL A   1      33.443  27.879  26.627  1.00  0.00    -0.027 A 
ATOM     22  C   UNL A   1      34.087  26.714  25.925  1.00  0.00     0.046 C 
ENDBRANCH  12  15
ENDBRANCH  10  11
ENDBRANCH   6   9
ENDBRANCH   4   5
ENDBRANCH   3   4
ENDBRANCH   2   3
ENDBRANCH   1   2
BRANCH   1  23
ATOM     23  C   UNL A   1      36.595  22.271  24.529  1.00  0.00     0.021 C 
BRANCH  23  24
ATOM     24  C   UNL A   1      37.617  23.014  25.384  1.00  0.00     0.116 C 
BRANCH  24  25
ATOM     25  N   UNL A   1      38.506  22.137  26.150  1.00  0.00    -0.352 N 
ATOM     26  C   UNL A   1      39.700  22.334  26.836  1.00  0.00     0.251 C 
ATOM     27  H   UNL A   1      38.190  21.204  26.188  1.00  0.00     0.163 HD
ATOM     28  O   UNL A   1      40.394  21.368  27.098  1.00  0.00    -0.269 OA
BRANCH  26  29
ATOM     29  C   UNL A   1      40.135  23.692  27.255  1.00  0.00     0.039 A 
ATOM     30  C   UNL A   1      41.471  24.076  27.374  1.00  0.00     0.014 A 
ATOM     31  C   UNL A   1      39.172  24.603  27.631  1.00  0.00     0.014 A 
ATOM     32  C   UNL A   1      41.747  25.312  27.974  1.00  0.00     0.010 A 
ATOM     33  C   UNL A   1      39.430  25.925  27.769  1.00  0.00     0.010 A 
ATOM     34  C   UNL A   1      40.688  26.198  28.224  1.00  0.00    -0.014 A 
BRANCH  34  35
ATOM     35  C   UNL A   1      40.803  27.450  28.944  1.00  0.00     0.031 A 
ATOM     36  C   UNL A   1      41.899  28.284  28.450  1.00  0.00     0.074 A 
ATOM     37  C   UNL A   1      39.849  27.979  29.744  1.00  0.00     0.049 A 
ATOM     38  N   UNL A   1      43.055  28.438  28.993  1.00  0.00    -0.248 NA
ATOM     39  C   UNL A   1      41.761  28.860  27.103  1.00  0.00     0.031 C 
ATOM     40  C   UNL A   1      38.487  27.496  30.021  1.00  0.00     0.029 A 
ATOM     41  N   UNL A   1      39.884  29.166  30.410  1.00  0.00    -0.354 N 
ATOM     42  C   UNL A   1      43.716  29.328  28.168  1.00  0.00     0.074 A 
ATOM     43  C   UNL A   1      42.985  29.357  26.924  1.00  0.00     0.031 C 
ATOM     44  C   UNL A   1      37.776  28.474  30.633  1.00  0.00     0.029 A 
ATOM     45  C   UNL A   1      38.666  29.585  30.929  1.00  0.00     0.049 A 
ATOM     46  H   UNL A   1      40.711  29.688  30.517  1.00  0.00     0.167 HD
ATOM     47  C   UNL A   1      44.641  30.193  28.659  1.00  0.00     0.031 A 
ATOM     48  C   UNL A   1      38.414  30.777  31.525  1.00  0.00     0.031 A 
ATOM     49  C   UNL A   1      44.993  29.894  30.025  1.00  0.00     0.049 A 
ATOM     50  C   UNL A   1      39.719  31.329  31.970  1.00  0.00     0.074 A 
ATOM     51  C   UNL A   1      45.501  28.784  30.672  1.00  0.00     0.029 A 
ATOM     52  N   UNL A   1      44.405  30.667  31.003  1.00  0.00    -0.354 N 
ATOM     53  N   UNL A   1      40.460  30.774  32.889  1.00  0.00    -0.248 NA
ATOM     54  C   UNL A   1      40.415  32.265  31.101  1.00  0.00     0.031 C 
ATOM     55  C   UNL A   1      44.801  28.721  31.914  1.00  0.00     0.029 A 
ATOM     56  C   UNL A   1      43.948  29.826  31.990  1.00  0.00     0.049 A 
ATOM     57  H   UNL A   1      44.325  31.648  30.995  1.00  0.00     0.167 HD
ATOM     58  C   UNL A   1      41.767  30.947  32.453  1.00  0.00     0.074 A 
ATOM     59  C   UNL A   1      41.680  31.972  31.416  1.00  0.00     0.031 C 
ATOM     60  C   UNL A   1      42.747  30.051  32.776  1.00  0.00     0.031 A 
BRANCH  47  61
ATOM     61  C   UNL A   1      44.908  31.524  28.023  1.00  0.00    -0.014 A 
ATOM     62  C   UNL A   1      46.224  31.863  27.670  1.00  0.00     0.010 A 
ATOM     63  C   UNL A   1      43.933  32.543  27.960  1.00  0.00     0.010 A 
ATOM     64  C   UNL A   1      46.547  33.171  27.287  1.00  0.00     0.020 A 
ATOM     65  C   UNL A   1      44.233  33.832  27.530  1.00  0.00     0.020 A 
ATOM     66  C   UNL A   1      45.548  34.146  27.225  1.00  0.00     0.054 A 
BRANCH  66  67
ATOM     67  S   UNL A   1      45.991  35.848  26.806  1.00  0.00     0.124 S 
ATOM     68  O   UNL A   1      44.711  36.533  26.953  1.00  0.00    -0.237 OA
ATOM     69  O   UNL A   1      47.001  36.164  27.811  1.00  0.00    -0.237 OA
ATOM     70  O   UNL A   1      46.492  35.742  25.437  1.00  0.00    -0.744 OA
ENDBRANCH  66  67
ENDBRANCH  47  61
BRANCH  48  71
ATOM     71  C   UNL A   1      37.172  31.590  31.478  1.00  0.00    -0.014 A 
ATOM     72  C   UNL A   1      36.287  31.638  32.572  1.00  0.00     0.010 A 
ATOM     73  C   UNL A   1      37.003  32.548  30.457  1.00  0.00     0.010 A 
ATOM     74  C   UNL A   1      35.312  32.647  32.670  1.00  0.00     0.020 A 
ATOM     75  C   UNL A   1      36.031  33.553  30.545  1.00  0.00     0.020 A 
ATOM     76  C   UNL A   1      35.205  33.612  31.665  1.00  0.00     0.054 A 
BRANCH  76  77
ATOM     77  S   UNL A   1      34.073  35.017  31.889  1.00  0.00     0.124 S 
ATOM     78  O   UNL A   1      33.759  35.386  30.512  1.00  0.00    -0.237 OA
ATOM     79  O   UNL A   1      32.977  34.424  32.651  1.00  0.00    -0.237 OA
ATOM     80  O   UNL A   1      34.877  35.994  32.624  1.00  0.00    -0.744 OA
ENDBRANCH  76  77
ENDBRANCH  48  71
BRANCH  60  81
ATOM     81  C   UNL A   1      42.463  29.052  33.882  1.00  0.00    -0.014 A 
ATOM     82  C   UNL A   1      41.851  27.800  33.672  1.00  0.00     0.010 A 
ATOM     83  C   UNL A   1      42.954  29.343  35.168  1.00  0.00     0.010 A 
ATOM     84  C   UNL A   1      41.707  26.882  34.724  1.00  0.00     0.020 A 
ATOM     85  C   UNL A   1      42.831  28.425  36.216  1.00  0.00     0.020 A 
ATOM     86  C   UNL A   1      42.199  27.202  35.992  1.00  0.00     0.054 A 
BRANCH  86  87
ATOM     87  S   UNL A   1      42.049  25.993  37.339  1.00  0.00     0.124 S 
ATOM     88  O   UNL A   1      42.398  24.738  36.678  1.00  0.00    -0.237 OA
ATOM     89  O   UNL A   1      43.018  26.478  38.320  1.00  0.00    -0.237 OA
ATOM     90  O   UNL A   1      40.652  26.105  37.754  1.00  0.00    -0.744 OA
ENDBRANCH  86  87
ENDBRANCH  60  81
ENDBRANCH  34  35
ENDBRANCH  26  29
ENDBRANCH  24  25
ENDBRANCH  23  24
ENDBRANCH   1  23
TORSDOF 18
ENDMDL
