MODEL 1
REMARK VINA RESULT:     -10.9      0.000      0.000
REMARK SMILES C[C@H](O)[C@H](C)[N@H+]1Cc2ccccc2C[C@@H]1C(=O)NCCCCCCNC(=O)c1ccc(-c2c3nc(c(-c4ccc(S(=O)(=O)[O-])cc4)c4ccc([nH]4)c(-c4ccc(S(=O)(=O)[O-])cc4)c4nc(c(-c5ccc(S(=O)(=O)[O-])cc5)c5ccc2[nH]5)C=C4)C=C3)cc1
REMARK SMILES IDX 21 1 20 2 19 3 18 4 16 5 17 6 15 8 6 9 7 10 8 12 14 13 9 14
REMARK SMILES IDX 13 15 10 16 12 17 11 18 4 19 5 20 2 21 1 22 3 23 22 25 23 26
REMARK SMILES IDX 24 27 25 28 26 29 27 31 28 32 29 33 87 34 30 35 86 36 31 37
REMARK SMILES IDX 32 38 33 39 80 40 34 41 85 42 79 43 81 44 35 45 84 46 78 47
REMARK SMILES IDX 77 48 36 50 66 51 47 52 65 53 48 54 51 55 64 56 82 57 49 58
REMARK SMILES IDX 50 59 63 61 83 62 52 63 37 64 38 65 46 66 39 67 45 68 40 69
REMARK SMILES IDX 41 70 42 71 43 72 44 73 67 74 68 75 76 76 69 77 75 78 70 79
REMARK SMILES IDX 71 80 72 81 73 82 74 83 53 84 54 85 62 86 55 87 61 88 56 89
REMARK SMILES IDX 57 90 58 91 59 92 60 93
REMARK H PARENT 18 7 6 11 3 24 25 30 81 49 51 60
REMARK Flexibility Score: inf
ROOT
ATOM      1  C   UNL A   1      32.190  25.166  26.469  1.00  0.00     0.002 C 
ENDROOT
BRANCH   1   2
ATOM      2  C   UNL A   1      31.000  24.325  25.990  1.00  0.00     0.021 C 
BRANCH   2   3
ATOM      3  C   UNL A   1      31.336  22.868  25.676  1.00  0.00     0.116 C 
BRANCH   3   4
ATOM      4  N   UNL A   1      32.287  22.342  26.632  1.00  0.00    -0.351 N 
ATOM      5  C   UNL A   1      33.303  21.445  26.488  1.00  0.00     0.278 C 
ATOM      6  O   UNL A   1      33.888  21.124  27.525  1.00  0.00    -0.268 OA
ATOM      7  H   UNL A   1      32.181  22.694  27.546  1.00  0.00     0.163 HD
BRANCH   5   8
ATOM      8  C   UNL A   1      33.684  20.911  25.079  1.00  0.00     0.279 C 
ATOM      9  N   UNL A   1      34.518  19.682  25.231  1.00  0.00    -0.316 N 
ATOM     10  C   UNL A   1      35.964  19.876  25.042  1.00  0.00     0.300 C 
ATOM     11  H   UNL A   1      34.471  19.460  26.226  1.00  0.00     0.349 HD
ATOM     12  C   UNL A   1      36.480  21.290  25.201  1.00  0.00     0.010 A 
ATOM     13  C   UNL A   1      34.319  22.049  24.255  1.00  0.00     0.111 C 
ATOM     14  C   UNL A   1      37.745  21.549  25.742  1.00  0.00     0.010 A 
ATOM     15  C   UNL A   1      35.701  22.361  24.747  1.00  0.00    -0.033 A 
ATOM     16  C   UNL A   1      38.214  22.861  25.838  1.00  0.00     0.001 A 
ATOM     17  C   UNL A   1      36.181  23.671  24.821  1.00  0.00     0.004 A 
ATOM     18  C   UNL A   1      37.435  23.920  25.374  1.00  0.00     0.000 A 
BRANCH   9  19
ATOM     19  C   UNL A   1      33.936  18.491  24.565  1.00  0.00     0.210 C 
ATOM     20  C   UNL A   1      35.007  17.535  23.999  1.00  0.00     0.078 C 
BRANCH  19  21
ATOM     21  C   UNL A   1      32.819  17.679  25.320  1.00  0.00     0.169 C 
ATOM     22  C   UNL A   1      33.153  16.250  25.727  1.00  0.00     0.045 C 
BRANCH  21  23
ATOM     23  O   UNL A   1      31.572  17.666  24.620  1.00  0.00    -0.387 OA
ATOM     24  H   UNL A   1      30.844  17.739  25.256  1.00  0.00     0.211 HD
ENDBRANCH  21  23
ENDBRANCH  19  21
ENDBRANCH   9  19
ENDBRANCH   5   8
ENDBRANCH   3   4
ENDBRANCH   2   3
ENDBRANCH   1   2
BRANCH   1  25
ATOM     25  C   UNL A   1      33.079  25.734  25.359  1.00  0.00     0.002 C 
BRANCH  25  26
ATOM     26  C   UNL A   1      33.217  27.257  25.354  1.00  0.00     0.021 C 
BRANCH  26  27
ATOM     27  C   UNL A   1      34.002  27.830  26.529  1.00  0.00     0.116 C 
BRANCH  27  28
ATOM     28  N   UNL A   1      33.590  29.184  26.861  1.00  0.00    -0.352 N 
ATOM     29  C   UNL A   1      34.253  30.139  27.594  1.00  0.00     0.251 C 
ATOM     30  H   UNL A   1      32.712  29.456  26.510  1.00  0.00     0.163 HD
ATOM     31  O   UNL A   1      33.676  31.167  27.927  1.00  0.00    -0.269 OA
BRANCH  29  32
ATOM     32  C   UNL A   1      35.658  29.908  27.999  1.00  0.00     0.039 A 
ATOM     33  C   UNL A   1      35.923  29.469  29.299  1.00  0.00     0.014 A 
ATOM     34  C   UNL A   1      36.708  30.119  27.101  1.00  0.00     0.014 A 
ATOM     35  C   UNL A   1      37.237  29.182  29.677  1.00  0.00     0.010 A 
ATOM     36  C   UNL A   1      38.005  29.759  27.455  1.00  0.00     0.010 A 
ATOM     37  C   UNL A   1      38.285  29.290  28.747  1.00  0.00    -0.014 A 
BRANCH  37  38
ATOM     38  C   UNL A   1      39.676  28.912  29.108  1.00  0.00     0.031 A 
ATOM     39  C   UNL A   1      40.575  29.898  29.803  1.00  0.00     0.074 A 
ATOM     40  C   UNL A   1      40.150  27.701  28.756  1.00  0.00     0.049 A 
ATOM     41  N   UNL A   1      41.828  29.763  30.159  1.00  0.00    -0.248 NA
ATOM     42  C   UNL A   1      40.000  31.215  30.118  1.00  0.00     0.031 C 
ATOM     43  C   UNL A   1      39.391  26.667  28.046  1.00  0.00     0.029 A 
ATOM     44  N   UNL A   1      41.386  27.132  28.945  1.00  0.00    -0.354 N 
ATOM     45  C   UNL A   1      42.193  30.978  30.727  1.00  0.00     0.074 A 
ATOM     46  C   UNL A   1      41.048  31.857  30.614  1.00  0.00     0.031 C 
ATOM     47  C   UNL A   1      40.165  25.581  27.891  1.00  0.00     0.029 A 
ATOM     48  C   UNL A   1      41.487  25.854  28.447  1.00  0.00     0.049 A 
ATOM     49  H   UNL A   1      42.129  27.596  29.393  1.00  0.00     0.167 HD
ATOM     50  C   UNL A   1      43.367  31.329  31.306  1.00  0.00     0.031 A 
ATOM     51  C   UNL A   1      42.527  24.998  28.433  1.00  0.00     0.031 A 
ATOM     52  C   UNL A   1      44.505  30.453  31.412  1.00  0.00     0.049 A 
ATOM     53  C   UNL A   1      43.831  25.416  29.055  1.00  0.00     0.074 A 
ATOM     54  C   UNL A   1      45.722  30.694  32.025  1.00  0.00     0.029 A 
ATOM     55  N   UNL A   1      44.570  29.171  30.886  1.00  0.00    -0.354 N 
ATOM     56  N   UNL A   1      44.136  26.547  29.645  1.00  0.00    -0.248 NA
ATOM     57  C   UNL A   1      44.926  24.439  29.018  1.00  0.00     0.031 C 
ATOM     58  C   UNL A   1      46.545  29.583  31.815  1.00  0.00     0.029 A 
ATOM     59  C   UNL A   1      45.818  28.621  31.132  1.00  0.00     0.049 A 
ATOM     60  H   UNL A   1      43.838  28.718  30.409  1.00  0.00     0.167 HD
ATOM     61  C   UNL A   1      45.451  26.407  30.074  1.00  0.00     0.074 A 
ATOM     62  C   UNL A   1      45.876  25.077  29.688  1.00  0.00     0.031 C 
ATOM     63  C   UNL A   1      46.233  27.298  30.732  1.00  0.00     0.031 A 
BRANCH  50  64
ATOM     64  C   UNL A   1      43.479  32.730  31.852  1.00  0.00    -0.014 A 
ATOM     65  C   UNL A   1      43.994  33.779  31.068  1.00  0.00     0.010 A 
ATOM     66  C   UNL A   1      43.052  33.006  33.164  1.00  0.00     0.010 A 
ATOM     67  C   UNL A   1      44.134  35.063  31.603  1.00  0.00     0.020 A 
ATOM     68  C   UNL A   1      43.158  34.297  33.691  1.00  0.00     0.020 A 
ATOM     69  C   UNL A   1      43.721  35.311  32.915  1.00  0.00     0.054 A 
BRANCH  69  70
ATOM     70  S   UNL A   1      43.920  36.985  33.586  1.00  0.00     0.124 S 
ATOM     71  O   UNL A   1      45.037  36.808  34.510  1.00  0.00    -0.237 OA
ATOM     72  O   UNL A   1      44.211  37.776  32.393  1.00  0.00    -0.237 OA
ATOM     73  O   UNL A   1      42.631  37.262  34.214  1.00  0.00    -0.744 OA
ENDBRANCH  69  70
ENDBRANCH  50  64
BRANCH  51  74
ATOM     74  C   UNL A   1      42.363  23.647  27.826  1.00  0.00    -0.014 A 
ATOM     75  C   UNL A   1      42.920  23.361  26.568  1.00  0.00     0.010 A 
ATOM     76  C   UNL A   1      41.679  22.632  28.518  1.00  0.00     0.010 A 
ATOM     77  C   UNL A   1      42.790  22.086  26.009  1.00  0.00     0.020 A 
ATOM     78  C   UNL A   1      41.572  21.349  27.976  1.00  0.00     0.020 A 
ATOM     79  C   UNL A   1      42.123  21.085  26.721  1.00  0.00     0.054 A 
BRANCH  79  80
ATOM     80  S   UNL A   1      42.032  19.419  26.008  1.00  0.00     0.124 S 
ATOM     81  O   UNL A   1      42.587  18.598  27.080  1.00  0.00    -0.237 OA
ATOM     82  O   UNL A   1      40.601  19.260  25.764  1.00  0.00    -0.237 OA
ATOM     83  O   UNL A   1      42.853  19.516  24.804  1.00  0.00    -0.744 OA
ENDBRANCH  79  80
ENDBRANCH  51  74
BRANCH  63  84
ATOM     84  C   UNL A   1      47.626  26.858  31.105  1.00  0.00    -0.014 A 
ATOM     85  C   UNL A   1      47.870  26.117  32.274  1.00  0.00     0.010 A 
ATOM     86  C   UNL A   1      48.698  27.146  30.240  1.00  0.00     0.010 A 
ATOM     87  C   UNL A   1      49.168  25.700  32.588  1.00  0.00     0.020 A 
ATOM     88  C   UNL A   1      49.990  26.703  30.533  1.00  0.00     0.020 A 
ATOM     89  C   UNL A   1      50.219  25.995  31.714  1.00  0.00     0.054 A 
BRANCH  89  90
ATOM     90  S   UNL A   1      51.885  25.404  32.124  1.00  0.00     0.124 S 
ATOM     91  O   UNL A   1      52.645  25.791  30.939  1.00  0.00    -0.237 OA
ATOM     92  O   UNL A   1      52.197  26.148  33.341  1.00  0.00    -0.237 OA
ATOM     93  O   UNL A   1      51.707  23.966  32.308  1.00  0.00    -0.744 OA
ENDBRANCH  89  90
ENDBRANCH  63  84
ENDBRANCH  37  38
ENDBRANCH  29  32
ENDBRANCH  27  28
ENDBRANCH  26  27
ENDBRANCH  25  26
ENDBRANCH   1  25
TORSDOF 19
ENDMDL
MODEL 2
REMARK VINA RESULT:     -10.1      0.761      8.199
REMARK SMILES C[C@H](O)[C@H](C)[N@H+]1Cc2ccccc2C[C@@H]1C(=O)NCCCCCCNC(=O)c1ccc(-c2c3nc(c(-c4ccc(S(=O)(=O)[O-])cc4)c4ccc([nH]4)c(-c4ccc(S(=O)(=O)[O-])cc4)c4nc(c(-c5ccc(S(=O)(=O)[O-])cc5)c5ccc2[nH]5)C=C4)C=C3)cc1
REMARK SMILES IDX 21 1 20 2 19 3 18 4 16 5 17 6 15 8 6 9 7 10 8 12 14 13 9 14
REMARK SMILES IDX 13 15 10 16 12 17 11 18 4 19 5 20 2 21 1 22 3 23 22 25 23 26
REMARK SMILES IDX 24 27 25 28 26 29 27 31 28 32 29 33 87 34 30 35 86 36 31 37
REMARK SMILES IDX 32 38 33 39 80 40 34 41 85 42 79 43 81 44 35 45 84 46 78 47
REMARK SMILES IDX 77 48 36 50 66 51 47 52 65 53 48 54 51 55 64 56 82 57 49 58
REMARK SMILES IDX 50 59 63 61 83 62 52 63 37 64 38 65 46 66 39 67 45 68 40 69
REMARK SMILES IDX 41 70 42 71 43 72 44 73 67 74 68 75 76 76 69 77 75 78 70 79
REMARK SMILES IDX 71 80 72 81 73 82 74 83 53 84 54 85 62 86 55 87 61 88 56 89
REMARK SMILES IDX 57 90 58 91 59 92 60 93
REMARK H PARENT 18 7 6 11 3 24 25 30 81 49 51 60
REMARK Flexibility Score: inf
ROOT
ATOM      1  C   UNL A   1      31.401  25.878  26.537  1.00  0.00     0.002 C 
ENDROOT
BRANCH   1   2
ATOM      2  C   UNL A   1      30.721  24.627  25.966  1.00  0.00     0.021 C 
BRANCH   2   3
ATOM      3  C   UNL A   1      31.680  23.595  25.377  1.00  0.00     0.116 C 
BRANCH   3   4
ATOM      4  N   UNL A   1      32.402  22.905  26.424  1.00  0.00    -0.351 N 
ATOM      5  C   UNL A   1      33.188  21.792  26.390  1.00  0.00     0.278 C 
ATOM      6  O   UNL A   1      33.597  21.389  27.482  1.00  0.00    -0.268 OA
ATOM      7  H   UNL A   1      32.309  23.310  27.316  1.00  0.00     0.163 HD
BRANCH   5   8
ATOM      8  C   UNL A   1      33.544  21.124  25.033  1.00  0.00     0.279 C 
ATOM      9  N   UNL A   1      34.273  19.847  25.292  1.00  0.00    -0.316 N 
ATOM     10  C   UNL A   1      35.732  19.910  25.119  1.00  0.00     0.300 C 
ATOM     11  H   UNL A   1      34.194  19.705  26.300  1.00  0.00     0.349 HD
ATOM     12  C   UNL A   1      36.360  21.285  25.184  1.00  0.00     0.010 A 
ATOM     13  C   UNL A   1      34.282  22.142  24.139  1.00  0.00     0.111 C 
ATOM     14  C   UNL A   1      37.634  21.482  25.729  1.00  0.00     0.010 A 
ATOM     15  C   UNL A   1      35.678  22.378  24.635  1.00  0.00    -0.033 A 
ATOM     16  C   UNL A   1      38.207  22.755  25.738  1.00  0.00     0.001 A 
ATOM     17  C   UNL A   1      36.262  23.647  24.622  1.00  0.00     0.004 A 
ATOM     18  C   UNL A   1      37.524  23.835  25.181  1.00  0.00     0.000 A 
BRANCH   9  19
ATOM     19  C   UNL A   1      33.605  18.660  24.704  1.00  0.00     0.210 C 
ATOM     20  C   UNL A   1      32.654  19.018  23.543  1.00  0.00     0.078 C 
BRANCH  19  21
ATOM     21  C   UNL A   1      34.488  17.413  24.326  1.00  0.00     0.169 C 
ATOM     22  C   UNL A   1      34.080  16.621  23.091  1.00  0.00     0.045 C 
BRANCH  21  23
ATOM     23  O   UNL A   1      34.650  16.497  25.413  1.00  0.00    -0.387 OA
ATOM     24  H   UNL A   1      33.832  16.466  25.934  1.00  0.00     0.211 HD
ENDBRANCH  21  23
ENDBRANCH  19  21
ENDBRANCH   9  19
ENDBRANCH   5   8
ENDBRANCH   3   4
ENDBRANCH   2   3
ENDBRANCH   1   2
BRANCH   1  25
ATOM     25  C   UNL A   1      32.642  26.353  25.776  1.00  0.00     0.002 C 
BRANCH  25  26
ATOM     26  C   UNL A   1      32.894  27.861  25.825  1.00  0.00     0.021 C 
BRANCH  26  27
ATOM     27  C   UNL A   1      33.983  28.293  26.800  1.00  0.00     0.116 C 
BRANCH  27  28
ATOM     28  N   UNL A   1      33.765  29.637  27.311  1.00  0.00    -0.352 N 
ATOM     29  C   UNL A   1      34.591  30.417  28.083  1.00  0.00     0.251 C 
ATOM     30  H   UNL A   1      32.904  30.046  27.068  1.00  0.00     0.163 HD
ATOM     31  O   UNL A   1      34.169  31.457  28.575  1.00  0.00    -0.269 OA
BRANCH  29  32
ATOM     32  C   UNL A   1      35.983  29.984  28.339  1.00  0.00     0.039 A 
ATOM     33  C   UNL A   1      36.939  30.154  27.334  1.00  0.00     0.014 A 
ATOM     34  C   UNL A   1      36.345  29.418  29.564  1.00  0.00     0.014 A 
ATOM     35  C   UNL A   1      38.270  29.812  27.581  1.00  0.00     0.010 A 
ATOM     36  C   UNL A   1      37.684  29.151  29.836  1.00  0.00     0.010 A 
ATOM     37  C   UNL A   1      38.661  29.342  28.847  1.00  0.00    -0.014 A 
BRANCH  37  38
ATOM     38  C   UNL A   1      40.086  29.050  29.154  1.00  0.00     0.031 A 
ATOM     39  C   UNL A   1      40.678  27.711  28.809  1.00  0.00     0.074 A 
ATOM     40  C   UNL A   1      40.830  29.971  29.798  1.00  0.00     0.049 A 
ATOM     41  N   UNL A   1      41.886  27.261  29.036  1.00  0.00    -0.248 NA
ATOM     42  C   UNL A   1      39.792  26.743  28.144  1.00  0.00     0.031 C 
ATOM     43  C   UNL A   1      40.364  31.294  30.221  1.00  0.00     0.029 A 
ATOM     44  N   UNL A   1      42.139  29.934  30.213  1.00  0.00    -0.354 N 
ATOM     45  C   UNL A   1      41.901  25.957  28.555  1.00  0.00     0.074 A 
ATOM     46  C   UNL A   1      40.566  25.669  28.078  1.00  0.00     0.031 C 
ATOM     47  C   UNL A   1      41.377  31.953  30.802  1.00  0.00     0.029 A 
ATOM     48  C   UNL A   1      42.552  31.087  30.837  1.00  0.00     0.049 A 
ATOM     49  H   UNL A   1      42.724  29.155  30.078  1.00  0.00     0.167 HD
ATOM     50  C   UNL A   1      42.935  25.083  28.497  1.00  0.00     0.031 A 
ATOM     51  C   UNL A   1      43.741  31.413  31.381  1.00  0.00     0.031 A 
ATOM     52  C   UNL A   1      44.261  25.371  28.977  1.00  0.00     0.049 A 
ATOM     53  C   UNL A   1      44.867  30.418  31.333  1.00  0.00     0.074 A 
ATOM     54  C   UNL A   1      45.390  24.573  28.919  1.00  0.00     0.029 A 
ATOM     55  N   UNL A   1      44.636  26.547  29.611  1.00  0.00    -0.354 N 
ATOM     56  N   UNL A   1      44.880  29.213  30.815  1.00  0.00    -0.248 NA
ATOM     57  C   UNL A   1      46.142  30.830  31.934  1.00  0.00     0.031 C 
ATOM     58  C   UNL A   1      46.431  25.240  29.574  1.00  0.00     0.029 A 
ATOM     59  C   UNL A   1      45.970  26.483  29.978  1.00  0.00     0.049 A 
ATOM     60  H   UNL A   1      44.042  27.314  29.776  1.00  0.00     0.167 HD
ATOM     61  C   UNL A   1      46.172  28.733  31.003  1.00  0.00     0.074 A 
ATOM     62  C   UNL A   1      46.913  29.785  31.669  1.00  0.00     0.031 C 
ATOM     63  C   UNL A   1      46.695  27.533  30.652  1.00  0.00     0.031 A 
BRANCH  50  64
ATOM     64  C   UNL A   1      42.660  23.722  27.908  1.00  0.00    -0.014 A 
ATOM     65  C   UNL A   1      42.433  22.603  28.732  1.00  0.00     0.010 A 
ATOM     66  C   UNL A   1      42.613  23.560  26.512  1.00  0.00     0.010 A 
ATOM     67  C   UNL A   1      42.223  21.339  28.172  1.00  0.00     0.020 A 
ATOM     68  C   UNL A   1      42.370  22.304  25.947  1.00  0.00     0.020 A 
ATOM     69  C   UNL A   1      42.201  21.197  26.781  1.00  0.00     0.054 A 
BRANCH  69  70
ATOM     70  S   UNL A   1      41.933  19.546  26.082  1.00  0.00     0.124 S 
ATOM     71  O   UNL A   1      42.365  18.682  27.177  1.00  0.00    -0.237 OA
ATOM     72  O   UNL A   1      40.498  19.543  25.808  1.00  0.00    -0.237 OA
ATOM     73  O   UNL A   1      42.790  19.526  24.899  1.00  0.00    -0.744 OA
ENDBRANCH  69  70
ENDBRANCH  50  64
BRANCH  51  74
ATOM     74  C   UNL A   1      43.928  32.756  31.997  1.00  0.00    -0.014 A 
ATOM     75  C   UNL A   1      44.324  33.851  31.210  1.00  0.00     0.010 A 
ATOM     76  C   UNL A   1      43.678  32.954  33.367  1.00  0.00     0.010 A 
ATOM     77  C   UNL A   1      44.473  35.118  31.782  1.00  0.00     0.020 A 
ATOM     78  C   UNL A   1      43.798  34.224  33.936  1.00  0.00     0.020 A 
ATOM     79  C   UNL A   1      44.201  35.298  33.141  1.00  0.00     0.054 A 
BRANCH  79  80
ATOM     80  S   UNL A   1      44.331  36.965  33.845  1.00  0.00     0.124 S 
ATOM     81  O   UNL A   1      44.336  36.692  35.278  1.00  0.00    -0.237 OA
ATOM     82  O   UNL A   1      45.592  37.445  33.287  1.00  0.00    -0.237 OA
ATOM     83  O   UNL A   1      43.139  37.643  33.340  1.00  0.00    -0.744 OA
ENDBRANCH  79  80
ENDBRANCH  51  74
BRANCH  63  84
ATOM     84  C   UNL A   1      48.153  27.295  30.956  1.00  0.00    -0.014 A 
ATOM     85  C   UNL A   1      48.562  26.710  32.167  1.00  0.00     0.010 A 
ATOM     86  C   UNL A   1      49.123  27.617  29.988  1.00  0.00     0.010 A 
ATOM     87  C   UNL A   1      49.918  26.480  32.417  1.00  0.00     0.020 A 
ATOM     88  C   UNL A   1      50.476  27.358  30.222  1.00  0.00     0.020 A 
ATOM     89  C   UNL A   1      50.866  26.804  31.442  1.00  0.00     0.054 A 
BRANCH  89  90
ATOM     90  S   UNL A   1      52.614  26.454  31.776  1.00  0.00     0.124 S 
ATOM     91  O   UNL A   1      52.796  27.042  33.099  1.00  0.00    -0.237 OA
ATOM     92  O   UNL A   1      52.663  24.995  31.724  1.00  0.00    -0.237 OA
ATOM     93  O   UNL A   1      53.318  27.133  30.690  1.00  0.00    -0.744 OA
ENDBRANCH  89  90
ENDBRANCH  63  84
ENDBRANCH  37  38
ENDBRANCH  29  32
ENDBRANCH  27  28
ENDBRANCH  26  27
ENDBRANCH  25  26
ENDBRANCH   1  25
TORSDOF 19
ENDMDL
MODEL 3
REMARK VINA RESULT:     -10.0      2.872      9.360
REMARK SMILES C[C@H](O)[C@H](C)[N@H+]1Cc2ccccc2C[C@@H]1C(=O)NCCCCCCNC(=O)c1ccc(-c2c3nc(c(-c4ccc(S(=O)(=O)[O-])cc4)c4ccc([nH]4)c(-c4ccc(S(=O)(=O)[O-])cc4)c4nc(c(-c5ccc(S(=O)(=O)[O-])cc5)c5ccc2[nH]5)C=C4)C=C3)cc1
REMARK SMILES IDX 21 1 20 2 19 3 18 4 16 5 17 6 15 8 6 9 7 10 8 12 14 13 9 14
REMARK SMILES IDX 13 15 10 16 12 17 11 18 4 19 5 20 2 21 1 22 3 23 22 25 23 26
REMARK SMILES IDX 24 27 25 28 26 29 27 31 28 32 29 33 87 34 30 35 86 36 31 37
REMARK SMILES IDX 32 38 33 39 80 40 34 41 85 42 79 43 81 44 35 45 84 46 78 47
REMARK SMILES IDX 77 48 36 50 66 51 47 52 65 53 48 54 51 55 64 56 82 57 49 58
REMARK SMILES IDX 50 59 63 61 83 62 52 63 37 64 38 65 46 66 39 67 45 68 40 69
REMARK SMILES IDX 41 70 42 71 43 72 44 73 67 74 68 75 76 76 69 77 75 78 70 79
REMARK SMILES IDX 71 80 72 81 73 82 74 83 53 84 54 85 62 86 55 87 61 88 56 89
REMARK SMILES IDX 57 90 58 91 59 92 60 93
REMARK H PARENT 18 7 6 11 3 24 25 30 81 49 51 60
REMARK Flexibility Score: inf
ROOT
ATOM      1  C   UNL A   1      32.792  22.885  25.412  1.00  0.00     0.002 C 
ENDROOT
BRANCH   1   2
ATOM      2  C   UNL A   1      31.679  23.342  26.364  1.00  0.00     0.021 C 
BRANCH   2   3
ATOM      3  C   UNL A   1      30.789  24.455  25.814  1.00  0.00     0.116 C 
BRANCH   3   4
ATOM      4  N   UNL A   1      30.723  25.566  26.739  1.00  0.00    -0.351 N 
ATOM      5  C   UNL A   1      31.044  26.882  26.586  1.00  0.00     0.278 C 
ATOM      6  O   UNL A   1      30.963  27.576  27.603  1.00  0.00    -0.268 OA
ATOM      7  H   UNL A   1      30.387  25.330  27.634  1.00  0.00     0.163 HD
BRANCH   5   8
ATOM      8  C   UNL A   1      31.453  27.433  25.192  1.00  0.00     0.279 C 
ATOM      9  N   UNL A   1      32.742  26.806  24.777  1.00  0.00    -0.316 N 
ATOM     10  C   UNL A   1      33.935  27.649  24.948  1.00  0.00     0.300 C 
ATOM     11  H   UNL A   1      32.908  26.076  25.470  1.00  0.00     0.349 HD
ATOM     12  C   UNL A   1      33.814  28.796  25.928  1.00  0.00     0.010 A 
ATOM     13  C   UNL A   1      31.443  28.975  25.229  1.00  0.00     0.111 C 
ATOM     14  C   UNL A   1      34.901  29.208  26.709  1.00  0.00     0.010 A 
ATOM     15  C   UNL A   1      32.607  29.500  26.016  1.00  0.00    -0.033 A 
ATOM     16  C   UNL A   1      34.774  30.296  27.574  1.00  0.00     0.001 A 
ATOM     17  C   UNL A   1      32.488  30.605  26.864  1.00  0.00     0.004 A 
ATOM     18  C   UNL A   1      33.571  30.996  27.648  1.00  0.00     0.000 A 
BRANCH   9  19
ATOM     19  C   UNL A   1      32.651  26.073  23.490  1.00  0.00     0.210 C 
ATOM     20  C   UNL A   1      31.210  25.992  22.945  1.00  0.00     0.078 C 
BRANCH  19  21
ATOM     21  C   UNL A   1      33.653  26.454  22.338  1.00  0.00     0.169 C 
ATOM     22  C   UNL A   1      33.685  27.912  21.897  1.00  0.00     0.045 C 
BRANCH  21  23
ATOM     23  O   UNL A   1      33.497  25.637  21.174  1.00  0.00    -0.387 OA
ATOM     24  H   UNL A   1      33.219  26.190  20.426  1.00  0.00     0.211 HD
ENDBRANCH  21  23
ENDBRANCH  19  21
ENDBRANCH   9  19
ENDBRANCH   5   8
ENDBRANCH   3   4
ENDBRANCH   2   3
ENDBRANCH   1   2
BRANCH   1  25
ATOM     25  C   UNL A   1      34.184  22.770  26.040  1.00  0.00     0.002 C 
BRANCH  25  26
ATOM     26  C   UNL A   1      35.350  22.894  25.058  1.00  0.00     0.021 C 
BRANCH  26  27
ATOM     27  C   UNL A   1      36.604  23.540  25.637  1.00  0.00     0.116 C 
BRANCH  27  28
ATOM     28  N   UNL A   1      37.674  22.578  25.847  1.00  0.00    -0.352 N 
ATOM     29  C   UNL A   1      38.942  22.782  26.334  1.00  0.00     0.251 C 
ATOM     30  H   UNL A   1      37.458  21.648  25.608  1.00  0.00     0.163 HD
ATOM     31  O   UNL A   1      39.775  21.885  26.272  1.00  0.00    -0.269 OA
BRANCH  29  32
ATOM     32  C   UNL A   1      39.306  24.097  26.907  1.00  0.00     0.039 A 
ATOM     33  C   UNL A   1      38.938  24.384  28.225  1.00  0.00     0.014 A 
ATOM     34  C   UNL A   1      40.009  25.040  26.154  1.00  0.00     0.014 A 
ATOM     35  C   UNL A   1      39.331  25.592  28.804  1.00  0.00     0.010 A 
ATOM     36  C   UNL A   1      40.466  26.208  26.756  1.00  0.00     0.010 A 
ATOM     37  C   UNL A   1      40.129  26.500  28.086  1.00  0.00    -0.014 A 
BRANCH  37  38
ATOM     38  C   UNL A   1      40.624  27.753  28.714  1.00  0.00     0.031 A 
ATOM     39  C   UNL A   1      42.036  27.840  29.225  1.00  0.00     0.074 A 
ATOM     40  C   UNL A   1      39.783  28.793  28.877  1.00  0.00     0.049 A 
ATOM     41  N   UNL A   1      42.632  28.833  29.837  1.00  0.00    -0.248 NA
ATOM     42  C   UNL A   1      42.883  26.650  29.048  1.00  0.00     0.031 C 
ATOM     43  C   UNL A   1      38.379  28.822  28.458  1.00  0.00     0.029 A 
ATOM     44  N   UNL A   1      39.985  30.028  29.442  1.00  0.00    -0.354 N 
ATOM     45  C   UNL A   1      43.914  28.383  30.128  1.00  0.00     0.074 A 
ATOM     46  C   UNL A   1      43.991  27.009  29.679  1.00  0.00     0.031 C 
ATOM     47  C   UNL A   1      37.858  30.024  28.749  1.00  0.00     0.029 A 
ATOM     48  C   UNL A   1      38.872  30.836  29.415  1.00  0.00     0.049 A 
ATOM     49  H   UNL A   1      40.844  30.309  29.831  1.00  0.00     0.167 HD
ATOM     50  C   UNL A   1      44.943  29.055  30.700  1.00  0.00     0.031 A 
ATOM     51  C   UNL A   1      38.684  32.087  29.877  1.00  0.00     0.031 A 
ATOM     52  C   UNL A   1      44.861  30.421  31.149  1.00  0.00     0.049 A 
ATOM     53  C   UNL A   1      39.830  32.806  30.536  1.00  0.00     0.074 A 
ATOM     54  C   UNL A   1      45.860  31.208  31.696  1.00  0.00     0.029 A 
ATOM     55  N   UNL A   1      43.714  31.199  31.113  1.00  0.00    -0.354 N 
ATOM     56  N   UNL A   1      41.055  32.386  30.743  1.00  0.00    -0.248 NA
ATOM     57  C   UNL A   1      39.570  34.170  31.013  1.00  0.00     0.031 C 
ATOM     58  C   UNL A   1      45.301  32.441  32.047  1.00  0.00     0.029 A 
ATOM     59  C   UNL A   1      43.971  32.448  31.656  1.00  0.00     0.049 A 
ATOM     60  H   UNL A   1      42.845  30.909  30.754  1.00  0.00     0.167 HD
ATOM     61  C   UNL A   1      41.720  33.445  31.351  1.00  0.00     0.074 A 
ATOM     62  C   UNL A   1      40.764  34.528  31.463  1.00  0.00     0.031 C 
ATOM     63  C   UNL A   1      43.007  33.515  31.773  1.00  0.00     0.031 A 
BRANCH  50  64
ATOM     64  C   UNL A   1      46.240  28.309  30.887  1.00  0.00    -0.014 A 
ATOM     65  C   UNL A   1      47.207  28.258  29.865  1.00  0.00     0.010 A 
ATOM     66  C   UNL A   1      46.505  27.661  32.107  1.00  0.00     0.010 A 
ATOM     67  C   UNL A   1      48.385  27.525  30.037  1.00  0.00     0.020 A 
ATOM     68  C   UNL A   1      47.697  26.955  32.296  1.00  0.00     0.020 A 
ATOM     69  C   UNL A   1      48.618  26.872  31.250  1.00  0.00     0.054 A 
BRANCH  69  70
ATOM     70  S   UNL A   1      50.152  25.924  31.444  1.00  0.00     0.124 S 
ATOM     71  O   UNL A   1      50.414  25.492  30.074  1.00  0.00    -0.237 OA
ATOM     72  O   UNL A   1      51.079  26.920  31.977  1.00  0.00    -0.237 OA
ATOM     73  O   UNL A   1      49.786  24.858  32.374  1.00  0.00    -0.744 OA
ENDBRANCH  69  70
ENDBRANCH  50  64
BRANCH  51  74
ATOM     74  C   UNL A   1      37.359  32.746  29.709  1.00  0.00    -0.014 A 
ATOM     75  C   UNL A   1      36.354  32.580  30.679  1.00  0.00     0.010 A 
ATOM     76  C   UNL A   1      37.106  33.568  28.597  1.00  0.00     0.010 A 
ATOM     77  C   UNL A   1      35.119  33.219  30.535  1.00  0.00     0.020 A 
ATOM     78  C   UNL A   1      35.884  34.231  28.465  1.00  0.00     0.020 A 
ATOM     79  C   UNL A   1      34.894  34.048  29.433  1.00  0.00     0.054 A 
BRANCH  79  80
ATOM     80  S   UNL A   1      33.311  34.925  29.306  1.00  0.00     0.124 S 
ATOM     81  O   UNL A   1      32.833  34.890  30.685  1.00  0.00    -0.237 OA
ATOM     82  O   UNL A   1      33.718  36.237  28.810  1.00  0.00    -0.237 OA
ATOM     83  O   UNL A   1      32.548  34.118  28.357  1.00  0.00    -0.744 OA
ENDBRANCH  79  80
ENDBRANCH  51  74
BRANCH  63  84
ATOM     84  C   UNL A   1      43.471  34.817  32.374  1.00  0.00    -0.014 A 
ATOM     85  C   UNL A   1      43.460  35.026  33.764  1.00  0.00     0.010 A 
ATOM     86  C   UNL A   1      43.977  35.827  31.534  1.00  0.00     0.010 A 
ATOM     87  C   UNL A   1      43.916  36.235  34.300  1.00  0.00     0.020 A 
ATOM     88  C   UNL A   1      44.463  37.022  32.068  1.00  0.00     0.020 A 
ATOM     89  C   UNL A   1      44.416  37.224  33.448  1.00  0.00     0.054 A 
BRANCH  89  90
ATOM     90  S   UNL A   1      45.042  38.764  34.174  1.00  0.00     0.124 S 
ATOM     91  O   UNL A   1      46.155  38.287  34.989  1.00  0.00    -0.237 OA
ATOM     92  O   UNL A   1      45.414  39.543  32.996  1.00  0.00    -0.237 OA
ATOM     93  O   UNL A   1      43.899  39.285  34.922  1.00  0.00    -0.744 OA
ENDBRANCH  89  90
ENDBRANCH  63  84
ENDBRANCH  37  38
ENDBRANCH  29  32
ENDBRANCH  27  28
ENDBRANCH  26  27
ENDBRANCH  25  26
ENDBRANCH   1  25
TORSDOF 19
ENDMDL
