MODEL 1
REMARK VINA RESULT:     -10.6      0.000      0.000
REMARK SMILES C[C@@H](C(=O)NCCCCCCNC(=O)c1ccc(-c2c3nc(c(-c4ccc(S(=O)(=O)[O-])cc4)c4ccc([nH]4)c(-c4ccc(S(=O)(=O)[O-])cc4)c4nc(c(-c5ccc(S(=O)(=O)[O-])cc5)c5ccc2[nH]5)C=C4)C=C3)cc1)c1ccc(Cc2cccs2)cc1F
REMARK SMILES IDX 8 1 7 2 6 3 5 4 3 5 4 6 2 8 1 9 75 10 76 11 86 12 77 13
REMARK SMILES IDX 85 14 87 15 78 16 79 17 80 18 81 19 84 20 82 21 83 22 9 23
REMARK SMILES IDX 10 24 11 25 12 26 13 27 14 29 15 30 16 31 74 32 17 33 73 34
REMARK SMILES IDX 18 35 19 36 20 37 67 38 21 39 72 40 66 41 68 42 22 43 71 44
REMARK SMILES IDX 65 45 64 46 23 48 53 49 34 50 52 51 35 52 38 53 51 54 69 55
REMARK SMILES IDX 36 56 37 57 50 59 70 60 39 61 24 62 25 63 33 64 26 65 32 66
REMARK SMILES IDX 27 67 28 68 29 69 30 70 31 71 54 72 55 73 63 74 56 75 62 76
REMARK SMILES IDX 57 77 58 78 59 79 60 80 61 81 40 82 41 83 49 84 42 85 48 86
REMARK SMILES IDX 43 87 44 88 45 89 46 90 47 91
REMARK H PARENT 5 7 12 28 68 47 38 58
REMARK Flexibility Score: inf
ROOT
ATOM      1  C   UNL A   1      35.799  21.214  25.028  1.00  0.00     0.002 C 
ENDROOT
BRANCH   1   2
ATOM      2  C   UNL A   1      35.469  21.827  26.396  1.00  0.00     0.021 C 
BRANCH   2   3
ATOM      3  C   UNL A   1      34.934  23.262  26.313  1.00  0.00     0.116 C 
BRANCH   3   4
ATOM      4  N   UNL A   1      33.675  23.356  27.023  1.00  0.00    -0.356 N 
ATOM      5  C   UNL A   1      32.438  23.691  26.558  1.00  0.00     0.227 C 
ATOM      6  O   UNL A   1      31.593  24.009  27.399  1.00  0.00    -0.274 OA
ATOM      7  H   UNL A   1      33.719  23.145  27.985  1.00  0.00     0.163 HD
BRANCH   5   8
ATOM      8  C   UNL A   1      32.142  23.633  25.046  1.00  0.00     0.108 C 
ATOM      9  C   UNL A   1      30.827  24.356  24.721  1.00  0.00     0.023 C 
BRANCH   8  10
ATOM     10  C   UNL A   1      32.170  22.192  24.536  1.00  0.00    -0.000 A 
ATOM     11  C   UNL A   1      32.084  21.082  25.388  1.00  0.00     0.008 A 
ATOM     12  C   UNL A   1      32.311  21.941  23.164  1.00  0.00     0.127 A 
ATOM     13  C   UNL A   1      32.157  19.783  24.886  1.00  0.00     0.004 A 
ATOM     14  C   UNL A   1      32.431  20.643  22.660  1.00  0.00     0.043 A 
ATOM     15  F   UNL A   1      32.339  22.967  22.299  1.00  0.00    -0.207 F 
ATOM     16  C   UNL A   1      32.371  19.543  23.524  1.00  0.00    -0.040 A 
BRANCH  16  17
ATOM     17  C   UNL A   1      32.517  18.127  23.009  1.00  0.00     0.082 C 
BRANCH  17  18
ATOM     18  C   UNL A   1      33.200  17.182  23.971  1.00  0.00     0.009 A 
ATOM     19  C   UNL A   1      32.664  16.137  24.704  1.00  0.00     0.016 A 
ATOM     20  S   UNL A   1      34.896  17.294  24.222  1.00  0.00    -0.149 S 
ATOM     21  C   UNL A   1      33.637  15.445  25.479  1.00  0.00     0.012 A 
ATOM     22  C   UNL A   1      34.897  15.967  25.300  1.00  0.00     0.065 A 
ENDBRANCH  17  18
ENDBRANCH  16  17
ENDBRANCH   8  10
ENDBRANCH   5   8
ENDBRANCH   3   4
ENDBRANCH   2   3
ENDBRANCH   1   2
BRANCH   1  23
ATOM     23  C   UNL A   1      37.270  21.325  24.616  1.00  0.00     0.002 C 
BRANCH  23  24
ATOM     24  C   UNL A   1      38.126  20.113  24.986  1.00  0.00     0.021 C 
BRANCH  24  25
ATOM     25  C   UNL A   1      39.327  20.444  25.863  1.00  0.00     0.116 C 
BRANCH  25  26
ATOM     26  N   UNL A   1      40.241  19.317  25.977  1.00  0.00    -0.352 N 
ATOM     27  C   UNL A   1      41.607  19.329  26.110  1.00  0.00     0.251 C 
ATOM     28  H   UNL A   1      39.823  18.426  25.954  1.00  0.00     0.163 HD
ATOM     29  O   UNL A   1      42.256  18.296  25.972  1.00  0.00    -0.269 OA
BRANCH  27  30
ATOM     30  C   UNL A   1      42.289  20.606  26.404  1.00  0.00     0.039 A 
ATOM     31  C   UNL A   1      42.836  21.347  25.356  1.00  0.00     0.014 A 
ATOM     32  C   UNL A   1      42.359  21.077  27.719  1.00  0.00     0.014 A 
ATOM     33  C   UNL A   1      43.401  22.597  25.618  1.00  0.00     0.010 A 
ATOM     34  C   UNL A   1      42.851  22.352  27.966  1.00  0.00     0.010 A 
ATOM     35  C   UNL A   1      43.381  23.124  26.920  1.00  0.00    -0.014 A 
BRANCH  35  36
ATOM     36  C   UNL A   1      43.909  24.479  27.221  1.00  0.00     0.031 A 
ATOM     37  C   UNL A   1      42.958  25.600  27.538  1.00  0.00     0.074 A 
ATOM     38  C   UNL A   1      45.230  24.723  27.109  1.00  0.00     0.049 A 
ATOM     39  N   UNL A   1      43.210  26.871  27.714  1.00  0.00    -0.248 NA
ATOM     40  C   UNL A   1      41.532  25.249  27.637  1.00  0.00     0.031 C 
ATOM     41  C   UNL A   1      46.248  23.730  26.763  1.00  0.00     0.029 A 
ATOM     42  N   UNL A   1      45.938  25.890  27.253  1.00  0.00    -0.354 N 
ATOM     43  C   UNL A   1      41.975  27.474  27.917  1.00  0.00     0.074 A 
ATOM     44  C   UNL A   1      40.973  26.439  27.791  1.00  0.00     0.031 C 
ATOM     45  C   UNL A   1      47.450  24.328  26.728  1.00  0.00     0.029 A 
ATOM     46  C   UNL A   1      47.283  25.753  27.000  1.00  0.00     0.049 A 
ATOM     47  H   UNL A   1      45.524  26.744  27.513  1.00  0.00     0.167 HD
ATOM     48  C   UNL A   1      41.700  28.772  28.194  1.00  0.00     0.031 A 
ATOM     49  C   UNL A   1      48.270  26.670  26.965  1.00  0.00     0.031 A 
ATOM     50  C   UNL A   1      42.704  29.796  28.317  1.00  0.00     0.049 A 
ATOM     51  C   UNL A   1      47.948  28.106  27.271  1.00  0.00     0.074 A 
ATOM     52  C   UNL A   1      42.538  31.125  28.662  1.00  0.00     0.029 A 
ATOM     53  N   UNL A   1      44.060  29.607  28.088  1.00  0.00    -0.354 N 
ATOM     54  N   UNL A   1      46.783  28.646  27.541  1.00  0.00    -0.248 NA
ATOM     55  C   UNL A   1      49.069  29.055  27.280  1.00  0.00     0.031 C 
ATOM     56  C   UNL A   1      43.783  31.755  28.577  1.00  0.00     0.029 A 
ATOM     57  C   UNL A   1      44.737  30.803  28.250  1.00  0.00     0.049 A 
ATOM     58  H   UNL A   1      44.477  28.750  27.845  1.00  0.00     0.167 HD
ATOM     59  C   UNL A   1      47.035  29.994  27.776  1.00  0.00     0.074 A 
ATOM     60  C   UNL A   1      48.464  30.183  27.625  1.00  0.00     0.031 C 
ATOM     61  C   UNL A   1      46.162  30.980  28.096  1.00  0.00     0.031 A 
BRANCH  48  62
ATOM     62  C   UNL A   1      40.250  29.154  28.352  1.00  0.00    -0.014 A 
ATOM     63  C   UNL A   1      39.414  29.339  27.234  1.00  0.00     0.010 A 
ATOM     64  C   UNL A   1      39.713  29.331  29.640  1.00  0.00     0.010 A 
ATOM     65  C   UNL A   1      38.094  29.763  27.400  1.00  0.00     0.020 A 
ATOM     66  C   UNL A   1      38.382  29.719  29.812  1.00  0.00     0.020 A 
ATOM     67  C   UNL A   1      37.589  29.961  28.689  1.00  0.00     0.054 A 
BRANCH  67  68
ATOM     68  S   UNL A   1      35.878  30.532  28.875  1.00  0.00     0.124 S 
ATOM     69  O   UNL A   1      35.123  29.382  28.382  1.00  0.00    -0.237 OA
ATOM     70  O   UNL A   1      35.777  30.779  30.310  1.00  0.00    -0.237 OA
ATOM     71  O   UNL A   1      35.817  31.724  28.033  1.00  0.00    -0.744 OA
ENDBRANCH  67  68
ENDBRANCH  48  62
BRANCH  49  72
ATOM     72  C   UNL A   1      49.653  26.238  26.623  1.00  0.00    -0.014 A 
ATOM     73  C   UNL A   1      50.138  26.354  25.309  1.00  0.00     0.010 A 
ATOM     74  C   UNL A   1      50.515  25.768  27.631  1.00  0.00     0.010 A 
ATOM     75  C   UNL A   1      51.461  26.014  25.010  1.00  0.00     0.020 A 
ATOM     76  C   UNL A   1      51.845  25.452  27.342  1.00  0.00     0.020 A 
ATOM     77  C   UNL A   1      52.309  25.574  26.032  1.00  0.00     0.054 A 
BRANCH  77  78
ATOM     78  S   UNL A   1      54.046  25.227  25.638  1.00  0.00     0.124 S 
ATOM     79  O   UNL A   1      54.631  25.057  26.965  1.00  0.00    -0.237 OA
ATOM     80  O   UNL A   1      53.949  24.016  24.829  1.00  0.00    -0.237 OA
ATOM     81  O   UNL A   1      54.477  26.419  24.911  1.00  0.00    -0.744 OA
ENDBRANCH  77  78
ENDBRANCH  49  72
BRANCH  61  82
ATOM     82  C   UNL A   1      46.715  32.358  28.343  1.00  0.00    -0.014 A 
ATOM     83  C   UNL A   1      46.800  33.309  27.311  1.00  0.00     0.010 A 
ATOM     84  C   UNL A   1      47.060  32.737  29.654  1.00  0.00     0.010 A 
ATOM     85  C   UNL A   1      47.227  34.611  27.585  1.00  0.00     0.020 A 
ATOM     86  C   UNL A   1      47.460  34.045  29.936  1.00  0.00     0.020 A 
ATOM     87  C   UNL A   1      47.546  34.973  28.898  1.00  0.00     0.054 A 
BRANCH  87  88
ATOM     88  S   UNL A   1      48.016  36.692  29.239  1.00  0.00     0.124 S 
ATOM     89  O   UNL A   1      46.724  37.371  29.219  1.00  0.00    -0.237 OA
ATOM     90  O   UNL A   1      48.654  36.594  30.550  1.00  0.00    -0.237 OA
ATOM     91  O   UNL A   1      48.916  37.031  28.138  1.00  0.00    -0.744 OA
ENDBRANCH  87  88
ENDBRANCH  61  82
ENDBRANCH  35  36
ENDBRANCH  27  30
ENDBRANCH  25  26
ENDBRANCH  24  25
ENDBRANCH  23  24
ENDBRANCH   1  23
TORSDOF 19
ENDMDL
MODEL 2
REMARK VINA RESULT:     -10.4      0.725      8.157
REMARK SMILES C[C@@H](C(=O)NCCCCCCNC(=O)c1ccc(-c2c3nc(c(-c4ccc(S(=O)(=O)[O-])cc4)c4ccc([nH]4)c(-c4ccc(S(=O)(=O)[O-])cc4)c4nc(c(-c5ccc(S(=O)(=O)[O-])cc5)c5ccc2[nH]5)C=C4)C=C3)cc1)c1ccc(Cc2cccs2)cc1F
REMARK SMILES IDX 8 1 7 2 6 3 5 4 3 5 4 6 2 8 1 9 75 10 76 11 86 12 77 13
REMARK SMILES IDX 85 14 87 15 78 16 79 17 80 18 81 19 84 20 82 21 83 22 9 23
REMARK SMILES IDX 10 24 11 25 12 26 13 27 14 29 15 30 16 31 74 32 17 33 73 34
REMARK SMILES IDX 18 35 19 36 20 37 67 38 21 39 72 40 66 41 68 42 22 43 71 44
REMARK SMILES IDX 65 45 64 46 23 48 53 49 34 50 52 51 35 52 38 53 51 54 69 55
REMARK SMILES IDX 36 56 37 57 50 59 70 60 39 61 24 62 25 63 33 64 26 65 32 66
REMARK SMILES IDX 27 67 28 68 29 69 30 70 31 71 54 72 55 73 63 74 56 75 62 76
REMARK SMILES IDX 57 77 58 78 59 79 60 80 61 81 40 82 41 83 49 84 42 85 48 86
REMARK SMILES IDX 43 87 44 88 45 89 46 90 47 91
REMARK H PARENT 5 7 12 28 68 47 38 58
REMARK Flexibility Score: inf
ROOT
ATOM      1  C   UNL A   1      35.840  21.333  24.975  1.00  0.00     0.002 C 
ENDROOT
BRANCH   1   2
ATOM      2  C   UNL A   1      35.527  22.041  26.300  1.00  0.00     0.021 C 
BRANCH   2   3
ATOM      3  C   UNL A   1      34.924  23.439  26.122  1.00  0.00     0.116 C 
BRANCH   3   4
ATOM      4  N   UNL A   1      33.702  23.545  26.892  1.00  0.00    -0.356 N 
ATOM      5  C   UNL A   1      32.446  23.892  26.486  1.00  0.00     0.227 C 
ATOM      6  O   UNL A   1      31.646  24.218  27.366  1.00  0.00    -0.274 OA
ATOM      7  H   UNL A   1      33.790  23.335  27.850  1.00  0.00     0.163 HD
BRANCH   5   8
ATOM      8  C   UNL A   1      32.077  23.835  24.990  1.00  0.00     0.108 C 
ATOM      9  C   UNL A   1      30.734  24.532  24.734  1.00  0.00     0.023 C 
BRANCH   8  10
ATOM     10  C   UNL A   1      32.110  22.397  24.470  1.00  0.00    -0.000 A 
ATOM     11  C   UNL A   1      32.065  21.282  25.318  1.00  0.00     0.008 A 
ATOM     12  C   UNL A   1      32.215  22.156  23.094  1.00  0.00     0.127 A 
ATOM     13  C   UNL A   1      32.140  19.987  24.806  1.00  0.00     0.004 A 
ATOM     14  C   UNL A   1      32.337  20.863  22.578  1.00  0.00     0.043 A 
ATOM     15  F   UNL A   1      32.203  23.188  22.235  1.00  0.00    -0.207 F 
ATOM     16  C   UNL A   1      32.318  19.758  23.437  1.00  0.00    -0.040 A 
BRANCH  16  17
ATOM     17  C   UNL A   1      32.468  18.347  22.909  1.00  0.00     0.082 C 
BRANCH  17  18
ATOM     18  C   UNL A   1      32.974  17.352  23.928  1.00  0.00     0.009 A 
ATOM     19  C   UNL A   1      32.287  16.713  24.946  1.00  0.00     0.016 A 
ATOM     20  S   UNL A   1      34.607  16.821  23.869  1.00  0.00    -0.149 S 
ATOM     21  C   UNL A   1      33.102  15.808  25.684  1.00  0.00     0.012 A 
ATOM     22  C   UNL A   1      34.386  15.762  25.193  1.00  0.00     0.065 A 
ENDBRANCH  17  18
ENDBRANCH  16  17
ENDBRANCH   8  10
ENDBRANCH   5   8
ENDBRANCH   3   4
ENDBRANCH   2   3
ENDBRANCH   1   2
BRANCH   1  23
ATOM     23  C   UNL A   1      37.309  21.397  24.546  1.00  0.00     0.002 C 
BRANCH  23  24
ATOM     24  C   UNL A   1      38.169  20.238  25.052  1.00  0.00     0.021 C 
BRANCH  24  25
ATOM     25  C   UNL A   1      39.299  20.662  25.982  1.00  0.00     0.116 C 
BRANCH  25  26
ATOM     26  N   UNL A   1      40.251  19.583  26.202  1.00  0.00    -0.352 N 
ATOM     27  C   UNL A   1      41.615  19.655  26.333  1.00  0.00     0.251 C 
ATOM     28  H   UNL A   1      39.865  18.679  26.265  1.00  0.00     0.163 HD
ATOM     29  O   UNL A   1      42.300  18.636  26.294  1.00  0.00    -0.269 OA
BRANCH  27  30
ATOM     30  C   UNL A   1      42.252  20.977  26.504  1.00  0.00     0.039 A 
ATOM     31  C   UNL A   1      42.622  21.710  25.375  1.00  0.00     0.014 A 
ATOM     32  C   UNL A   1      42.455  21.497  27.786  1.00  0.00     0.014 A 
ATOM     33  C   UNL A   1      43.139  22.998  25.530  1.00  0.00     0.010 A 
ATOM     34  C   UNL A   1      42.897  22.805  27.934  1.00  0.00     0.010 A 
ATOM     35  C   UNL A   1      43.249  23.568  26.809  1.00  0.00    -0.014 A 
BRANCH  35  36
ATOM     36  C   UNL A   1      43.728  24.960  27.003  1.00  0.00     0.031 A 
ATOM     37  C   UNL A   1      45.178  25.290  26.779  1.00  0.00     0.074 A 
ATOM     38  C   UNL A   1      42.885  25.899  27.477  1.00  0.00     0.049 A 
ATOM     39  N   UNL A   1      45.813  26.411  27.004  1.00  0.00    -0.248 NA
ATOM     40  C   UNL A   1      46.031  24.207  26.264  1.00  0.00     0.031 C 
ATOM     41  C   UNL A   1      41.468  25.690  27.778  1.00  0.00     0.029 A 
ATOM     42  N   UNL A   1      43.107  27.212  27.812  1.00  0.00    -0.354 N 
ATOM     43  C   UNL A   1      47.142  26.160  26.686  1.00  0.00     0.074 A 
ATOM     44  C   UNL A   1      47.230  24.769  26.301  1.00  0.00     0.031 C 
ATOM     45  C   UNL A   1      40.946  26.835  28.246  1.00  0.00     0.029 A 
ATOM     46  C   UNL A   1      41.999  27.843  28.324  1.00  0.00     0.049 A 
ATOM     47  H   UNL A   1      43.976  27.659  27.696  1.00  0.00     0.167 HD
ATOM     48  C   UNL A   1      48.194  27.014  26.701  1.00  0.00     0.031 A 
ATOM     49  C   UNL A   1      41.847  29.085  28.826  1.00  0.00     0.031 A 
ATOM     50  C   UNL A   1      48.099  28.397  27.086  1.00  0.00     0.049 A 
ATOM     51  C   UNL A   1      43.024  30.019  28.840  1.00  0.00     0.074 A 
ATOM     52  C   UNL A   1      49.087  29.364  27.073  1.00  0.00     0.029 A 
ATOM     53  N   UNL A   1      46.948  29.008  27.567  1.00  0.00    -0.354 N 
ATOM     54  N   UNL A   1      44.259  29.790  28.459  1.00  0.00    -0.248 NA
ATOM     55  C   UNL A   1      42.791  31.381  29.340  1.00  0.00     0.031 C 
ATOM     56  C   UNL A   1      48.553  30.541  27.606  1.00  0.00     0.029 A 
ATOM     57  C   UNL A   1      47.212  30.329  27.884  1.00  0.00     0.049 A 
ATOM     58  H   UNL A   1      46.074  28.566  27.667  1.00  0.00     0.167 HD
ATOM     59  C   UNL A   1      44.944  30.985  28.649  1.00  0.00     0.074 A 
ATOM     60  C   UNL A   1      43.984  31.937  29.171  1.00  0.00     0.031 C 
ATOM     61  C   UNL A   1      46.246  31.268  28.405  1.00  0.00     0.031 A 
BRANCH  48  62
ATOM     62  C   UNL A   1      49.542  26.459  26.318  1.00  0.00    -0.014 A 
ATOM     63  C   UNL A   1      50.293  25.671  27.211  1.00  0.00     0.010 A 
ATOM     64  C   UNL A   1      50.069  26.730  25.042  1.00  0.00     0.010 A 
ATOM     65  C   UNL A   1      51.571  25.227  26.862  1.00  0.00     0.020 A 
ATOM     66  C   UNL A   1      51.331  26.257  24.675  1.00  0.00     0.020 A 
ATOM     67  C   UNL A   1      52.086  25.532  25.599  1.00  0.00     0.054 A 
BRANCH  67  68
ATOM     68  S   UNL A   1      53.756  24.962  25.180  1.00  0.00     0.124 S 
ATOM     69  O   UNL A   1      54.520  25.389  26.350  1.00  0.00    -0.237 OA
ATOM     70  O   UNL A   1      53.577  23.520  25.040  1.00  0.00    -0.237 OA
ATOM     71  O   UNL A   1      54.065  25.672  23.942  1.00  0.00    -0.744 OA
ENDBRANCH  67  68
ENDBRANCH  48  62
BRANCH  49  72
ATOM     72  C   UNL A   1      40.518  29.499  29.354  1.00  0.00    -0.014 A 
ATOM     73  C   UNL A   1      40.308  29.648  30.736  1.00  0.00     0.010 A 
ATOM     74  C   UNL A   1      39.472  29.813  28.466  1.00  0.00     0.010 A 
ATOM     75  C   UNL A   1      39.079  30.106  31.220  1.00  0.00     0.020 A 
ATOM     76  C   UNL A   1      38.251  30.296  28.944  1.00  0.00     0.020 A 
ATOM     77  C   UNL A   1      38.062  30.437  30.319  1.00  0.00     0.054 A 
BRANCH  77  78
ATOM     78  S   UNL A   1      36.508  31.118  30.965  1.00  0.00     0.124 S 
ATOM     79  O   UNL A   1      35.871  31.626  29.754  1.00  0.00    -0.237 OA
ATOM     80  O   UNL A   1      35.879  29.946  31.568  1.00  0.00    -0.237 OA
ATOM     81  O   UNL A   1      36.950  32.136  31.916  1.00  0.00    -0.744 OA
ENDBRANCH  77  78
ENDBRANCH  49  72
BRANCH  61  82
ATOM     82  C   UNL A   1      46.722  32.673  28.663  1.00  0.00    -0.014 A 
ATOM     83  C   UNL A   1      47.287  33.040  29.896  1.00  0.00     0.010 A 
ATOM     84  C   UNL A   1      46.696  33.613  27.614  1.00  0.00     0.010 A 
ATOM     85  C   UNL A   1      47.809  34.324  30.079  1.00  0.00     0.020 A 
ATOM     86  C   UNL A   1      47.241  34.886  27.784  1.00  0.00     0.020 A 
ATOM     87  C   UNL A   1      47.791  35.236  29.018  1.00  0.00     0.054 A 
BRANCH  87  88
ATOM     88  S   UNL A   1      48.551  36.866  29.256  1.00  0.00     0.124 S 
ATOM     89  O   UNL A   1      48.291  37.121  30.669  1.00  0.00    -0.237 OA
ATOM     90  O   UNL A   1      49.949  36.620  28.908  1.00  0.00    -0.237 OA
ATOM     91  O   UNL A   1      47.826  37.727  28.323  1.00  0.00    -0.744 OA
ENDBRANCH  87  88
ENDBRANCH  61  82
ENDBRANCH  35  36
ENDBRANCH  27  30
ENDBRANCH  25  26
ENDBRANCH  24  25
ENDBRANCH  23  24
ENDBRANCH   1  23
TORSDOF 19
ENDMDL
MODEL 3
REMARK VINA RESULT:      -9.6      6.439     11.402
REMARK SMILES C[C@@H](C(=O)NCCCCCCNC(=O)c1ccc(-c2c3nc(c(-c4ccc(S(=O)(=O)[O-])cc4)c4ccc([nH]4)c(-c4ccc(S(=O)(=O)[O-])cc4)c4nc(c(-c5ccc(S(=O)(=O)[O-])cc5)c5ccc2[nH]5)C=C4)C=C3)cc1)c1ccc(Cc2cccs2)cc1F
REMARK SMILES IDX 8 1 7 2 6 3 5 4 3 5 4 6 2 8 1 9 75 10 76 11 86 12 77 13
REMARK SMILES IDX 85 14 87 15 78 16 79 17 80 18 81 19 84 20 82 21 83 22 9 23
REMARK SMILES IDX 10 24 11 25 12 26 13 27 14 29 15 30 16 31 74 32 17 33 73 34
REMARK SMILES IDX 18 35 19 36 20 37 67 38 21 39 72 40 66 41 68 42 22 43 71 44
REMARK SMILES IDX 65 45 64 46 23 48 53 49 34 50 52 51 35 52 38 53 51 54 69 55
REMARK SMILES IDX 36 56 37 57 50 59 70 60 39 61 24 62 25 63 33 64 26 65 32 66
REMARK SMILES IDX 27 67 28 68 29 69 30 70 31 71 54 72 55 73 63 74 56 75 62 76
REMARK SMILES IDX 57 77 58 78 59 79 60 80 61 81 40 82 41 83 49 84 42 85 48 86
REMARK SMILES IDX 43 87 44 88 45 89 46 90 47 91
REMARK H PARENT 5 7 12 28 68 47 38 58
REMARK Flexibility Score: inf
ROOT
ATOM      1  C   UNL A   1      38.672  33.515  32.674  1.00  0.00     0.002 C 
ENDROOT
BRANCH   1   2
ATOM      2  C   UNL A   1      37.915  34.171  31.511  1.00  0.00     0.021 C 
BRANCH   2   3
ATOM      3  C   UNL A   1      36.777  33.308  30.954  1.00  0.00     0.116 C 
BRANCH   3   4
ATOM      4  N   UNL A   1      36.734  32.043  31.659  1.00  0.00    -0.356 N 
ATOM      5  C   UNL A   1      36.616  30.777  31.165  1.00  0.00     0.227 C 
ATOM      6  O   UNL A   1      36.285  29.896  31.962  1.00  0.00    -0.274 OA
ATOM      7  H   UNL A   1      36.799  32.107  32.639  1.00  0.00     0.163 HD
BRANCH   5   8
ATOM      8  C   UNL A   1      36.923  30.498  29.679  1.00  0.00     0.108 C 
ATOM      9  C   UNL A   1      35.709  29.867  28.983  1.00  0.00     0.023 C 
BRANCH   8  10
ATOM     10  C   UNL A   1      38.195  29.664  29.528  1.00  0.00    -0.000 A 
ATOM     11  C   UNL A   1      38.181  28.265  29.443  1.00  0.00     0.008 A 
ATOM     12  C   UNL A   1      39.444  30.299  29.495  1.00  0.00     0.127 A 
ATOM     13  C   UNL A   1      39.368  27.539  29.349  1.00  0.00     0.004 A 
ATOM     14  C   UNL A   1      40.639  29.575  29.447  1.00  0.00     0.043 A 
ATOM     15  F   UNL A   1      39.510  31.639  29.514  1.00  0.00    -0.207 F 
ATOM     16  C   UNL A   1      40.613  28.177  29.391  1.00  0.00    -0.040 A 
BRANCH  16  17
ATOM     17  C   UNL A   1      41.891  27.365  29.357  1.00  0.00     0.082 C 
BRANCH  17  18
ATOM     18  C   UNL A   1      42.580  27.345  28.012  1.00  0.00     0.009 A 
ATOM     19  C   UNL A   1      43.790  27.903  27.638  1.00  0.00     0.016 A 
ATOM     20  S   UNL A   1      41.877  26.482  26.704  1.00  0.00    -0.149 S 
ATOM     21  C   UNL A   1      44.128  27.638  26.280  1.00  0.00     0.012 A 
ATOM     22  C   UNL A   1      43.176  26.864  25.660  1.00  0.00     0.065 A 
ENDBRANCH  17  18
ENDBRANCH  16  17
ENDBRANCH   8  10
ENDBRANCH   5   8
ENDBRANCH   3   4
ENDBRANCH   2   3
ENDBRANCH   1   2
BRANCH   1  23
ATOM     23  C   UNL A   1      39.229  34.497  33.709  1.00  0.00     0.002 C 
BRANCH  23  24
ATOM     24  C   UNL A   1      38.465  34.525  35.034  1.00  0.00     0.021 C 
BRANCH  24  25
ATOM     25  C   UNL A   1      37.308  33.536  35.104  1.00  0.00     0.116 C 
BRANCH  25  26
ATOM     26  N   UNL A   1      37.340  32.753  36.331  1.00  0.00    -0.352 N 
ATOM     27  C   UNL A   1      38.041  31.604  36.598  1.00  0.00     0.251 C 
ATOM     28  H   UNL A   1      36.783  33.093  37.069  1.00  0.00     0.163 HD
ATOM     29  O   UNL A   1      37.794  30.942  37.602  1.00  0.00    -0.269 OA
BRANCH  27  30
ATOM     30  C   UNL A   1      39.086  31.164  35.651  1.00  0.00     0.039 A 
ATOM     31  C   UNL A   1      38.719  30.448  34.511  1.00  0.00     0.014 A 
ATOM     32  C   UNL A   1      40.426  31.487  35.886  1.00  0.00     0.014 A 
ATOM     33  C   UNL A   1      39.692  30.110  33.568  1.00  0.00     0.010 A 
ATOM     34  C   UNL A   1      41.378  31.218  34.911  1.00  0.00     0.010 A 
ATOM     35  C   UNL A   1      41.024  30.522  33.744  1.00  0.00    -0.014 A 
BRANCH  35  36
ATOM     36  C   UNL A   1      42.068  30.240  32.728  1.00  0.00     0.031 A 
ATOM     37  C   UNL A   1      42.815  28.935  32.764  1.00  0.00     0.074 A 
ATOM     38  C   UNL A   1      42.413  31.193  31.840  1.00  0.00     0.049 A 
ATOM     39  N   UNL A   1      43.835  28.548  32.042  1.00  0.00    -0.248 NA
ATOM     40  C   UNL A   1      42.378  27.950  33.767  1.00  0.00     0.031 C 
ATOM     41  C   UNL A   1      41.795  32.516  31.734  1.00  0.00     0.029 A 
ATOM     42  N   UNL A   1      43.387  31.203  30.872  1.00  0.00    -0.354 N 
ATOM     43  C   UNL A   1      44.178  27.290  32.521  1.00  0.00     0.074 A 
ATOM     44  C   UNL A   1      43.291  27.002  33.626  1.00  0.00     0.031 C 
ATOM     45  C   UNL A   1      42.399  33.206  30.754  1.00  0.00     0.029 A 
ATOM     46  C   UNL A   1      43.477  32.396  30.194  1.00  0.00     0.049 A 
ATOM     47  H   UNL A   1      43.966  30.431  30.682  1.00  0.00     0.167 HD
ATOM     48  C   UNL A   1      45.138  26.444  32.073  1.00  0.00     0.031 A 
ATOM     49  C   UNL A   1      44.343  32.805  29.246  1.00  0.00     0.031 A 
ATOM     50  C   UNL A   1      46.016  26.739  30.972  1.00  0.00     0.049 A 
ATOM     51  C   UNL A   1      45.404  31.858  28.763  1.00  0.00     0.074 A 
ATOM     52  C   UNL A   1      46.975  25.927  30.396  1.00  0.00     0.029 A 
ATOM     53  N   UNL A   1      46.051  27.947  30.288  1.00  0.00    -0.354 N 
ATOM     54  N   UNL A   1      45.664  30.638  29.172  1.00  0.00    -0.248 NA
ATOM     55  C   UNL A   1      46.283  32.332  27.685  1.00  0.00     0.031 C 
ATOM     56  C   UNL A   1      47.635  26.664  29.408  1.00  0.00     0.029 A 
ATOM     57  C   UNL A   1      47.038  27.912  29.319  1.00  0.00     0.049 A 
ATOM     58  H   UNL A   1      45.461  28.714  30.467  1.00  0.00     0.167 HD
ATOM     59  C   UNL A   1      46.719  30.190  28.385  1.00  0.00     0.074 A 
ATOM     60  C   UNL A   1      47.044  31.266  27.471  1.00  0.00     0.031 C 
ATOM     61  C   UNL A   1      47.353  28.992  28.414  1.00  0.00     0.031 A 
BRANCH  48  62
ATOM     62  C   UNL A   1      45.300  25.134  32.800  1.00  0.00    -0.014 A 
ATOM     63  C   UNL A   1      44.456  24.038  32.538  1.00  0.00     0.010 A 
ATOM     64  C   UNL A   1      46.316  24.995  33.764  1.00  0.00     0.010 A 
ATOM     65  C   UNL A   1      44.578  22.858  33.275  1.00  0.00     0.020 A 
ATOM     66  C   UNL A   1      46.466  23.803  34.477  1.00  0.00     0.020 A 
ATOM     67  C   UNL A   1      45.577  22.751  34.247  1.00  0.00     0.054 A 
BRANCH  67  68
ATOM     68  S   UNL A   1      45.699  21.215  35.204  1.00  0.00     0.124 S 
ATOM     69  O   UNL A   1      45.640  21.712  36.576  1.00  0.00    -0.237 OA
ATOM     70  O   UNL A   1      44.528  20.465  34.758  1.00  0.00    -0.237 OA
ATOM     71  O   UNL A   1      46.986  20.656  34.799  1.00  0.00    -0.744 OA
ENDBRANCH  67  68
ENDBRANCH  48  62
BRANCH  49  72
ATOM     72  C   UNL A   1      44.227  34.187  28.703  1.00  0.00    -0.014 A 
ATOM     73  C   UNL A   1      43.398  34.460  27.601  1.00  0.00     0.010 A 
ATOM     74  C   UNL A   1      44.901  35.251  29.332  1.00  0.00     0.010 A 
ATOM     75  C   UNL A   1      43.241  35.772  27.142  1.00  0.00     0.020 A 
ATOM     76  C   UNL A   1      44.725  36.566  28.893  1.00  0.00     0.020 A 
ATOM     77  C   UNL A   1      43.898  36.817  27.799  1.00  0.00     0.054 A 
BRANCH  77  78
ATOM     78  S   UNL A   1      43.605  38.520  27.244  1.00  0.00     0.124 S 
ATOM     79  O   UNL A   1      42.360  38.386  26.493  1.00  0.00    -0.237 OA
ATOM     80  O   UNL A   1      43.507  39.249  28.506  1.00  0.00    -0.237 OA
ATOM     81  O   UNL A   1      44.789  38.829  26.446  1.00  0.00    -0.744 OA
ENDBRANCH  77  78
ENDBRANCH  49  72
BRANCH  61  82
ATOM     82  C   UNL A   1      48.448  28.750  27.408  1.00  0.00    -0.014 A 
ATOM     83  C   UNL A   1      48.234  27.953  26.271  1.00  0.00     0.010 A 
ATOM     84  C   UNL A   1      49.678  29.419  27.556  1.00  0.00     0.010 A 
ATOM     85  C   UNL A   1      49.235  27.822  25.303  1.00  0.00     0.020 A 
ATOM     86  C   UNL A   1      50.669  29.313  26.578  1.00  0.00     0.020 A 
ATOM     87  C   UNL A   1      50.443  28.510  25.459  1.00  0.00     0.054 A 
BRANCH  87  88
ATOM     88  S   UNL A   1      51.691  28.390  24.148  1.00  0.00     0.124 S 
ATOM     89  O   UNL A   1      52.907  28.120  24.907  1.00  0.00    -0.237 OA
ATOM     90  O   UNL A   1      51.196  27.279  23.338  1.00  0.00    -0.237 OA
ATOM     91  O   UNL A   1      51.638  29.699  23.498  1.00  0.00    -0.744 OA
ENDBRANCH  87  88
ENDBRANCH  61  82
ENDBRANCH  35  36
ENDBRANCH  27  30
ENDBRANCH  25  26
ENDBRANCH  24  25
ENDBRANCH  23  24
ENDBRANCH   1  23
TORSDOF 19
ENDMDL
