MODEL 1
REMARK VINA RESULT:      -8.6      0.000      0.000
REMARK SMILES CC[C@@H]([NH3+])C(=O)NCCOCC(=O)NCCCCCCNC(=O)c1ccc(-c2c3nc(c(-c4ccc(S(=O)(=O)[O-])cc4)c4ccc([nH]4)c(-c4ccc(S(=O)(=O)[O-])cc4)c4nc(c(-c5ccc(S(=O)(=O)[O-])cc5)c5ccc2[nH]5)C=C4)C=C3)cc1
REMARK SMILES IDX 16 1 15 2 14 3 12 4 13 5 11 7 10 8 9 9 8 10 7 11 5 12 6 13
REMARK SMILES IDX 3 15 2 16 1 17 4 18 17 22 18 23 19 24 20 25 21 26 22 27
REMARK SMILES IDX 23 29 24 30 25 31 83 32 26 33 82 34 27 35 28 36 29 37 76 38
REMARK SMILES IDX 30 39 81 40 75 41 77 42 31 43 80 44 74 45 73 46 32 48 62 49
REMARK SMILES IDX 43 50 61 51 44 52 47 53 60 54 78 55 45 56 46 57 59 59 79 60
REMARK SMILES IDX 48 61 33 62 34 63 42 64 35 65 41 66 36 67 37 68 38 69 39 70
REMARK SMILES IDX 40 71 63 72 64 73 72 74 65 75 71 76 66 77 67 78 68 79 69 80
REMARK SMILES IDX 70 81 49 82 50 83 58 84 51 85 57 86 52 87 53 88 54 89 55 90
REMARK SMILES IDX 56 91
REMARK H PARENT 14 6 7 14 4 19 4 20 4 21 21 28 77 47 47 58
REMARK Flexibility Score: inf
ROOT
ATOM      1  C   UNL A   1      38.978  24.019  26.677  1.00  0.00     0.021 C 
ENDROOT
BRANCH   1   2
ATOM      2  C   UNL A   1      37.507  23.833  26.315  1.00  0.00     0.116 C 
BRANCH   2   3
ATOM      3  N   UNL A   1      37.311  23.830  24.880  1.00  0.00    -0.354 N 
ATOM      4  C   UNL A   1      36.976  22.773  24.087  1.00  0.00     0.245 C 
ATOM      5  O   UNL A   1      36.891  22.937  22.871  1.00  0.00    -0.272 OA
ATOM      6  H   UNL A   1      37.437  24.694  24.423  1.00  0.00     0.163 HD
BRANCH   4   7
ATOM      7  C   UNL A   1      36.721  21.414  24.747  1.00  0.00     0.260 C 
BRANCH   7   8
ATOM      8  O   UNL A   1      35.383  20.943  24.777  1.00  0.00    -0.370 OA
BRANCH   8   9
ATOM      9  C   UNL A   1      34.648  21.260  25.962  1.00  0.00     0.182 C 
BRANCH   9  10
ATOM     10  C   UNL A   1      33.138  21.010  25.833  1.00  0.00     0.144 C 
BRANCH  10  11
ATOM     11  N   UNL A   1      32.748  19.658  26.208  1.00  0.00    -0.349 N 
ATOM     12  C   UNL A   1      32.669  18.514  25.477  1.00  0.00     0.278 C 
ATOM     13  O   UNL A   1      32.323  17.482  26.061  1.00  0.00    -0.268 OA
ATOM     14  H   UNL A   1      32.500  19.554  27.155  1.00  0.00     0.163 HD
BRANCH  12  15
ATOM     15  C   UNL A   1      33.090  18.460  23.995  1.00  0.00     0.270 C 
BRANCH  15  16
ATOM     16  C   UNL A   1      34.416  17.728  23.759  1.00  0.00     0.072 C 
ATOM     17  C   UNL A   1      34.231  16.268  23.361  1.00  0.00     0.011 C 
ENDBRANCH  15  16
BRANCH  15  18
ATOM     18  N   UNL A   1      31.971  17.925  23.189  1.00  0.00    -0.347 N 
ATOM     19  H   UNL A   1      32.183  16.968  22.907  1.00  0.00     0.345 HD
ATOM     20  H   UNL A   1      31.844  18.503  22.358  1.00  0.00     0.345 HD
ATOM     21  H   UNL A   1      31.116  17.936  23.745  1.00  0.00     0.345 HD
ENDBRANCH  15  18
ENDBRANCH  12  15
ENDBRANCH  10  11
ENDBRANCH   9  10
ENDBRANCH   8   9
ENDBRANCH   7   8
ENDBRANCH   4   7
ENDBRANCH   2   3
ENDBRANCH   1   2
BRANCH   1  22
ATOM     22  C   UNL A   1      39.856  22.792  26.401  1.00  0.00     0.002 C 
BRANCH  22  23
ATOM     23  C   UNL A   1      40.537  22.189  27.634  1.00  0.00     0.002 C 
BRANCH  23  24
ATOM     24  C   UNL A   1      41.035  20.753  27.462  1.00  0.00     0.021 C 
BRANCH  24  25
ATOM     25  C   UNL A   1      40.910  20.206  26.045  1.00  0.00     0.116 C 
BRANCH  25  26
ATOM     26  N   UNL A   1      42.120  19.526  25.615  1.00  0.00    -0.352 N 
ATOM     27  C   UNL A   1      43.364  20.050  25.360  1.00  0.00     0.251 C 
ATOM     28  H   UNL A   1      42.037  18.554  25.487  1.00  0.00     0.163 HD
ATOM     29  O   UNL A   1      44.218  19.365  24.809  1.00  0.00    -0.269 OA
BRANCH  27  30
ATOM     30  C   UNL A   1      43.658  21.449  25.737  1.00  0.00     0.039 A 
ATOM     31  C   UNL A   1      44.183  21.714  27.003  1.00  0.00     0.014 A 
ATOM     32  C   UNL A   1      43.418  22.497  24.842  1.00  0.00     0.014 A 
ATOM     33  C   UNL A   1      44.521  23.023  27.351  1.00  0.00     0.010 A 
ATOM     34  C   UNL A   1      43.831  23.787  25.160  1.00  0.00     0.010 A 
ATOM     35  C   UNL A   1      44.379  24.065  26.421  1.00  0.00    -0.014 A 
BRANCH  35  36
ATOM     36  C   UNL A   1      44.801  25.452  26.750  1.00  0.00     0.031 A 
ATOM     37  C   UNL A   1      43.797  26.447  27.266  1.00  0.00     0.074 A 
ATOM     38  C   UNL A   1      46.074  25.833  26.524  1.00  0.00     0.049 A 
ATOM     39  N   UNL A   1      43.966  27.711  27.559  1.00  0.00    -0.248 NA
ATOM     40  C   UNL A   1      42.419  25.966  27.450  1.00  0.00     0.031 C 
ATOM     41  C   UNL A   1      47.129  24.975  25.979  1.00  0.00     0.029 A 
ATOM     42  N   UNL A   1      46.694  27.042  26.715  1.00  0.00    -0.354 N 
ATOM     43  C   UNL A   1      42.717  28.178  27.951  1.00  0.00     0.074 A 
ATOM     44  C   UNL A   1      41.789  27.079  27.798  1.00  0.00     0.031 C 
ATOM     45  C   UNL A   1      48.268  25.679  25.898  1.00  0.00     0.029 A 
ATOM     46  C   UNL A   1      48.017  27.047  26.342  1.00  0.00     0.049 A 
ATOM     47  H   UNL A   1      46.235  27.831  27.082  1.00  0.00     0.167 HD
ATOM     48  C   UNL A   1      42.376  29.404  28.418  1.00  0.00     0.031 A 
ATOM     49  C   UNL A   1      48.927  28.042  26.344  1.00  0.00     0.031 A 
ATOM     50  C   UNL A   1      43.301  30.496  28.560  1.00  0.00     0.049 A 
ATOM     51  C   UNL A   1      48.525  29.399  26.850  1.00  0.00     0.074 A 
ATOM     52  C   UNL A   1      43.066  31.764  29.067  1.00  0.00     0.029 A 
ATOM     53  N   UNL A   1      44.637  30.457  28.187  1.00  0.00    -0.354 N 
ATOM     54  N   UNL A   1      47.356  29.802  27.287  1.00  0.00    -0.248 NA
ATOM     55  C   UNL A   1      49.569  30.433  26.878  1.00  0.00     0.031 C 
ATOM     56  C   UNL A   1      44.245  32.508  28.943  1.00  0.00     0.029 A 
ATOM     57  C   UNL A   1      45.233  31.685  28.425  1.00  0.00     0.049 A 
ATOM     58  H   UNL A   1      45.095  29.671  27.809  1.00  0.00     0.167 HD
ATOM     59  C   UNL A   1      47.528  31.130  27.663  1.00  0.00     0.074 A 
ATOM     60  C   UNL A   1      48.919  31.454  27.420  1.00  0.00     0.031 C 
ATOM     61  C   UNL A   1      46.617  31.999  28.168  1.00  0.00     0.031 A 
BRANCH  48  62
ATOM     62  C   UNL A   1      40.931  29.623  28.792  1.00  0.00    -0.014 A 
ATOM     63  C   UNL A   1      40.566  30.032  30.089  1.00  0.00     0.010 A 
ATOM     64  C   UNL A   1      39.920  29.426  27.832  1.00  0.00     0.010 A 
ATOM     65  C   UNL A   1      39.221  30.177  30.437  1.00  0.00     0.020 A 
ATOM     66  C   UNL A   1      38.575  29.604  28.166  1.00  0.00     0.020 A 
ATOM     67  C   UNL A   1      38.233  29.956  29.474  1.00  0.00     0.054 A 
BRANCH  67  68
ATOM     68  S   UNL A   1      36.494  30.142  29.956  1.00  0.00     0.124 S 
ATOM     69  O   UNL A   1      35.800  29.724  28.740  1.00  0.00    -0.237 OA
ATOM     70  O   UNL A   1      36.377  29.231  31.090  1.00  0.00    -0.237 OA
ATOM     71  O   UNL A   1      36.375  31.561  30.283  1.00  0.00    -0.744 OA
ENDBRANCH  67  68
ENDBRANCH  48  62
BRANCH  49  72
ATOM     72  C   UNL A   1      50.305  27.777  25.848  1.00  0.00    -0.014 A 
ATOM     73  C   UNL A   1      50.630  27.954  24.492  1.00  0.00     0.010 A 
ATOM     74  C   UNL A   1      51.315  27.385  26.746  1.00  0.00     0.010 A 
ATOM     75  C   UNL A   1      51.936  27.738  24.042  1.00  0.00     0.020 A 
ATOM     76  C   UNL A   1      52.628  27.197  26.307  1.00  0.00     0.020 A 
ATOM     77  C   UNL A   1      52.929  27.368  24.955  1.00  0.00     0.054 A 
BRANCH  77  78
ATOM     78  S   UNL A   1      54.632  27.166  24.362  1.00  0.00     0.124 S 
ATOM     79  O   UNL A   1      54.430  26.515  23.071  1.00  0.00    -0.237 OA
ATOM     80  O   UNL A   1      55.111  28.545  24.308  1.00  0.00    -0.237 OA
ATOM     81  O   UNL A   1      55.257  26.338  25.391  1.00  0.00    -0.744 OA
ENDBRANCH  77  78
ENDBRANCH  49  72
BRANCH  61  82
ATOM     82  C   UNL A   1      47.099  33.384  28.519  1.00  0.00    -0.014 A 
ATOM     83  C   UNL A   1      47.583  33.687  29.803  1.00  0.00     0.010 A 
ATOM     84  C   UNL A   1      47.118  34.382  27.527  1.00  0.00     0.010 A 
ATOM     85  C   UNL A   1      48.048  34.973  30.098  1.00  0.00     0.020 A 
ATOM     86  C   UNL A   1      47.611  35.658  27.808  1.00  0.00     0.020 A 
ATOM     87  C   UNL A   1      48.060  35.949  29.097  1.00  0.00     0.054 A 
BRANCH  87  88
ATOM     88  S   UNL A   1      48.711  37.595  29.493  1.00  0.00     0.124 S 
ATOM     89  O   UNL A   1      49.689  37.292  30.534  1.00  0.00    -0.237 OA
ATOM     90  O   UNL A   1      49.267  38.035  28.216  1.00  0.00    -0.237 OA
ATOM     91  O   UNL A   1      47.534  38.335  29.941  1.00  0.00    -0.744 OA
ENDBRANCH  87  88
ENDBRANCH  61  82
ENDBRANCH  35  36
ENDBRANCH  27  30
ENDBRANCH  25  26
ENDBRANCH  24  25
ENDBRANCH  23  24
ENDBRANCH  22  23
ENDBRANCH   1  22
TORSDOF 23
ENDMDL
MODEL 2
REMARK VINA RESULT:      -8.4      3.248      4.328
REMARK SMILES CC[C@@H]([NH3+])C(=O)NCCOCC(=O)NCCCCCCNC(=O)c1ccc(-c2c3nc(c(-c4ccc(S(=O)(=O)[O-])cc4)c4ccc([nH]4)c(-c4ccc(S(=O)(=O)[O-])cc4)c4nc(c(-c5ccc(S(=O)(=O)[O-])cc5)c5ccc2[nH]5)C=C4)C=C3)cc1
REMARK SMILES IDX 16 1 15 2 14 3 12 4 13 5 11 7 10 8 9 9 8 10 7 11 5 12 6 13
REMARK SMILES IDX 3 15 2 16 1 17 4 18 17 22 18 23 19 24 20 25 21 26 22 27
REMARK SMILES IDX 23 29 24 30 25 31 83 32 26 33 82 34 27 35 28 36 29 37 76 38
REMARK SMILES IDX 30 39 81 40 75 41 77 42 31 43 80 44 74 45 73 46 32 48 62 49
REMARK SMILES IDX 43 50 61 51 44 52 47 53 60 54 78 55 45 56 46 57 59 59 79 60
REMARK SMILES IDX 48 61 33 62 34 63 42 64 35 65 41 66 36 67 37 68 38 69 39 70
REMARK SMILES IDX 40 71 63 72 64 73 72 74 65 75 71 76 66 77 67 78 68 79 69 80
REMARK SMILES IDX 70 81 49 82 50 83 58 84 51 85 57 86 52 87 53 88 54 89 55 90
REMARK SMILES IDX 56 91
REMARK H PARENT 14 6 7 14 4 19 4 20 4 21 21 28 77 47 47 58
REMARK Flexibility Score: inf
ROOT
ATOM      1  C   UNL A   1      36.149  23.504  24.370  1.00  0.00     0.021 C 
ENDROOT
BRANCH   1   2
ATOM      2  C   UNL A   1      35.009  24.398  24.847  1.00  0.00     0.116 C 
BRANCH   2   3
ATOM      3  N   UNL A   1      34.477  25.200  23.763  1.00  0.00    -0.354 N 
ATOM      4  C   UNL A   1      33.206  25.197  23.271  1.00  0.00     0.245 C 
ATOM      5  O   UNL A   1      32.931  25.915  22.311  1.00  0.00    -0.272 OA
ATOM      6  H   UNL A   1      35.109  25.819  23.332  1.00  0.00     0.163 HD
BRANCH   4   7
ATOM      7  C   UNL A   1      32.165  24.287  23.935  1.00  0.00     0.260 C 
BRANCH   7   8
ATOM      8  O   UNL A   1      31.181  24.907  24.746  1.00  0.00    -0.370 OA
BRANCH   8   9
ATOM      9  C   UNL A   1      29.918  25.135  24.113  1.00  0.00     0.182 C 
BRANCH   9  10
ATOM     10  C   UNL A   1      29.562  26.622  23.970  1.00  0.00     0.144 C 
BRANCH  10  11
ATOM     11  N   UNL A   1      30.697  27.505  24.195  1.00  0.00    -0.349 N 
ATOM     12  C   UNL A   1      30.990  28.734  23.690  1.00  0.00     0.278 C 
ATOM     13  O   UNL A   1      32.029  29.279  24.074  1.00  0.00    -0.268 OA
ATOM     14  H   UNL A   1      31.368  27.153  24.823  1.00  0.00     0.163 HD
BRANCH  12  15
ATOM     15  C   UNL A   1      30.024  29.483  22.751  1.00  0.00     0.270 C 
BRANCH  15  16
ATOM     16  C   UNL A   1      29.158  30.527  23.466  1.00  0.00     0.072 C 
ATOM     17  C   UNL A   1      28.027  31.062  22.596  1.00  0.00     0.011 C 
ENDBRANCH  15  16
BRANCH  15  18
ATOM     18  N   UNL A   1      30.783  30.032  21.607  1.00  0.00    -0.347 N 
ATOM     19  H   UNL A   1      30.170  30.100  20.794  1.00  0.00     0.345 HD
ATOM     20  H   UNL A   1      31.565  29.414  21.390  1.00  0.00     0.345 HD
ATOM     21  H   UNL A   1      31.136  30.957  21.846  1.00  0.00     0.345 HD
ENDBRANCH  15  18
ENDBRANCH  12  15
ENDBRANCH  10  11
ENDBRANCH   9  10
ENDBRANCH   8   9
ENDBRANCH   7   8
ENDBRANCH   4   7
ENDBRANCH   2   3
ENDBRANCH   1   2
BRANCH   1  22
ATOM     22  C   UNL A   1      35.826  22.004  24.386  1.00  0.00     0.002 C 
BRANCH  22  23
ATOM     23  C   UNL A   1      36.632  21.176  25.391  1.00  0.00     0.002 C 
BRANCH  23  24
ATOM     24  C   UNL A   1      38.051  20.818  24.947  1.00  0.00     0.021 C 
BRANCH  24  25
ATOM     25  C   UNL A   1      39.113  20.982  26.028  1.00  0.00     0.116 C 
BRANCH  25  26
ATOM     26  N   UNL A   1      40.047  19.869  26.047  1.00  0.00    -0.352 N 
ATOM     27  C   UNL A   1      41.419  19.890  26.104  1.00  0.00     0.251 C 
ATOM     28  H   UNL A   1      39.639  18.974  26.014  1.00  0.00     0.163 HD
ATOM     29  O   UNL A   1      42.058  18.864  25.907  1.00  0.00    -0.269 OA
BRANCH  27  30
ATOM     30  C   UNL A   1      42.118  21.163  26.385  1.00  0.00     0.039 A 
ATOM     31  C   UNL A   1      42.503  21.974  25.317  1.00  0.00     0.014 A 
ATOM     32  C   UNL A   1      42.391  21.555  27.700  1.00  0.00     0.014 A 
ATOM     33  C   UNL A   1      43.110  23.206  25.569  1.00  0.00     0.010 A 
ATOM     34  C   UNL A   1      42.922  22.816  27.951  1.00  0.00     0.010 A 
ATOM     35  C   UNL A   1      43.294  23.652  26.888  1.00  0.00    -0.014 A 
BRANCH  35  36
ATOM     36  C   UNL A   1      43.874  24.990  27.173  1.00  0.00     0.031 A 
ATOM     37  C   UNL A   1      43.001  26.098  27.698  1.00  0.00     0.074 A 
ATOM     38  C   UNL A   1      45.172  25.226  26.900  1.00  0.00     0.049 A 
ATOM     39  N   UNL A   1      43.316  27.342  27.958  1.00  0.00    -0.248 NA
ATOM     40  C   UNL A   1      41.586  25.774  27.934  1.00  0.00     0.031 C 
ATOM     41  C   UNL A   1      46.111  24.249  26.342  1.00  0.00     0.029 A 
ATOM     42  N   UNL A   1      45.926  26.364  27.045  1.00  0.00    -0.354 N 
ATOM     43  C   UNL A   1      42.138  27.949  28.378  1.00  0.00     0.074 A 
ATOM     44  C   UNL A   1      41.092  26.954  28.278  1.00  0.00     0.031 C 
ATOM     45  C   UNL A   1      47.316  24.824  26.211  1.00  0.00     0.029 A 
ATOM     46  C   UNL A   1      47.229  26.219  26.632  1.00  0.00     0.049 A 
ATOM     47  H   UNL A   1      45.567  27.206  27.409  1.00  0.00     0.167 HD
ATOM     48  C   UNL A   1      41.946  29.213  28.828  1.00  0.00     0.031 A 
ATOM     49  C   UNL A   1      48.240  27.108  26.584  1.00  0.00     0.031 A 
ATOM     50  C   UNL A   1      42.989  30.201  28.917  1.00  0.00     0.049 A 
ATOM     51  C   UNL A   1      48.004  28.510  27.071  1.00  0.00     0.074 A 
ATOM     52  C   UNL A   1      42.909  31.495  29.403  1.00  0.00     0.029 A 
ATOM     53  N   UNL A   1      44.300  30.009  28.504  1.00  0.00    -0.354 N 
ATOM     54  N   UNL A   1      46.900  29.046  27.535  1.00  0.00    -0.248 NA
ATOM     55  C   UNL A   1      49.154  29.425  27.045  1.00  0.00     0.031 C 
ATOM     56  C   UNL A   1      44.156  32.105  29.226  1.00  0.00     0.029 A 
ATOM     57  C   UNL A   1      45.032  31.170  28.696  1.00  0.00     0.049 A 
ATOM     58  H   UNL A   1      44.657  29.172  28.129  1.00  0.00     0.167 HD
ATOM     59  C   UNL A   1      47.228  30.354  27.877  1.00  0.00     0.074 A 
ATOM     60  C   UNL A   1      48.637  30.521  27.584  1.00  0.00     0.031 C 
ATOM     61  C   UNL A   1      46.433  31.327  28.390  1.00  0.00     0.031 A 
BRANCH  48  62
ATOM     62  C   UNL A   1      40.547  29.595  29.241  1.00  0.00    -0.014 A 
ATOM     63  C   UNL A   1      39.532  29.793  28.285  1.00  0.00     0.010 A 
ATOM     64  C   UNL A   1      40.236  29.750  30.605  1.00  0.00     0.010 A 
ATOM     65  C   UNL A   1      38.255  30.201  28.678  1.00  0.00     0.020 A 
ATOM     66  C   UNL A   1      38.950  30.124  31.005  1.00  0.00     0.020 A 
ATOM     67  C   UNL A   1      37.974  30.370  30.037  1.00  0.00     0.054 A 
BRANCH  67  68
ATOM     68  S   UNL A   1      36.310  30.909  30.518  1.00  0.00     0.124 S 
ATOM     69  O   UNL A   1      35.975  29.948  31.567  1.00  0.00    -0.237 OA
ATOM     70  O   UNL A   1      36.536  32.279  30.970  1.00  0.00    -0.237 OA
ATOM     71  O   UNL A   1      35.534  30.781  29.287  1.00  0.00    -0.744 OA
ENDBRANCH  67  68
ENDBRANCH  48  62
BRANCH  49  72
ATOM     72  C   UNL A   1      49.564  26.686  26.051  1.00  0.00    -0.014 A 
ATOM     73  C   UNL A   1      49.966  27.040  24.752  1.00  0.00     0.010 A 
ATOM     74  C   UNL A   1      50.453  25.958  26.866  1.00  0.00     0.010 A 
ATOM     75  C   UNL A   1      51.227  26.670  24.274  1.00  0.00     0.020 A 
ATOM     76  C   UNL A   1      51.725  25.612  26.403  1.00  0.00     0.020 A 
ATOM     77  C   UNL A   1      52.101  25.964  25.106  1.00  0.00     0.054 A 
BRANCH  77  78
ATOM     78  S   UNL A   1      53.760  25.560  24.491  1.00  0.00     0.124 S 
ATOM     79  O   UNL A   1      54.587  26.551  25.174  1.00  0.00    -0.237 OA
ATOM     80  O   UNL A   1      53.931  24.179  24.933  1.00  0.00    -0.237 OA
ATOM     81  O   UNL A   1      53.641  25.733  23.045  1.00  0.00    -0.744 OA
ENDBRANCH  77  78
ENDBRANCH  49  72
BRANCH  61  82
ATOM     82  C   UNL A   1      47.073  32.657  28.695  1.00  0.00    -0.014 A 
ATOM     83  C   UNL A   1      46.967  33.741  27.807  1.00  0.00     0.010 A 
ATOM     84  C   UNL A   1      47.743  32.837  29.919  1.00  0.00     0.010 A 
ATOM     85  C   UNL A   1      47.547  34.973  28.124  1.00  0.00     0.020 A 
ATOM     86  C   UNL A   1      48.297  34.075  30.253  1.00  0.00     0.020 A 
ATOM     87  C   UNL A   1      48.208  35.132  29.347  1.00  0.00     0.054 A 
BRANCH  87  88
ATOM     88  S   UNL A   1      48.912  36.753  29.753  1.00  0.00     0.124 S 
ATOM     89  O   UNL A   1      48.393  36.981  31.099  1.00  0.00    -0.237 OA
ATOM     90  O   UNL A   1      50.349  36.509  29.665  1.00  0.00    -0.237 OA
ATOM     91  O   UNL A   1      48.372  37.635  28.720  1.00  0.00    -0.744 OA
ENDBRANCH  87  88
ENDBRANCH  61  82
ENDBRANCH  35  36
ENDBRANCH  27  30
ENDBRANCH  25  26
ENDBRANCH  24  25
ENDBRANCH  23  24
ENDBRANCH  22  23
ENDBRANCH   1  22
TORSDOF 23
ENDMDL
MODEL 3
REMARK VINA RESULT:      -8.4      1.960      8.662
REMARK SMILES CC[C@@H]([NH3+])C(=O)NCCOCC(=O)NCCCCCCNC(=O)c1ccc(-c2c3nc(c(-c4ccc(S(=O)(=O)[O-])cc4)c4ccc([nH]4)c(-c4ccc(S(=O)(=O)[O-])cc4)c4nc(c(-c5ccc(S(=O)(=O)[O-])cc5)c5ccc2[nH]5)C=C4)C=C3)cc1
REMARK SMILES IDX 16 1 15 2 14 3 12 4 13 5 11 7 10 8 9 9 8 10 7 11 5 12 6 13
REMARK SMILES IDX 3 15 2 16 1 17 4 18 17 22 18 23 19 24 20 25 21 26 22 27
REMARK SMILES IDX 23 29 24 30 25 31 83 32 26 33 82 34 27 35 28 36 29 37 76 38
REMARK SMILES IDX 30 39 81 40 75 41 77 42 31 43 80 44 74 45 73 46 32 48 62 49
REMARK SMILES IDX 43 50 61 51 44 52 47 53 60 54 78 55 45 56 46 57 59 59 79 60
REMARK SMILES IDX 48 61 33 62 34 63 42 64 35 65 41 66 36 67 37 68 38 69 39 70
REMARK SMILES IDX 40 71 63 72 64 73 72 74 65 75 71 76 66 77 67 78 68 79 69 80
REMARK SMILES IDX 70 81 49 82 50 83 58 84 51 85 57 86 52 87 53 88 54 89 55 90
REMARK SMILES IDX 56 91
REMARK H PARENT 14 6 7 14 4 19 4 20 4 21 21 28 77 47 47 58
REMARK Flexibility Score: inf
ROOT
ATOM      1  C   UNL A   1      38.843  24.189  26.679  1.00  0.00     0.021 C 
ENDROOT
BRANCH   1   2
ATOM      2  C   UNL A   1      37.473  23.770  26.152  1.00  0.00     0.116 C 
BRANCH   2   3
ATOM      3  N   UNL A   1      37.549  23.331  24.773  1.00  0.00    -0.354 N 
ATOM      4  C   UNL A   1      36.551  23.324  23.845  1.00  0.00     0.245 C 
ATOM      5  O   UNL A   1      36.776  22.873  22.723  1.00  0.00    -0.272 OA
ATOM      6  H   UNL A   1      38.426  22.997  24.472  1.00  0.00     0.163 HD
BRANCH   4   7
ATOM      7  C   UNL A   1      35.177  23.875  24.242  1.00  0.00     0.260 C 
BRANCH   7   8
ATOM      8  O   UNL A   1      34.370  24.420  23.211  1.00  0.00    -0.370 OA
BRANCH   8   9
ATOM      9  C   UNL A   1      33.082  23.816  23.057  1.00  0.00     0.182 C 
BRANCH   9  10
ATOM     10  C   UNL A   1      31.918  24.805  23.218  1.00  0.00     0.144 C 
BRANCH  10  11
ATOM     11  N   UNL A   1      31.883  25.438  24.528  1.00  0.00    -0.349 N 
ATOM     12  C   UNL A   1      31.361  25.018  25.713  1.00  0.00     0.278 C 
ATOM     13  O   UNL A   1      31.493  25.759  26.692  1.00  0.00    -0.268 OA
ATOM     14  H   UNL A   1      32.313  26.323  24.565  1.00  0.00     0.163 HD
BRANCH  12  15
ATOM     15  C   UNL A   1      30.716  23.628  25.874  1.00  0.00     0.270 C 
BRANCH  15  16
ATOM     16  C   UNL A   1      31.728  22.509  26.148  1.00  0.00     0.072 C 
ATOM     17  C   UNL A   1      32.531  22.729  27.425  1.00  0.00     0.011 C 
ENDBRANCH  15  16
BRANCH  15  18
ATOM     18  N   UNL A   1      29.636  23.705  26.882  1.00  0.00    -0.347 N 
ATOM     19  H   UNL A   1      29.980  23.351  27.775  1.00  0.00     0.345 HD
ATOM     20  H   UNL A   1      28.844  23.141  26.576  1.00  0.00     0.345 HD
ATOM     21  H   UNL A   1      29.342  24.675  26.991  1.00  0.00     0.345 HD
ENDBRANCH  15  18
ENDBRANCH  12  15
ENDBRANCH  10  11
ENDBRANCH   9  10
ENDBRANCH   8   9
ENDBRANCH   7   8
ENDBRANCH   4   7
ENDBRANCH   2   3
ENDBRANCH   1   2
BRANCH   1  22
ATOM     22  C   UNL A   1      39.961  23.175  26.410  1.00  0.00     0.002 C 
BRANCH  22  23
ATOM     23  C   UNL A   1      40.550  22.510  27.658  1.00  0.00     0.002 C 
BRANCH  23  24
ATOM     24  C   UNL A   1      40.778  21.001  27.542  1.00  0.00     0.021 C 
BRANCH  24  25
ATOM     25  C   UNL A   1      40.593  20.440  26.137  1.00  0.00     0.116 C 
BRANCH  25  26
ATOM     26  N   UNL A   1      41.692  19.571  25.749  1.00  0.00    -0.352 N 
ATOM     27  C   UNL A   1      42.988  19.900  25.437  1.00  0.00     0.251 C 
ATOM     28  H   UNL A   1      41.477  18.612  25.702  1.00  0.00     0.163 HD
ATOM     29  O   UNL A   1      43.730  19.065  24.933  1.00  0.00    -0.269 OA
BRANCH  27  30
ATOM     30  C   UNL A   1      43.475  21.273  25.694  1.00  0.00     0.039 A 
ATOM     31  C   UNL A   1      43.293  22.251  24.715  1.00  0.00     0.014 A 
ATOM     32  C   UNL A   1      44.107  21.594  26.900  1.00  0.00     0.014 A 
ATOM     33  C   UNL A   1      43.693  23.564  24.967  1.00  0.00     0.010 A 
ATOM     34  C   UNL A   1      44.431  22.918  27.181  1.00  0.00     0.010 A 
ATOM     35  C   UNL A   1      44.235  23.916  26.215  1.00  0.00    -0.014 A 
BRANCH  35  36
ATOM     36  C   UNL A   1      44.600  25.322  26.525  1.00  0.00     0.031 A 
ATOM     37  C   UNL A   1      46.014  25.799  26.331  1.00  0.00     0.074 A 
ATOM     38  C   UNL A   1      43.673  26.152  27.044  1.00  0.00     0.049 A 
ATOM     39  N   UNL A   1      46.531  26.972  26.593  1.00  0.00    -0.248 NA
ATOM     40  C   UNL A   1      46.977  24.823  25.797  1.00  0.00     0.031 C 
ATOM     41  C   UNL A   1      42.281  25.795  27.326  1.00  0.00     0.029 A 
ATOM     42  N   UNL A   1      43.765  27.465  27.434  1.00  0.00    -0.354 N 
ATOM     43  C   UNL A   1      47.878  26.872  26.267  1.00  0.00     0.074 A 
ATOM     44  C   UNL A   1      48.111  25.507  25.848  1.00  0.00     0.031 C 
ATOM     45  C   UNL A   1      41.646  26.866  27.826  1.00  0.00     0.029 A 
ATOM     46  C   UNL A   1      42.592  27.972  27.940  1.00  0.00     0.049 A 
ATOM     47  H   UNL A   1      44.592  27.993  27.359  1.00  0.00     0.167 HD
ATOM     48  C   UNL A   1      48.833  27.833  26.292  1.00  0.00     0.031 A 
ATOM     49  C   UNL A   1      42.308  29.186  28.452  1.00  0.00     0.031 A 
ATOM     50  C   UNL A   1      48.599  29.188  26.719  1.00  0.00     0.049 A 
ATOM     51  C   UNL A   1      43.384  30.235  28.488  1.00  0.00     0.074 A 
ATOM     52  C   UNL A   1      49.487  30.250  26.737  1.00  0.00     0.029 A 
ATOM     53  N   UNL A   1      47.393  29.667  27.209  1.00  0.00    -0.354 N 
ATOM     54  N   UNL A   1      44.636  30.143  28.106  1.00  0.00    -0.248 NA
ATOM     55  C   UNL A   1      43.007  31.556  29.008  1.00  0.00     0.031 C 
ATOM     56  C   UNL A   1      48.834  31.354  27.298  1.00  0.00     0.029 A 
ATOM     57  C   UNL A   1      47.519  31.001  27.562  1.00  0.00     0.049 A 
ATOM     58  H   UNL A   1      46.567  29.136  27.295  1.00  0.00     0.167 HD
ATOM     59  C   UNL A   1      45.191  31.401  28.319  1.00  0.00     0.074 A 
ATOM     60  C   UNL A   1      44.132  32.239  28.844  1.00  0.00     0.031 C 
ATOM     61  C   UNL A   1      46.461  31.823  28.095  1.00  0.00     0.031 A 
BRANCH  48  62
ATOM     62  C   UNL A   1      50.223  27.439  25.859  1.00  0.00    -0.014 A 
ATOM     63  C   UNL A   1      51.128  26.847  26.761  1.00  0.00     0.010 A 
ATOM     64  C   UNL A   1      50.631  27.654  24.529  1.00  0.00     0.010 A 
ATOM     65  C   UNL A   1      52.431  26.537  26.361  1.00  0.00     0.020 A 
ATOM     66  C   UNL A   1      51.922  27.313  24.116  1.00  0.00     0.020 A 
ATOM     67  C   UNL A   1      52.821  26.779  25.041  1.00  0.00     0.054 A 
BRANCH  67  68
ATOM     68  S   UNL A   1      54.521  26.377  24.552  1.00  0.00     0.124 S 
ATOM     69  O   UNL A   1      55.291  27.366  25.304  1.00  0.00    -0.237 OA
ATOM     70  O   UNL A   1      54.665  24.996  25.002  1.00  0.00    -0.237 OA
ATOM     71  O   UNL A   1      54.518  26.562  23.103  1.00  0.00    -0.744 OA
ENDBRANCH  67  68
ENDBRANCH  48  62
BRANCH  49  72
ATOM     72  C   UNL A   1      40.940  29.463  28.970  1.00  0.00    -0.014 A 
ATOM     73  C   UNL A   1      40.693  29.539  30.351  1.00  0.00     0.010 A 
ATOM     74  C   UNL A   1      39.880  29.696  28.072  1.00  0.00     0.010 A 
ATOM     75  C   UNL A   1      39.411  29.835  30.826  1.00  0.00     0.020 A 
ATOM     76  C   UNL A   1      38.606  30.023  28.543  1.00  0.00     0.020 A 
ATOM     77  C   UNL A   1      38.377  30.083  29.918  1.00  0.00     0.054 A 
BRANCH  77  78
ATOM     78  S   UNL A   1      36.741  30.540  30.557  1.00  0.00     0.124 S 
ATOM     79  O   UNL A   1      37.061  31.657  31.440  1.00  0.00    -0.237 OA
ATOM     80  O   UNL A   1      36.014  30.883  29.339  1.00  0.00    -0.237 OA
ATOM     81  O   UNL A   1      36.283  29.323  31.225  1.00  0.00    -0.744 OA
ENDBRANCH  77  78
ENDBRANCH  49  72
BRANCH  61  82
ATOM     82  C   UNL A   1      46.775  33.266  28.393  1.00  0.00    -0.014 A 
ATOM     83  C   UNL A   1      46.418  34.292  27.501  1.00  0.00     0.010 A 
ATOM     84  C   UNL A   1      47.390  33.603  29.613  1.00  0.00     0.010 A 
ATOM     85  C   UNL A   1      46.698  35.627  27.811  1.00  0.00     0.020 A 
ATOM     86  C   UNL A   1      47.643  34.936  29.940  1.00  0.00     0.020 A 
ATOM     87  C   UNL A   1      47.308  35.940  29.030  1.00  0.00     0.054 A 
BRANCH  87  88
ATOM     88  S   UNL A   1      47.619  37.682  29.427  1.00  0.00     0.124 S 
ATOM     89  O   UNL A   1      46.275  38.251  29.369  1.00  0.00    -0.237 OA
ATOM     90  O   UNL A   1      48.213  37.606  30.759  1.00  0.00    -0.237 OA
ATOM     91  O   UNL A   1      48.527  38.122  28.371  1.00  0.00    -0.744 OA
ENDBRANCH  87  88
ENDBRANCH  61  82
ENDBRANCH  35  36
ENDBRANCH  27  30
ENDBRANCH  25  26
ENDBRANCH  24  25
ENDBRANCH  23  24
ENDBRANCH  22  23
ENDBRANCH   1  22
TORSDOF 23
ENDMDL
