MODEL 1
REMARK VINA RESULT:     -11.0      0.000      0.000
REMARK SMILES Cc1cc2c(c(C)c1Cl)C=C(C(=O)NCCCCCCNC(=O)c1ccc(-c3c4nc(c(-c5ccc(S(=O)(=O)[O-])cc5)c5ccc([nH]5)c(-c5ccc(S(=O)(=O)[O-])cc5)c5nc(c(-c6ccc(S(=O)(=O)[O-])cc6)c6ccc3[nH]6)C=C5)C=C4)cc1)[C@@H](C(F)(F)F)O2
REMARK SMILES IDX 18 1 17 2 16 3 15 4 14 5 12 6 13 7 11 9 1 10 2 11 3 12 8 13
REMARK SMILES IDX 4 14 6 15 9 16 5 17 89 18 7 19 10 20 84 21 85 22 86 23 87 24
REMARK SMILES IDX 88 25 19 26 20 27 21 28 22 29 23 31 24 32 25 33 83 34 26 35
REMARK SMILES IDX 82 36 27 37 28 38 29 39 76 40 30 41 81 42 75 43 77 44 31 45
REMARK SMILES IDX 80 46 74 47 73 48 32 50 62 51 43 52 61 53 44 54 47 55 60 56
REMARK SMILES IDX 78 57 45 58 46 59 59 61 79 62 48 63 33 64 34 65 42 66 35 67
REMARK SMILES IDX 41 68 36 69 37 70 38 71 39 72 40 73 63 74 64 75 72 76 65 77
REMARK SMILES IDX 71 78 66 79 67 80 68 81 69 82 70 83 49 84 50 85 58 86 51 87
REMARK SMILES IDX 57 88 52 89 53 90 54 91 55 92 56 93
REMARK H PARENT 14 8 21 30 77 49 47 60
REMARK Flexibility Score: inf
ROOT
ATOM      1  C   UNL A   1      32.221  28.932  24.999  1.00  0.00     0.002 C 
ENDROOT
BRANCH   1   2
ATOM      2  C   UNL A   1      31.199  28.256  24.075  1.00  0.00     0.002 C 
BRANCH   2   3
ATOM      3  C   UNL A   1      31.799  27.357  22.991  1.00  0.00     0.021 C 
BRANCH   3   4
ATOM      4  C   UNL A   1      31.489  25.876  23.183  1.00  0.00     0.116 C 
BRANCH   4   5
ATOM      5  N   UNL A   1      31.171  25.571  24.566  1.00  0.00    -0.352 N 
ATOM      6  C   UNL A   1      31.520  24.636  25.480  1.00  0.00     0.251 C 
ATOM      7  O   UNL A   1      31.001  24.770  26.594  1.00  0.00    -0.270 OA
ATOM      8  H   UNL A   1      30.529  26.217  24.940  1.00  0.00     0.163 HD
BRANCH   6   9
ATOM      9  C   UNL A   1      32.454  23.495  25.235  1.00  0.00     0.067 C 
ATOM     10  C   UNL A   1      37.408  19.277  24.923  1.00  0.00     0.046 C 
ATOM     11  C   UNL A   1      36.513  20.475  25.085  1.00  0.00    -0.028 A 
ATOM     12  C   UNL A   1      35.144  20.315  24.867  1.00  0.00     0.052 A 
ATOM     13  C   UNL A   1      37.000  21.749  25.439  1.00  0.00     0.047 A 
ATOM     14  C   UNL A   1      34.275  21.389  25.009  1.00  0.00     0.128 A 
ATOM     15  C   UNL A   1      36.124  22.853  25.594  1.00  0.00    -0.021 A 
ATOM     16  Cl  UNL A   1      38.710  21.934  25.694  1.00  0.00    -0.084 Cl
ATOM     17  C   UNL A   1      34.736  22.652  25.387  1.00  0.00     0.022 A 
ATOM     18  O   UNL A   1      32.962  21.092  24.799  1.00  0.00    -0.475 OA
ATOM     19  C   UNL A   1      36.626  24.224  25.980  1.00  0.00     0.047 C 
ATOM     20  C   UNL A   1      33.734  23.702  25.596  1.00  0.00     0.026 C 
ATOM     21  C   UNL A   1      32.051  22.200  24.598  1.00  0.00     0.314 C 
BRANCH  21  22
ATOM     22  C   UNL A   1      31.751  22.341  23.095  1.00  0.00     0.429 C 
ATOM     23  F   UNL A   1      32.699  23.097  22.490  1.00  0.00    -0.167 F 
ATOM     24  F   UNL A   1      31.743  21.151  22.452  1.00  0.00    -0.167 F 
ATOM     25  F   UNL A   1      30.553  22.923  22.863  1.00  0.00    -0.167 F 
ENDBRANCH  21  22
ENDBRANCH   6   9
ENDBRANCH   4   5
ENDBRANCH   3   4
ENDBRANCH   2   3
ENDBRANCH   1   2
BRANCH   1  26
ATOM     26  C   UNL A   1      33.471  28.103  25.309  1.00  0.00     0.021 C 
BRANCH  26  27
ATOM     27  C   UNL A   1      34.032  28.312  26.711  1.00  0.00     0.116 C 
BRANCH  27  28
ATOM     28  N   UNL A   1      33.821  29.672  27.176  1.00  0.00    -0.352 N 
ATOM     29  C   UNL A   1      34.619  30.444  27.979  1.00  0.00     0.251 C 
ATOM     30  H   UNL A   1      32.987  30.099  26.871  1.00  0.00     0.163 HD
ATOM     31  O   UNL A   1      34.182  31.483  28.466  1.00  0.00    -0.269 OA
BRANCH  29  32
ATOM     32  C   UNL A   1      36.001  30.010  28.261  1.00  0.00     0.039 A 
ATOM     33  C   UNL A   1      36.974  30.154  27.269  1.00  0.00     0.014 A 
ATOM     34  C   UNL A   1      36.332  29.455  29.501  1.00  0.00     0.014 A 
ATOM     35  C   UNL A   1      38.290  29.780  27.538  1.00  0.00     0.010 A 
ATOM     36  C   UNL A   1      37.657  29.152  29.793  1.00  0.00     0.010 A 
ATOM     37  C   UNL A   1      38.646  29.297  28.809  1.00  0.00    -0.014 A 
BRANCH  37  38
ATOM     38  C   UNL A   1      40.043  28.897  29.108  1.00  0.00     0.031 A 
ATOM     39  C   UNL A   1      40.962  29.860  29.808  1.00  0.00     0.074 A 
ATOM     40  C   UNL A   1      40.487  27.682  28.731  1.00  0.00     0.049 A 
ATOM     41  N   UNL A   1      42.215  29.703  30.146  1.00  0.00    -0.248 NA
ATOM     42  C   UNL A   1      40.407  31.179  30.158  1.00  0.00     0.031 C 
ATOM     43  C   UNL A   1      39.694  26.671  28.027  1.00  0.00     0.029 A 
ATOM     44  N   UNL A   1      41.712  27.087  28.896  1.00  0.00    -0.354 N 
ATOM     45  C   UNL A   1      42.596  30.897  30.746  1.00  0.00     0.074 A 
ATOM     46  C   UNL A   1      41.464  31.792  30.669  1.00  0.00     0.031 C 
ATOM     47  C   UNL A   1      40.441  25.568  27.857  1.00  0.00     0.029 A 
ATOM     48  C   UNL A   1      41.774  25.804  28.405  1.00  0.00     0.049 A 
ATOM     49  H   UNL A   1      42.475  27.536  29.327  1.00  0.00     0.167 HD
ATOM     50  C   UNL A   1      43.774  31.211  31.336  1.00  0.00     0.031 A 
ATOM     51  C   UNL A   1      42.788  24.918  28.398  1.00  0.00     0.031 A 
ATOM     52  C   UNL A   1      44.894  30.315  31.419  1.00  0.00     0.049 A 
ATOM     53  C   UNL A   1      44.103  25.307  29.018  1.00  0.00     0.074 A 
ATOM     54  C   UNL A   1      46.118  30.523  32.029  1.00  0.00     0.029 A 
ATOM     55  N   UNL A   1      44.928  29.039  30.876  1.00  0.00    -0.354 N 
ATOM     56  N   UNL A   1      44.427  26.424  29.626  1.00  0.00    -0.248 NA
ATOM     57  C   UNL A   1      45.188  24.319  28.950  1.00  0.00     0.031 C 
ATOM     58  C   UNL A   1      46.912  29.395  31.808  1.00  0.00     0.029 A 
ATOM     59  C   UNL A   1      46.163  28.460  31.109  1.00  0.00     0.049 A 
ATOM     60  H   UNL A   1      44.184  28.609  30.396  1.00  0.00     0.167 HD
ATOM     61  C   UNL A   1      45.749  26.265  30.028  1.00  0.00     0.074 A 
ATOM     62  C   UNL A   1      46.156  24.939  29.612  1.00  0.00     0.031 C 
ATOM     63  C   UNL A   1      46.554  27.142  30.678  1.00  0.00     0.031 A 
BRANCH  50  64
ATOM     64  C   UNL A   1      43.903  32.581  31.947  1.00  0.00    -0.014 A 
ATOM     65  C   UNL A   1      44.223  33.696  31.151  1.00  0.00     0.010 A 
ATOM     66  C   UNL A   1      43.656  32.767  33.318  1.00  0.00     0.010 A 
ATOM     67  C   UNL A   1      44.328  34.966  31.722  1.00  0.00     0.020 A 
ATOM     68  C   UNL A   1      43.732  34.041  33.889  1.00  0.00     0.020 A 
ATOM     69  C   UNL A   1      44.080  35.131  33.088  1.00  0.00     0.054 A 
BRANCH  69  70
ATOM     70  S   UNL A   1      44.194  36.798  33.793  1.00  0.00     0.124 S 
ATOM     71  O   UNL A   1      45.636  36.951  33.973  1.00  0.00    -0.237 OA
ATOM     72  O   UNL A   1      43.601  37.627  32.747  1.00  0.00    -0.237 OA
ATOM     73  O   UNL A   1      43.419  36.707  35.028  1.00  0.00    -0.744 OA
ENDBRANCH  69  70
ENDBRANCH  50  64
BRANCH  51  74
ATOM     74  C   UNL A   1      42.592  23.568  27.802  1.00  0.00    -0.014 A 
ATOM     75  C   UNL A   1      43.030  23.297  26.494  1.00  0.00     0.010 A 
ATOM     76  C   UNL A   1      41.987  22.539  28.546  1.00  0.00     0.010 A 
ATOM     77  C   UNL A   1      42.859  22.026  25.938  1.00  0.00     0.020 A 
ATOM     78  C   UNL A   1      41.839  21.258  28.004  1.00  0.00     0.020 A 
ATOM     79  C   UNL A   1      42.270  21.013  26.699  1.00  0.00     0.054 A 
BRANCH  79  80
ATOM     80  S   UNL A   1      42.115  19.356  25.974  1.00  0.00     0.124 S 
ATOM     81  O   UNL A   1      42.951  19.466  24.783  1.00  0.00    -0.237 OA
ATOM     82  O   UNL A   1      42.635  18.500  27.037  1.00  0.00    -0.237 OA
ATOM     83  O   UNL A   1      40.682  19.225  25.723  1.00  0.00    -0.744 OA
ENDBRANCH  79  80
ENDBRANCH  51  74
BRANCH  63  84
ATOM     84  C   UNL A   1      47.961  26.702  30.981  1.00  0.00    -0.014 A 
ATOM     85  C   UNL A   1      49.005  26.959  30.074  1.00  0.00     0.010 A 
ATOM     86  C   UNL A   1      48.259  26.109  32.222  1.00  0.00     0.010 A 
ATOM     87  C   UNL A   1      50.320  26.615  30.399  1.00  0.00     0.020 A 
ATOM     88  C   UNL A   1      49.575  25.790  32.560  1.00  0.00     0.020 A 
ATOM     89  C   UNL A   1      50.597  26.040  31.642  1.00  0.00     0.054 A 
BRANCH  89  90
ATOM     90  S   UNL A   1      52.323  25.668  32.059  1.00  0.00     0.124 S 
ATOM     91  O   UNL A   1      52.276  24.227  32.294  1.00  0.00    -0.237 OA
ATOM     92  O   UNL A   1      53.038  26.086  30.856  1.00  0.00    -0.237 OA
ATOM     93  O   UNL A   1      52.578  26.483  33.245  1.00  0.00    -0.744 OA
ENDBRANCH  89  90
ENDBRANCH  63  84
ENDBRANCH  37  38
ENDBRANCH  29  32
ENDBRANCH  27  28
ENDBRANCH  26  27
ENDBRANCH   1  26
TORSDOF 17
ENDMDL
MODEL 2
REMARK VINA RESULT:     -10.8      4.387     10.132
REMARK SMILES Cc1cc2c(c(C)c1Cl)C=C(C(=O)NCCCCCCNC(=O)c1ccc(-c3c4nc(c(-c5ccc(S(=O)(=O)[O-])cc5)c5ccc([nH]5)c(-c5ccc(S(=O)(=O)[O-])cc5)c5nc(c(-c6ccc(S(=O)(=O)[O-])cc6)c6ccc3[nH]6)C=C5)C=C4)cc1)[C@@H](C(F)(F)F)O2
REMARK SMILES IDX 18 1 17 2 16 3 15 4 14 5 12 6 13 7 11 9 1 10 2 11 3 12 8 13
REMARK SMILES IDX 4 14 6 15 9 16 5 17 89 18 7 19 10 20 84 21 85 22 86 23 87 24
REMARK SMILES IDX 88 25 19 26 20 27 21 28 22 29 23 31 24 32 25 33 83 34 26 35
REMARK SMILES IDX 82 36 27 37 28 38 29 39 76 40 30 41 81 42 75 43 77 44 31 45
REMARK SMILES IDX 80 46 74 47 73 48 32 50 62 51 43 52 61 53 44 54 47 55 60 56
REMARK SMILES IDX 78 57 45 58 46 59 59 61 79 62 48 63 33 64 34 65 42 66 35 67
REMARK SMILES IDX 41 68 36 69 37 70 38 71 39 72 40 73 63 74 64 75 72 76 65 77
REMARK SMILES IDX 71 78 66 79 67 80 68 81 69 82 70 83 49 84 50 85 58 86 51 87
REMARK SMILES IDX 57 88 52 89 53 90 54 91 55 92 56 93
REMARK H PARENT 14 8 21 30 77 49 47 60
REMARK Flexibility Score: inf
ROOT
ATOM      1  C   UNL A   1      40.314  22.076  27.320  1.00  0.00     0.002 C 
ENDROOT
BRANCH   1   2
ATOM      2  C   UNL A   1      39.361  22.484  26.188  1.00  0.00     0.002 C 
BRANCH   2   3
ATOM      3  C   UNL A   1      38.481  23.701  26.488  1.00  0.00     0.021 C 
BRANCH   3   4
ATOM      4  C   UNL A   1      37.061  23.577  25.947  1.00  0.00     0.116 C 
BRANCH   4   5
ATOM      5  N   UNL A   1      37.052  23.205  24.544  1.00  0.00    -0.352 N 
ATOM      6  C   UNL A   1      36.151  23.162  23.536  1.00  0.00     0.251 C 
ATOM      7  O   UNL A   1      36.596  22.782  22.448  1.00  0.00    -0.270 OA
ATOM      8  H   UNL A   1      37.940  22.903  24.245  1.00  0.00     0.163 HD
BRANCH   6   9
ATOM      9  C   UNL A   1      34.706  23.528  23.653  1.00  0.00     0.067 C 
ATOM     10  C   UNL A   1      28.871  26.409  23.924  1.00  0.00     0.046 C 
ATOM     11  C   UNL A   1      30.335  26.067  23.910  1.00  0.00    -0.028 A 
ATOM     12  C   UNL A   1      30.703  24.736  23.712  1.00  0.00     0.052 A 
ATOM     13  C   UNL A   1      31.346  27.031  24.098  1.00  0.00     0.047 A 
ATOM     14  C   UNL A   1      32.043  24.369  23.686  1.00  0.00     0.128 A 
ATOM     15  C   UNL A   1      32.717  26.672  24.068  1.00  0.00    -0.021 A 
ATOM     16  Cl  UNL A   1      30.869  28.682  24.359  1.00  0.00    -0.084 Cl
ATOM     17  C   UNL A   1      33.058  25.315  23.841  1.00  0.00     0.022 A 
ATOM     18  O   UNL A   1      32.267  23.046  23.452  1.00  0.00    -0.475 OA
ATOM     19  C   UNL A   1      33.815  27.691  24.259  1.00  0.00     0.047 C 
ATOM     20  C   UNL A   1      34.442  24.847  23.712  1.00  0.00     0.026 C 
ATOM     21  C   UNL A   1      33.590  22.532  23.741  1.00  0.00     0.314 C 
BRANCH  21  22
ATOM     22  C   UNL A   1      33.560  21.785  25.086  1.00  0.00     0.429 C 
ATOM     23  F   UNL A   1      33.865  22.626  26.104  1.00  0.00    -0.167 F 
ATOM     24  F   UNL A   1      32.341  21.269  25.368  1.00  0.00    -0.167 F 
ATOM     25  F   UNL A   1      34.441  20.759  25.124  1.00  0.00    -0.167 F 
ENDBRANCH  21  22
ENDBRANCH   6   9
ENDBRANCH   4   5
ENDBRANCH   3   4
ENDBRANCH   2   3
ENDBRANCH   1   2
BRANCH   1  26
ATOM     26  C   UNL A   1      41.784  21.934  26.918  1.00  0.00     0.021 C 
BRANCH  26  27
ATOM     27  C   UNL A   1      42.623  23.186  27.149  1.00  0.00     0.116 C 
BRANCH  27  28
ATOM     28  N   UNL A   1      42.660  24.032  25.968  1.00  0.00    -0.352 N 
ATOM     29  C   UNL A   1      42.306  25.348  25.838  1.00  0.00     0.251 C 
ATOM     30  H   UNL A   1      42.987  23.597  25.147  1.00  0.00     0.163 HD
ATOM     31  O   UNL A   1      42.176  25.844  24.721  1.00  0.00    -0.269 OA
BRANCH  29  32
ATOM     32  C   UNL A   1      42.070  26.161  27.047  1.00  0.00     0.039 A 
ATOM     33  C   UNL A   1      42.875  27.277  27.283  1.00  0.00     0.014 A 
ATOM     34  C   UNL A   1      41.059  25.814  27.950  1.00  0.00     0.014 A 
ATOM     35  C   UNL A   1      42.638  28.071  28.405  1.00  0.00     0.010 A 
ATOM     36  C   UNL A   1      40.776  26.647  29.026  1.00  0.00     0.010 A 
ATOM     37  C   UNL A   1      41.573  27.774  29.273  1.00  0.00    -0.014 A 
BRANCH  37  38
ATOM     38  C   UNL A   1      41.309  28.612  30.468  1.00  0.00     0.031 A 
ATOM     39  C   UNL A   1      42.177  28.470  31.687  1.00  0.00     0.074 A 
ATOM     40  C   UNL A   1      40.278  29.480  30.462  1.00  0.00     0.049 A 
ATOM     41  N   UNL A   1      42.100  29.100  32.831  1.00  0.00    -0.248 NA
ATOM     42  C   UNL A   1      43.263  27.477  31.622  1.00  0.00     0.031 C 
ATOM     43  C   UNL A   1      39.353  29.690  29.346  1.00  0.00     0.029 A 
ATOM     44  N   UNL A   1      39.841  30.355  31.425  1.00  0.00    -0.354 N 
ATOM     45  C   UNL A   1      43.123  28.583  33.616  1.00  0.00     0.074 A 
ATOM     46  C   UNL A   1      43.765  27.542  32.846  1.00  0.00     0.031 C 
ATOM     47  C   UNL A   1      38.485  30.662  29.672  1.00  0.00     0.029 A 
ATOM     48  C   UNL A   1      38.765  31.116  31.031  1.00  0.00     0.049 A 
ATOM     49  H   UNL A   1      40.258  30.432  32.313  1.00  0.00     0.167 HD
ATOM     50  C   UNL A   1      43.512  28.960  34.857  1.00  0.00     0.031 A 
ATOM     51  C   UNL A   1      38.083  32.073  31.689  1.00  0.00     0.031 A 
ATOM     52  C   UNL A   1      42.876  30.002  35.615  1.00  0.00     0.049 A 
ATOM     53  C   UNL A   1      38.505  32.442  33.086  1.00  0.00     0.074 A 
ATOM     54  C   UNL A   1      43.218  30.485  36.865  1.00  0.00     0.029 A 
ATOM     55  N   UNL A   1      41.767  30.721  35.196  1.00  0.00    -0.354 N 
ATOM     56  N   UNL A   1      39.508  31.976  33.792  1.00  0.00    -0.248 NA
ATOM     57  C   UNL A   1      37.705  33.465  33.773  1.00  0.00     0.031 C 
ATOM     58  C   UNL A   1      42.284  31.460  37.226  1.00  0.00     0.029 A 
ATOM     59  C   UNL A   1      41.393  31.624  36.176  1.00  0.00     0.049 A 
ATOM     60  H   UNL A   1      41.315  30.608  34.329  1.00  0.00     0.167 HD
ATOM     61  C   UNL A   1      39.468  32.661  35.002  1.00  0.00     0.074 A 
ATOM     62  C   UNL A   1      38.357  33.586  34.923  1.00  0.00     0.031 C 
ATOM     63  C   UNL A   1      40.276  32.530  36.082  1.00  0.00     0.031 A 
BRANCH  50  64
ATOM     64  C   UNL A   1      44.689  28.245  35.465  1.00  0.00    -0.014 A 
ATOM     65  C   UNL A   1      44.505  27.077  36.229  1.00  0.00     0.010 A 
ATOM     66  C   UNL A   1      45.994  28.712  35.233  1.00  0.00     0.010 A 
ATOM     67  C   UNL A   1      45.602  26.411  36.778  1.00  0.00     0.020 A 
ATOM     68  C   UNL A   1      47.097  28.032  35.757  1.00  0.00     0.020 A 
ATOM     69  C   UNL A   1      46.893  26.892  36.538  1.00  0.00     0.054 A 
BRANCH  69  70
ATOM     70  S   UNL A   1      48.299  25.986  37.240  1.00  0.00     0.124 S 
ATOM     71  O   UNL A   1      49.400  26.435  36.391  1.00  0.00    -0.237 OA
ATOM     72  O   UNL A   1      48.331  26.469  38.618  1.00  0.00    -0.237 OA
ATOM     73  O   UNL A   1      47.923  24.583  37.081  1.00  0.00    -0.744 OA
ENDBRANCH  69  70
ENDBRANCH  50  64
BRANCH  51  74
ATOM     74  C   UNL A   1      36.944  32.764  31.025  1.00  0.00    -0.014 A 
ATOM     75  C   UNL A   1      37.178  33.693  29.996  1.00  0.00     0.010 A 
ATOM     76  C   UNL A   1      35.618  32.483  31.401  1.00  0.00     0.010 A 
ATOM     77  C   UNL A   1      36.109  34.333  29.361  1.00  0.00     0.020 A 
ATOM     78  C   UNL A   1      34.545  33.099  30.750  1.00  0.00     0.020 A 
ATOM     79  C   UNL A   1      34.799  34.027  29.739  1.00  0.00     0.054 A 
BRANCH  79  80
ATOM     80  S   UNL A   1      33.429  34.828  28.858  1.00  0.00     0.124 S 
ATOM     81  O   UNL A   1      34.084  35.991  28.268  1.00  0.00    -0.237 OA
ATOM     82  O   UNL A   1      33.013  33.790  27.918  1.00  0.00    -0.237 OA
ATOM     83  O   UNL A   1      32.467  35.121  29.917  1.00  0.00    -0.744 OA
ENDBRANCH  79  80
ENDBRANCH  51  74
BRANCH  63  84
ATOM     84  C   UNL A   1      39.993  33.405  37.274  1.00  0.00    -0.014 A 
ATOM     85  C   UNL A   1      40.612  34.660  37.408  1.00  0.00     0.010 A 
ATOM     86  C   UNL A   1      39.030  33.009  38.222  1.00  0.00     0.010 A 
ATOM     87  C   UNL A   1      40.285  35.497  38.478  1.00  0.00     0.020 A 
ATOM     88  C   UNL A   1      38.681  33.854  39.276  1.00  0.00     0.020 A 
ATOM     89  C   UNL A   1      39.316  35.092  39.401  1.00  0.00     0.054 A 
BRANCH  89  90
ATOM     90  S   UNL A   1      38.865  36.229  40.740  1.00  0.00     0.124 S 
ATOM     91  O   UNL A   1      38.519  37.443  40.005  1.00  0.00    -0.237 OA
ATOM     92  O   UNL A   1      37.746  35.540  41.379  1.00  0.00    -0.237 OA
ATOM     93  O   UNL A   1      40.080  36.315  41.548  1.00  0.00    -0.744 OA
ENDBRANCH  89  90
ENDBRANCH  63  84
ENDBRANCH  37  38
ENDBRANCH  29  32
ENDBRANCH  27  28
ENDBRANCH  26  27
ENDBRANCH   1  26
TORSDOF 17
ENDMDL
MODEL 3
REMARK VINA RESULT:     -10.8      4.589      9.814
REMARK SMILES Cc1cc2c(c(C)c1Cl)C=C(C(=O)NCCCCCCNC(=O)c1ccc(-c3c4nc(c(-c5ccc(S(=O)(=O)[O-])cc5)c5ccc([nH]5)c(-c5ccc(S(=O)(=O)[O-])cc5)c5nc(c(-c6ccc(S(=O)(=O)[O-])cc6)c6ccc3[nH]6)C=C5)C=C4)cc1)[C@@H](C(F)(F)F)O2
REMARK SMILES IDX 18 1 17 2 16 3 15 4 14 5 12 6 13 7 11 9 1 10 2 11 3 12 8 13
REMARK SMILES IDX 4 14 6 15 9 16 5 17 89 18 7 19 10 20 84 21 85 22 86 23 87 24
REMARK SMILES IDX 88 25 19 26 20 27 21 28 22 29 23 31 24 32 25 33 83 34 26 35
REMARK SMILES IDX 82 36 27 37 28 38 29 39 76 40 30 41 81 42 75 43 77 44 31 45
REMARK SMILES IDX 80 46 74 47 73 48 32 50 62 51 43 52 61 53 44 54 47 55 60 56
REMARK SMILES IDX 78 57 45 58 46 59 59 61 79 62 48 63 33 64 34 65 42 66 35 67
REMARK SMILES IDX 41 68 36 69 37 70 38 71 39 72 40 73 63 74 64 75 72 76 65 77
REMARK SMILES IDX 71 78 66 79 67 80 68 81 69 82 70 83 49 84 50 85 58 86 51 87
REMARK SMILES IDX 57 88 52 89 53 90 54 91 55 92 56 93
REMARK H PARENT 14 8 21 30 77 49 47 60
REMARK Flexibility Score: inf
ROOT
ATOM      1  C   UNL A   1      40.312  21.635  26.627  1.00  0.00     0.002 C 
ENDROOT
BRANCH   1   2
ATOM      2  C   UNL A   1      39.040  22.128  25.925  1.00  0.00     0.002 C 
BRANCH   2   3
ATOM      3  C   UNL A   1      38.380  23.354  26.562  1.00  0.00     0.021 C 
BRANCH   3   4
ATOM      4  C   UNL A   1      37.115  23.811  25.844  1.00  0.00     0.116 C 
BRANCH   4   5
ATOM      5  N   UNL A   1      37.078  23.341  24.471  1.00  0.00    -0.352 N 
ATOM      6  C   UNL A   1      36.155  23.218  23.490  1.00  0.00     0.251 C 
ATOM      7  O   UNL A   1      36.580  22.767  22.421  1.00  0.00    -0.270 OA
ATOM      8  H   UNL A   1      37.963  23.027  24.174  1.00  0.00     0.163 HD
BRANCH   6   9
ATOM      9  C   UNL A   1      34.709  23.577  23.616  1.00  0.00     0.067 C 
ATOM     10  C   UNL A   1      28.863  26.432  23.930  1.00  0.00     0.046 C 
ATOM     11  C   UNL A   1      30.328  26.096  23.908  1.00  0.00    -0.028 A 
ATOM     12  C   UNL A   1      30.701  24.768  23.698  1.00  0.00     0.052 A 
ATOM     13  C   UNL A   1      31.336  27.062  24.100  1.00  0.00     0.047 A 
ATOM     14  C   UNL A   1      32.043  24.407  23.664  1.00  0.00     0.128 A 
ATOM     15  C   UNL A   1      32.709  26.709  24.062  1.00  0.00    -0.021 A 
ATOM     16  Cl  UNL A   1      30.854  28.710  24.376  1.00  0.00    -0.084 Cl
ATOM     17  C   UNL A   1      33.055  25.356  23.824  1.00  0.00     0.022 A 
ATOM     18  O   UNL A   1      32.272  23.087  23.419  1.00  0.00    -0.475 OA
ATOM     19  C   UNL A   1      33.803  27.732  24.258  1.00  0.00     0.047 C 
ATOM     20  C   UNL A   1      34.440  24.895  23.686  1.00  0.00     0.026 C 
ATOM     21  C   UNL A   1      33.597  22.576  23.698  1.00  0.00     0.314 C 
BRANCH  21  22
ATOM     22  C   UNL A   1      33.575  21.817  25.038  1.00  0.00     0.429 C 
ATOM     23  F   UNL A   1      34.238  20.640  24.928  1.00  0.00    -0.167 F 
ATOM     24  F   UNL A   1      34.179  22.505  26.035  1.00  0.00    -0.167 F 
ATOM     25  F   UNL A   1      32.318  21.543  25.453  1.00  0.00    -0.167 F 
ENDBRANCH  21  22
ENDBRANCH   6   9
ENDBRANCH   4   5
ENDBRANCH   3   4
ENDBRANCH   2   3
ENDBRANCH   1   2
BRANCH   1  26
ATOM     26  C   UNL A   1      40.762  22.471  27.827  1.00  0.00     0.021 C 
BRANCH  26  27
ATOM     27  C   UNL A   1      42.064  23.233  27.610  1.00  0.00     0.116 C 
BRANCH  27  28
ATOM     28  N   UNL A   1      42.043  23.988  26.369  1.00  0.00    -0.352 N 
ATOM     29  C   UNL A   1      41.671  25.290  26.157  1.00  0.00     0.251 C 
ATOM     30  H   UNL A   1      42.338  23.496  25.569  1.00  0.00     0.163 HD
ATOM     31  O   UNL A   1      41.489  25.700  25.014  1.00  0.00    -0.269 OA
BRANCH  29  32
ATOM     32  C   UNL A   1      41.481  26.188  27.312  1.00  0.00     0.039 A 
ATOM     33  C   UNL A   1      40.360  26.018  28.128  1.00  0.00     0.014 A 
ATOM     34  C   UNL A   1      42.406  27.203  27.583  1.00  0.00     0.014 A 
ATOM     35  C   UNL A   1      40.189  26.840  29.242  1.00  0.00     0.010 A 
ATOM     36  C   UNL A   1      42.273  27.971  28.734  1.00  0.00     0.010 A 
ATOM     37  C   UNL A   1      41.156  27.808  29.566  1.00  0.00    -0.014 A 
BRANCH  37  38
ATOM     38  C   UNL A   1      40.987  28.686  30.748  1.00  0.00     0.031 A 
ATOM     39  C   UNL A   1      39.920  29.746  30.747  1.00  0.00     0.074 A 
ATOM     40  C   UNL A   1      41.806  28.544  31.810  1.00  0.00     0.049 A 
ATOM     41  N   UNL A   1      39.623  30.617  31.676  1.00  0.00    -0.248 NA
ATOM     42  C   UNL A   1      39.089  29.855  29.536  1.00  0.00     0.031 C 
ATOM     43  C   UNL A   1      42.891  27.566  31.918  1.00  0.00     0.029 A 
ATOM     44  N   UNL A   1      41.845  29.218  33.005  1.00  0.00    -0.354 N 
ATOM     45  C   UNL A   1      38.576  31.373  31.164  1.00  0.00     0.074 A 
ATOM     46  C   UNL A   1      38.331  30.903  29.819  1.00  0.00     0.031 C 
ATOM     47  C   UNL A   1      43.462  27.677  33.129  1.00  0.00     0.029 A 
ATOM     48  C   UNL A   1      42.812  28.755  33.867  1.00  0.00     0.049 A 
ATOM     49  H   UNL A   1      41.239  29.962  33.224  1.00  0.00     0.167 HD
ATOM     50  C   UNL A   1      37.862  32.350  31.770  1.00  0.00     0.031 A 
ATOM     51  C   UNL A   1      43.135  29.154  35.112  1.00  0.00     0.031 A 
ATOM     52  C   UNL A   1      38.103  32.808  33.110  1.00  0.00     0.049 A 
ATOM     53  C   UNL A   1      42.357  30.275  35.747  1.00  0.00     0.074 A 
ATOM     54  C   UNL A   1      37.412  33.766  33.829  1.00  0.00     0.029 A 
ATOM     55  N   UNL A   1      39.115  32.340  33.936  1.00  0.00    -0.354 N 
ATOM     56  N   UNL A   1      41.336  30.943  35.265  1.00  0.00    -0.248 NA
ATOM     57  C   UNL A   1      42.775  30.696  37.091  1.00  0.00     0.031 C 
ATOM     58  C   UNL A   1      38.038  33.918  35.069  1.00  0.00     0.029 A 
ATOM     59  C   UNL A   1      39.085  33.012  35.145  1.00  0.00     0.049 A 
ATOM     60  H   UNL A   1      39.757  31.634  33.697  1.00  0.00     0.167 HD
ATOM     61  C   UNL A   1      40.979  31.853  36.254  1.00  0.00     0.074 A 
ATOM     62  C   UNL A   1      41.879  31.635  37.367  1.00  0.00     0.031 C 
ATOM     63  C   UNL A   1      39.998  32.788  36.238  1.00  0.00     0.031 A 
BRANCH  50  64
ATOM     64  C   UNL A   1      36.744  32.984  30.985  1.00  0.00    -0.014 A 
ATOM     65  C   UNL A   1      35.401  32.680  31.273  1.00  0.00     0.010 A 
ATOM     66  C   UNL A   1      37.033  33.928  29.984  1.00  0.00     0.010 A 
ATOM     67  C   UNL A   1      34.369  33.283  30.550  1.00  0.00     0.020 A 
ATOM     68  C   UNL A   1      36.002  34.554  29.277  1.00  0.00     0.020 A 
ATOM     69  C   UNL A   1      34.676  34.218  29.557  1.00  0.00     0.054 A 
BRANCH  69  70
ATOM     70  S   UNL A   1      33.311  35.005  28.658  1.00  0.00     0.124 S 
ATOM     71  O   UNL A   1      32.544  35.610  29.744  1.00  0.00    -0.237 OA
ATOM     72  O   UNL A   1      34.008  35.943  27.783  1.00  0.00    -0.237 OA
ATOM     73  O   UNL A   1      32.655  33.891  27.978  1.00  0.00    -0.744 OA
ENDBRANCH  69  70
ENDBRANCH  50  64
BRANCH  51  74
ATOM     74  C   UNL A   1      44.234  28.471  35.849  1.00  0.00    -0.014 A 
ATOM     75  C   UNL A   1      43.957  27.372  36.680  1.00  0.00     0.010 A 
ATOM     76  C   UNL A   1      45.566  28.901  35.707  1.00  0.00     0.010 A 
ATOM     77  C   UNL A   1      44.989  26.720  37.362  1.00  0.00     0.020 A 
ATOM     78  C   UNL A   1      46.605  28.235  36.365  1.00  0.00     0.020 A 
ATOM     79  C   UNL A   1      46.307  27.153  37.195  1.00  0.00     0.054 A 
BRANCH  79  80
ATOM     80  S   UNL A   1      47.634  26.251  38.045  1.00  0.00     0.124 S 
ATOM     81  O   UNL A   1      48.815  26.669  37.295  1.00  0.00    -0.237 OA
ATOM     82  O   UNL A   1      47.536  26.764  39.409  1.00  0.00    -0.237 OA
ATOM     83  O   UNL A   1      47.254  24.850  37.884  1.00  0.00    -0.744 OA
ENDBRANCH  79  80
ENDBRANCH  51  74
BRANCH  63  84
ATOM     84  C   UNL A   1      39.841  33.654  37.459  1.00  0.00    -0.014 A 
ATOM     85  C   UNL A   1      40.417  34.936  37.510  1.00  0.00     0.010 A 
ATOM     86  C   UNL A   1      39.035  33.220  38.529  1.00  0.00     0.010 A 
ATOM     87  C   UNL A   1      40.202  35.762  38.616  1.00  0.00     0.020 A 
ATOM     88  C   UNL A   1      38.796  34.053  39.623  1.00  0.00     0.020 A 
ATOM     89  C   UNL A   1      39.388  35.318  39.662  1.00  0.00     0.054 A 
BRANCH  89  90
ATOM     90  S   UNL A   1      39.074  36.440  41.052  1.00  0.00     0.124 S 
ATOM     91  O   UNL A   1      40.391  36.530  41.675  1.00  0.00    -0.237 OA
ATOM     92  O   UNL A   1      38.610  37.653  40.383  1.00  0.00    -0.237 OA
ATOM     93  O   UNL A   1      38.059  35.743  41.840  1.00  0.00    -0.744 OA
ENDBRANCH  89  90
ENDBRANCH  63  84
ENDBRANCH  37  38
ENDBRANCH  29  32
ENDBRANCH  27  28
ENDBRANCH  26  27
ENDBRANCH   1  26
TORSDOF 17
ENDMDL
