MODEL 1
REMARK VINA RESULT:      -9.3      0.000      0.000
REMARK SMILES N#CCC[NH2+]C1(C(=O)NCCCCCCNC(=O)c2ccc(-c3c4nc(c(-c5ccc(S(=O)(=O)[O-])cc5)c5ccc([nH]5)c(-c5ccc(S(=O)(=O)[O-])cc5)c5nc(c(-c6ccc(S(=O)(=O)[O-])cc6)c6ccc3[nH]6)C=C5)C=C4)cc2)CC1
REMARK SMILES IDX 12 1 11 2 10 3 9 4 7 5 8 6 6 8 79 9 80 10 5 11 4 14 3 15
REMARK SMILES IDX 2 16 1 17 13 18 14 19 15 20 16 21 17 22 18 24 19 25 20 26
REMARK SMILES IDX 78 27 21 28 77 29 22 30 23 31 24 32 71 33 25 34 76 35 70 36
REMARK SMILES IDX 72 37 26 38 75 39 69 40 68 41 27 43 57 44 38 45 56 46 39 47
REMARK SMILES IDX 42 48 55 49 73 50 40 51 41 52 54 54 74 55 43 56 28 57 29 58
REMARK SMILES IDX 37 59 30 60 36 61 31 62 32 63 33 64 34 65 35 66 58 67 59 68
REMARK SMILES IDX 67 69 60 70 66 71 61 72 62 73 63 74 64 75 65 76 44 77 45 78
REMARK SMILES IDX 53 79 46 80 52 81 47 82 48 83 49 84 50 85 51 86
REMARK H PARENT 9 7 5 12 5 13 16 23 72 42 42 53
REMARK Flexibility Score: inf
ROOT
ATOM      1  C   UNL A   1      42.546  22.881  29.107  1.00  0.00     0.002 C 
ENDROOT
BRANCH   1   2
ATOM      2  C   UNL A   1      43.430  24.116  28.884  1.00  0.00     0.021 C 
BRANCH   2   3
ATOM      3  C   UNL A   1      44.901  23.803  28.596  1.00  0.00     0.116 C 
BRANCH   3   4
ATOM      4  N   UNL A   1      45.323  24.364  27.329  1.00  0.00    -0.351 N 
ATOM      5  C   UNL A   1      46.112  23.622  26.485  1.00  0.00     0.281 C 
ATOM      6  O   UNL A   1      47.309  23.882  26.381  1.00  0.00    -0.268 OA
ATOM      7  H   UNL A   1      45.045  25.274  27.074  1.00  0.00     0.163 HD
BRANCH   5   8
ATOM      8  C   UNL A   1      45.432  22.618  25.571  1.00  0.00     0.176 C 
ATOM      9  C   UNL A   1      45.378  22.775  24.063  1.00  0.00     0.086 C 
ATOM     10  C   UNL A   1      44.149  23.034  24.885  1.00  0.00     0.086 C 
BRANCH   8  11
ATOM     11  N   UNL A   1      45.509  21.214  26.077  1.00  0.00    -0.333 N 
ATOM     12  H   UNL A   1      46.000  21.217  26.971  1.00  0.00     0.347 HD
ATOM     13  H   UNL A   1      44.554  20.868  26.172  1.00  0.00     0.347 HD
BRANCH  11  14
ATOM     14  C   UNL A   1      46.217  20.317  25.154  1.00  0.00     0.276 C 
BRANCH  14  15
ATOM     15  C   UNL A   1      45.595  18.932  25.161  1.00  0.00     0.181 C 
BRANCH  15  16
ATOM     16  C   UNL A   1      44.081  19.063  25.141  1.00  0.00     0.068 C 
ATOM     17  N   UNL A   1      42.825  19.171  25.124  1.00  0.00    -0.198 NA
ENDBRANCH  15  16
ENDBRANCH  14  15
ENDBRANCH  11  14
ENDBRANCH   8  11
ENDBRANCH   5   8
ENDBRANCH   3   4
ENDBRANCH   2   3
ENDBRANCH   1   2
BRANCH   1  18
ATOM     18  C   UNL A   1      42.098  22.158  27.834  1.00  0.00     0.002 C 
BRANCH  18  19
ATOM     19  C   UNL A   1      40.598  22.224  27.547  1.00  0.00     0.021 C 
BRANCH  19  20
ATOM     20  C   UNL A   1      40.115  23.556  26.985  1.00  0.00     0.116 C 
BRANCH  20  21
ATOM     21  N   UNL A   1      41.021  24.094  25.985  1.00  0.00    -0.352 N 
ATOM     22  C   UNL A   1      41.462  25.388  25.844  1.00  0.00     0.251 C 
ATOM     23  H   UNL A   1      41.363  23.450  25.324  1.00  0.00     0.163 HD
ATOM     24  O   UNL A   1      42.096  25.728  24.851  1.00  0.00    -0.269 OA
BRANCH  22  25
ATOM     25  C   UNL A   1      41.128  26.374  26.893  1.00  0.00     0.039 A 
ATOM     26  C   UNL A   1      40.316  25.981  27.959  1.00  0.00     0.014 A 
ATOM     27  C   UNL A   1      41.672  27.661  26.852  1.00  0.00     0.014 A 
ATOM     28  C   UNL A   1      40.114  26.856  29.029  1.00  0.00     0.010 A 
ATOM     29  C   UNL A   1      41.518  28.509  27.945  1.00  0.00     0.010 A 
ATOM     30  C   UNL A   1      40.750  28.108  29.049  1.00  0.00    -0.014 A 
BRANCH  30  31
ATOM     31  C   UNL A   1      40.667  28.999  30.235  1.00  0.00     0.031 A 
ATOM     32  C   UNL A   1      41.552  28.759  31.425  1.00  0.00     0.074 A 
ATOM     33  C   UNL A   1      39.728  29.965  30.272  1.00  0.00     0.049 A 
ATOM     34  N   UNL A   1      41.551  29.362  32.585  1.00  0.00    -0.248 NA
ATOM     35  C   UNL A   1      42.555  27.688  31.303  1.00  0.00     0.031 C 
ATOM     36  C   UNL A   1      38.784  30.274  29.195  1.00  0.00     0.029 A 
ATOM     37  N   UNL A   1      39.401  30.856  31.264  1.00  0.00    -0.354 N 
ATOM     38  C   UNL A   1      42.537  28.738  33.337  1.00  0.00     0.074 A 
ATOM     39  C   UNL A   1      43.092  27.683  32.514  1.00  0.00     0.031 C 
ATOM     40  C   UNL A   1      37.994  31.288  29.580  1.00  0.00     0.029 A 
ATOM     41  C   UNL A   1      38.342  31.674  30.944  1.00  0.00     0.049 A 
ATOM     42  H   UNL A   1      39.879  30.906  32.123  1.00  0.00     0.167 HD
ATOM     43  C   UNL A   1      42.952  29.023  34.594  1.00  0.00     0.031 A 
ATOM     44  C   UNL A   1      37.708  32.613  31.671  1.00  0.00     0.031 A 
ATOM     45  C   UNL A   1      42.405  30.075  35.407  1.00  0.00     0.049 A 
ATOM     46  C   UNL A   1      38.164  32.889  33.075  1.00  0.00     0.074 A 
ATOM     47  C   UNL A   1      42.807  30.488  36.665  1.00  0.00     0.029 A 
ATOM     48  N   UNL A   1      41.331  30.876  35.047  1.00  0.00    -0.354 N 
ATOM     49  N   UNL A   1      39.146  32.334  33.744  1.00  0.00    -0.248 NA
ATOM     50  C   UNL A   1      37.426  33.916  33.824  1.00  0.00     0.031 C 
ATOM     51  C   UNL A   1      41.943  31.504  37.088  1.00  0.00     0.029 A 
ATOM     52  C   UNL A   1      41.033  31.756  36.075  1.00  0.00     0.049 A 
ATOM     53  H   UNL A   1      40.851  30.826  34.190  1.00  0.00     0.167 HD
ATOM     54  C   UNL A   1      39.150  32.949  34.991  1.00  0.00     0.074 A 
ATOM     55  C   UNL A   1      38.086  33.933  34.976  1.00  0.00     0.031 C 
ATOM     56  C   UNL A   1      39.961  32.717  36.052  1.00  0.00     0.031 A 
BRANCH  43  57
ATOM     57  C   UNL A   1      44.050  28.172  35.173  1.00  0.00    -0.014 A 
ATOM     58  C   UNL A   1      45.399  28.552  35.055  1.00  0.00     0.010 A 
ATOM     59  C   UNL A   1      43.727  26.997  35.876  1.00  0.00     0.010 A 
ATOM     60  C   UNL A   1      46.409  27.751  35.595  1.00  0.00     0.020 A 
ATOM     61  C   UNL A   1      44.733  26.206  36.438  1.00  0.00     0.020 A 
ATOM     62  C   UNL A   1      46.070  26.580  36.278  1.00  0.00     0.054 A 
BRANCH  62  63
ATOM     63  S   UNL A   1      47.399  25.567  36.984  1.00  0.00     0.124 S 
ATOM     64  O   UNL A   1      48.365  26.584  37.392  1.00  0.00    -0.237 OA
ATOM     65  O   UNL A   1      46.725  24.868  38.075  1.00  0.00    -0.237 OA
ATOM     66  O   UNL A   1      47.818  24.720  35.870  1.00  0.00    -0.744 OA
ENDBRANCH  62  63
ENDBRANCH  43  57
BRANCH  44  67
ATOM     67  C   UNL A   1      36.558  33.351  31.082  1.00  0.00    -0.014 A 
ATOM     68  C   UNL A   1      36.768  34.317  30.084  1.00  0.00     0.010 A 
ATOM     69  C   UNL A   1      35.245  33.072  31.501  1.00  0.00     0.010 A 
ATOM     70  C   UNL A   1      35.685  34.997  29.518  1.00  0.00     0.020 A 
ATOM     71  C   UNL A   1      34.158  33.732  30.922  1.00  0.00     0.020 A 
ATOM     72  C   UNL A   1      34.387  34.698  29.940  1.00  0.00     0.054 A 
BRANCH  72  73
ATOM     73  S   UNL A   1      32.990  35.541  29.144  1.00  0.00     0.124 S 
ATOM     74  O   UNL A   1      32.392  34.465  28.362  1.00  0.00    -0.237 OA
ATOM     75  O   UNL A   1      32.207  36.005  30.288  1.00  0.00    -0.237 OA
ATOM     76  O   UNL A   1      33.630  36.601  28.370  1.00  0.00    -0.744 OA
ENDBRANCH  72  73
ENDBRANCH  44  67
BRANCH  56  77
ATOM     77  C   UNL A   1      39.730  33.540  37.289  1.00  0.00    -0.014 A 
ATOM     78  C   UNL A   1      40.160  34.877  37.353  1.00  0.00     0.010 A 
ATOM     79  C   UNL A   1      39.019  32.993  38.372  1.00  0.00     0.010 A 
ATOM     80  C   UNL A   1      39.895  35.649  38.487  1.00  0.00     0.020 A 
ATOM     81  C   UNL A   1      38.732  33.769  39.498  1.00  0.00     0.020 A 
ATOM     82  C   UNL A   1      39.180  35.091  39.552  1.00  0.00     0.054 A 
BRANCH  82  83
ATOM     83  S   UNL A   1      38.794  36.133  40.985  1.00  0.00     0.124 S 
ATOM     84  O   UNL A   1      40.015  36.023  41.777  1.00  0.00    -0.237 OA
ATOM     85  O   UNL A   1      38.554  37.439  40.378  1.00  0.00    -0.237 OA
ATOM     86  O   UNL A   1      37.614  35.497  41.567  1.00  0.00    -0.744 OA
ENDBRANCH  82  83
ENDBRANCH  56  77
ENDBRANCH  30  31
ENDBRANCH  22  25
ENDBRANCH  20  21
ENDBRANCH  19  20
ENDBRANCH  18  19
ENDBRANCH   1  18
TORSDOF 20
ENDMDL
MODEL 2
REMARK VINA RESULT:      -9.0      6.166     12.258
REMARK SMILES N#CCC[NH2+]C1(C(=O)NCCCCCCNC(=O)c2ccc(-c3c4nc(c(-c5ccc(S(=O)(=O)[O-])cc5)c5ccc([nH]5)c(-c5ccc(S(=O)(=O)[O-])cc5)c5nc(c(-c6ccc(S(=O)(=O)[O-])cc6)c6ccc3[nH]6)C=C5)C=C4)cc2)CC1
REMARK SMILES IDX 12 1 11 2 10 3 9 4 7 5 8 6 6 8 79 9 80 10 5 11 4 14 3 15
REMARK SMILES IDX 2 16 1 17 13 18 14 19 15 20 16 21 17 22 18 24 19 25 20 26
REMARK SMILES IDX 78 27 21 28 77 29 22 30 23 31 24 32 71 33 25 34 76 35 70 36
REMARK SMILES IDX 72 37 26 38 75 39 69 40 68 41 27 43 57 44 38 45 56 46 39 47
REMARK SMILES IDX 42 48 55 49 73 50 40 51 41 52 54 54 74 55 43 56 28 57 29 58
REMARK SMILES IDX 37 59 30 60 36 61 31 62 32 63 33 64 34 65 35 66 58 67 59 68
REMARK SMILES IDX 67 69 60 70 66 71 61 72 62 73 63 74 64 75 65 76 44 77 45 78
REMARK SMILES IDX 53 79 46 80 52 81 47 82 48 83 49 84 50 85 51 86
REMARK H PARENT 9 7 5 12 5 13 16 23 72 42 42 53
REMARK Flexibility Score: inf
ROOT
ATOM      1  C   UNL A   1      36.653  21.780  24.530  1.00  0.00     0.002 C 
ENDROOT
BRANCH   1   2
ATOM      2  C   UNL A   1      36.745  22.904  25.573  1.00  0.00     0.021 C 
BRANCH   2   3
ATOM      3  C   UNL A   1      35.394  23.451  26.041  1.00  0.00     0.116 C 
BRANCH   3   4
ATOM      4  N   UNL A   1      34.584  22.413  26.642  1.00  0.00    -0.351 N 
ATOM      5  C   UNL A   1      33.218  22.553  26.682  1.00  0.00     0.281 C 
ATOM      6  O   UNL A   1      32.664  22.845  27.740  1.00  0.00    -0.268 OA
ATOM      7  H   UNL A   1      35.009  21.610  27.022  1.00  0.00     0.163 HD
BRANCH   5   8
ATOM      8  C   UNL A   1      32.424  22.161  25.448  1.00  0.00     0.176 C 
ATOM      9  C   UNL A   1      32.114  20.720  25.087  1.00  0.00     0.086 C 
ATOM     10  C   UNL A   1      33.159  21.474  24.317  1.00  0.00     0.086 C 
BRANCH   8  11
ATOM     11  N   UNL A   1      31.384  23.165  25.073  1.00  0.00    -0.333 N 
ATOM     12  H   UNL A   1      30.754  22.742  24.390  1.00  0.00     0.347 HD
ATOM     13  H   UNL A   1      30.891  23.432  25.925  1.00  0.00     0.347 HD
BRANCH  11  14
ATOM     14  C   UNL A   1      31.958  24.385  24.490  1.00  0.00     0.276 C 
BRANCH  14  15
ATOM     15  C   UNL A   1      31.474  24.585  23.065  1.00  0.00     0.181 C 
BRANCH  15  16
ATOM     16  C   UNL A   1      32.603  25.166  22.229  1.00  0.00     0.068 C 
ATOM     17  N   UNL A   1      33.538  25.647  21.536  1.00  0.00    -0.198 NA
ENDBRANCH  15  16
ENDBRANCH  14  15
ENDBRANCH  11  14
ENDBRANCH   8  11
ENDBRANCH   5   8
ENDBRANCH   3   4
ENDBRANCH   2   3
ENDBRANCH   1   2
BRANCH   1  18
ATOM     18  C   UNL A   1      36.873  20.365  25.072  1.00  0.00     0.002 C 
BRANCH  18  19
ATOM     19  C   UNL A   1      38.291  19.820  24.900  1.00  0.00     0.021 C 
BRANCH  19  20
ATOM     20  C   UNL A   1      39.262  20.214  26.006  1.00  0.00     0.116 C 
BRANCH  20  21
ATOM     21  N   UNL A   1      40.401  19.317  26.085  1.00  0.00    -0.352 N 
ATOM     22  C   UNL A   1      41.720  19.633  26.308  1.00  0.00     0.251 C 
ATOM     23  H   UNL A   1      40.204  18.360  25.964  1.00  0.00     0.163 HD
ATOM     24  O   UNL A   1      42.596  18.783  26.184  1.00  0.00    -0.269 OA
BRANCH  22  25
ATOM     25  C   UNL A   1      42.071  21.023  26.666  1.00  0.00     0.039 A 
ATOM     26  C   UNL A   1      42.287  21.344  28.007  1.00  0.00     0.014 A 
ATOM     27  C   UNL A   1      42.247  21.986  25.667  1.00  0.00     0.014 A 
ATOM     28  C   UNL A   1      42.761  22.614  28.343  1.00  0.00     0.010 A 
ATOM     29  C   UNL A   1      42.775  23.231  25.997  1.00  0.00     0.010 A 
ATOM     30  C   UNL A   1      43.050  23.550  27.336  1.00  0.00    -0.014 A 
BRANCH  30  31
ATOM     31  C   UNL A   1      43.686  24.855  27.653  1.00  0.00     0.031 A 
ATOM     32  C   UNL A   1      42.848  26.013  28.116  1.00  0.00     0.074 A 
ATOM     33  C   UNL A   1      45.006  25.018  27.436  1.00  0.00     0.049 A 
ATOM     34  N   UNL A   1      43.207  27.251  28.339  1.00  0.00    -0.248 NA
ATOM     35  C   UNL A   1      41.416  25.751  28.336  1.00  0.00     0.031 C 
ATOM     36  C   UNL A   1      45.922  23.981  26.953  1.00  0.00     0.029 A 
ATOM     37  N   UNL A   1      45.805  26.127  27.574  1.00  0.00    -0.354 N 
ATOM     38  C   UNL A   1      42.048  27.919  28.709  1.00  0.00     0.074 A 
ATOM     39  C   UNL A   1      40.966  26.958  28.645  1.00  0.00     0.031 C 
ATOM     40  C   UNL A   1      47.156  24.499  26.847  1.00  0.00     0.029 A 
ATOM     41  C   UNL A   1      47.114  25.912  27.210  1.00  0.00     0.049 A 
ATOM     42  H   UNL A   1      45.472  26.992  27.903  1.00  0.00     0.167 HD
ATOM     43  C   UNL A   1      41.898  29.213  29.079  1.00  0.00     0.031 A 
ATOM     44  C   UNL A   1      48.159  26.759  27.152  1.00  0.00     0.031 A 
ATOM     45  C   UNL A   1      42.975  30.164  29.149  1.00  0.00     0.049 A 
ATOM     46  C   UNL A   1      47.962  28.198  27.537  1.00  0.00     0.074 A 
ATOM     47  C   UNL A   1      42.935  31.478  29.583  1.00  0.00     0.029 A 
ATOM     48  N   UNL A   1      44.283  29.908  28.768  1.00  0.00    -0.354 N 
ATOM     49  N   UNL A   1      46.871  28.795  27.951  1.00  0.00    -0.248 NA
ATOM     50  C   UNL A   1      49.135  29.078  27.443  1.00  0.00     0.031 C 
ATOM     51  C   UNL A   1      44.209  32.032  29.413  1.00  0.00     0.029 A 
ATOM     52  C   UNL A   1      45.052  31.050  28.919  1.00  0.00     0.049 A 
ATOM     53  H   UNL A   1      44.616  29.043  28.437  1.00  0.00     0.167 HD
ATOM     54  C   UNL A   1      47.226  30.120  28.176  1.00  0.00     0.074 A 
ATOM     55  C   UNL A   1      48.639  30.232  27.871  1.00  0.00     0.031 C 
ATOM     56  C   UNL A   1      46.452  31.150  28.595  1.00  0.00     0.031 A 
BRANCH  43  57
ATOM     57  C   UNL A   1      40.511  29.679  29.430  1.00  0.00    -0.014 A 
ATOM     58  C   UNL A   1      39.574  29.983  28.427  1.00  0.00     0.010 A 
ATOM     59  C   UNL A   1      40.127  29.778  30.779  1.00  0.00     0.010 A 
ATOM     60  C   UNL A   1      38.289  30.417  28.766  1.00  0.00     0.020 A 
ATOM     61  C   UNL A   1      38.836  30.189  31.124  1.00  0.00     0.020 A 
ATOM     62  C   UNL A   1      37.931  30.523  30.113  1.00  0.00     0.054 A 
BRANCH  62  63
ATOM     63  S   UNL A   1      36.253  31.073  30.527  1.00  0.00     0.124 S 
ATOM     64  O   UNL A   1      36.425  32.521  30.613  1.00  0.00    -0.237 OA
ATOM     65  O   UNL A   1      35.470  30.601  29.387  1.00  0.00    -0.237 OA
ATOM     66  O   UNL A   1      35.969  30.402  31.793  1.00  0.00    -0.744 OA
ENDBRANCH  62  63
ENDBRANCH  43  57
BRANCH  44  67
ATOM     67  C   UNL A   1      49.486  26.265  26.697  1.00  0.00    -0.014 A 
ATOM     68  C   UNL A   1      49.832  26.304  25.336  1.00  0.00     0.010 A 
ATOM     69  C   UNL A   1      50.420  25.776  27.628  1.00  0.00     0.010 A 
ATOM     70  C   UNL A   1      51.087  25.856  24.912  1.00  0.00     0.020 A 
ATOM     71  C   UNL A   1      51.683  25.349  27.213  1.00  0.00     0.020 A 
ATOM     72  C   UNL A   1      52.006  25.384  25.854  1.00  0.00     0.054 A 
BRANCH  72  73
ATOM     73  S   UNL A   1      53.654  24.872  25.293  1.00  0.00     0.124 S 
ATOM     74  O   UNL A   1      53.462  23.448  25.043  1.00  0.00    -0.237 OA
ATOM     75  O   UNL A   1      53.858  25.703  24.108  1.00  0.00    -0.237 OA
ATOM     76  O   UNL A   1      54.515  25.201  26.427  1.00  0.00    -0.744 OA
ENDBRANCH  72  73
ENDBRANCH  44  67
BRANCH  56  77
ATOM     77  C   UNL A   1      47.112  32.492  28.748  1.00  0.00    -0.014 A 
ATOM     78  C   UNL A   1      47.164  33.394  27.670  1.00  0.00     0.010 A 
ATOM     79  C   UNL A   1      47.623  32.885  29.998  1.00  0.00     0.010 A 
ATOM     80  C   UNL A   1      47.731  34.659  27.836  1.00  0.00     0.020 A 
ATOM     81  C   UNL A   1      48.170  34.158  30.174  1.00  0.00     0.020 A 
ATOM     82  C   UNL A   1      48.230  35.034  29.088  1.00  0.00     0.054 A 
BRANCH  82  83
ATOM     83  S   UNL A   1      48.904  36.706  29.294  1.00  0.00     0.124 S 
ATOM     84  O   UNL A   1      48.139  37.202  30.434  1.00  0.00    -0.237 OA
ATOM     85  O   UNL A   1      50.319  36.452  29.549  1.00  0.00    -0.237 OA
ATOM     86  O   UNL A   1      48.613  37.356  28.018  1.00  0.00    -0.744 OA
ENDBRANCH  82  83
ENDBRANCH  56  77
ENDBRANCH  30  31
ENDBRANCH  22  25
ENDBRANCH  20  21
ENDBRANCH  19  20
ENDBRANCH  18  19
ENDBRANCH   1  18
TORSDOF 20
ENDMDL
MODEL 3
REMARK VINA RESULT:      -9.0      6.582     13.566
REMARK SMILES N#CCC[NH2+]C1(C(=O)NCCCCCCNC(=O)c2ccc(-c3c4nc(c(-c5ccc(S(=O)(=O)[O-])cc5)c5ccc([nH]5)c(-c5ccc(S(=O)(=O)[O-])cc5)c5nc(c(-c6ccc(S(=O)(=O)[O-])cc6)c6ccc3[nH]6)C=C5)C=C4)cc2)CC1
REMARK SMILES IDX 12 1 11 2 10 3 9 4 7 5 8 6 6 8 79 9 80 10 5 11 4 14 3 15
REMARK SMILES IDX 2 16 1 17 13 18 14 19 15 20 16 21 17 22 18 24 19 25 20 26
REMARK SMILES IDX 78 27 21 28 77 29 22 30 23 31 24 32 71 33 25 34 76 35 70 36
REMARK SMILES IDX 72 37 26 38 75 39 69 40 68 41 27 43 57 44 38 45 56 46 39 47
REMARK SMILES IDX 42 48 55 49 73 50 40 51 41 52 54 54 74 55 43 56 28 57 29 58
REMARK SMILES IDX 37 59 30 60 36 61 31 62 32 63 33 64 34 65 35 66 58 67 59 68
REMARK SMILES IDX 67 69 60 70 66 71 61 72 62 73 63 74 64 75 65 76 44 77 45 78
REMARK SMILES IDX 53 79 46 80 52 81 47 82 48 83 49 84 50 85 51 86
REMARK H PARENT 9 7 5 12 5 13 16 23 72 42 42 53
REMARK Flexibility Score: inf
ROOT
ATOM      1  C   UNL A   1      33.363  29.420  26.596  1.00  0.00     0.002 C 
ENDROOT
BRANCH   1   2
ATOM      2  C   UNL A   1      32.314  28.403  27.070  1.00  0.00     0.021 C 
BRANCH   2   3
ATOM      3  C   UNL A   1      32.470  27.002  26.473  1.00  0.00     0.116 C 
BRANCH   3   4
ATOM      4  N   UNL A   1      31.307  26.181  26.740  1.00  0.00    -0.351 N 
ATOM      5  C   UNL A   1      30.655  25.566  25.699  1.00  0.00     0.281 C 
ATOM      6  O   UNL A   1      29.579  26.010  25.304  1.00  0.00    -0.268 OA
ATOM      7  H   UNL A   1      30.985  26.066  27.663  1.00  0.00     0.163 HD
BRANCH   5   8
ATOM      8  C   UNL A   1      31.206  24.244  25.194  1.00  0.00     0.176 C 
ATOM      9  C   UNL A   1      30.707  22.898  25.685  1.00  0.00     0.086 C 
ATOM     10  C   UNL A   1      32.042  23.411  26.142  1.00  0.00     0.086 C 
BRANCH   8  11
ATOM     11  N   UNL A   1      31.645  24.295  23.767  1.00  0.00    -0.333 N 
ATOM     12  H   UNL A   1      31.399  23.413  23.318  1.00  0.00     0.347 HD
ATOM     13  H   UNL A   1      31.173  25.086  23.327  1.00  0.00     0.347 HD
BRANCH  11  14
ATOM     14  C   UNL A   1      33.092  24.507  23.626  1.00  0.00     0.276 C 
BRANCH  14  15
ATOM     15  C   UNL A   1      33.382  25.845  22.969  1.00  0.00     0.181 C 
BRANCH  15  16
ATOM     16  C   UNL A   1      32.095  26.408  22.388  1.00  0.00     0.068 C 
ATOM     17  N   UNL A   1      31.028  26.875  21.907  1.00  0.00    -0.198 NA
ENDBRANCH  15  16
ENDBRANCH  14  15
ENDBRANCH  11  14
ENDBRANCH   8  11
ENDBRANCH   5   8
ENDBRANCH   3   4
ENDBRANCH   2   3
ENDBRANCH   1   2
BRANCH   1  18
ATOM     18  C   UNL A   1      34.481  29.721  27.596  1.00  0.00     0.002 C 
BRANCH  18  19
ATOM     19  C   UNL A   1      34.892  31.191  27.684  1.00  0.00     0.021 C 
BRANCH  19  20
ATOM     20  C   UNL A   1      36.101  31.463  28.570  1.00  0.00     0.116 C 
BRANCH  20  21
ATOM     21  N   UNL A   1      35.842  31.155  29.966  1.00  0.00    -0.352 N 
ATOM     22  C   UNL A   1      36.531  30.298  30.791  1.00  0.00     0.251 C 
ATOM     23  H   UNL A   1      35.075  31.618  30.373  1.00  0.00     0.163 HD
ATOM     24  O   UNL A   1      36.096  30.014  31.902  1.00  0.00    -0.269 OA
BRANCH  22  25
ATOM     25  C   UNL A   1      37.790  29.696  30.304  1.00  0.00     0.039 A 
ATOM     26  C   UNL A   1      38.100  29.781  28.945  1.00  0.00     0.014 A 
ATOM     27  C   UNL A   1      38.687  29.109  31.202  1.00  0.00     0.014 A 
ATOM     28  C   UNL A   1      39.350  29.348  28.497  1.00  0.00     0.010 A 
ATOM     29  C   UNL A   1      39.953  28.734  30.764  1.00  0.00     0.010 A 
ATOM     30  C   UNL A   1      40.301  28.864  29.410  1.00  0.00    -0.014 A 
BRANCH  30  31
ATOM     31  C   UNL A   1      41.684  28.529  28.982  1.00  0.00     0.031 A 
ATOM     32  C   UNL A   1      42.730  29.604  28.896  1.00  0.00     0.074 A 
ATOM     33  C   UNL A   1      41.968  27.273  28.585  1.00  0.00     0.049 A 
ATOM     34  N   UNL A   1      43.955  29.525  28.447  1.00  0.00    -0.248 NA
ATOM     35  C   UNL A   1      42.341  30.949  29.354  1.00  0.00     0.031 C 
ATOM     36  C   UNL A   1      41.029  26.149  28.587  1.00  0.00     0.029 A 
ATOM     37  N   UNL A   1      43.128  26.735  28.083  1.00  0.00    -0.354 N 
ATOM     38  C   UNL A   1      44.480  30.806  28.552  1.00  0.00     0.074 A 
ATOM     39  C   UNL A   1      43.427  31.653  29.074  1.00  0.00     0.031 C 
ATOM     40  C   UNL A   1      41.652  25.055  28.121  1.00  0.00     0.029 A 
ATOM     41  C   UNL A   1      43.018  25.406  27.746  1.00  0.00     0.049 A 
ATOM     42  H   UNL A   1      43.959  27.252  27.976  1.00  0.00     0.167 HD
ATOM     43  C   UNL A   1      45.729  31.237  28.253  1.00  0.00     0.031 A 
ATOM     44  C   UNL A   1      43.908  24.569  27.179  1.00  0.00     0.031 A 
ATOM     45  C   UNL A   1      46.775  30.393  27.742  1.00  0.00     0.049 A 
ATOM     46  C   UNL A   1      45.276  25.078  26.825  1.00  0.00     0.074 A 
ATOM     47  C   UNL A   1      48.093  30.721  27.477  1.00  0.00     0.029 A 
ATOM     48  N   UNL A   1      46.621  29.055  27.410  1.00  0.00    -0.354 N 
ATOM     49  N   UNL A   1      45.775  26.278  26.997  1.00  0.00    -0.248 NA
ATOM     50  C   UNL A   1      46.199  24.122  26.198  1.00  0.00     0.031 C 
ATOM     51  C   UNL A   1      48.723  29.595  26.934  1.00  0.00     0.029 A 
ATOM     52  C   UNL A   1      47.810  28.553  26.906  1.00  0.00     0.049 A 
ATOM     53  H   UNL A   1      45.790  28.539  27.516  1.00  0.00     0.167 HD
ATOM     54  C   UNL A   1      47.075  26.220  26.508  1.00  0.00     0.074 A 
ATOM     55  C   UNL A   1      47.291  24.862  26.051  1.00  0.00     0.031 C 
ATOM     56  C   UNL A   1      48.004  27.204  26.441  1.00  0.00     0.031 A 
BRANCH  43  57
ATOM     57  C   UNL A   1      46.028  32.697  28.463  1.00  0.00    -0.014 A 
ATOM     58  C   UNL A   1      45.808  33.636  27.440  1.00  0.00     0.010 A 
ATOM     59  C   UNL A   1      46.500  33.141  29.711  1.00  0.00     0.010 A 
ATOM     60  C   UNL A   1      46.093  34.988  27.647  1.00  0.00     0.020 A 
ATOM     61  C   UNL A   1      46.764  34.496  29.931  1.00  0.00     0.020 A 
ATOM     62  C   UNL A   1      46.575  35.408  28.890  1.00  0.00     0.054 A 
BRANCH  62  63
ATOM     63  S   UNL A   1      46.922  37.171  29.139  1.00  0.00     0.124 S 
ATOM     64  O   UNL A   1      47.959  37.417  28.140  1.00  0.00    -0.237 OA
ATOM     65  O   UNL A   1      45.628  37.794  28.867  1.00  0.00    -0.237 OA
ATOM     66  O   UNL A   1      47.364  37.245  30.529  1.00  0.00    -0.744 OA
ENDBRANCH  62  63
ENDBRANCH  43  57
BRANCH  44  67
ATOM     67  C   UNL A   1      43.520  23.160  26.898  1.00  0.00    -0.014 A 
ATOM     68  C   UNL A   1      43.690  22.617  25.613  1.00  0.00     0.010 A 
ATOM     69  C   UNL A   1      43.001  22.349  27.923  1.00  0.00     0.010 A 
ATOM     70  C   UNL A   1      43.342  21.288  25.356  1.00  0.00     0.020 A 
ATOM     71  C   UNL A   1      42.674  21.013  27.676  1.00  0.00     0.020 A 
ATOM     72  C   UNL A   1      42.839  20.493  26.390  1.00  0.00     0.054 A 
BRANCH  72  73
ATOM     73  S   UNL A   1      42.459  18.751  26.053  1.00  0.00     0.124 S 
ATOM     74  O   UNL A   1      43.394  18.439  24.977  1.00  0.00    -0.237 OA
ATOM     75  O   UNL A   1      42.733  18.112  27.338  1.00  0.00    -0.237 OA
ATOM     76  O   UNL A   1      41.048  18.779  25.672  1.00  0.00    -0.744 OA
ENDBRANCH  72  73
ENDBRANCH  44  67
BRANCH  56  77
ATOM     77  C   UNL A   1      49.341  26.853  25.850  1.00  0.00    -0.014 A 
ATOM     78  C   UNL A   1      49.633  27.149  24.507  1.00  0.00     0.010 A 
ATOM     79  C   UNL A   1      50.339  26.285  26.662  1.00  0.00     0.010 A 
ATOM     80  C   UNL A   1      50.897  26.868  23.981  1.00  0.00     0.020 A 
ATOM     81  C   UNL A   1      51.611  26.023  26.146  1.00  0.00     0.020 A 
ATOM     82  C   UNL A   1      51.879  26.308  24.805  1.00  0.00     0.054 A 
BRANCH  82  83
ATOM     83  S   UNL A   1      53.530  26.010  24.116  1.00  0.00     0.124 S 
ATOM     84  O   UNL A   1      53.258  25.975  22.682  1.00  0.00    -0.237 OA
ATOM     85  O   UNL A   1      54.287  27.168  24.584  1.00  0.00    -0.237 OA
ATOM     86  O   UNL A   1      53.927  24.734  24.708  1.00  0.00    -0.744 OA
ENDBRANCH  82  83
ENDBRANCH  56  77
ENDBRANCH  30  31
ENDBRANCH  22  25
ENDBRANCH  20  21
ENDBRANCH  19  20
ENDBRANCH  18  19
ENDBRANCH   1  18
TORSDOF 20
ENDMDL
