MODEL 1
REMARK VINA RESULT:     -10.3      0.000      0.000
REMARK SMILES CCOc1cccc(OCC)c1-c1ccc([C@@H](C)C(=O)NCCCCCCNC(=O)c2ccc(-c3c4nc(c(-c5ccc(S(=O)(=O)[O-])cc5)c5ccc([nH]5)c(-c5ccc(S(=O)(=O)[O-])cc5)c5nc(c(-c6ccc(S(=O)(=O)[O-])cc6)c6ccc3[nH]6)C=C5)C=C4)cc2)cc1F
REMARK SMILES IDX 24 1 23 2 22 3 21 4 19 5 20 6 17 8 18 9 16 10 13 11 14 12
REMARK SMILES IDX 92 13 15 14 91 15 93 16 12 17 4 18 5 19 6 20 8 21 7 22 3 23
REMARK SMILES IDX 2 24 1 25 9 26 10 27 11 28 25 29 26 30 27 31 28 32 29 33
REMARK SMILES IDX 30 35 31 36 32 37 90 38 33 39 89 40 34 41 35 42 36 43 83 44
REMARK SMILES IDX 37 45 88 46 82 47 84 48 38 49 87 50 81 51 80 52 39 54 69 55
REMARK SMILES IDX 50 56 68 57 51 58 54 59 67 60 85 61 52 62 53 63 66 65 86 66
REMARK SMILES IDX 55 67 40 68 41 69 49 70 42 71 48 72 43 73 44 74 45 75 46 76
REMARK SMILES IDX 47 77 70 78 71 79 79 80 72 81 78 82 73 83 74 84 75 85 76 86
REMARK SMILES IDX 77 87 56 88 57 89 65 90 58 91 64 92 59 93 60 94 61 95 62 96
REMARK SMILES IDX 63 97
REMARK H PARENT 21 7 28 34 84 53 54 64
REMARK Flexibility Score: inf
ROOT
ATOM      1  C   UNL A   1      40.074  21.880  26.541  1.00  0.00     0.002 C 
ENDROOT
BRANCH   1   2
ATOM      2  C   UNL A   1      39.459  23.145  27.137  1.00  0.00     0.021 C 
BRANCH   2   3
ATOM      3  C   UNL A   1      38.317  23.766  26.310  1.00  0.00     0.116 C 
BRANCH   3   4
ATOM      4  N   UNL A   1      38.063  23.006  25.097  1.00  0.00    -0.356 N 
ATOM      5  C   UNL A   1      36.964  22.395  24.572  1.00  0.00     0.227 C 
ATOM      6  O   UNL A   1      37.161  21.764  23.523  1.00  0.00    -0.274 OA
ATOM      7  H   UNL A   1      38.861  22.914  24.528  1.00  0.00     0.163 HD
BRANCH   5   8
ATOM      8  C   UNL A   1      35.542  22.433  25.172  1.00  0.00     0.105 C 
ATOM      9  C   UNL A   1      34.658  21.245  24.805  1.00  0.00     0.023 C 
BRANCH   8  10
ATOM     10  C   UNL A   1      34.853  23.778  25.028  1.00  0.00    -0.033 A 
ATOM     11  C   UNL A   1      33.303  26.151  24.771  1.00  0.00     0.025 A 
ATOM     12  C   UNL A   1      33.382  25.455  25.976  1.00  0.00     0.012 A 
ATOM     13  C   UNL A   1      34.030  25.639  23.688  1.00  0.00     0.131 A 
ATOM     14  C   UNL A   1      34.229  24.368  26.121  1.00  0.00     0.005 A 
ATOM     15  C   UNL A   1      34.766  24.448  23.800  1.00  0.00     0.044 A 
ATOM     16  F   UNL A   1      33.994  26.252  22.496  1.00  0.00    -0.206 F 
BRANCH  11  17
ATOM     17  C   UNL A   1      32.373  27.287  24.687  1.00  0.00     0.069 A 
ATOM     18  C   UNL A   1      32.846  28.544  25.159  1.00  0.00     0.130 A 
ATOM     19  C   UNL A   1      32.108  29.721  25.026  1.00  0.00     0.047 A 
ATOM     20  C   UNL A   1      30.877  29.682  24.391  1.00  0.00     0.008 A 
ATOM     21  C   UNL A   1      31.106  27.260  24.059  1.00  0.00     0.130 A 
ATOM     22  C   UNL A   1      30.384  28.465  23.928  1.00  0.00     0.047 A 
BRANCH  18  23
ATOM     23  O   UNL A   1      34.038  28.605  25.846  1.00  0.00    -0.493 OA
BRANCH  23  24
ATOM     24  C   UNL A   1      33.895  29.093  27.183  1.00  0.00     0.226 C 
ATOM     25  C   UNL A   1      35.271  29.453  27.723  1.00  0.00     0.049 C 
ENDBRANCH  23  24
ENDBRANCH  18  23
BRANCH  21  26
ATOM     26  O   UNL A   1      30.366  26.230  23.545  1.00  0.00    -0.493 OA
BRANCH  26  27
ATOM     27  C   UNL A   1      30.103  25.001  24.206  1.00  0.00     0.226 C 
ATOM     28  C   UNL A   1      30.769  23.844  23.474  1.00  0.00     0.049 C 
ENDBRANCH  26  27
ENDBRANCH  21  26
ENDBRANCH  11  17
ENDBRANCH   8  10
ENDBRANCH   5   8
ENDBRANCH   3   4
ENDBRANCH   2   3
ENDBRANCH   1   2
BRANCH   1  29
ATOM     29  C   UNL A   1      41.483  21.549  27.043  1.00  0.00     0.002 C 
BRANCH  29  30
ATOM     30  C   UNL A   1      42.041  22.479  28.127  1.00  0.00     0.021 C 
BRANCH  30  31
ATOM     31  C   UNL A   1      43.236  23.331  27.701  1.00  0.00     0.116 C 
BRANCH  31  32
ATOM     32  N   UNL A   1      42.998  24.002  26.432  1.00  0.00    -0.352 N 
ATOM     33  C   UNL A   1      42.385  25.201  26.176  1.00  0.00     0.251 C 
ATOM     34  H   UNL A   1      43.329  23.523  25.638  1.00  0.00     0.163 HD
ATOM     35  O   UNL A   1      42.059  25.483  25.021  1.00  0.00    -0.269 OA
BRANCH  33  36
ATOM     36  C   UNL A   1      42.106  26.153  27.273  1.00  0.00     0.039 A 
ATOM     37  C   UNL A   1      40.986  25.947  28.084  1.00  0.00     0.014 A 
ATOM     38  C   UNL A   1      42.922  27.268  27.478  1.00  0.00     0.014 A 
ATOM     39  C   UNL A   1      40.716  26.829  29.134  1.00  0.00     0.010 A 
ATOM     40  C   UNL A   1      42.689  28.111  28.564  1.00  0.00     0.010 A 
ATOM     41  C   UNL A   1      41.582  27.903  29.401  1.00  0.00    -0.014 A 
BRANCH  41  42
ATOM     42  C   UNL A   1      41.346  28.818  30.548  1.00  0.00     0.031 A 
ATOM     43  C   UNL A   1      42.197  28.716  31.786  1.00  0.00     0.074 A 
ATOM     44  C   UNL A   1      40.326  29.696  30.501  1.00  0.00     0.049 A 
ATOM     45  N   UNL A   1      42.100  29.381  32.909  1.00  0.00    -0.248 NA
ATOM     46  C   UNL A   1      43.282  27.721  31.769  1.00  0.00     0.031 C 
ATOM     47  C   UNL A   1      39.405  29.866  29.373  1.00  0.00     0.029 A 
ATOM     48  N   UNL A   1      39.884  30.607  31.428  1.00  0.00    -0.354 N 
ATOM     49  C   UNL A   1      43.097  28.876  33.735  1.00  0.00     0.074 A 
ATOM     50  C   UNL A   1      43.757  27.817  33.003  1.00  0.00     0.031 C 
ATOM     51  C   UNL A   1      38.525  30.836  29.667  1.00  0.00     0.029 A 
ATOM     52  C   UNL A   1      38.789  31.329  31.015  1.00  0.00     0.049 A 
ATOM     53  H   UNL A   1      40.311  30.731  32.306  1.00  0.00     0.167 HD
ATOM     54  C   UNL A   1      43.446  29.270  34.985  1.00  0.00     0.031 A 
ATOM     55  C   UNL A   1      38.073  32.278  31.650  1.00  0.00     0.031 A 
ATOM     56  C   UNL A   1      42.794  30.330  35.708  1.00  0.00     0.049 A 
ATOM     57  C   UNL A   1      38.473  32.692  33.039  1.00  0.00     0.074 A 
ATOM     58  C   UNL A   1      43.106  30.837  36.957  1.00  0.00     0.029 A 
ATOM     59  N   UNL A   1      41.699  31.045  35.249  1.00  0.00    -0.354 N 
ATOM     60  N   UNL A   1      39.458  32.243  33.781  1.00  0.00    -0.248 NA
ATOM     61  C   UNL A   1      37.675  33.751  33.672  1.00  0.00     0.031 C 
ATOM     62  C   UNL A   1      42.169  31.826  37.274  1.00  0.00     0.029 A 
ATOM     63  C   UNL A   1      41.308  31.974  36.198  1.00  0.00     0.049 A 
ATOM     64  H   UNL A   1      41.263  30.911  34.377  1.00  0.00     0.167 HD
ATOM     65  C   UNL A   1      39.412  32.982  34.958  1.00  0.00     0.074 A 
ATOM     66  C   UNL A   1      38.313  33.916  34.823  1.00  0.00     0.031 C 
ATOM     67  C   UNL A   1      40.211  32.896  36.050  1.00  0.00     0.031 A 
BRANCH  54  68
ATOM     68  C   UNL A   1      44.584  28.541  35.651  1.00  0.00    -0.014 A 
ATOM     69  C   UNL A   1      45.910  28.992  35.520  1.00  0.00     0.010 A 
ATOM     70  C   UNL A   1      44.322  27.412  36.449  1.00  0.00     0.010 A 
ATOM     71  C   UNL A   1      46.957  28.301  36.135  1.00  0.00     0.020 A 
ATOM     72  C   UNL A   1      45.364  26.734  37.089  1.00  0.00     0.020 A 
ATOM     73  C   UNL A   1      46.679  27.174  36.913  1.00  0.00     0.054 A 
BRANCH  73  74
ATOM     74  S   UNL A   1      48.056  26.305  37.711  1.00  0.00     0.124 S 
ATOM     75  O   UNL A   1      48.917  25.996  36.572  1.00  0.00    -0.237 OA
ATOM     76  O   UNL A   1      48.576  27.309  38.635  1.00  0.00    -0.237 OA
ATOM     77  O   UNL A   1      47.421  25.151  38.341  1.00  0.00    -0.744 OA
ENDBRANCH  73  74
ENDBRANCH  54  68
BRANCH  55  78
ATOM     78  C   UNL A   1      36.909  32.908  30.969  1.00  0.00    -0.014 A 
ATOM     79  C   UNL A   1      37.104  33.929  30.023  1.00  0.00     0.010 A 
ATOM     80  C   UNL A   1      35.600  32.477  31.251  1.00  0.00     0.010 A 
ATOM     81  C   UNL A   1      36.010  34.518  29.381  1.00  0.00     0.020 A 
ATOM     82  C   UNL A   1      34.506  33.044  30.592  1.00  0.00     0.020 A 
ATOM     83  C   UNL A   1      34.718  34.069  29.668  1.00  0.00     0.054 A 
BRANCH  83  84
ATOM     84  S   UNL A   1      33.318  34.809  28.782  1.00  0.00     0.124 S 
ATOM     85  O   UNL A   1      32.475  35.274  29.879  1.00  0.00    -0.237 OA
ATOM     86  O   UNL A   1      33.961  35.853  27.990  1.00  0.00    -0.237 OA
ATOM     87  O   UNL A   1      32.780  33.694  28.006  1.00  0.00    -0.744 OA
ENDBRANCH  83  84
ENDBRANCH  55  78
BRANCH  67  88
ATOM     88  C   UNL A   1      39.947  33.858  37.177  1.00  0.00    -0.014 A 
ATOM     89  C   UNL A   1      40.374  35.196  37.110  1.00  0.00     0.010 A 
ATOM     90  C   UNL A   1      39.211  33.428  38.298  1.00  0.00     0.010 A 
ATOM     91  C   UNL A   1      40.096  36.079  38.158  1.00  0.00     0.020 A 
ATOM     92  C   UNL A   1      38.908  34.315  39.334  1.00  0.00     0.020 A 
ATOM     93  C   UNL A   1      39.365  35.632  39.263  1.00  0.00     0.054 A 
BRANCH  93  94
ATOM     94  S   UNL A   1      38.979  36.809  40.588  1.00  0.00     0.124 S 
ATOM     95  O   UNL A   1      40.283  36.994  41.220  1.00  0.00    -0.237 OA
ATOM     96  O   UNL A   1      38.467  37.963  39.854  1.00  0.00    -0.237 OA
ATOM     97  O   UNL A   1      37.989  36.104  41.399  1.00  0.00    -0.744 OA
ENDBRANCH  93  94
ENDBRANCH  67  88
ENDBRANCH  41  42
ENDBRANCH  33  36
ENDBRANCH  31  32
ENDBRANCH  30  31
ENDBRANCH  29  30
ENDBRANCH   1  29
TORSDOF 22
ENDMDL
MODEL 2
REMARK VINA RESULT:     -10.3      1.020      2.331
REMARK SMILES CCOc1cccc(OCC)c1-c1ccc([C@@H](C)C(=O)NCCCCCCNC(=O)c2ccc(-c3c4nc(c(-c5ccc(S(=O)(=O)[O-])cc5)c5ccc([nH]5)c(-c5ccc(S(=O)(=O)[O-])cc5)c5nc(c(-c6ccc(S(=O)(=O)[O-])cc6)c6ccc3[nH]6)C=C5)C=C4)cc2)cc1F
REMARK SMILES IDX 24 1 23 2 22 3 21 4 19 5 20 6 17 8 18 9 16 10 13 11 14 12
REMARK SMILES IDX 92 13 15 14 91 15 93 16 12 17 4 18 5 19 6 20 8 21 7 22 3 23
REMARK SMILES IDX 2 24 1 25 9 26 10 27 11 28 25 29 26 30 27 31 28 32 29 33
REMARK SMILES IDX 30 35 31 36 32 37 90 38 33 39 89 40 34 41 35 42 36 43 83 44
REMARK SMILES IDX 37 45 88 46 82 47 84 48 38 49 87 50 81 51 80 52 39 54 69 55
REMARK SMILES IDX 50 56 68 57 51 58 54 59 67 60 85 61 52 62 53 63 66 65 86 66
REMARK SMILES IDX 55 67 40 68 41 69 49 70 42 71 48 72 43 73 44 74 45 75 46 76
REMARK SMILES IDX 47 77 70 78 71 79 79 80 72 81 78 82 73 83 74 84 75 85 76 86
REMARK SMILES IDX 77 87 56 88 57 89 65 90 58 91 64 92 59 93 60 94 61 95 62 96
REMARK SMILES IDX 63 97
REMARK H PARENT 21 7 28 34 84 53 54 64
REMARK Flexibility Score: inf
ROOT
ATOM      1  C   UNL A   1      40.293  21.895  26.281  1.00  0.00     0.002 C 
ENDROOT
BRANCH   1   2
ATOM      2  C   UNL A   1      39.462  22.826  27.162  1.00  0.00     0.021 C 
BRANCH   2   3
ATOM      3  C   UNL A   1      38.327  23.571  26.435  1.00  0.00     0.116 C 
BRANCH   3   4
ATOM      4  N   UNL A   1      37.510  22.661  25.647  1.00  0.00    -0.356 N 
ATOM      5  C   UNL A   1      36.214  22.247  25.716  1.00  0.00     0.227 C 
ATOM      6  O   UNL A   1      35.891  21.381  24.890  1.00  0.00    -0.274 OA
ATOM      7  H   UNL A   1      38.003  22.254  24.898  1.00  0.00     0.163 HD
BRANCH   5   8
ATOM      8  C   UNL A   1      35.157  22.764  26.716  1.00  0.00     0.105 C 
ATOM      9  C   UNL A   1      34.337  21.678  27.403  1.00  0.00     0.023 C 
BRANCH   8  10
ATOM     10  C   UNL A   1      34.324  23.917  26.183  1.00  0.00    -0.033 A 
ATOM     11  C   UNL A   1      32.910  26.252  25.378  1.00  0.00     0.025 A 
ATOM     12  C   UNL A   1      34.251  26.060  25.054  1.00  0.00     0.012 A 
ATOM     13  C   UNL A   1      32.279  25.237  26.111  1.00  0.00     0.131 A 
ATOM     14  C   UNL A   1      34.898  24.871  25.351  1.00  0.00     0.005 A 
ATOM     15  C   UNL A   1      32.982  24.102  26.542  1.00  0.00     0.044 A 
ATOM     16  F   UNL A   1      30.990  25.357  26.464  1.00  0.00    -0.206 F 
BRANCH  11  17
ATOM     17  C   UNL A   1      32.294  27.544  25.043  1.00  0.00     0.069 A 
ATOM     18  C   UNL A   1      31.513  27.597  23.855  1.00  0.00     0.130 A 
ATOM     19  C   UNL A   1      30.780  28.727  23.489  1.00  0.00     0.047 A 
ATOM     20  C   UNL A   1      30.785  29.837  24.318  1.00  0.00     0.008 A 
ATOM     21  C   UNL A   1      32.305  28.692  25.869  1.00  0.00     0.130 A 
ATOM     22  C   UNL A   1      31.548  29.818  25.483  1.00  0.00     0.047 A 
BRANCH  18  23
ATOM     23  O   UNL A   1      31.533  26.532  22.982  1.00  0.00    -0.493 OA
BRANCH  23  24
ATOM     24  C   UNL A   1      32.514  26.668  21.949  1.00  0.00     0.226 C 
ATOM     25  C   UNL A   1      32.215  25.655  20.854  1.00  0.00     0.049 C 
ENDBRANCH  23  24
ENDBRANCH  18  23
BRANCH  21  26
ATOM     26  O   UNL A   1      32.973  28.971  27.031  1.00  0.00    -0.493 OA
BRANCH  26  27
ATOM     27  C   UNL A   1      34.311  29.437  27.116  1.00  0.00     0.226 C 
ATOM     28  C   UNL A   1      34.347  30.887  27.583  1.00  0.00     0.049 C 
ENDBRANCH  26  27
ENDBRANCH  21  26
ENDBRANCH  11  17
ENDBRANCH   8  10
ENDBRANCH   5   8
ENDBRANCH   3   4
ENDBRANCH   2   3
ENDBRANCH   1   2
BRANCH   1  29
ATOM     29  C   UNL A   1      41.739  21.690  26.743  1.00  0.00     0.002 C 
BRANCH  29  30
ATOM     30  C   UNL A   1      42.203  22.582  27.901  1.00  0.00     0.021 C 
BRANCH  30  31
ATOM     31  C   UNL A   1      43.055  23.783  27.496  1.00  0.00     0.116 C 
BRANCH  31  32
ATOM     32  N   UNL A   1      42.579  24.395  26.265  1.00  0.00    -0.352 N 
ATOM     33  C   UNL A   1      41.791  25.502  26.084  1.00  0.00     0.251 C 
ATOM     34  H   UNL A   1      42.867  23.946  25.437  1.00  0.00     0.163 HD
ATOM     35  O   UNL A   1      41.292  25.719  24.978  1.00  0.00    -0.269 OA
BRANCH  33  36
ATOM     36  C   UNL A   1      41.531  26.432  27.204  1.00  0.00     0.039 A 
ATOM     37  C   UNL A   1      40.544  26.110  28.139  1.00  0.00     0.014 A 
ATOM     38  C   UNL A   1      42.229  27.637  27.311  1.00  0.00     0.014 A 
ATOM     39  C   UNL A   1      40.295  26.970  29.212  1.00  0.00     0.010 A 
ATOM     40  C   UNL A   1      42.026  28.463  28.415  1.00  0.00     0.010 A 
ATOM     41  C   UNL A   1      41.054  28.141  29.375  1.00  0.00    -0.014 A 
BRANCH  41  42
ATOM     42  C   UNL A   1      40.846  29.040  30.541  1.00  0.00     0.031 A 
ATOM     43  C   UNL A   1      41.685  28.880  31.781  1.00  0.00     0.074 A 
ATOM     44  C   UNL A   1      39.861  29.958  30.507  1.00  0.00     0.049 A 
ATOM     45  N   UNL A   1      41.607  29.524  32.917  1.00  0.00    -0.248 NA
ATOM     46  C   UNL A   1      42.731  27.844  31.749  1.00  0.00     0.031 C 
ATOM     47  C   UNL A   1      38.955  30.187  29.378  1.00  0.00     0.029 A 
ATOM     48  N   UNL A   1      39.449  30.865  31.451  1.00  0.00    -0.354 N 
ATOM     49  C   UNL A   1      42.579  28.963  33.738  1.00  0.00     0.074 A 
ATOM     50  C   UNL A   1      43.201  27.896  32.986  1.00  0.00     0.031 C 
ATOM     51  C   UNL A   1      38.110  31.184  29.688  1.00  0.00     0.029 A 
ATOM     52  C   UNL A   1      38.385  31.638  31.047  1.00  0.00     0.049 A 
ATOM     53  H   UNL A   1      39.875  30.954  32.334  1.00  0.00     0.167 HD
ATOM     54  C   UNL A   1      42.935  29.316  34.997  1.00  0.00     0.031 A 
ATOM     55  C   UNL A   1      37.702  32.600  31.699  1.00  0.00     0.031 A 
ATOM     56  C   UNL A   1      42.319  30.385  35.740  1.00  0.00     0.049 A 
ATOM     57  C   UNL A   1      38.109  32.969  33.099  1.00  0.00     0.074 A 
ATOM     58  C   UNL A   1      42.643  30.853  37.001  1.00  0.00     0.029 A 
ATOM     59  N   UNL A   1      41.255  31.151  35.290  1.00  0.00    -0.354 N 
ATOM     60  N   UNL A   1      39.071  32.466  33.836  1.00  0.00    -0.248 NA
ATOM     61  C   UNL A   1      37.348  34.043  33.750  1.00  0.00     0.031 C 
ATOM     62  C   UNL A   1      41.743  31.871  37.334  1.00  0.00     0.029 A 
ATOM     63  C   UNL A   1      40.895  32.075  36.256  1.00  0.00     0.049 A 
ATOM     64  H   UNL A   1      40.820  31.053  34.413  1.00  0.00     0.167 HD
ATOM     65  C   UNL A   1      39.046  33.181  35.028  1.00  0.00     0.074 A 
ATOM     66  C   UNL A   1      37.985  34.160  34.907  1.00  0.00     0.031 C 
ATOM     67  C   UNL A   1      39.835  33.041  36.123  1.00  0.00     0.031 A 
BRANCH  54  68
ATOM     68  C   UNL A   1      44.039  28.530  35.654  1.00  0.00    -0.014 A 
ATOM     69  C   UNL A   1      43.756  27.396  36.438  1.00  0.00     0.010 A 
ATOM     70  C   UNL A   1      45.381  28.906  35.457  1.00  0.00     0.010 A 
ATOM     71  C   UNL A   1      44.789  26.682  37.050  1.00  0.00     0.020 A 
ATOM     72  C   UNL A   1      46.419  28.176  36.044  1.00  0.00     0.020 A 
ATOM     73  C   UNL A   1      46.114  27.079  36.853  1.00  0.00     0.054 A 
BRANCH  73  74
ATOM     74  S   UNL A   1      47.436  26.124  37.647  1.00  0.00     0.124 S 
ATOM     75  O   UNL A   1      48.314  27.182  38.141  1.00  0.00    -0.237 OA
ATOM     76  O   UNL A   1      46.718  25.376  38.675  1.00  0.00    -0.237 OA
ATOM     77  O   UNL A   1      47.984  25.317  36.561  1.00  0.00    -0.744 OA
ENDBRANCH  73  74
ENDBRANCH  54  68
BRANCH  55  78
ATOM     78  C   UNL A   1      36.568  33.289  31.026  1.00  0.00    -0.014 A 
ATOM     79  C   UNL A   1      35.341  33.458  31.690  1.00  0.00     0.010 A 
ATOM     80  C   UNL A   1      36.716  33.798  29.722  1.00  0.00     0.010 A 
ATOM     81  C   UNL A   1      34.277  34.109  31.058  1.00  0.00     0.020 A 
ATOM     82  C   UNL A   1      35.664  34.473  29.098  1.00  0.00     0.020 A 
ATOM     83  C   UNL A   1      34.447  34.615  29.766  1.00  0.00     0.054 A 
BRANCH  83  84
ATOM     84  S   UNL A   1      33.071  35.506  28.988  1.00  0.00     0.124 S 
ATOM     85  O   UNL A   1      32.486  34.476  28.134  1.00  0.00    -0.237 OA
ATOM     86  O   UNL A   1      32.265  35.910  30.136  1.00  0.00    -0.237 OA
ATOM     87  O   UNL A   1      33.732  36.603  28.285  1.00  0.00    -0.744 OA
ENDBRANCH  83  84
ENDBRANCH  55  78
BRANCH  67  88
ATOM     88  C   UNL A   1      39.601  33.989  37.269  1.00  0.00    -0.014 A 
ATOM     89  C   UNL A   1      38.712  33.670  38.310  1.00  0.00     0.010 A 
ATOM     90  C   UNL A   1      40.325  35.194  37.330  1.00  0.00     0.010 A 
ATOM     91  C   UNL A   1      38.528  34.554  39.378  1.00  0.00     0.020 A 
ATOM     92  C   UNL A   1      40.166  36.067  38.409  1.00  0.00     0.020 A 
ATOM     93  C   UNL A   1      39.257  35.747  39.420  1.00  0.00     0.054 A 
BRANCH  93  94
ATOM     94  S   UNL A   1      39.035  36.856  40.838  1.00  0.00     0.124 S 
ATOM     95  O   UNL A   1      38.370  38.003  40.225  1.00  0.00    -0.237 OA
ATOM     96  O   UNL A   1      38.209  36.059  41.742  1.00  0.00    -0.237 OA
ATOM     97  O   UNL A   1      40.398  37.101  41.302  1.00  0.00    -0.744 OA
ENDBRANCH  93  94
ENDBRANCH  67  88
ENDBRANCH  41  42
ENDBRANCH  33  36
ENDBRANCH  31  32
ENDBRANCH  30  31
ENDBRANCH  29  30
ENDBRANCH   1  29
TORSDOF 22
ENDMDL
MODEL 3
REMARK VINA RESULT:      -9.9      5.817      8.184
REMARK SMILES CCOc1cccc(OCC)c1-c1ccc([C@@H](C)C(=O)NCCCCCCNC(=O)c2ccc(-c3c4nc(c(-c5ccc(S(=O)(=O)[O-])cc5)c5ccc([nH]5)c(-c5ccc(S(=O)(=O)[O-])cc5)c5nc(c(-c6ccc(S(=O)(=O)[O-])cc6)c6ccc3[nH]6)C=C5)C=C4)cc2)cc1F
REMARK SMILES IDX 24 1 23 2 22 3 21 4 19 5 20 6 17 8 18 9 16 10 13 11 14 12
REMARK SMILES IDX 92 13 15 14 91 15 93 16 12 17 4 18 5 19 6 20 8 21 7 22 3 23
REMARK SMILES IDX 2 24 1 25 9 26 10 27 11 28 25 29 26 30 27 31 28 32 29 33
REMARK SMILES IDX 30 35 31 36 32 37 90 38 33 39 89 40 34 41 35 42 36 43 83 44
REMARK SMILES IDX 37 45 88 46 82 47 84 48 38 49 87 50 81 51 80 52 39 54 69 55
REMARK SMILES IDX 50 56 68 57 51 58 54 59 67 60 85 61 52 62 53 63 66 65 86 66
REMARK SMILES IDX 55 67 40 68 41 69 49 70 42 71 48 72 43 73 44 74 45 75 46 76
REMARK SMILES IDX 47 77 70 78 71 79 79 80 72 81 78 82 73 83 74 84 75 85 76 86
REMARK SMILES IDX 77 87 56 88 57 89 65 90 58 91 64 92 59 93 60 94 61 95 62 96
REMARK SMILES IDX 63 97
REMARK H PARENT 21 7 28 34 84 53 54 64
REMARK Flexibility Score: inf
ROOT
ATOM      1  C   UNL A   1      40.441  23.129  26.814  1.00  0.00     0.002 C 
ENDROOT
BRANCH   1   2
ATOM      2  C   UNL A   1      39.290  23.950  27.394  1.00  0.00     0.021 C 
BRANCH   2   3
ATOM      3  C   UNL A   1      38.113  24.193  26.430  1.00  0.00     0.116 C 
BRANCH   3   4
ATOM      4  N   UNL A   1      38.023  23.146  25.423  1.00  0.00    -0.356 N 
ATOM      5  C   UNL A   1      37.020  22.339  24.981  1.00  0.00     0.227 C 
ATOM      6  O   UNL A   1      37.354  21.494  24.138  1.00  0.00    -0.274 OA
ATOM      7  H   UNL A   1      38.877  22.986  24.959  1.00  0.00     0.163 HD
BRANCH   5   8
ATOM      8  C   UNL A   1      35.547  22.401  25.440  1.00  0.00     0.105 C 
ATOM      9  C   UNL A   1      34.733  21.141  25.163  1.00  0.00     0.023 C 
BRANCH   8  10
ATOM     10  C   UNL A   1      34.839  23.687  25.051  1.00  0.00    -0.033 A 
ATOM     11  C   UNL A   1      33.256  25.945  24.348  1.00  0.00     0.025 A 
ATOM     12  C   UNL A   1      33.293  25.454  25.651  1.00  0.00     0.012 A 
ATOM     13  C   UNL A   1      34.044  25.286  23.395  1.00  0.00     0.131 A 
ATOM     14  C   UNL A   1      34.153  24.427  26.006  1.00  0.00     0.005 A 
ATOM     15  C   UNL A   1      34.797  24.149  23.729  1.00  0.00     0.044 A 
ATOM     16  F   UNL A   1      34.052  25.700  22.119  1.00  0.00    -0.206 F 
BRANCH  11  17
ATOM     17  C   UNL A   1      32.310  27.028  24.042  1.00  0.00     0.069 A 
ATOM     18  C   UNL A   1      31.135  26.673  23.322  1.00  0.00     0.130 A 
ATOM     19  C   UNL A   1      30.104  27.581  23.073  1.00  0.00     0.047 A 
ATOM     20  C   UNL A   1      30.206  28.874  23.562  1.00  0.00     0.008 A 
ATOM     21  C   UNL A   1      32.409  28.357  24.516  1.00  0.00     0.130 A 
ATOM     22  C   UNL A   1      31.350  29.253  24.261  1.00  0.00     0.047 A 
BRANCH  18  23
ATOM     23  O   UNL A   1      31.029  25.414  22.775  1.00  0.00    -0.493 OA
BRANCH  23  24
ATOM     24  C   UNL A   1      30.426  24.463  23.658  1.00  0.00     0.226 C 
ATOM     25  C   UNL A   1      31.039  23.095  23.399  1.00  0.00     0.049 C 
ENDBRANCH  23  24
ENDBRANCH  18  23
BRANCH  21  26
ATOM     26  O   UNL A   1      33.404  29.011  25.191  1.00  0.00    -0.493 OA
BRANCH  26  27
ATOM     27  C   UNL A   1      33.289  29.556  26.496  1.00  0.00     0.226 C 
ATOM     28  C   UNL A   1      32.639  28.553  27.441  1.00  0.00     0.049 C 
ENDBRANCH  26  27
ENDBRANCH  21  26
ENDBRANCH  11  17
ENDBRANCH   8  10
ENDBRANCH   5   8
ENDBRANCH   3   4
ENDBRANCH   2   3
ENDBRANCH   1   2
BRANCH   1  29
ATOM     29  C   UNL A   1      40.694  21.789  27.513  1.00  0.00     0.002 C 
BRANCH  29  30
ATOM     30  C   UNL A   1      40.831  20.571  26.591  1.00  0.00     0.021 C 
BRANCH  30  31
ATOM     31  C   UNL A   1      41.959  19.605  26.953  1.00  0.00     0.116 C 
BRANCH  31  32
ATOM     32  N   UNL A   1      42.798  19.297  25.805  1.00  0.00    -0.352 N 
ATOM     33  C   UNL A   1      43.570  20.128  25.035  1.00  0.00     0.251 C 
ATOM     34  H   UNL A   1      42.814  18.348  25.543  1.00  0.00     0.163 HD
ATOM     35  O   UNL A   1      44.012  19.723  23.958  1.00  0.00    -0.269 OA
BRANCH  33  36
ATOM     36  C   UNL A   1      43.869  21.505  25.482  1.00  0.00     0.039 A 
ATOM     37  C   UNL A   1      44.494  21.699  26.717  1.00  0.00     0.014 A 
ATOM     38  C   UNL A   1      43.499  22.606  24.705  1.00  0.00     0.014 A 
ATOM     39  C   UNL A   1      44.797  22.993  27.148  1.00  0.00     0.010 A 
ATOM     40  C   UNL A   1      43.859  23.892  25.105  1.00  0.00     0.010 A 
ATOM     41  C   UNL A   1      44.508  24.100  26.332  1.00  0.00    -0.014 A 
BRANCH  41  42
ATOM     42  C   UNL A   1      44.875  25.480  26.745  1.00  0.00     0.031 A 
ATOM     43  C   UNL A   1      46.259  26.008  26.479  1.00  0.00     0.074 A 
ATOM     44  C   UNL A   1      43.983  26.234  27.415  1.00  0.00     0.049 A 
ATOM     45  N   UNL A   1      46.783  27.157  26.822  1.00  0.00    -0.248 NA
ATOM     46  C   UNL A   1      47.184  25.119  25.757  1.00  0.00     0.031 C 
ATOM     47  C   UNL A   1      42.620  25.824  27.768  1.00  0.00     0.029 A 
ATOM     48  N   UNL A   1      44.089  27.503  27.929  1.00  0.00    -0.354 N 
ATOM     49  C   UNL A   1      48.098  27.123  26.372  1.00  0.00     0.074 A 
ATOM     50  C   UNL A   1      48.307  25.823  25.775  1.00  0.00     0.031 C 
ATOM     51  C   UNL A   1      42.013  26.829  28.419  1.00  0.00     0.029 A 
ATOM     52  C   UNL A   1      42.950  27.938  28.567  1.00  0.00     0.049 A 
ATOM     53  H   UNL A   1      44.903  28.050  27.849  1.00  0.00     0.167 HD
ATOM     54  C   UNL A   1      49.042  28.094  26.433  1.00  0.00     0.031 A 
ATOM     55  C   UNL A   1      42.690  29.095  29.206  1.00  0.00     0.031 A 
ATOM     56  C   UNL A   1      48.829  29.391  27.020  1.00  0.00     0.049 A 
ATOM     57  C   UNL A   1      43.756  30.154  29.269  1.00  0.00     0.074 A 
ATOM     58  C   UNL A   1      49.705  30.460  27.085  1.00  0.00     0.029 A 
ATOM     59  N   UNL A   1      47.659  29.796  27.643  1.00  0.00    -0.354 N 
ATOM     60  N   UNL A   1      44.975  30.125  28.784  1.00  0.00    -0.248 NA
ATOM     61  C   UNL A   1      43.408  31.407  29.953  1.00  0.00     0.031 C 
ATOM     62  C   UNL A   1      49.082  31.494  27.791  1.00  0.00     0.029 A 
ATOM     63  C   UNL A   1      47.796  31.090  28.115  1.00  0.00     0.049 A 
ATOM     64  H   UNL A   1      46.849  29.244  27.736  1.00  0.00     0.167 HD
ATOM     65  C   UNL A   1      45.530  31.364  29.084  1.00  0.00     0.074 A 
ATOM     66  C   UNL A   1      44.509  32.124  29.777  1.00  0.00     0.031 C 
ATOM     67  C   UNL A   1      46.772  31.832  28.805  1.00  0.00     0.031 A 
BRANCH  54  68
ATOM     68  C   UNL A   1      50.398  27.783  25.854  1.00  0.00    -0.014 A 
ATOM     69  C   UNL A   1      51.450  27.332  26.673  1.00  0.00     0.010 A 
ATOM     70  C   UNL A   1      50.615  27.907  24.470  1.00  0.00     0.010 A 
ATOM     71  C   UNL A   1      52.705  27.057  26.125  1.00  0.00     0.020 A 
ATOM     72  C   UNL A   1      51.862  27.605  23.913  1.00  0.00     0.020 A 
ATOM     73  C   UNL A   1      52.905  27.199  24.749  1.00  0.00     0.054 A 
BRANCH  73  74
ATOM     74  S   UNL A   1      54.541  26.820  24.063  1.00  0.00     0.124 S 
ATOM     75  O   UNL A   1      54.840  25.536  24.692  1.00  0.00    -0.237 OA
ATOM     76  O   UNL A   1      54.282  26.769  22.626  1.00  0.00    -0.237 OA
ATOM     77  O   UNL A   1      55.370  27.938  24.504  1.00  0.00    -0.744 OA
ENDBRANCH  73  74
ENDBRANCH  54  68
BRANCH  55  78
ATOM     78  C   UNL A   1      41.356  29.315  29.828  1.00  0.00    -0.014 A 
ATOM     79  C   UNL A   1      40.323  29.929  29.099  1.00  0.00     0.010 A 
ATOM     80  C   UNL A   1      41.106  28.893  31.146  1.00  0.00     0.010 A 
ATOM     81  C   UNL A   1      39.069  30.132  29.683  1.00  0.00     0.020 A 
ATOM     82  C   UNL A   1      39.846  29.069  31.723  1.00  0.00     0.020 A 
ATOM     83  C   UNL A   1      38.838  29.699  30.991  1.00  0.00     0.054 A 
BRANCH  83  84
ATOM     84  S   UNL A   1      37.186  29.921  31.708  1.00  0.00     0.124 S 
ATOM     85  O   UNL A   1      37.122  31.369  31.881  1.00  0.00    -0.237 OA
ATOM     86  O   UNL A   1      36.315  29.367  30.675  1.00  0.00    -0.237 OA
ATOM     87  O   UNL A   1      37.244  29.143  32.944  1.00  0.00    -0.744 OA
ENDBRANCH  83  84
ENDBRANCH  55  78
BRANCH  67  88
ATOM     88  C   UNL A   1      47.090  33.243  29.223  1.00  0.00    -0.014 A 
ATOM     89  C   UNL A   1      47.689  33.519  30.464  1.00  0.00     0.010 A 
ATOM     90  C   UNL A   1      46.832  34.304  28.334  1.00  0.00     0.010 A 
ATOM     91  C   UNL A   1      47.999  34.835  30.822  1.00  0.00     0.020 A 
ATOM     92  C   UNL A   1      47.165  35.617  28.676  1.00  0.00     0.020 A 
ATOM     93  C   UNL A   1      47.734  35.875  29.925  1.00  0.00     0.054 A 
BRANCH  93  94
ATOM     94  S   UNL A   1      48.186  37.568  30.394  1.00  0.00     0.124 S 
ATOM     95  O   UNL A   1      47.532  37.708  31.693  1.00  0.00    -0.237 OA
ATOM     96  O   UNL A   1      49.645  37.514  30.427  1.00  0.00    -0.237 OA
ATOM     97  O   UNL A   1      47.622  38.386  29.323  1.00  0.00    -0.744 OA
ENDBRANCH  93  94
ENDBRANCH  67  88
ENDBRANCH  41  42
ENDBRANCH  33  36
ENDBRANCH  31  32
ENDBRANCH  30  31
ENDBRANCH  29  30
ENDBRANCH   1  29
TORSDOF 22
ENDMDL
