MODEL 1
REMARK VINA RESULT:     -10.5      0.000      0.000
REMARK SMILES COc1ncccc1C[C@H](C(=O)NCCCCCCNC(=O)c1ccc(-c2c3nc(c(-c4ccc(S(=O)(=O)[O-])cc4)c4ccc([nH]4)c(-c4ccc(S(=O)(=O)[O-])cc4)c4nc(c(-c5ccc(S(=O)(=O)[O-])cc5)c5ccc2[nH]5)C=C4)C=C3)cc1)c1ccc(F)cc1
REMARK SMILES IDX 16 1 15 2 14 3 13 4 11 5 12 6 10 8 9 9 8 10 3 11 4 12 5 13
REMARK SMILES IDX 7 14 6 15 2 16 1 17 83 18 84 19 89 20 85 21 88 22 86 23
REMARK SMILES IDX 87 24 17 25 18 26 19 27 20 28 21 29 22 31 23 32 24 33 82 34
REMARK SMILES IDX 25 35 81 36 26 37 27 38 28 39 75 40 29 41 80 42 74 43 76 44
REMARK SMILES IDX 30 45 79 46 73 47 72 48 31 50 61 51 42 52 60 53 43 54 46 55
REMARK SMILES IDX 59 56 77 57 44 58 45 59 58 61 78 62 47 63 32 64 33 65 41 66
REMARK SMILES IDX 34 67 40 68 35 69 36 70 37 71 38 72 39 73 62 74 63 75 71 76
REMARK SMILES IDX 64 77 70 78 65 79 66 80 67 81 68 82 69 83 48 84 49 85 57 86
REMARK SMILES IDX 50 87 56 88 51 89 52 90 53 91 54 92 55 93
REMARK H PARENT 13 7 20 30 76 49 46 60
REMARK Flexibility Score: inf
ROOT
ATOM      1  C   UNL A   1      34.262  20.948  24.622  1.00  0.00     0.002 C 
ENDROOT
BRANCH   1   2
ATOM      2  C   UNL A   1      32.762  20.791  24.849  1.00  0.00     0.021 C 
BRANCH   2   3
ATOM      3  C   UNL A   1      31.920  22.034  24.627  1.00  0.00     0.116 C 
BRANCH   3   4
ATOM      4  N   UNL A   1      31.359  22.607  25.810  1.00  0.00    -0.356 N 
ATOM      5  C   UNL A   1      31.121  23.912  26.096  1.00  0.00     0.227 C 
ATOM      6  O   UNL A   1      30.798  24.124  27.272  1.00  0.00    -0.274 OA
ATOM      7  H   UNL A   1      31.113  21.966  26.517  1.00  0.00     0.163 HD
BRANCH   5   8
ATOM      8  C   UNL A   1      31.307  25.091  25.074  1.00  0.00     0.113 C 
BRANCH   8   9
ATOM      9  C   UNL A   1      30.053  25.678  24.316  1.00  0.00     0.059 C 
BRANCH   9  10
ATOM     10  C   UNL A   1      30.266  26.965  23.517  1.00  0.00     0.015 A 
ATOM     11  C   UNL A   1      29.265  27.924  23.357  1.00  0.00     0.216 A 
ATOM     12  N   UNL A   1      29.426  29.126  22.753  1.00  0.00    -0.222 NA
ATOM     13  C   UNL A   1      30.637  29.378  22.212  1.00  0.00     0.115 A 
ATOM     14  C   UNL A   1      31.461  27.237  22.839  1.00  0.00     0.011 A 
ATOM     15  C   UNL A   1      31.667  28.460  22.203  1.00  0.00     0.021 A 
BRANCH  11  16
ATOM     16  O   UNL A   1      27.965  27.517  23.524  1.00  0.00    -0.481 OA
ATOM     17  C   UNL A   1      27.058  28.568  23.261  1.00  0.00     0.280 C 
ENDBRANCH  11  16
ENDBRANCH   9  10
ENDBRANCH   8   9
BRANCH   8  18
ATOM     18  C   UNL A   1      31.976  26.245  25.854  1.00  0.00    -0.035 A 
ATOM     19  C   UNL A   1      31.187  27.105  26.644  1.00  0.00     0.007 A 
ATOM     20  C   UNL A   1      33.361  26.458  25.806  1.00  0.00     0.007 A 
ATOM     21  C   UNL A   1      31.753  28.207  27.283  1.00  0.00     0.039 A 
ATOM     22  C   UNL A   1      33.921  27.584  26.417  1.00  0.00     0.039 A 
ATOM     23  C   UNL A   1      33.109  28.455  27.134  1.00  0.00     0.123 A 
ATOM     24  F   UNL A   1      33.644  29.552  27.689  1.00  0.00    -0.207 F 
ENDBRANCH   8  18
ENDBRANCH   5   8
ENDBRANCH   3   4
ENDBRANCH   2   3
ENDBRANCH   1   2
BRANCH   1  25
ATOM     25  C   UNL A   1      34.944  22.069  25.410  1.00  0.00     0.002 C 
BRANCH  25  26
ATOM     26  C   UNL A   1      35.672  23.124  24.576  1.00  0.00     0.021 C 
BRANCH  26  27
ATOM     27  C   UNL A   1      36.886  23.764  25.241  1.00  0.00     0.116 C 
BRANCH  27  28
ATOM     28  N   UNL A   1      37.921  22.796  25.569  1.00  0.00    -0.352 N 
ATOM     29  C   UNL A   1      39.107  22.984  26.232  1.00  0.00     0.251 C 
ATOM     30  H   UNL A   1      37.745  21.873  25.274  1.00  0.00     0.163 HD
ATOM     31  O   UNL A   1      39.937  22.077  26.278  1.00  0.00    -0.269 OA
BRANCH  29  32
ATOM     32  C   UNL A   1      39.397  24.289  26.863  1.00  0.00     0.039 A 
ATOM     33  C   UNL A   1      38.948  24.526  28.164  1.00  0.00     0.014 A 
ATOM     34  C   UNL A   1      40.124  25.268  26.180  1.00  0.00     0.014 A 
ATOM     35  C   UNL A   1      39.289  25.718  28.805  1.00  0.00     0.010 A 
ATOM     36  C   UNL A   1      40.525  26.422  26.846  1.00  0.00     0.010 A 
ATOM     37  C   UNL A   1      40.113  26.660  28.167  1.00  0.00    -0.014 A 
BRANCH  37  38
ATOM     38  C   UNL A   1      40.569  27.888  28.868  1.00  0.00     0.031 A 
ATOM     39  C   UNL A   1      41.933  27.937  29.503  1.00  0.00     0.074 A 
ATOM     40  C   UNL A   1      39.729  28.935  28.991  1.00  0.00     0.049 A 
ATOM     41  N   UNL A   1      42.479  28.893  30.210  1.00  0.00    -0.248 NA
ATOM     42  C   UNL A   1      42.786  26.748  29.342  1.00  0.00     0.031 C 
ATOM     43  C   UNL A   1      38.368  28.998  28.452  1.00  0.00     0.029 A 
ATOM     44  N   UNL A   1      39.891  30.146  29.617  1.00  0.00    -0.354 N 
ATOM     45  C   UNL A   1      43.729  28.418  30.588  1.00  0.00     0.074 A 
ATOM     46  C   UNL A   1      43.840  27.070  30.077  1.00  0.00     0.031 C 
ATOM     47  C   UNL A   1      37.832  30.193  28.745  1.00  0.00     0.029 A 
ATOM     48  C   UNL A   1      38.788  30.964  29.535  1.00  0.00     0.049 A 
ATOM     49  H   UNL A   1      40.721  30.406  30.080  1.00  0.00     0.167 HD
ATOM     50  C   UNL A   1      44.703  29.053  31.282  1.00  0.00     0.031 A 
ATOM     51  C   UNL A   1      38.563  32.190  30.046  1.00  0.00     0.031 A 
ATOM     52  C   UNL A   1      44.588  30.397  31.785  1.00  0.00     0.049 A 
ATOM     53  C   UNL A   1      39.650  32.863  30.839  1.00  0.00     0.074 A 
ATOM     54  C   UNL A   1      45.539  31.147  32.456  1.00  0.00     0.029 A 
ATOM     55  N   UNL A   1      43.455  31.189  31.682  1.00  0.00    -0.354 N 
ATOM     56  N   UNL A   1      40.851  32.423  31.129  1.00  0.00    -0.248 NA
ATOM     57  C   UNL A   1      39.355  34.203  31.366  1.00  0.00     0.031 C 
ATOM     58  C   UNL A   1      44.959  32.367  32.815  1.00  0.00     0.029 A 
ATOM     59  C   UNL A   1      43.670  32.408  32.304  1.00  0.00     0.049 A 
ATOM     60  H   UNL A   1      42.620  30.925  31.233  1.00  0.00     0.167 HD
ATOM     61  C   UNL A   1      41.465  33.444  31.847  1.00  0.00     0.074 A 
ATOM     62  C   UNL A   1      40.508  34.527  31.934  1.00  0.00     0.031 C 
ATOM     63  C   UNL A   1      42.710  33.479  32.385  1.00  0.00     0.031 A 
BRANCH  50  64
ATOM     64  C   UNL A   1      45.979  28.296  31.547  1.00  0.00    -0.014 A 
ATOM     65  C   UNL A   1      47.066  28.363  30.656  1.00  0.00     0.010 A 
ATOM     66  C   UNL A   1      46.111  27.543  32.729  1.00  0.00     0.010 A 
ATOM     67  C   UNL A   1      48.242  27.655  30.919  1.00  0.00     0.020 A 
ATOM     68  C   UNL A   1      47.299  26.860  33.012  1.00  0.00     0.020 A 
ATOM     69  C   UNL A   1      48.350  26.908  32.096  1.00  0.00     0.054 A 
BRANCH  69  70
ATOM     70  S   UNL A   1      49.898  26.019  32.419  1.00  0.00     0.124 S 
ATOM     71  O   UNL A   1      50.629  26.977  33.243  1.00  0.00    -0.237 OA
ATOM     72  O   UNL A   1      49.436  24.818  33.113  1.00  0.00    -0.237 OA
ATOM     73  O   UNL A   1      50.453  25.792  31.088  1.00  0.00    -0.744 OA
ENDBRANCH  69  70
ENDBRANCH  50  64
BRANCH  51  74
ATOM     74  C   UNL A   1      37.254  32.863  29.819  1.00  0.00    -0.014 A 
ATOM     75  C   UNL A   1      37.035  33.635  28.664  1.00  0.00     0.010 A 
ATOM     76  C   UNL A   1      36.211  32.725  30.754  1.00  0.00     0.010 A 
ATOM     77  C   UNL A   1      35.808  34.271  28.459  1.00  0.00     0.020 A 
ATOM     78  C   UNL A   1      34.972  33.333  30.537  1.00  0.00     0.020 A 
ATOM     79  C   UNL A   1      34.782  34.114  29.394  1.00  0.00     0.054 A 
BRANCH  79  80
ATOM     80  S   UNL A   1      33.181  34.907  29.081  1.00  0.00     0.124 S 
ATOM     81  O   UNL A   1      32.559  34.869  30.401  1.00  0.00    -0.237 OA
ATOM     82  O   UNL A   1      33.575  36.230  28.603  1.00  0.00    -0.237 OA
ATOM     83  O   UNL A   1      32.565  34.047  28.073  1.00  0.00    -0.744 OA
ENDBRANCH  79  80
ENDBRANCH  51  74
BRANCH  63  84
ATOM     84  C   UNL A   1      43.130  34.744  33.086  1.00  0.00    -0.014 A 
ATOM     85  C   UNL A   1      42.862  34.949  34.451  1.00  0.00     0.010 A 
ATOM     86  C   UNL A   1      43.864  35.716  32.380  1.00  0.00     0.010 A 
ATOM     87  C   UNL A   1      43.297  36.113  35.091  1.00  0.00     0.020 A 
ATOM     88  C   UNL A   1      44.328  36.866  33.023  1.00  0.00     0.020 A 
ATOM     89  C   UNL A   1      44.031  37.063  34.372  1.00  0.00     0.054 A 
BRANCH  89  90
ATOM     90  S   UNL A   1      44.632  38.537  35.240  1.00  0.00     0.124 S 
ATOM     91  O   UNL A   1      46.040  38.564  34.853  1.00  0.00    -0.237 OA
ATOM     92  O   UNL A   1      43.804  39.599  34.675  1.00  0.00    -0.237 OA
ATOM     93  O   UNL A   1      44.378  38.239  36.648  1.00  0.00    -0.744 OA
ENDBRANCH  89  90
ENDBRANCH  63  84
ENDBRANCH  37  38
ENDBRANCH  29  32
ENDBRANCH  27  28
ENDBRANCH  26  27
ENDBRANCH  25  26
ENDBRANCH   1  25
TORSDOF 20
ENDMDL
MODEL 2
REMARK VINA RESULT:     -10.5      1.451      3.228
REMARK SMILES COc1ncccc1C[C@H](C(=O)NCCCCCCNC(=O)c1ccc(-c2c3nc(c(-c4ccc(S(=O)(=O)[O-])cc4)c4ccc([nH]4)c(-c4ccc(S(=O)(=O)[O-])cc4)c4nc(c(-c5ccc(S(=O)(=O)[O-])cc5)c5ccc2[nH]5)C=C4)C=C3)cc1)c1ccc(F)cc1
REMARK SMILES IDX 16 1 15 2 14 3 13 4 11 5 12 6 10 8 9 9 8 10 3 11 4 12 5 13
REMARK SMILES IDX 7 14 6 15 2 16 1 17 83 18 84 19 89 20 85 21 88 22 86 23
REMARK SMILES IDX 87 24 17 25 18 26 19 27 20 28 21 29 22 31 23 32 24 33 82 34
REMARK SMILES IDX 25 35 81 36 26 37 27 38 28 39 75 40 29 41 80 42 74 43 76 44
REMARK SMILES IDX 30 45 79 46 73 47 72 48 31 50 61 51 42 52 60 53 43 54 46 55
REMARK SMILES IDX 59 56 77 57 44 58 45 59 58 61 78 62 47 63 32 64 33 65 41 66
REMARK SMILES IDX 34 67 40 68 35 69 36 70 37 71 38 72 39 73 62 74 63 75 71 76
REMARK SMILES IDX 64 77 70 78 65 79 66 80 67 81 68 82 69 83 48 84 49 85 57 86
REMARK SMILES IDX 50 87 56 88 51 89 52 90 53 91 54 92 55 93
REMARK H PARENT 13 7 20 30 76 49 46 60
REMARK Flexibility Score: inf
ROOT
ATOM      1  C   UNL A   1      33.210  25.647  26.090  1.00  0.00     0.002 C 
ENDROOT
BRANCH   1   2
ATOM      2  C   UNL A   1      32.888  27.095  26.448  1.00  0.00     0.021 C 
BRANCH   2   3
ATOM      3  C   UNL A   1      31.978  27.833  25.482  1.00  0.00     0.116 C 
BRANCH   3   4
ATOM      4  N   UNL A   1      32.621  28.334  24.307  1.00  0.00    -0.356 N 
ATOM      5  C   UNL A   1      32.268  28.169  23.007  1.00  0.00     0.227 C 
ATOM      6  O   UNL A   1      33.117  28.563  22.196  1.00  0.00    -0.274 OA
ATOM      7  H   UNL A   1      33.432  28.871  24.462  1.00  0.00     0.163 HD
BRANCH   5   8
ATOM      8  C   UNL A   1      30.945  27.468  22.530  1.00  0.00     0.113 C 
BRANCH   8   9
ATOM      9  C   UNL A   1      30.471  26.132  23.224  1.00  0.00     0.059 C 
BRANCH   9  10
ATOM     10  C   UNL A   1      31.336  24.891  23.002  1.00  0.00     0.015 A 
ATOM     11  C   UNL A   1      31.163  23.714  23.731  1.00  0.00     0.216 A 
ATOM     12  N   UNL A   1      31.825  22.553  23.508  1.00  0.00    -0.222 NA
ATOM     13  C   UNL A   1      32.769  22.567  22.543  1.00  0.00     0.115 A 
ATOM     14  C   UNL A   1      32.404  24.873  22.095  1.00  0.00     0.011 A 
ATOM     15  C   UNL A   1      33.113  23.702  21.838  1.00  0.00     0.021 A 
BRANCH  11  16
ATOM     16  O   UNL A   1      30.532  23.808  24.946  1.00  0.00    -0.481 OA
ATOM     17  C   UNL A   1      30.869  22.724  25.788  1.00  0.00     0.280 C 
ENDBRANCH  11  16
ENDBRANCH   9  10
ENDBRANCH   8   9
BRANCH   8  18
ATOM     18  C   UNL A   1      29.816  28.512  22.683  1.00  0.00    -0.035 A 
ATOM     19  C   UNL A   1      30.094  29.879  22.480  1.00  0.00     0.007 A 
ATOM     20  C   UNL A   1      28.507  28.135  23.014  1.00  0.00     0.007 A 
ATOM     21  C   UNL A   1      29.117  30.847  22.701  1.00  0.00     0.039 A 
ATOM     22  C   UNL A   1      27.538  29.109  23.272  1.00  0.00     0.039 A 
ATOM     23  C   UNL A   1      27.857  30.454  23.129  1.00  0.00     0.123 A 
ATOM     24  F   UNL A   1      26.936  31.386  23.411  1.00  0.00    -0.207 F 
ENDBRANCH   8  18
ENDBRANCH   5   8
ENDBRANCH   3   4
ENDBRANCH   2   3
ENDBRANCH   1   2
BRANCH   1  25
ATOM     25  C   UNL A   1      34.293  25.447  25.026  1.00  0.00     0.002 C 
BRANCH  25  26
ATOM     26  C   UNL A   1      35.078  24.137  25.112  1.00  0.00     0.021 C 
BRANCH  26  27
ATOM     27  C   UNL A   1      36.158  24.089  26.188  1.00  0.00     0.116 C 
BRANCH  27  28
ATOM     28  N   UNL A   1      37.134  23.036  25.958  1.00  0.00    -0.352 N 
ATOM     29  C   UNL A   1      38.488  23.045  26.175  1.00  0.00     0.251 C 
ATOM     30  H   UNL A   1      36.770  22.195  25.594  1.00  0.00     0.163 HD
ATOM     31  O   UNL A   1      39.182  22.113  25.769  1.00  0.00    -0.269 OA
BRANCH  29  32
ATOM     32  C   UNL A   1      39.114  24.190  26.870  1.00  0.00     0.039 A 
ATOM     33  C   UNL A   1      39.901  25.078  26.137  1.00  0.00     0.014 A 
ATOM     34  C   UNL A   1      38.909  24.393  28.238  1.00  0.00     0.014 A 
ATOM     35  C   UNL A   1      40.427  26.211  26.761  1.00  0.00     0.010 A 
ATOM     36  C   UNL A   1      39.371  25.560  28.840  1.00  0.00     0.010 A 
ATOM     37  C   UNL A   1      40.134  26.483  28.107  1.00  0.00    -0.014 A 
BRANCH  37  38
ATOM     38  C   UNL A   1      40.600  27.733  28.762  1.00  0.00     0.031 A 
ATOM     39  C   UNL A   1      41.976  27.806  29.366  1.00  0.00     0.074 A 
ATOM     40  C   UNL A   1      39.758  28.781  28.871  1.00  0.00     0.049 A 
ATOM     41  N   UNL A   1      42.533  28.785  30.032  1.00  0.00    -0.248 NA
ATOM     42  C   UNL A   1      42.831  26.616  29.222  1.00  0.00     0.031 C 
ATOM     43  C   UNL A   1      38.386  28.823  28.359  1.00  0.00     0.029 A 
ATOM     44  N   UNL A   1      39.929  30.011  29.456  1.00  0.00    -0.354 N 
ATOM     45  C   UNL A   1      43.793  28.326  30.398  1.00  0.00     0.074 A 
ATOM     46  C   UNL A   1      43.898  26.963  29.925  1.00  0.00     0.031 C 
ATOM     47  C   UNL A   1      37.851  30.025  28.627  1.00  0.00     0.029 A 
ATOM     48  C   UNL A   1      38.821  30.822  29.373  1.00  0.00     0.049 A 
ATOM     49  H   UNL A   1      40.767  30.288  29.894  1.00  0.00     0.167 HD
ATOM     50  C   UNL A   1      44.779  28.985  31.052  1.00  0.00     0.031 A 
ATOM     51  C   UNL A   1      38.602  32.063  29.851  1.00  0.00     0.031 A 
ATOM     52  C   UNL A   1      44.670  30.342  31.516  1.00  0.00     0.049 A 
ATOM     53  C   UNL A   1      39.702  32.763  30.601  1.00  0.00     0.074 A 
ATOM     54  C   UNL A   1      45.631  31.115  32.144  1.00  0.00     0.029 A 
ATOM     55  N   UNL A   1      43.531  31.128  31.413  1.00  0.00    -0.354 N 
ATOM     56  N   UNL A   1      40.912  32.335  30.878  1.00  0.00    -0.248 NA
ATOM     57  C   UNL A   1      39.414  34.117  31.094  1.00  0.00     0.031 C 
ATOM     58  C   UNL A   1      45.054  32.345  32.477  1.00  0.00     0.029 A 
ATOM     59  C   UNL A   1      43.755  32.365  31.993  1.00  0.00     0.049 A 
ATOM     60  H   UNL A   1      42.688  30.847  30.990  1.00  0.00     0.167 HD
ATOM     61  C   UNL A   1      41.536  33.379  31.552  1.00  0.00     0.074 A 
ATOM     62  C   UNL A   1      40.577  34.462  31.626  1.00  0.00     0.031 C 
ATOM     63  C   UNL A   1      42.792  33.435  32.062  1.00  0.00     0.031 A 
BRANCH  50  64
ATOM     64  C   UNL A   1      46.063  28.240  31.312  1.00  0.00    -0.014 A 
ATOM     65  C   UNL A   1      46.189  27.363  32.405  1.00  0.00     0.010 A 
ATOM     66  C   UNL A   1      47.146  28.384  30.425  1.00  0.00     0.010 A 
ATOM     67  C   UNL A   1      47.387  26.679  32.630  1.00  0.00     0.020 A 
ATOM     68  C   UNL A   1      48.336  27.677  30.629  1.00  0.00     0.020 A 
ATOM     69  C   UNL A   1      48.453  26.841  31.740  1.00  0.00     0.054 A 
BRANCH  69  70
ATOM     70  S   UNL A   1      49.987  25.924  32.047  1.00  0.00     0.124 S 
ATOM     71  O   UNL A   1      50.312  25.425  30.714  1.00  0.00    -0.237 OA
ATOM     72  O   UNL A   1      50.879  26.958  32.565  1.00  0.00    -0.237 OA
ATOM     73  O   UNL A   1      49.593  24.902  33.014  1.00  0.00    -0.744 OA
ENDBRANCH  69  70
ENDBRANCH  50  64
BRANCH  51  74
ATOM     74  C   UNL A   1      37.285  32.724  29.632  1.00  0.00    -0.014 A 
ATOM     75  C   UNL A   1      36.289  32.686  30.623  1.00  0.00     0.010 A 
ATOM     76  C   UNL A   1      37.024  33.407  28.428  1.00  0.00     0.010 A 
ATOM     77  C   UNL A   1      35.052  33.300  30.410  1.00  0.00     0.020 A 
ATOM     78  C   UNL A   1      35.800  34.049  28.224  1.00  0.00     0.020 A 
ATOM     79  C   UNL A   1      34.816  33.981  29.213  1.00  0.00     0.054 A 
BRANCH  79  80
ATOM     80  S   UNL A   1      33.221  34.814  28.979  1.00  0.00     0.124 S 
ATOM     81  O   UNL A   1      32.575  33.960  27.988  1.00  0.00    -0.237 OA
ATOM     82  O   UNL A   1      32.647  34.774  30.322  1.00  0.00    -0.237 OA
ATOM     83  O   UNL A   1      33.598  36.146  28.510  1.00  0.00    -0.744 OA
ENDBRANCH  79  80
ENDBRANCH  51  74
BRANCH  63  84
ATOM     84  C   UNL A   1      43.222  34.722  32.716  1.00  0.00    -0.014 A 
ATOM     85  C   UNL A   1      43.825  35.755  31.975  1.00  0.00     0.010 A 
ATOM     86  C   UNL A   1      42.958  34.926  34.083  1.00  0.00     0.010 A 
ATOM     87  C   UNL A   1      44.179  36.956  32.596  1.00  0.00     0.020 A 
ATOM     88  C   UNL A   1      43.281  36.137  34.700  1.00  0.00     0.020 A 
ATOM     89  C   UNL A   1      43.901  37.140  33.954  1.00  0.00     0.054 A 
BRANCH  89  90
ATOM     90  S   UNL A   1      44.319  38.730  34.721  1.00  0.00     0.124 S 
ATOM     91  O   UNL A   1      43.309  39.617  34.149  1.00  0.00    -0.237 OA
ATOM     92  O   UNL A   1      44.172  38.446  36.145  1.00  0.00    -0.237 OA
ATOM     93  O   UNL A   1      45.689  38.979  34.278  1.00  0.00    -0.744 OA
ENDBRANCH  89  90
ENDBRANCH  63  84
ENDBRANCH  37  38
ENDBRANCH  29  32
ENDBRANCH  27  28
ENDBRANCH  26  27
ENDBRANCH  25  26
ENDBRANCH   1  25
TORSDOF 20
ENDMDL
MODEL 3
REMARK VINA RESULT:     -10.4      3.834      9.466
REMARK SMILES COc1ncccc1C[C@H](C(=O)NCCCCCCNC(=O)c1ccc(-c2c3nc(c(-c4ccc(S(=O)(=O)[O-])cc4)c4ccc([nH]4)c(-c4ccc(S(=O)(=O)[O-])cc4)c4nc(c(-c5ccc(S(=O)(=O)[O-])cc5)c5ccc2[nH]5)C=C4)C=C3)cc1)c1ccc(F)cc1
REMARK SMILES IDX 16 1 15 2 14 3 13 4 11 5 12 6 10 8 9 9 8 10 3 11 4 12 5 13
REMARK SMILES IDX 7 14 6 15 2 16 1 17 83 18 84 19 89 20 85 21 88 22 86 23
REMARK SMILES IDX 87 24 17 25 18 26 19 27 20 28 21 29 22 31 23 32 24 33 82 34
REMARK SMILES IDX 25 35 81 36 26 37 27 38 28 39 75 40 29 41 80 42 74 43 76 44
REMARK SMILES IDX 30 45 79 46 73 47 72 48 31 50 61 51 42 52 60 53 43 54 46 55
REMARK SMILES IDX 59 56 77 57 44 58 45 59 58 61 78 62 47 63 32 64 33 65 41 66
REMARK SMILES IDX 34 67 40 68 35 69 36 70 37 71 38 72 39 73 62 74 63 75 71 76
REMARK SMILES IDX 64 77 70 78 65 79 66 80 67 81 68 82 69 83 48 84 49 85 57 86
REMARK SMILES IDX 50 87 56 88 51 89 52 90 53 91 54 92 55 93
REMARK H PARENT 13 7 20 30 76 49 46 60
REMARK Flexibility Score: inf
ROOT
ATOM      1  C   UNL A   1      40.031  22.591  27.147  1.00  0.00     0.002 C 
ENDROOT
BRANCH   1   2
ATOM      2  C   UNL A   1      39.031  22.121  26.096  1.00  0.00     0.021 C 
BRANCH   2   3
ATOM      3  C   UNL A   1      37.816  23.007  25.888  1.00  0.00     0.116 C 
BRANCH   3   4
ATOM      4  N   UNL A   1      37.391  23.145  24.530  1.00  0.00    -0.356 N 
ATOM      5  C   UNL A   1      36.156  22.953  24.000  1.00  0.00     0.227 C 
ATOM      6  O   UNL A   1      36.127  22.967  22.762  1.00  0.00    -0.274 OA
ATOM      7  H   UNL A   1      38.089  23.415  23.891  1.00  0.00     0.163 HD
BRANCH   5   8
ATOM      8  C   UNL A   1      34.866  22.651  24.844  1.00  0.00     0.113 C 
BRANCH   8   9
ATOM      9  C   UNL A   1      33.516  23.395  24.505  1.00  0.00     0.059 C 
BRANCH   9  10
ATOM     10  C   UNL A   1      33.570  24.921  24.415  1.00  0.00     0.015 A 
ATOM     11  C   UNL A   1      33.305  25.613  23.233  1.00  0.00     0.216 A 
ATOM     12  N   UNL A   1      33.234  26.961  23.116  1.00  0.00    -0.222 NA
ATOM     13  C   UNL A   1      33.505  27.682  24.225  1.00  0.00     0.115 A 
ATOM     14  C   UNL A   1      33.952  25.724  25.498  1.00  0.00     0.011 A 
ATOM     15  C   UNL A   1      33.896  27.114  25.420  1.00  0.00     0.021 A 
BRANCH  11  16
ATOM     16  O   UNL A   1      33.441  24.926  22.052  1.00  0.00    -0.481 OA
ATOM     17  C   UNL A   1      32.781  25.588  20.992  1.00  0.00     0.280 C 
ENDBRANCH  11  16
ENDBRANCH   9  10
ENDBRANCH   8   9
BRANCH   8  18
ATOM     18  C   UNL A   1      34.614  21.131  24.732  1.00  0.00    -0.035 A 
ATOM     19  C   UNL A   1      35.681  20.228  24.917  1.00  0.00     0.007 A 
ATOM     20  C   UNL A   1      33.339  20.616  24.457  1.00  0.00     0.007 A 
ATOM     21  C   UNL A   1      35.499  18.860  24.731  1.00  0.00     0.039 A 
ATOM     22  C   UNL A   1      33.166  19.247  24.234  1.00  0.00     0.039 A 
ATOM     23  C   UNL A   1      34.251  18.385  24.357  1.00  0.00     0.123 A 
ATOM     24  F   UNL A   1      34.088  17.079  24.108  1.00  0.00    -0.207 F 
ENDBRANCH   8  18
ENDBRANCH   5   8
ENDBRANCH   3   4
ENDBRANCH   2   3
ENDBRANCH   1   2
BRANCH   1  25
ATOM     25  C   UNL A   1      41.451  22.035  27.015  1.00  0.00     0.002 C 
BRANCH  25  26
ATOM     26  C   UNL A   1      42.427  22.429  28.125  1.00  0.00     0.021 C 
BRANCH  26  27
ATOM     27  C   UNL A   1      43.443  23.505  27.753  1.00  0.00     0.116 C 
BRANCH  27  28
ATOM     28  N   UNL A   1      43.171  24.111  26.460  1.00  0.00    -0.352 N 
ATOM     29  C   UNL A   1      42.526  25.286  26.170  1.00  0.00     0.251 C 
ATOM     30  H   UNL A   1      43.498  23.606  25.680  1.00  0.00     0.163 HD
ATOM     31  O   UNL A   1      42.246  25.562  25.004  1.00  0.00    -0.269 OA
BRANCH  29  32
ATOM     32  C   UNL A   1      42.142  26.203  27.263  1.00  0.00     0.039 A 
ATOM     33  C   UNL A   1      41.035  25.888  28.053  1.00  0.00     0.014 A 
ATOM     34  C   UNL A   1      42.883  27.360  27.518  1.00  0.00     0.014 A 
ATOM     35  C   UNL A   1      40.712  26.699  29.143  1.00  0.00     0.010 A 
ATOM     36  C   UNL A   1      42.605  28.124  28.648  1.00  0.00     0.010 A 
ATOM     37  C   UNL A   1      41.517  27.801  29.474  1.00  0.00    -0.014 A 
BRANCH  37  38
ATOM     38  C   UNL A   1      41.249  28.616  30.688  1.00  0.00     0.031 A 
ATOM     39  C   UNL A   1      40.133  29.624  30.693  1.00  0.00     0.074 A 
ATOM     40  C   UNL A   1      42.054  28.494  31.762  1.00  0.00     0.049 A 
ATOM     41  N   UNL A   1      39.790  30.469  31.632  1.00  0.00    -0.248 NA
ATOM     42  C   UNL A   1      39.308  29.713  29.477  1.00  0.00     0.031 C 
ATOM     43  C   UNL A   1      43.193  27.578  31.869  1.00  0.00     0.029 A 
ATOM     44  N   UNL A   1      42.045  29.149  32.969  1.00  0.00    -0.354 N 
ATOM     45  C   UNL A   1      38.723  31.195  31.117  1.00  0.00     0.074 A 
ATOM     46  C   UNL A   1      38.509  30.729  29.765  1.00  0.00     0.031 C 
ATOM     47  C   UNL A   1      43.753  27.709  33.082  1.00  0.00     0.029 A 
ATOM     48  C   UNL A   1      43.048  28.752  33.822  1.00  0.00     0.049 A 
ATOM     49  H   UNL A   1      41.381  29.838  33.202  1.00  0.00     0.167 HD
ATOM     50  C   UNL A   1      37.976  32.151  31.721  1.00  0.00     0.031 A 
ATOM     51  C   UNL A   1      43.375  29.184  35.056  1.00  0.00     0.031 A 
ATOM     52  C   UNL A   1      38.192  32.609  33.068  1.00  0.00     0.049 A 
ATOM     53  C   UNL A   1      42.550  30.268  35.694  1.00  0.00     0.074 A 
ATOM     54  C   UNL A   1      37.458  33.536  33.788  1.00  0.00     0.029 A 
ATOM     55  N   UNL A   1      39.218  32.182  33.897  1.00  0.00    -0.354 N 
ATOM     56  N   UNL A   1      41.502  30.896  35.215  1.00  0.00    -0.248 NA
ATOM     57  C   UNL A   1      42.944  30.695  37.044  1.00  0.00     0.031 C 
ATOM     58  C   UNL A   1      38.078  33.717  35.027  1.00  0.00     0.029 A 
ATOM     59  C   UNL A   1      39.157  32.850  35.109  1.00  0.00     0.049 A 
ATOM     60  H   UNL A   1      39.892  31.505  33.659  1.00  0.00     0.167 HD
ATOM     61  C   UNL A   1      41.095  31.771  36.216  1.00  0.00     0.074 A 
ATOM     62  C   UNL A   1      41.999  31.580  37.331  1.00  0.00     0.031 C 
ATOM     63  C   UNL A   1      40.064  32.652  36.212  1.00  0.00     0.031 A 
BRANCH  50  64
ATOM     64  C   UNL A   1      36.860  32.775  30.922  1.00  0.00    -0.014 A 
ATOM     65  C   UNL A   1      35.535  32.319  31.042  1.00  0.00     0.010 A 
ATOM     66  C   UNL A   1      37.133  33.864  30.074  1.00  0.00     0.010 A 
ATOM     67  C   UNL A   1      34.512  32.910  30.295  1.00  0.00     0.020 A 
ATOM     68  C   UNL A   1      36.107  34.480  29.350  1.00  0.00     0.020 A 
ATOM     69  C   UNL A   1      34.806  33.987  29.453  1.00  0.00     0.054 A 
BRANCH  69  70
ATOM     70  S   UNL A   1      33.453  34.747  28.514  1.00  0.00     0.124 S 
ATOM     71  O   UNL A   1      32.904  33.601  27.796  1.00  0.00    -0.237 OA
ATOM     72  O   UNL A   1      32.602  35.295  29.567  1.00  0.00    -0.237 OA
ATOM     73  O   UNL A   1      34.126  35.740  27.679  1.00  0.00    -0.744 OA
ENDBRANCH  69  70
ENDBRANCH  50  64
BRANCH  51  74
ATOM     74  C   UNL A   1      44.536  28.586  35.771  1.00  0.00    -0.014 A 
ATOM     75  C   UNL A   1      44.367  27.467  36.605  1.00  0.00     0.010 A 
ATOM     76  C   UNL A   1      45.826  29.128  35.612  1.00  0.00     0.010 A 
ATOM     77  C   UNL A   1      45.458  26.914  37.281  1.00  0.00     0.020 A 
ATOM     78  C   UNL A   1      46.925  28.558  36.260  1.00  0.00     0.020 A 
ATOM     79  C   UNL A   1      46.731  27.461  37.102  1.00  0.00     0.054 A 
BRANCH  79  80
ATOM     80  S   UNL A   1      48.141  26.694  37.949  1.00  0.00     0.124 S 
ATOM     81  O   UNL A   1      48.512  25.631  37.020  1.00  0.00    -0.237 OA
ATOM     82  O   UNL A   1      49.085  27.804  38.053  1.00  0.00    -0.237 OA
ATOM     83  O   UNL A   1      47.573  26.247  39.219  1.00  0.00    -0.744 OA
ENDBRANCH  79  80
ENDBRANCH  51  74
BRANCH  63  84
ATOM     84  C   UNL A   1      39.829  33.456  37.464  1.00  0.00    -0.014 A 
ATOM     85  C   UNL A   1      40.369  34.745  37.618  1.00  0.00     0.010 A 
ATOM     86  C   UNL A   1      38.998  32.937  38.474  1.00  0.00     0.010 A 
ATOM     87  C   UNL A   1      40.105  35.489  38.772  1.00  0.00     0.020 A 
ATOM     88  C   UNL A   1      38.705  33.689  39.614  1.00  0.00     0.020 A 
ATOM     89  C   UNL A   1      39.271  34.957  39.761  1.00  0.00     0.054 A 
BRANCH  89  90
ATOM     90  S   UNL A   1      38.898  35.966  41.221  1.00  0.00     0.124 S 
ATOM     91  O   UNL A   1      37.633  35.391  41.672  1.00  0.00    -0.237 OA
ATOM     92  O   UNL A   1      40.047  35.712  42.085  1.00  0.00    -0.237 OA
ATOM     93  O   UNL A   1      38.811  37.325  40.691  1.00  0.00    -0.744 OA
ENDBRANCH  89  90
ENDBRANCH  63  84
ENDBRANCH  37  38
ENDBRANCH  29  32
ENDBRANCH  27  28
ENDBRANCH  26  27
ENDBRANCH  25  26
ENDBRANCH   1  25
TORSDOF 20
ENDMDL
