MODEL 1
REMARK VINA RESULT:     -11.2      0.000      0.000
REMARK SMILES Cc1ccc2cc(C[N@H+]3CC[NH2+][C@H](C(=O)NCCCCCCNC(=O)c4ccc(-c5c6nc(c(-c7ccc(S(=O)(=O)[O-])cc7)c7ccc([nH]7)c(-c7ccc(S(=O)(=O)[O-])cc7)c7nc(c(-c8ccc(S(=O)(=O)[O-])cc8)c8ccc5[nH]8)C=C7)C=C6)cc4)C3)c(N3CCOCC3)nc2c1
REMARK SMILES IDX 19 1 18 2 17 3 16 4 14 5 15 6 13 8 9 9 10 10 86 11 11 13
REMARK SMILES IDX 12 14 8 17 7 18 1 19 2 20 3 21 96 22 4 23 95 24 5 25 94 26
REMARK SMILES IDX 6 27 87 28 88 29 89 30 93 31 90 32 92 33 91 34 20 35 21 36
REMARK SMILES IDX 22 37 23 38 24 39 25 41 26 42 27 43 85 44 28 45 84 46 29 47
REMARK SMILES IDX 30 48 31 49 78 50 32 51 83 52 77 53 79 54 33 55 82 56 76 57
REMARK SMILES IDX 75 58 34 60 64 61 45 62 63 63 46 64 49 65 62 66 80 67 47 68
REMARK SMILES IDX 48 69 61 71 81 72 50 73 35 74 36 75 44 76 37 77 43 78 38 79
REMARK SMILES IDX 39 80 40 81 41 82 42 83 65 84 66 85 74 86 67 87 73 88 68 89
REMARK SMILES IDX 69 90 70 91 71 92 72 93 51 94 52 95 60 96 53 97 59 98 54 99
REMARK SMILES IDX 55 100 56 101 57 102 58 103
REMARK H PARENT 16 7 9 12 12 15 12 16 23 40 79 59 49 70
REMARK Flexibility Score: inf
ROOT
ATOM      1  C   UNL A   1      36.434  23.351  24.200  1.00  0.00     0.002 C 
ENDROOT
BRANCH   1   2
ATOM      2  C   UNL A   1      35.977  23.992  25.516  1.00  0.00     0.021 C 
BRANCH   2   3
ATOM      3  C   UNL A   1      34.514  23.822  25.938  1.00  0.00     0.116 C 
BRANCH   3   4
ATOM      4  N   UNL A   1      33.664  22.861  25.238  1.00  0.00    -0.351 N 
ATOM      5  C   UNL A   1      32.730  23.077  24.220  1.00  0.00     0.284 C 
ATOM      6  O   UNL A   1      32.111  22.103  23.784  1.00  0.00    -0.268 OA
ATOM      7  H   UNL A   1      33.762  21.925  25.525  1.00  0.00     0.163 HD
BRANCH   5   8
ATOM      8  C   UNL A   1      32.504  24.509  23.666  1.00  0.00     0.328 C 
ATOM      9  N   UNL A   1      30.732  26.119  22.732  1.00  0.00    -0.321 N 
ATOM     10  C   UNL A   1      31.807  26.767  21.973  1.00  0.00     0.324 C 
ATOM     11  C   UNL A   1      31.065  24.737  23.133  1.00  0.00     0.339 C 
ATOM     12  H   UNL A   1      29.967  25.964  22.075  1.00  0.00     0.348 HD
ATOM     13  C   UNL A   1      33.254  26.437  22.433  1.00  0.00     0.323 C 
ATOM     14  N   UNL A   1      33.525  24.997  22.693  1.00  0.00    -0.327 N 
ATOM     15  H   UNL A   1      34.460  24.885  23.085  1.00  0.00     0.347 HD
ATOM     16  H   UNL A   1      33.475  24.462  21.826  1.00  0.00     0.347 HD
BRANCH   9  17
ATOM     17  C   UNL A   1      29.976  26.986  23.673  1.00  0.00     0.303 C 
BRANCH  17  18
ATOM     18  C   UNL A   1      30.735  28.027  24.470  1.00  0.00     0.049 A 
ATOM     19  C   UNL A   1      35.476  30.483  28.216  1.00  0.00     0.044 C 
ATOM     20  C   UNL A   1      34.560  29.778  27.263  1.00  0.00    -0.049 A 
ATOM     21  C   UNL A   1      34.748  28.413  27.123  1.00  0.00     0.004 A 
ATOM     22  C   UNL A   1      33.488  30.414  26.576  1.00  0.00     0.032 A 
ATOM     23  C   UNL A   1      33.796  27.696  26.447  1.00  0.00     0.010 A 
ATOM     24  C   UNL A   1      32.537  29.704  25.810  1.00  0.00     0.073 A 
ATOM     25  C   UNL A   1      32.671  28.331  25.895  1.00  0.00     0.001 A 
ATOM     26  N   UNL A   1      31.511  30.229  25.058  1.00  0.00    -0.230 NA
ATOM     27  C   UNL A   1      31.639  27.573  25.392  1.00  0.00     0.023 A 
ATOM     28  C   UNL A   1      30.641  29.406  24.378  1.00  0.00     0.138 A 
BRANCH  28  29
ATOM     29  N   UNL A   1      29.670  29.969  23.591  1.00  0.00    -0.352 N 
ATOM     30  C   UNL A   1      29.147  31.319  23.799  1.00  0.00     0.146 C 
ATOM     31  C   UNL A   1      29.215  29.287  22.393  1.00  0.00     0.146 C 
ATOM     32  C   UNL A   1      27.608  31.308  23.675  1.00  0.00     0.181 C 
ATOM     33  C   UNL A   1      27.677  29.271  22.453  1.00  0.00     0.181 C 
ATOM     34  O   UNL A   1      27.143  30.610  22.506  1.00  0.00    -0.378 OA
ENDBRANCH  28  29
ENDBRANCH  17  18
ENDBRANCH   9  17
ENDBRANCH   5   8
ENDBRANCH   3   4
ENDBRANCH   2   3
ENDBRANCH   1   2
BRANCH   1  35
ATOM     35  C   UNL A   1      37.103  21.969  24.247  1.00  0.00     0.002 C 
BRANCH  35  36
ATOM     36  C   UNL A   1      37.633  21.452  25.589  1.00  0.00     0.021 C 
BRANCH  36  37
ATOM     37  C   UNL A   1      39.094  21.737  25.939  1.00  0.00     0.116 C 
BRANCH  37  38
ATOM     38  N   UNL A   1      39.862  20.564  26.335  1.00  0.00    -0.352 N 
ATOM     39  C   UNL A   1      41.162  20.460  26.780  1.00  0.00     0.251 C 
ATOM     40  H   UNL A   1      39.375  19.711  26.276  1.00  0.00     0.163 HD
ATOM     41  O   UNL A   1      41.633  19.347  27.016  1.00  0.00    -0.269 OA
BRANCH  39  42
ATOM     42  C   UNL A   1      42.015  21.663  26.933  1.00  0.00     0.039 A 
ATOM     43  C   UNL A   1      42.602  21.986  28.156  1.00  0.00     0.014 A 
ATOM     44  C   UNL A   1      42.222  22.494  25.826  1.00  0.00     0.014 A 
ATOM     45  C   UNL A   1      43.232  23.219  28.320  1.00  0.00     0.010 A 
ATOM     46  C   UNL A   1      42.926  23.696  25.972  1.00  0.00     0.010 A 
ATOM     47  C   UNL A   1      43.388  24.098  27.235  1.00  0.00    -0.014 A 
BRANCH  47  48
ATOM     48  C   UNL A   1      44.007  25.436  27.446  1.00  0.00     0.031 A 
ATOM     49  C   UNL A   1      43.247  26.527  28.163  1.00  0.00     0.074 A 
ATOM     50  C   UNL A   1      45.279  25.653  27.052  1.00  0.00     0.049 A 
ATOM     51  N   UNL A   1      43.635  27.743  28.453  1.00  0.00    -0.248 NA
ATOM     52  C   UNL A   1      41.880  26.217  28.617  1.00  0.00     0.031 C 
ATOM     53  C   UNL A   1      46.132  24.666  26.386  1.00  0.00     0.029 A 
ATOM     54  N   UNL A   1      46.090  26.755  27.181  1.00  0.00    -0.354 N 
ATOM     55  C   UNL A   1      42.563  28.344  29.105  1.00  0.00     0.074 A 
ATOM     56  C   UNL A   1      41.494  27.372  29.144  1.00  0.00     0.031 C 
ATOM     57  C   UNL A   1      47.360  25.181  26.227  1.00  0.00     0.029 A 
ATOM     58  C   UNL A   1      47.369  26.559  26.707  1.00  0.00     0.049 A 
ATOM     59  H   UNL A   1      45.786  27.605  27.575  1.00  0.00     0.167 HD
ATOM     60  C   UNL A   1      42.486  29.586  29.639  1.00  0.00     0.031 A 
ATOM     61  C   UNL A   1      48.429  27.391  26.655  1.00  0.00     0.031 A 
ATOM     62  C   UNL A   1      43.567  30.537  29.627  1.00  0.00     0.049 A 
ATOM     63  C   UNL A   1      48.288  28.790  27.191  1.00  0.00     0.074 A 
ATOM     64  C   UNL A   1      43.585  31.812  30.168  1.00  0.00     0.029 A 
ATOM     65  N   UNL A   1      44.816  30.324  29.065  1.00  0.00    -0.354 N 
ATOM     66  N   UNL A   1      47.267  29.333  27.812  1.00  0.00    -0.248 NA
ATOM     67  C   UNL A   1      49.437  29.691  27.020  1.00  0.00     0.031 C 
ATOM     68  C   UNL A   1      44.815  32.397  29.867  1.00  0.00     0.029 A 
ATOM     69  C   UNL A   1      45.597  31.457  29.215  1.00  0.00     0.049 A 
ATOM     70  H   UNL A   1      45.104  29.493  28.624  1.00  0.00     0.167 HD
ATOM     71  C   UNL A   1      47.661  30.628  28.127  1.00  0.00     0.074 A 
ATOM     72  C   UNL A   1      49.018  30.783  27.648  1.00  0.00     0.031 C 
ATOM     73  C   UNL A   1      46.955  31.600  28.753  1.00  0.00     0.031 A 
BRANCH  60  74
ATOM     74  C   UNL A   1      41.205  30.021  30.307  1.00  0.00    -0.014 A 
ATOM     75  C   UNL A   1      40.837  29.447  31.540  1.00  0.00     0.010 A 
ATOM     76  C   UNL A   1      40.282  30.837  29.631  1.00  0.00     0.010 A 
ATOM     77  C   UNL A   1      39.550  29.629  32.052  1.00  0.00     0.020 A 
ATOM     78  C   UNL A   1      39.003  31.045  30.155  1.00  0.00     0.020 A 
ATOM     79  C   UNL A   1      38.634  30.412  31.346  1.00  0.00     0.054 A 
BRANCH  79  80
ATOM     80  S   UNL A   1      36.939  30.558  31.979  1.00  0.00     0.124 S 
ATOM     81  O   UNL A   1      36.338  29.301  31.543  1.00  0.00    -0.237 OA
ATOM     82  O   UNL A   1      37.149  30.692  33.419  1.00  0.00    -0.237 OA
ATOM     83  O   UNL A   1      36.430  31.757  31.319  1.00  0.00    -0.744 OA
ENDBRANCH  79  80
ENDBRANCH  60  74
BRANCH  61  84
ATOM     84  C   UNL A   1      49.723  26.910  26.091  1.00  0.00    -0.014 A 
ATOM     85  C   UNL A   1      50.706  26.346  26.926  1.00  0.00     0.010 A 
ATOM     86  C   UNL A   1      49.997  27.051  24.718  1.00  0.00     0.010 A 
ATOM     87  C   UNL A   1      51.953  25.980  26.412  1.00  0.00     0.020 A 
ATOM     88  C   UNL A   1      51.230  26.651  24.193  1.00  0.00     0.020 A 
ATOM     89  C   UNL A   1      52.210  26.143  25.049  1.00  0.00     0.054 A 
BRANCH  89  90
ATOM     90  S   UNL A   1      53.842  25.679  24.409  1.00  0.00     0.124 S 
ATOM     91  O   UNL A   1      53.890  24.252  24.718  1.00  0.00    -0.237 OA
ATOM     92  O   UNL A   1      53.735  26.012  22.991  1.00  0.00    -0.237 OA
ATOM     93  O   UNL A   1      54.761  26.516  25.174  1.00  0.00    -0.744 OA
ENDBRANCH  89  90
ENDBRANCH  61  84
BRANCH  73  94
ATOM     94  C   UNL A   1      47.619  32.932  28.988  1.00  0.00    -0.014 A 
ATOM     95  C   UNL A   1      48.423  33.118  30.130  1.00  0.00     0.010 A 
ATOM     96  C   UNL A   1      47.327  34.038  28.171  1.00  0.00     0.010 A 
ATOM     97  C   UNL A   1      48.881  34.391  30.478  1.00  0.00     0.020 A 
ATOM     98  C   UNL A   1      47.812  35.308  28.498  1.00  0.00     0.020 A 
ATOM     99  C   UNL A   1      48.561  35.480  29.664  1.00  0.00     0.054 A 
BRANCH  99 100
ATOM    100  S   UNL A   1      49.117  37.132  30.163  1.00  0.00     0.124 S 
ATOM    101  O   UNL A   1      47.864  37.779  30.542  1.00  0.00    -0.237 OA
ATOM    102  O   UNL A   1      50.037  36.844  31.261  1.00  0.00    -0.237 OA
ATOM    103  O   UNL A   1      49.750  37.660  28.955  1.00  0.00    -0.744 OA
ENDBRANCH  99 100
ENDBRANCH  73  94
ENDBRANCH  47  48
ENDBRANCH  39  42
ENDBRANCH  37  38
ENDBRANCH  36  37
ENDBRANCH  35  36
ENDBRANCH   1  35
TORSDOF 19
ENDMDL
MODEL 2
REMARK VINA RESULT:     -11.1      5.788     10.278
REMARK SMILES Cc1ccc2cc(C[N@H+]3CC[NH2+][C@H](C(=O)NCCCCCCNC(=O)c4ccc(-c5c6nc(c(-c7ccc(S(=O)(=O)[O-])cc7)c7ccc([nH]7)c(-c7ccc(S(=O)(=O)[O-])cc7)c7nc(c(-c8ccc(S(=O)(=O)[O-])cc8)c8ccc5[nH]8)C=C7)C=C6)cc4)C3)c(N3CCOCC3)nc2c1
REMARK SMILES IDX 19 1 18 2 17 3 16 4 14 5 15 6 13 8 9 9 10 10 86 11 11 13
REMARK SMILES IDX 12 14 8 17 7 18 1 19 2 20 3 21 96 22 4 23 95 24 5 25 94 26
REMARK SMILES IDX 6 27 87 28 88 29 89 30 93 31 90 32 92 33 91 34 20 35 21 36
REMARK SMILES IDX 22 37 23 38 24 39 25 41 26 42 27 43 85 44 28 45 84 46 29 47
REMARK SMILES IDX 30 48 31 49 78 50 32 51 83 52 77 53 79 54 33 55 82 56 76 57
REMARK SMILES IDX 75 58 34 60 64 61 45 62 63 63 46 64 49 65 62 66 80 67 47 68
REMARK SMILES IDX 48 69 61 71 81 72 50 73 35 74 36 75 44 76 37 77 43 78 38 79
REMARK SMILES IDX 39 80 40 81 41 82 42 83 65 84 66 85 74 86 67 87 73 88 68 89
REMARK SMILES IDX 69 90 70 91 71 92 72 93 51 94 52 95 60 96 53 97 59 98 54 99
REMARK SMILES IDX 55 100 56 101 57 102 58 103
REMARK H PARENT 16 7 9 12 12 15 12 16 23 40 79 59 49 70
REMARK Flexibility Score: inf
ROOT
ATOM      1  C   UNL A   1      38.160  22.221  26.079  1.00  0.00     0.002 C 
ENDROOT
BRANCH   1   2
ATOM      2  C   UNL A   1      37.319  21.627  24.943  1.00  0.00     0.021 C 
BRANCH   2   3
ATOM      3  C   UNL A   1      35.866  21.242  25.238  1.00  0.00     0.116 C 
BRANCH   3   4
ATOM      4  N   UNL A   1      35.283  21.557  26.540  1.00  0.00    -0.351 N 
ATOM      5  C   UNL A   1      34.127  22.283  26.846  1.00  0.00     0.284 C 
ATOM      6  O   UNL A   1      33.834  22.434  28.034  1.00  0.00    -0.268 OA
ATOM      7  H   UNL A   1      35.775  21.207  27.318  1.00  0.00     0.163 HD
BRANCH   5   8
ATOM      8  C   UNL A   1      33.253  22.864  25.702  1.00  0.00     0.328 C 
ATOM      9  N   UNL A   1      31.902  24.922  24.963  1.00  0.00    -0.321 N 
ATOM     10  C   UNL A   1      31.062  24.012  24.174  1.00  0.00     0.324 C 
ATOM     11  C   UNL A   1      32.620  24.236  26.056  1.00  0.00     0.339 C 
ATOM     12  H   UNL A   1      31.264  25.526  25.482  1.00  0.00     0.348 HD
ATOM     13  C   UNL A   1      31.648  22.594  23.927  1.00  0.00     0.323 C 
ATOM     14  N   UNL A   1      32.241  21.934  25.123  1.00  0.00    -0.327 N 
ATOM     15  H   UNL A   1      32.689  21.060  24.851  1.00  0.00     0.347 HD
ATOM     16  H   UNL A   1      31.516  21.723  25.810  1.00  0.00     0.347 HD
BRANCH   9  17
ATOM     17  C   UNL A   1      32.587  26.004  24.209  1.00  0.00     0.303 C 
BRANCH  17  18
ATOM     18  C   UNL A   1      31.945  27.375  24.162  1.00  0.00     0.049 A 
ATOM     19  C   UNL A   1      27.518  31.915  22.637  1.00  0.00     0.044 C 
ATOM     20  C   UNL A   1      28.348  30.720  22.994  1.00  0.00    -0.049 A 
ATOM     21  C   UNL A   1      28.023  29.532  22.359  1.00  0.00     0.004 A 
ATOM     22  C   UNL A   1      29.470  30.765  23.869  1.00  0.00     0.032 A 
ATOM     23  C   UNL A   1      28.891  28.478  22.477  1.00  0.00     0.010 A 
ATOM     24  C   UNL A   1      30.336  29.667  24.066  1.00  0.00     0.073 A 
ATOM     25  C   UNL A   1      30.067  28.594  23.237  1.00  0.00     0.001 A 
ATOM     26  N   UNL A   1      31.400  29.589  24.935  1.00  0.00    -0.230 NA
ATOM     27  C   UNL A   1      31.012  27.595  23.186  1.00  0.00     0.023 A 
ATOM     28  C   UNL A   1      32.175  28.452  25.002  1.00  0.00     0.138 A 
BRANCH  28  29
ATOM     29  N   UNL A   1      33.187  28.390  25.923  1.00  0.00    -0.352 N 
ATOM     30  C   UNL A   1      32.970  28.110  27.342  1.00  0.00     0.146 C 
ATOM     31  C   UNL A   1      34.573  28.451  25.492  1.00  0.00     0.146 C 
ATOM     32  C   UNL A   1      33.813  29.076  28.201  1.00  0.00     0.181 C 
ATOM     33  C   UNL A   1      35.260  29.514  26.368  1.00  0.00     0.181 C 
ATOM     34  O   UNL A   1      35.182  29.169  27.766  1.00  0.00    -0.378 OA
ENDBRANCH  28  29
ENDBRANCH  17  18
ENDBRANCH   9  17
ENDBRANCH   5   8
ENDBRANCH   3   4
ENDBRANCH   2   3
ENDBRANCH   1   2
BRANCH   1  35
ATOM     35  C   UNL A   1      39.662  21.902  26.128  1.00  0.00     0.002 C 
BRANCH  35  36
ATOM     36  C   UNL A   1      40.466  22.327  27.362  1.00  0.00     0.021 C 
BRANCH  36  37
ATOM     37  C   UNL A   1      41.786  23.065  27.137  1.00  0.00     0.116 C 
BRANCH  37  38
ATOM     38  N   UNL A   1      41.750  24.056  26.070  1.00  0.00    -0.352 N 
ATOM     39  C   UNL A   1      41.617  25.426  26.132  1.00  0.00     0.251 C 
ATOM     40  H   UNL A   1      41.834  23.690  25.160  1.00  0.00     0.163 HD
ATOM     41  O   UNL A   1      41.560  26.077  25.088  1.00  0.00    -0.269 OA
BRANCH  39  42
ATOM     42  C   UNL A   1      41.494  26.123  27.435  1.00  0.00     0.039 A 
ATOM     43  C   UNL A   1      40.426  25.868  28.296  1.00  0.00     0.014 A 
ATOM     44  C   UNL A   1      42.466  27.062  27.799  1.00  0.00     0.014 A 
ATOM     45  C   UNL A   1      40.230  26.674  29.417  1.00  0.00     0.010 A 
ATOM     46  C   UNL A   1      42.310  27.817  28.969  1.00  0.00     0.010 A 
ATOM     47  C   UNL A   1      41.160  27.671  29.759  1.00  0.00    -0.014 A 
BRANCH  47  48
ATOM     48  C   UNL A   1      40.898  28.562  30.923  1.00  0.00     0.031 A 
ATOM     49  C   UNL A   1      41.792  28.515  32.139  1.00  0.00     0.074 A 
ATOM     50  C   UNL A   1      39.894  29.462  30.863  1.00  0.00     0.049 A 
ATOM     51  N   UNL A   1      41.726  29.229  33.235  1.00  0.00    -0.248 NA
ATOM     52  C   UNL A   1      42.903  27.548  32.129  1.00  0.00     0.031 C 
ATOM     53  C   UNL A   1      38.987  29.633  29.726  1.00  0.00     0.029 A 
ATOM     54  N   UNL A   1      39.488  30.424  31.756  1.00  0.00    -0.354 N 
ATOM     55  C   UNL A   1      42.771  28.792  34.043  1.00  0.00     0.074 A 
ATOM     56  C   UNL A   1      43.440  27.728  33.330  1.00  0.00     0.031 C 
ATOM     57  C   UNL A   1      38.179  30.678  29.961  1.00  0.00     0.029 A 
ATOM     58  C   UNL A   1      38.452  31.206  31.293  1.00  0.00     0.049 A 
ATOM     59  H   UNL A   1      39.897  30.542  32.644  1.00  0.00     0.167 HD
ATOM     60  C   UNL A   1      43.147  29.250  35.260  1.00  0.00     0.031 A 
ATOM     61  C   UNL A   1      37.791  32.229  31.873  1.00  0.00     0.031 A 
ATOM     62  C   UNL A   1      42.497  30.334  35.951  1.00  0.00     0.049 A 
ATOM     63  C   UNL A   1      38.186  32.666  33.257  1.00  0.00     0.074 A 
ATOM     64  C   UNL A   1      42.828  30.881  37.179  1.00  0.00     0.029 A 
ATOM     65  N   UNL A   1      41.403  31.042  35.479  1.00  0.00    -0.354 N 
ATOM     66  N   UNL A   1      39.182  32.243  33.998  1.00  0.00    -0.248 NA
ATOM     67  C   UNL A   1      37.370  33.714  33.886  1.00  0.00     0.031 C 
ATOM     68  C   UNL A   1      41.891  31.867  37.484  1.00  0.00     0.029 A 
ATOM     69  C   UNL A   1      41.026  31.997  36.409  1.00  0.00     0.049 A 
ATOM     70  H   UNL A   1      40.960  30.890  34.614  1.00  0.00     0.167 HD
ATOM     71  C   UNL A   1      39.128  32.991  35.168  1.00  0.00     0.074 A 
ATOM     72  C   UNL A   1      38.015  33.906  35.031  1.00  0.00     0.031 C 
ATOM     73  C   UNL A   1      39.928  32.919  36.259  1.00  0.00     0.031 A 
BRANCH  60  74
ATOM     74  C   UNL A   1      44.326  28.613  35.953  1.00  0.00    -0.014 A 
ATOM     75  C   UNL A   1      44.104  27.635  36.943  1.00  0.00     0.010 A 
ATOM     76  C   UNL A   1      45.626  29.116  35.769  1.00  0.00     0.010 A 
ATOM     77  C   UNL A   1      45.145  27.220  37.777  1.00  0.00     0.020 A 
ATOM     78  C   UNL A   1      46.676  28.681  36.584  1.00  0.00     0.020 A 
ATOM     79  C   UNL A   1      46.421  27.761  37.605  1.00  0.00     0.054 A 
BRANCH  79  80
ATOM     80  S   UNL A   1      47.736  27.280  38.760  1.00  0.00     0.124 S 
ATOM     81  O   UNL A   1      47.206  27.740  40.039  1.00  0.00    -0.237 OA
ATOM     82  O   UNL A   1      47.797  25.831  38.585  1.00  0.00    -0.237 OA
ATOM     83  O   UNL A   1      48.905  28.007  38.268  1.00  0.00    -0.744 OA
ENDBRANCH  79  80
ENDBRANCH  60  74
BRANCH  61  84
ATOM     84  C   UNL A   1      36.698  32.921  31.130  1.00  0.00    -0.014 A 
ATOM     85  C   UNL A   1      35.348  32.625  31.396  1.00  0.00     0.010 A 
ATOM     86  C   UNL A   1      37.003  33.854  30.122  1.00  0.00     0.010 A 
ATOM     87  C   UNL A   1      34.328  33.205  30.638  1.00  0.00     0.020 A 
ATOM     88  C   UNL A   1      35.983  34.466  29.386  1.00  0.00     0.020 A 
ATOM     89  C   UNL A   1      34.653  34.117  29.631  1.00  0.00     0.054 A 
BRANCH  89  90
ATOM     90  S   UNL A   1      33.313  34.843  28.647  1.00  0.00     0.124 S 
ATOM     91  O   UNL A   1      32.346  35.204  29.680  1.00  0.00    -0.237 OA
ATOM     92  O   UNL A   1      33.975  35.963  27.985  1.00  0.00    -0.237 OA
ATOM     93  O   UNL A   1      32.907  33.753  27.765  1.00  0.00    -0.744 OA
ENDBRANCH  89  90
ENDBRANCH  61  84
BRANCH  73  94
ATOM     94  C   UNL A   1      39.665  33.858  37.408  1.00  0.00    -0.014 A 
ATOM     95  C   UNL A   1      40.382  35.067  37.496  1.00  0.00     0.010 A 
ATOM     96  C   UNL A   1      38.829  33.480  38.472  1.00  0.00     0.010 A 
ATOM     97  C   UNL A   1      40.307  35.855  38.647  1.00  0.00     0.020 A 
ATOM     98  C   UNL A   1      38.725  34.283  39.612  1.00  0.00     0.020 A 
ATOM     99  C   UNL A   1      39.488  35.450  39.703  1.00  0.00     0.054 A 
BRANCH  99 100
ATOM    100  S   UNL A   1      39.447  36.457  41.211  1.00  0.00     0.124 S 
ATOM    101  O   UNL A   1      38.902  37.721  40.723  1.00  0.00    -0.237 OA
ATOM    102  O   UNL A   1      38.568  35.687  42.088  1.00  0.00    -0.237 OA
ATOM    103  O   UNL A   1      40.847  36.503  41.631  1.00  0.00    -0.744 OA
ENDBRANCH  99 100
ENDBRANCH  73  94
ENDBRANCH  47  48
ENDBRANCH  39  42
ENDBRANCH  37  38
ENDBRANCH  36  37
ENDBRANCH  35  36
ENDBRANCH   1  35
TORSDOF 19
ENDMDL
MODEL 3
REMARK VINA RESULT:     -11.0      5.342     10.699
REMARK SMILES Cc1ccc2cc(C[N@H+]3CC[NH2+][C@H](C(=O)NCCCCCCNC(=O)c4ccc(-c5c6nc(c(-c7ccc(S(=O)(=O)[O-])cc7)c7ccc([nH]7)c(-c7ccc(S(=O)(=O)[O-])cc7)c7nc(c(-c8ccc(S(=O)(=O)[O-])cc8)c8ccc5[nH]8)C=C7)C=C6)cc4)C3)c(N3CCOCC3)nc2c1
REMARK SMILES IDX 19 1 18 2 17 3 16 4 14 5 15 6 13 8 9 9 10 10 86 11 11 13
REMARK SMILES IDX 12 14 8 17 7 18 1 19 2 20 3 21 96 22 4 23 95 24 5 25 94 26
REMARK SMILES IDX 6 27 87 28 88 29 89 30 93 31 90 32 92 33 91 34 20 35 21 36
REMARK SMILES IDX 22 37 23 38 24 39 25 41 26 42 27 43 85 44 28 45 84 46 29 47
REMARK SMILES IDX 30 48 31 49 78 50 32 51 83 52 77 53 79 54 33 55 82 56 76 57
REMARK SMILES IDX 75 58 34 60 64 61 45 62 63 63 46 64 49 65 62 66 80 67 47 68
REMARK SMILES IDX 48 69 61 71 81 72 50 73 35 74 36 75 44 76 37 77 43 78 38 79
REMARK SMILES IDX 39 80 40 81 41 82 42 83 65 84 66 85 74 86 67 87 73 88 68 89
REMARK SMILES IDX 69 90 70 91 71 92 72 93 51 94 52 95 60 96 53 97 59 98 54 99
REMARK SMILES IDX 55 100 56 101 57 102 58 103
REMARK H PARENT 16 7 9 12 12 15 12 16 23 40 79 59 49 70
REMARK Flexibility Score: inf
ROOT
ATOM      1  C   UNL A   1      40.949  24.904  27.361  1.00  0.00     0.002 C 
ENDROOT
BRANCH   1   2
ATOM      2  C   UNL A   1      40.639  23.440  27.032  1.00  0.00     0.021 C 
BRANCH   2   3
ATOM      3  C   UNL A   1      39.273  23.104  26.425  1.00  0.00     0.116 C 
BRANCH   3   4
ATOM      4  N   UNL A   1      39.055  21.796  25.809  1.00  0.00    -0.351 N 
ATOM      5  C   UNL A   1      37.870  21.222  25.336  1.00  0.00     0.284 C 
ATOM      6  O   UNL A   1      37.926  20.085  24.861  1.00  0.00    -0.268 OA
ATOM      7  H   UNL A   1      39.859  21.237  25.713  1.00  0.00     0.163 HD
BRANCH   5   8
ATOM      8  C   UNL A   1      36.540  22.018  25.411  1.00  0.00     0.328 C 
ATOM      9  N   UNL A   1      34.903  23.458  24.050  1.00  0.00    -0.321 N 
ATOM     10  C   UNL A   1      34.542  24.127  25.306  1.00  0.00     0.324 C 
ATOM     11  C   UNL A   1      36.225  22.802  24.110  1.00  0.00     0.339 C 
ATOM     12  H   UNL A   1      35.070  24.197  23.367  1.00  0.00     0.348 HD
ATOM     13  C   UNL A   1      34.971  23.398  26.609  1.00  0.00     0.323 C 
ATOM     14  N   UNL A   1      36.366  22.879  26.618  1.00  0.00    -0.327 N 
ATOM     15  H   UNL A   1      36.528  22.330  27.461  1.00  0.00     0.347 HD
ATOM     16  H   UNL A   1      37.034  23.651  26.604  1.00  0.00     0.347 HD
BRANCH   9  17
ATOM     17  C   UNL A   1      33.794  22.795  23.317  1.00  0.00     0.303 C 
BRANCH  17  18
ATOM     18  C   UNL A   1      33.193  21.532  23.898  1.00  0.00     0.049 A 
ATOM     19  C   UNL A   1      32.901  15.285  25.752  1.00  0.00     0.044 C 
ATOM     20  C   UNL A   1      33.202  16.707  25.385  1.00  0.00    -0.049 A 
ATOM     21  C   UNL A   1      34.399  16.933  24.725  1.00  0.00     0.004 A 
ATOM     22  C   UNL A   1      32.305  17.790  25.607  1.00  0.00     0.032 A 
ATOM     23  C   UNL A   1      34.607  18.169  24.170  1.00  0.00     0.010 A 
ATOM     24  C   UNL A   1      32.535  19.092  25.110  1.00  0.00     0.073 A 
ATOM     25  C   UNL A   1      33.641  19.183  24.285  1.00  0.00     0.001 A 
ATOM     26  N   UNL A   1      31.770  20.215  25.325  1.00  0.00    -0.230 NA
ATOM     27  C   UNL A   1      33.784  20.344  23.562  1.00  0.00     0.023 A 
ATOM     28  C   UNL A   1      32.107  21.421  24.752  1.00  0.00     0.138 A 
BRANCH  28  29
ATOM     29  N   UNL A   1      31.354  22.528  25.040  1.00  0.00    -0.352 N 
ATOM     30  C   UNL A   1      30.835  23.438  24.019  1.00  0.00     0.146 C 
ATOM     31  C   UNL A   1      30.899  22.770  26.397  1.00  0.00     0.146 C 
ATOM     32  C   UNL A   1      31.051  24.901  24.462  1.00  0.00     0.181 C 
ATOM     33  C   UNL A   1      31.264  24.228  26.731  1.00  0.00     0.181 C 
ATOM     34  O   UNL A   1      30.631  25.146  25.816  1.00  0.00    -0.378 OA
ENDBRANCH  28  29
ENDBRANCH  17  18
ENDBRANCH   9  17
ENDBRANCH   5   8
ENDBRANCH   3   4
ENDBRANCH   2   3
ENDBRANCH   1   2
BRANCH   1  35
ATOM     35  C   UNL A   1      41.520  25.803  26.254  1.00  0.00     0.002 C 
BRANCH  35  36
ATOM     36  C   UNL A   1      42.577  25.223  25.305  1.00  0.00     0.021 C 
BRANCH  36  37
ATOM     37  C   UNL A   1      43.931  25.929  25.225  1.00  0.00     0.116 C 
BRANCH  37  38
ATOM     38  N   UNL A   1      44.992  25.291  25.992  1.00  0.00    -0.352 N 
ATOM     39  C   UNL A   1      45.357  25.453  27.311  1.00  0.00     0.251 C 
ATOM     40  H   UNL A   1      45.533  24.640  25.490  1.00  0.00     0.163 HD
ATOM     41  O   UNL A   1      46.332  24.841  27.749  1.00  0.00    -0.269 OA
BRANCH  39  42
ATOM     42  C   UNL A   1      44.625  26.391  28.196  1.00  0.00     0.039 A 
ATOM     43  C   UNL A   1      44.781  27.772  28.079  1.00  0.00     0.014 A 
ATOM     44  C   UNL A   1      43.769  25.872  29.175  1.00  0.00     0.014 A 
ATOM     45  C   UNL A   1      44.237  28.616  29.046  1.00  0.00     0.010 A 
ATOM     46  C   UNL A   1      43.157  26.730  30.098  1.00  0.00     0.010 A 
ATOM     47  C   UNL A   1      43.432  28.106  30.078  1.00  0.00    -0.014 A 
BRANCH  47  48
ATOM     48  C   UNL A   1      42.914  29.018  31.136  1.00  0.00     0.031 A 
ATOM     49  C   UNL A   1      43.727  29.289  32.379  1.00  0.00     0.074 A 
ATOM     50  C   UNL A   1      41.739  29.656  30.950  1.00  0.00     0.049 A 
ATOM     51  N   UNL A   1      43.443  30.067  33.392  1.00  0.00    -0.248 NA
ATOM     52  C   UNL A   1      45.025  28.604  32.504  1.00  0.00     0.031 C 
ATOM     53  C   UNL A   1      40.880  29.509  29.773  1.00  0.00     0.029 A 
ATOM     54  N   UNL A   1      41.079  30.578  31.726  1.00  0.00    -0.354 N 
ATOM     55  C   UNL A   1      44.513  29.956  34.275  1.00  0.00     0.074 A 
ATOM     56  C   UNL A   1      45.441  29.011  33.697  1.00  0.00     0.031 C 
ATOM     57  C   UNL A   1      39.847  30.360  29.873  1.00  0.00     0.029 A 
ATOM     58  C   UNL A   1      39.922  31.057  31.152  1.00  0.00     0.049 A 
ATOM     59  H   UNL A   1      41.402  30.868  32.610  1.00  0.00     0.167 HD
ATOM     60  C   UNL A   1      44.709  30.598  35.450  1.00  0.00     0.031 A 
ATOM     61  C   UNL A   1      39.018  31.951  31.602  1.00  0.00     0.031 A 
ATOM     62  C   UNL A   1      43.796  31.565  36.004  1.00  0.00     0.049 A 
ATOM     63  C   UNL A   1      39.229  32.593  32.946  1.00  0.00     0.074 A 
ATOM     64  C   UNL A   1      43.928  32.284  37.180  1.00  0.00     0.029 A 
ATOM     65  N   UNL A   1      42.600  31.958  35.427  1.00  0.00    -0.354 N 
ATOM     66  N   UNL A   1      40.252  32.479  33.759  1.00  0.00    -0.248 NA
ATOM     67  C   UNL A   1      38.166  33.482  33.438  1.00  0.00     0.031 C 
ATOM     68  C   UNL A   1      42.779  33.054  37.352  1.00  0.00     0.029 A 
ATOM     69  C   UNL A   1      41.968  32.883  36.242  1.00  0.00     0.049 A 
ATOM     70  H   UNL A   1      42.250  31.630  34.568  1.00  0.00     0.167 HD
ATOM     71  C   UNL A   1      39.967  33.299  34.844  1.00  0.00     0.074 A 
ATOM     72  C   UNL A   1      38.687  33.920  34.577  1.00  0.00     0.031 C 
ATOM     73  C   UNL A   1      40.702  33.513  35.962  1.00  0.00     0.031 A 
BRANCH  60  74
ATOM     74  C   UNL A   1      45.961  30.314  36.243  1.00  0.00    -0.014 A 
ATOM     75  C   UNL A   1      47.163  30.961  35.894  1.00  0.00     0.010 A 
ATOM     76  C   UNL A   1      45.993  29.276  37.190  1.00  0.00     0.010 A 
ATOM     77  C   UNL A   1      48.381  30.532  36.429  1.00  0.00     0.020 A 
ATOM     78  C   UNL A   1      47.207  28.864  37.749  1.00  0.00     0.020 A 
ATOM     79  C   UNL A   1      48.397  29.472  37.339  1.00  0.00     0.054 A 
BRANCH  79  80
ATOM     80  S   UNL A   1      49.997  28.869  37.949  1.00  0.00     0.124 S 
ATOM     81  O   UNL A   1      50.833  30.061  37.850  1.00  0.00    -0.237 OA
ATOM     82  O   UNL A   1      49.675  28.433  39.305  1.00  0.00    -0.237 OA
ATOM     83  O   UNL A   1      50.331  27.791  37.021  1.00  0.00    -0.744 OA
ENDBRANCH  79  80
ENDBRANCH  60  74
BRANCH  61  84
ATOM     84  C   UNL A   1      37.840  32.304  30.757  1.00  0.00    -0.014 A 
ATOM     85  C   UNL A   1      37.879  33.420  29.900  1.00  0.00     0.010 A 
ATOM     86  C   UNL A   1      36.656  31.548  30.834  1.00  0.00     0.010 A 
ATOM     87  C   UNL A   1      36.746  33.804  29.178  1.00  0.00     0.020 A 
ATOM     88  C   UNL A   1      35.531  31.907  30.085  1.00  0.00     0.020 A 
ATOM     89  C   UNL A   1      35.575  33.049  29.282  1.00  0.00     0.054 A 
BRANCH  89  90
ATOM     90  S   UNL A   1      34.112  33.578  28.350  1.00  0.00     0.124 S 
ATOM     91  O   UNL A   1      33.627  32.310  27.810  1.00  0.00    -0.237 OA
ATOM     92  O   UNL A   1      33.276  34.181  29.385  1.00  0.00    -0.237 OA
ATOM     93  O   UNL A   1      34.651  34.512  27.366  1.00  0.00    -0.744 OA
ENDBRANCH  89  90
ENDBRANCH  61  84
BRANCH  73  94
ATOM     94  C   UNL A   1      40.172  34.470  36.999  1.00  0.00    -0.014 A 
ATOM     95  C   UNL A   1      40.593  35.813  36.985  1.00  0.00     0.010 A 
ATOM     96  C   UNL A   1      39.386  34.010  38.070  1.00  0.00     0.010 A 
ATOM     97  C   UNL A   1      40.280  36.667  38.046  1.00  0.00     0.020 A 
ATOM     98  C   UNL A   1      39.043  34.871  39.117  1.00  0.00     0.020 A 
ATOM     99  C   UNL A   1      39.517  36.185  39.112  1.00  0.00     0.054 A 
BRANCH  99 100
ATOM    100  S   UNL A   1      39.170  37.292  40.506  1.00  0.00     0.124 S 
ATOM    101  O   UNL A   1      38.642  36.370  41.507  1.00  0.00    -0.237 OA
ATOM    102  O   UNL A   1      40.483  37.859  40.800  1.00  0.00    -0.237 OA
ATOM    103  O   UNL A   1      38.200  38.239  39.958  1.00  0.00    -0.744 OA
ENDBRANCH  99 100
ENDBRANCH  73  94
ENDBRANCH  47  48
ENDBRANCH  39  42
ENDBRANCH  37  38
ENDBRANCH  36  37
ENDBRANCH  35  36
ENDBRANCH   1  35
TORSDOF 19
ENDMDL
