MODEL 1
REMARK VINA RESULT:      -9.4      0.000      0.000
REMARK SMILES Cc1cccc(C[NH+]2CCC(OCC(=O)NCCCCCCNC(=O)c3ccc(-c4c5nc(c(-c6ccc(S(=O)(=O)[O-])cc6)c6ccc([nH]6)c(-c6ccc(S(=O)(=O)[O-])cc6)c6nc(c(-c7ccc(S(=O)(=O)[O-])cc7)c7ccc4[nH]7)C=C6)C=C5)cc3)CC2)n1
REMARK SMILES IDX 19 1 18 2 17 3 16 4 14 5 15 6 13 8 12 9 11 10 8 11 9 12
REMARK SMILES IDX 87 13 10 15 86 16 7 17 6 18 1 19 2 20 3 21 88 22 4 23 5 24
REMARK SMILES IDX 20 25 21 26 22 27 23 28 24 29 25 31 26 32 27 33 85 34 28 35
REMARK SMILES IDX 84 36 29 37 30 38 31 39 78 40 32 41 83 42 77 43 79 44 33 45
REMARK SMILES IDX 82 46 76 47 75 48 34 50 64 51 45 52 63 53 46 54 49 55 62 56
REMARK SMILES IDX 80 57 47 58 48 59 61 61 81 62 50 63 35 64 36 65 44 66 37 67
REMARK SMILES IDX 43 68 38 69 39 70 40 71 41 72 42 73 65 74 66 75 74 76 67 77
REMARK SMILES IDX 73 78 68 79 69 80 70 81 71 82 72 83 51 84 52 85 60 86 53 87
REMARK SMILES IDX 59 88 54 89 55 90 56 91 57 92 58 93
REMARK H PARENT 16 7 8 14 23 30 79 49 49 60
REMARK Flexibility Score: inf
ROOT
ATOM      1  C   UNL A   1      35.841  31.976  28.088  1.00  0.00     0.002 C 
ENDROOT
BRANCH   1   2
ATOM      2  C   UNL A   1      36.091  30.498  27.764  1.00  0.00     0.021 C 
BRANCH   2   3
ATOM      3  C   UNL A   1      34.831  29.644  27.611  1.00  0.00     0.116 C 
BRANCH   3   4
ATOM      4  N   UNL A   1      33.993  30.037  26.496  1.00  0.00    -0.354 N 
ATOM      5  C   UNL A   1      32.813  29.485  26.086  1.00  0.00     0.246 C 
ATOM      6  O   UNL A   1      32.155  30.062  25.218  1.00  0.00    -0.272 OA
ATOM      7  H   UNL A   1      34.316  30.800  25.965  1.00  0.00     0.163 HD
BRANCH   5   8
ATOM      8  C   UNL A   1      32.334  28.169  26.714  1.00  0.00     0.260 C 
BRANCH   8   9
ATOM      9  O   UNL A   1      31.153  27.574  26.204  1.00  0.00    -0.368 OA
BRANCH   9  10
ATOM     10  C   UNL A   1      31.289  26.596  25.168  1.00  0.00     0.130 C 
ATOM     11  N   UNL A   1      32.207  24.117  23.987  1.00  0.00    -0.330 N 
ATOM     12  C   UNL A   1      32.789  25.383  23.529  1.00  0.00     0.265 C 
ATOM     13  C   UNL A   1      30.793  24.291  24.342  1.00  0.00     0.265 C 
ATOM     14  H   UNL A   1      32.726  23.852  24.824  1.00  0.00     0.348 HD
ATOM     15  C   UNL A   1      32.720  26.437  24.643  1.00  0.00     0.093 C 
ATOM     16  C   UNL A   1      30.684  25.238  25.518  1.00  0.00     0.093 C 
BRANCH  11  17
ATOM     17  C   UNL A   1      32.390  22.998  23.038  1.00  0.00     0.319 C 
BRANCH  17  18
ATOM     18  C   UNL A   1      33.044  21.744  23.592  1.00  0.00     0.095 A 
ATOM     19  C   UNL A   1      36.143  21.108  25.452  1.00  0.00     0.067 C 
ATOM     20  C   UNL A   1      34.849  20.831  24.751  1.00  0.00     0.038 A 
ATOM     21  C   UNL A   1      34.205  19.607  24.860  1.00  0.00     0.023 A 
ATOM     22  N   UNL A   1      34.300  21.872  24.093  1.00  0.00    -0.252 NA
ATOM     23  C   UNL A   1      32.949  19.459  24.278  1.00  0.00     0.004 A 
ATOM     24  C   UNL A   1      32.349  20.543  23.646  1.00  0.00     0.030 A 
ENDBRANCH  17  18
ENDBRANCH  11  17
ENDBRANCH   9  10
ENDBRANCH   8   9
ENDBRANCH   5   8
ENDBRANCH   3   4
ENDBRANCH   2   3
ENDBRANCH   1   2
BRANCH   1  25
ATOM     25  C   UNL A   1      34.583  32.251  28.916  1.00  0.00     0.002 C 
BRANCH  25  26
ATOM     26  C   UNL A   1      33.684  33.365  28.375  1.00  0.00     0.021 C 
BRANCH  26  27
ATOM     27  C   UNL A   1      33.991  34.754  28.924  1.00  0.00     0.116 C 
BRANCH  27  28
ATOM     28  N   UNL A   1      33.120  35.106  30.033  1.00  0.00    -0.352 N 
ATOM     29  C   UNL A   1      33.264  34.820  31.367  1.00  0.00     0.251 C 
ATOM     30  H   UNL A   1      32.317  35.621  29.794  1.00  0.00     0.163 HD
ATOM     31  O   UNL A   1      32.327  35.014  32.141  1.00  0.00    -0.269 OA
BRANCH  29  32
ATOM     32  C   UNL A   1      34.536  34.258  31.870  1.00  0.00     0.039 A 
ATOM     33  C   UNL A   1      34.544  32.968  32.406  1.00  0.00     0.014 A 
ATOM     34  C   UNL A   1      35.720  35.001  31.815  1.00  0.00     0.014 A 
ATOM     35  C   UNL A   1      35.747  32.403  32.833  1.00  0.00     0.010 A 
ATOM     36  C   UNL A   1      36.930  34.408  32.171  1.00  0.00     0.010 A 
ATOM     37  C   UNL A   1      36.956  33.105  32.690  1.00  0.00    -0.014 A 
BRANCH  37  38
ATOM     38  C   UNL A   1      38.253  32.488  33.079  1.00  0.00     0.031 A 
ATOM     39  C   UNL A   1      38.839  32.753  34.441  1.00  0.00     0.074 A 
ATOM     40  C   UNL A   1      38.920  31.722  32.194  1.00  0.00     0.049 A 
ATOM     41  N   UNL A   1      39.973  32.335  34.945  1.00  0.00    -0.248 NA
ATOM     42  C   UNL A   1      38.061  33.613  35.349  1.00  0.00     0.031 C 
ATOM     43  C   UNL A   1      38.475  31.414  30.832  1.00  0.00     0.029 A 
ATOM     44  N   UNL A   1      40.117  31.058  32.307  1.00  0.00    -0.354 N 
ATOM     45  C   UNL A   1      40.042  32.877  36.224  1.00  0.00     0.074 A 
ATOM     46  C   UNL A   1      38.869  33.706  36.394  1.00  0.00     0.031 C 
ATOM     47  C   UNL A   1      39.368  30.595  30.250  1.00  0.00     0.029 A 
ATOM     48  C   UNL A   1      40.470  30.356  31.176  1.00  0.00     0.049 A 
ATOM     49  H   UNL A   1      40.671  31.082  33.120  1.00  0.00     0.167 HD
ATOM     50  C   UNL A   1      40.979  32.679  37.182  1.00  0.00     0.031 A 
ATOM     51  C   UNL A   1      41.561  29.611  30.912  1.00  0.00     0.031 A 
ATOM     52  C   UNL A   1      42.146  31.856  37.011  1.00  0.00     0.049 A 
ATOM     53  C   UNL A   1      42.613  29.450  31.977  1.00  0.00     0.074 A 
ATOM     54  C   UNL A   1      43.144  31.577  37.929  1.00  0.00     0.029 A 
ATOM     55  N   UNL A   1      42.472  31.174  35.848  1.00  0.00    -0.354 N 
ATOM     56  N   UNL A   1      42.633  29.932  33.197  1.00  0.00    -0.248 NA
ATOM     57  C   UNL A   1      43.785  28.634  31.633  1.00  0.00     0.031 C 
ATOM     58  C   UNL A   1      44.100  30.769  37.305  1.00  0.00     0.029 A 
ATOM     59  C   UNL A   1      43.664  30.491  36.019  1.00  0.00     0.049 A 
ATOM     60  H   UNL A   1      41.936  31.177  35.023  1.00  0.00     0.167 HD
ATOM     61  C   UNL A   1      43.800  29.445  33.777  1.00  0.00     0.074 A 
ATOM     62  C   UNL A   1      44.449  28.618  32.780  1.00  0.00     0.031 C 
ATOM     63  C   UNL A   1      44.292  29.662  35.021  1.00  0.00     0.031 A 
BRANCH  50  64
ATOM     64  C   UNL A   1      40.772  33.360  38.511  1.00  0.00    -0.014 A 
ATOM     65  C   UNL A   1      41.268  34.658  38.739  1.00  0.00     0.010 A 
ATOM     66  C   UNL A   1      40.028  32.727  39.523  1.00  0.00     0.010 A 
ATOM     67  C   UNL A   1      41.056  35.293  39.964  1.00  0.00     0.020 A 
ATOM     68  C   UNL A   1      39.787  33.372  40.739  1.00  0.00     0.020 A 
ATOM     69  C   UNL A   1      40.315  34.647  40.958  1.00  0.00     0.054 A 
BRANCH  69  70
ATOM     70  S   UNL A   1      40.026  35.513  42.525  1.00  0.00     0.124 S 
ATOM     71  O   UNL A   1      38.748  36.172  42.273  1.00  0.00    -0.237 OA
ATOM     72  O   UNL A   1      39.989  34.418  43.492  1.00  0.00    -0.237 OA
ATOM     73  O   UNL A   1      41.175  36.408  42.644  1.00  0.00    -0.744 OA
ENDBRANCH  69  70
ENDBRANCH  50  64
BRANCH  51  74
ATOM     74  C   UNL A   1      41.722  28.952  29.584  1.00  0.00    -0.014 A 
ATOM     75  C   UNL A   1      41.455  27.580  29.430  1.00  0.00     0.010 A 
ATOM     76  C   UNL A   1      42.176  29.687  28.474  1.00  0.00     0.010 A 
ATOM     77  C   UNL A   1      41.682  26.946  28.204  1.00  0.00     0.020 A 
ATOM     78  C   UNL A   1      42.371  29.065  27.238  1.00  0.00     0.020 A 
ATOM     79  C   UNL A   1      42.143  27.693  27.117  1.00  0.00     0.054 A 
BRANCH  79  80
ATOM     80  S   UNL A   1      42.425  26.854  25.533  1.00  0.00     0.124 S 
ATOM     81  O   UNL A   1      42.596  27.980  24.620  1.00  0.00    -0.237 OA
ATOM     82  O   UNL A   1      43.625  26.067  25.801  1.00  0.00    -0.237 OA
ATOM     83  O   UNL A   1      41.206  26.071  25.341  1.00  0.00    -0.744 OA
ENDBRANCH  79  80
ENDBRANCH  51  74
BRANCH  63  84
ATOM     84  C   UNL A   1      45.570  28.955  35.396  1.00  0.00    -0.014 A 
ATOM     85  C   UNL A   1      46.826  29.557  35.201  1.00  0.00     0.010 A 
ATOM     86  C   UNL A   1      45.506  27.683  35.994  1.00  0.00     0.010 A 
ATOM     87  C   UNL A   1      47.995  28.883  35.561  1.00  0.00     0.020 A 
ATOM     88  C   UNL A   1      46.671  27.019  36.385  1.00  0.00     0.020 A 
ATOM     89  C   UNL A   1      47.910  27.618  36.152  1.00  0.00     0.054 A 
BRANCH  89  90
ATOM     90  S   UNL A   1      49.442  26.781  36.645  1.00  0.00     0.124 S 
ATOM     91  O   UNL A   1      50.344  27.906  36.871  1.00  0.00    -0.237 OA
ATOM     92  O   UNL A   1      49.035  26.050  37.843  1.00  0.00    -0.237 OA
ATOM     93  O   UNL A   1      49.766  25.944  35.492  1.00  0.00    -0.744 OA
ENDBRANCH  89  90
ENDBRANCH  63  84
ENDBRANCH  37  38
ENDBRANCH  29  32
ENDBRANCH  27  28
ENDBRANCH  26  27
ENDBRANCH  25  26
ENDBRANCH   1  25
TORSDOF 20
ENDMDL
MODEL 2
REMARK VINA RESULT:      -8.8      5.684      8.917
REMARK SMILES Cc1cccc(C[NH+]2CCC(OCC(=O)NCCCCCCNC(=O)c3ccc(-c4c5nc(c(-c6ccc(S(=O)(=O)[O-])cc6)c6ccc([nH]6)c(-c6ccc(S(=O)(=O)[O-])cc6)c6nc(c(-c7ccc(S(=O)(=O)[O-])cc7)c7ccc4[nH]7)C=C6)C=C5)cc3)CC2)n1
REMARK SMILES IDX 19 1 18 2 17 3 16 4 14 5 15 6 13 8 12 9 11 10 8 11 9 12
REMARK SMILES IDX 87 13 10 15 86 16 7 17 6 18 1 19 2 20 3 21 88 22 4 23 5 24
REMARK SMILES IDX 20 25 21 26 22 27 23 28 24 29 25 31 26 32 27 33 85 34 28 35
REMARK SMILES IDX 84 36 29 37 30 38 31 39 78 40 32 41 83 42 77 43 79 44 33 45
REMARK SMILES IDX 82 46 76 47 75 48 34 50 64 51 45 52 63 53 46 54 49 55 62 56
REMARK SMILES IDX 80 57 47 58 48 59 61 61 81 62 50 63 35 64 36 65 44 66 37 67
REMARK SMILES IDX 43 68 38 69 39 70 40 71 41 72 42 73 65 74 66 75 74 76 67 77
REMARK SMILES IDX 73 78 68 79 69 80 70 81 71 82 72 83 51 84 52 85 60 86 53 87
REMARK SMILES IDX 59 88 54 89 55 90 56 91 57 92 58 93
REMARK H PARENT 16 7 8 14 23 30 79 49 49 60
REMARK Flexibility Score: inf
ROOT
ATOM      1  C   UNL A   1      40.718  34.441  31.661  1.00  0.00     0.002 C 
ENDROOT
BRANCH   1   2
ATOM      2  C   UNL A   1      40.602  34.348  30.135  1.00  0.00     0.021 C 
BRANCH   2   3
ATOM      3  C   UNL A   1      39.318  33.696  29.619  1.00  0.00     0.116 C 
BRANCH   3   4
ATOM      4  N   UNL A   1      38.112  34.406  29.996  1.00  0.00    -0.354 N 
ATOM      5  C   UNL A   1      36.850  33.910  30.154  1.00  0.00     0.246 C 
ATOM      6  O   UNL A   1      35.982  34.634  30.646  1.00  0.00    -0.272 OA
ATOM      7  H   UNL A   1      38.216  35.372  30.159  1.00  0.00     0.163 HD
BRANCH   5   8
ATOM      8  C   UNL A   1      36.544  32.469  29.724  1.00  0.00     0.260 C 
BRANCH   8   9
ATOM      9  O   UNL A   1      36.645  32.145  28.347  1.00  0.00    -0.368 OA
BRANCH   9  10
ATOM     10  C   UNL A   1      35.600  31.362  27.764  1.00  0.00     0.130 C 
ATOM     11  N   UNL A   1      33.252  29.667  27.781  1.00  0.00    -0.330 N 
ATOM     12  C   UNL A   1      34.548  29.086  27.415  1.00  0.00     0.265 C 
ATOM     13  C   UNL A   1      33.158  31.061  27.326  1.00  0.00     0.265 C 
ATOM     14  H   UNL A   1      33.210  29.651  28.800  1.00  0.00     0.348 HD
ATOM     15  C   UNL A   1      35.691  29.865  28.082  1.00  0.00     0.093 C 
ATOM     16  C   UNL A   1      34.197  31.894  28.047  1.00  0.00     0.093 C 
BRANCH  11  17
ATOM     17  C   UNL A   1      32.091  28.873  27.324  1.00  0.00     0.319 C 
BRANCH  17  18
ATOM     18  C   UNL A   1      32.312  28.001  26.100  1.00  0.00     0.095 A 
ATOM     19  C   UNL A   1      32.617  28.698  22.509  1.00  0.00     0.067 C 
ATOM     20  C   UNL A   1      32.562  27.913  23.784  1.00  0.00     0.038 A 
ATOM     21  C   UNL A   1      32.956  26.584  23.842  1.00  0.00     0.023 A 
ATOM     22  N   UNL A   1      32.204  28.602  24.886  1.00  0.00    -0.252 NA
ATOM     23  C   UNL A   1      32.990  25.951  25.082  1.00  0.00     0.004 A 
ATOM     24  C   UNL A   1      32.679  26.669  26.232  1.00  0.00     0.030 A 
ENDBRANCH  17  18
ENDBRANCH  11  17
ENDBRANCH   9  10
ENDBRANCH   8   9
ENDBRANCH   5   8
ENDBRANCH   3   4
ENDBRANCH   2   3
ENDBRANCH   1   2
BRANCH   1  25
ATOM     25  C   UNL A   1      40.298  33.178  32.418  1.00  0.00     0.002 C 
BRANCH  25  26
ATOM     26  C   UNL A   1      38.958  33.278  33.147  1.00  0.00     0.021 C 
BRANCH  26  27
ATOM     27  C   UNL A   1      38.649  32.109  34.077  1.00  0.00     0.116 C 
BRANCH  27  28
ATOM     28  N   UNL A   1      37.498  31.344  33.628  1.00  0.00    -0.352 N 
ATOM     29  C   UNL A   1      37.400  30.470  32.575  1.00  0.00     0.251 C 
ATOM     30  H   UNL A   1      36.675  31.470  34.153  1.00  0.00     0.163 HD
ATOM     31  O   UNL A   1      36.294  30.070  32.212  1.00  0.00    -0.269 OA
BRANCH  29  32
ATOM     32  C   UNL A   1      38.619  30.028  31.865  1.00  0.00     0.039 A 
ATOM     33  C   UNL A   1      38.761  30.331  30.509  1.00  0.00     0.014 A 
ATOM     34  C   UNL A   1      39.620  29.316  32.533  1.00  0.00     0.014 A 
ATOM     35  C   UNL A   1      39.932  29.968  29.838  1.00  0.00     0.010 A 
ATOM     36  C   UNL A   1      40.817  29.023  31.882  1.00  0.00     0.010 A 
ATOM     37  C   UNL A   1      40.984  29.341  30.526  1.00  0.00    -0.014 A 
BRANCH  37  38
ATOM     38  C   UNL A   1      42.261  29.011  29.840  1.00  0.00     0.031 A 
ATOM     39  C   UNL A   1      43.355  30.041  29.737  1.00  0.00     0.074 A 
ATOM     40  C   UNL A   1      42.423  27.797  29.277  1.00  0.00     0.049 A 
ATOM     41  N   UNL A   1      44.520  29.950  29.146  1.00  0.00    -0.248 NA
ATOM     42  C   UNL A   1      43.102  31.350  30.362  1.00  0.00     0.031 C 
ATOM     43  C   UNL A   1      41.428  26.720  29.280  1.00  0.00     0.029 A 
ATOM     44  N   UNL A   1      43.486  27.260  28.593  1.00  0.00    -0.354 N 
ATOM     45  C   UNL A   1      45.136  31.183  29.330  1.00  0.00     0.074 A 
ATOM     46  C   UNL A   1      44.191  32.027  30.029  1.00  0.00     0.031 C 
ATOM     47  C   UNL A   1      41.941  25.644  28.661  1.00  0.00     0.029 A 
ATOM     48  C   UNL A   1      43.279  25.965  28.177  1.00  0.00     0.049 A 
ATOM     49  H   UNL A   1      44.317  27.755  28.417  1.00  0.00     0.167 HD
ATOM     50  C   UNL A   1      46.386  31.570  28.979  1.00  0.00     0.031 A 
ATOM     51  C   UNL A   1      44.074  25.131  27.478  1.00  0.00     0.031 A 
ATOM     52  C   UNL A   1      47.324  30.731  28.282  1.00  0.00     0.049 A 
ATOM     53  C   UNL A   1      45.439  25.606  27.053  1.00  0.00     0.074 A 
ATOM     54  C   UNL A   1      48.622  31.027  27.898  1.00  0.00     0.029 A 
ATOM     55  N   UNL A   1      47.071  29.433  27.868  1.00  0.00    -0.354 N 
ATOM     56  N   UNL A   1      46.019  26.760  27.282  1.00  0.00    -0.248 NA
ATOM     57  C   UNL A   1      46.261  24.659  26.287  1.00  0.00     0.031 C 
ATOM     58  C   UNL A   1      49.134  29.924  27.207  1.00  0.00     0.029 A 
ATOM     59  C   UNL A   1      48.180  28.919  27.217  1.00  0.00     0.049 A 
ATOM     60  H   UNL A   1      46.227  28.948  28.014  1.00  0.00     0.167 HD
ATOM     61  C   UNL A   1      47.288  26.662  26.719  1.00  0.00     0.074 A 
ATOM     62  C   UNL A   1      47.396  25.332  26.156  1.00  0.00     0.031 C 
ATOM     63  C   UNL A   1      48.276  27.589  26.671  1.00  0.00     0.031 A 
BRANCH  50  64
ATOM     64  C   UNL A   1      46.815  32.967  29.354  1.00  0.00    -0.014 A 
ATOM     65  C   UNL A   1      47.466  33.215  30.577  1.00  0.00     0.010 A 
ATOM     66  C   UNL A   1      46.618  34.032  28.457  1.00  0.00     0.010 A 
ATOM     67  C   UNL A   1      47.879  34.506  30.911  1.00  0.00     0.020 A 
ATOM     68  C   UNL A   1      47.060  35.320  28.774  1.00  0.00     0.020 A 
ATOM     69  C   UNL A   1      47.675  35.552  30.007  1.00  0.00     0.054 A 
BRANCH  69  70
ATOM     70  S   UNL A   1      48.256  37.210  30.455  1.00  0.00     0.124 S 
ATOM     71  O   UNL A   1      47.229  38.060  29.858  1.00  0.00    -0.237 OA
ATOM     72  O   UNL A   1      48.262  37.162  31.915  1.00  0.00    -0.237 OA
ATOM     73  O   UNL A   1      49.574  37.298  29.831  1.00  0.00    -0.744 OA
ENDBRANCH  69  70
ENDBRANCH  50  64
BRANCH  51  74
ATOM     74  C   UNL A   1      43.610  23.757  27.132  1.00  0.00    -0.014 A 
ATOM     75  C   UNL A   1      43.115  23.472  25.846  1.00  0.00     0.010 A 
ATOM     76  C   UNL A   1      43.628  22.734  28.097  1.00  0.00     0.010 A 
ATOM     77  C   UNL A   1      42.607  22.204  25.547  1.00  0.00     0.020 A 
ATOM     78  C   UNL A   1      43.152  21.456  27.791  1.00  0.00     0.020 A 
ATOM     79  C   UNL A   1      42.625  21.205  26.524  1.00  0.00     0.054 A 
BRANCH  79  80
ATOM     80  S   UNL A   1      41.967  19.566  26.112  1.00  0.00     0.124 S 
ATOM     81  O   UNL A   1      42.332  18.788  27.293  1.00  0.00    -0.237 OA
ATOM     82  O   UNL A   1      40.541  19.830  25.944  1.00  0.00    -0.237 OA
ATOM     83  O   UNL A   1      42.676  19.211  24.885  1.00  0.00    -0.744 OA
ENDBRANCH  79  80
ENDBRANCH  51  74
BRANCH  63  84
ATOM     84  C   UNL A   1      49.580  27.182  26.033  1.00  0.00    -0.014 A 
ATOM     85  C   UNL A   1      50.575  26.509  26.763  1.00  0.00     0.010 A 
ATOM     86  C   UNL A   1      49.791  27.442  24.666  1.00  0.00     0.010 A 
ATOM     87  C   UNL A   1      51.773  26.138  26.147  1.00  0.00     0.020 A 
ATOM     88  C   UNL A   1      50.974  27.044  24.039  1.00  0.00     0.020 A 
ATOM     89  C   UNL A   1      51.964  26.407  24.788  1.00  0.00     0.054 A 
BRANCH  89  90
ATOM     90  S   UNL A   1      53.513  25.881  24.005  1.00  0.00     0.124 S 
ATOM     91  O   UNL A   1      53.684  24.535  24.542  1.00  0.00    -0.237 OA
ATOM     92  O   UNL A   1      53.193  25.955  22.581  1.00  0.00    -0.237 OA
ATOM     93  O   UNL A   1      54.489  26.865  24.468  1.00  0.00    -0.744 OA
ENDBRANCH  89  90
ENDBRANCH  63  84
ENDBRANCH  37  38
ENDBRANCH  29  32
ENDBRANCH  27  28
ENDBRANCH  26  27
ENDBRANCH  25  26
ENDBRANCH   1  25
TORSDOF 20
ENDMDL
MODEL 3
REMARK VINA RESULT:      -8.7      1.609      8.294
REMARK SMILES Cc1cccc(C[NH+]2CCC(OCC(=O)NCCCCCCNC(=O)c3ccc(-c4c5nc(c(-c6ccc(S(=O)(=O)[O-])cc6)c6ccc([nH]6)c(-c6ccc(S(=O)(=O)[O-])cc6)c6nc(c(-c7ccc(S(=O)(=O)[O-])cc7)c7ccc4[nH]7)C=C6)C=C5)cc3)CC2)n1
REMARK SMILES IDX 19 1 18 2 17 3 16 4 14 5 15 6 13 8 12 9 11 10 8 11 9 12
REMARK SMILES IDX 87 13 10 15 86 16 7 17 6 18 1 19 2 20 3 21 88 22 4 23 5 24
REMARK SMILES IDX 20 25 21 26 22 27 23 28 24 29 25 31 26 32 27 33 85 34 28 35
REMARK SMILES IDX 84 36 29 37 30 38 31 39 78 40 32 41 83 42 77 43 79 44 33 45
REMARK SMILES IDX 82 46 76 47 75 48 34 50 64 51 45 52 63 53 46 54 49 55 62 56
REMARK SMILES IDX 80 57 47 58 48 59 61 61 81 62 50 63 35 64 36 65 44 66 37 67
REMARK SMILES IDX 43 68 38 69 39 70 40 71 41 72 42 73 65 74 66 75 74 76 67 77
REMARK SMILES IDX 73 78 68 79 69 80 70 81 71 82 72 83 51 84 52 85 60 86 53 87
REMARK SMILES IDX 59 88 54 89 55 90 56 91 57 92 58 93
REMARK H PARENT 16 7 8 14 23 30 79 49 49 60
REMARK Flexibility Score: inf
ROOT
ATOM      1  C   UNL A   1      35.294  31.341  27.760  1.00  0.00     0.002 C 
ENDROOT
BRANCH   1   2
ATOM      2  C   UNL A   1      35.251  29.816  27.606  1.00  0.00     0.021 C 
BRANCH   2   3
ATOM      3  C   UNL A   1      34.046  29.275  26.835  1.00  0.00     0.116 C 
BRANCH   3   4
ATOM      4  N   UNL A   1      34.220  29.288  25.396  1.00  0.00    -0.354 N 
ATOM      5  C   UNL A   1      33.302  29.001  24.427  1.00  0.00     0.246 C 
ATOM      6  O   UNL A   1      33.586  29.233  23.250  1.00  0.00    -0.272 OA
ATOM      7  H   UNL A   1      35.118  29.536  25.076  1.00  0.00     0.163 HD
BRANCH   5   8
ATOM      8  C   UNL A   1      31.945  28.406  24.824  1.00  0.00     0.260 C 
BRANCH   8   9
ATOM      9  O   UNL A   1      31.592  27.137  24.302  1.00  0.00    -0.368 OA
BRANCH   9  10
ATOM     10  C   UNL A   1      31.680  26.005  25.173  1.00  0.00     0.130 C 
ATOM     11  N   UNL A   1      32.300  23.267  25.883  1.00  0.00    -0.330 N 
ATOM     12  C   UNL A   1      30.895  23.673  25.767  1.00  0.00     0.265 C 
ATOM     13  C   UNL A   1      33.121  24.371  26.397  1.00  0.00     0.265 C 
ATOM     14  H   UNL A   1      32.609  23.039  24.938  1.00  0.00     0.348 HD
ATOM     15  C   UNL A   1      30.757  24.845  24.785  1.00  0.00     0.093 C 
ATOM     16  C   UNL A   1      33.107  25.511  25.401  1.00  0.00     0.093 C 
BRANCH  11  17
ATOM     17  C   UNL A   1      32.501  22.033  26.674  1.00  0.00     0.319 C 
BRANCH  17  18
ATOM     18  C   UNL A   1      33.271  20.915  25.993  1.00  0.00     0.095 A 
ATOM     19  C   UNL A   1      32.311  17.661  24.592  1.00  0.00     0.067 C 
ATOM     20  C   UNL A   1      33.184  18.811  24.993  1.00  0.00     0.038 A 
ATOM     21  C   UNL A   1      34.485  18.939  24.529  1.00  0.00     0.023 A 
ATOM     22  N   UNL A   1      32.597  19.761  25.748  1.00  0.00    -0.252 NA
ATOM     23  C   UNL A   1      35.197  20.092  24.848  1.00  0.00     0.004 A 
ATOM     24  C   UNL A   1      34.582  21.104  25.577  1.00  0.00     0.030 A 
ENDBRANCH  17  18
ENDBRANCH  11  17
ENDBRANCH   9  10
ENDBRANCH   8   9
ENDBRANCH   5   8
ENDBRANCH   3   4
ENDBRANCH   2   3
ENDBRANCH   1   2
BRANCH   1  25
ATOM     25  C   UNL A   1      34.115  31.946  28.526  1.00  0.00     0.002 C 
BRANCH  25  26
ATOM     26  C   UNL A   1      33.815  33.410  28.199  1.00  0.00     0.021 C 
BRANCH  26  27
ATOM     27  C   UNL A   1      34.376  34.415  29.199  1.00  0.00     0.116 C 
BRANCH  27  28
ATOM     28  N   UNL A   1      33.371  34.855  30.151  1.00  0.00    -0.352 N 
ATOM     29  C   UNL A   1      33.367  34.737  31.518  1.00  0.00     0.251 C 
ATOM     30  H   UNL A   1      32.584  35.301  29.762  1.00  0.00     0.163 HD
ATOM     31  O   UNL A   1      32.340  34.979  32.152  1.00  0.00    -0.269 OA
BRANCH  29  32
ATOM     32  C   UNL A   1      34.589  34.299  32.226  1.00  0.00     0.039 A 
ATOM     33  C   UNL A   1      34.703  32.964  32.620  1.00  0.00     0.014 A 
ATOM     34  C   UNL A   1      35.621  35.201  32.502  1.00  0.00     0.014 A 
ATOM     35  C   UNL A   1      35.874  32.523  33.240  1.00  0.00     0.010 A 
ATOM     36  C   UNL A   1      36.817  34.743  33.050  1.00  0.00     0.010 A 
ATOM     37  C   UNL A   1      36.955  33.400  33.431  1.00  0.00    -0.014 A 
BRANCH  37  38
ATOM     38  C   UNL A   1      38.232  32.926  34.028  1.00  0.00     0.031 A 
ATOM     39  C   UNL A   1      39.218  32.152  33.194  1.00  0.00     0.074 A 
ATOM     40  C   UNL A   1      38.488  33.161  35.330  1.00  0.00     0.049 A 
ATOM     41  N   UNL A   1      40.364  31.626  33.547  1.00  0.00    -0.248 NA
ATOM     42  C   UNL A   1      38.864  31.920  31.783  1.00  0.00     0.031 C 
ATOM     43  C   UNL A   1      37.602  33.873  36.255  1.00  0.00     0.029 A 
ATOM     44  N   UNL A   1      39.572  32.828  36.106  1.00  0.00    -0.354 N 
ATOM     45  C   UNL A   1      40.866  31.007  32.408  1.00  0.00     0.074 A 
ATOM     46  C   UNL A   1      39.871  31.165  31.370  1.00  0.00     0.031 C 
ATOM     47  C   UNL A   1      38.192  33.953  37.459  1.00  0.00     0.029 A 
ATOM     48  C   UNL A   1      39.475  33.260  37.408  1.00  0.00     0.049 A 
ATOM     49  H   UNL A   1      40.345  32.327  35.761  1.00  0.00     0.167 HD
ATOM     50  C   UNL A   1      42.059  30.391  32.230  1.00  0.00     0.031 A 
ATOM     51  C   UNL A   1      40.320  33.110  38.447  1.00  0.00     0.031 A 
ATOM     52  C   UNL A   1      43.047  30.233  33.265  1.00  0.00     0.049 A 
ATOM     53  C   UNL A   1      41.616  32.374  38.235  1.00  0.00     0.074 A 
ATOM     54  C   UNL A   1      44.296  29.640  33.178  1.00  0.00     0.029 A 
ATOM     55  N   UNL A   1      42.904  30.673  34.571  1.00  0.00    -0.354 N 
ATOM     56  N   UNL A   1      42.092  31.840  37.136  1.00  0.00    -0.248 NA
ATOM     57  C   UNL A   1      42.496  32.232  39.403  1.00  0.00     0.031 C 
ATOM     58  C   UNL A   1      44.885  29.676  34.445  1.00  0.00     0.029 A 
ATOM     59  C   UNL A   1      44.033  30.350  35.305  1.00  0.00     0.049 A 
ATOM     60  H   UNL A   1      42.117  31.145  34.926  1.00  0.00     0.167 HD
ATOM     61  C   UNL A   1      43.343  31.332  37.473  1.00  0.00     0.074 A 
ATOM     62  C   UNL A   1      43.556  31.639  38.872  1.00  0.00     0.031 C 
ATOM     63  C   UNL A   1      44.235  30.671  36.696  1.00  0.00     0.031 A 
BRANCH  50  64
ATOM     64  C   UNL A   1      42.366  29.848  30.858  1.00  0.00    -0.014 A 
ATOM     65  C   UNL A   1      41.999  28.536  30.505  1.00  0.00     0.010 A 
ATOM     66  C   UNL A   1      42.973  30.670  29.892  1.00  0.00     0.010 A 
ATOM     67  C   UNL A   1      42.267  28.044  29.226  1.00  0.00     0.020 A 
ATOM     68  C   UNL A   1      43.214  30.192  28.600  1.00  0.00     0.020 A 
ATOM     69  C   UNL A   1      42.872  28.876  28.280  1.00  0.00     0.054 A 
BRANCH  69  70
ATOM     70  S   UNL A   1      43.174  28.219  26.616  1.00  0.00     0.124 S 
ATOM     71  O   UNL A   1      43.972  29.283  26.013  1.00  0.00    -0.237 OA
ATOM     72  O   UNL A   1      43.889  26.975  26.889  1.00  0.00    -0.237 OA
ATOM     73  O   UNL A   1      41.834  28.056  26.058  1.00  0.00    -0.744 OA
ENDBRANCH  69  70
ENDBRANCH  50  64
BRANCH  51  74
ATOM     74  C   UNL A   1      39.976  33.667  39.787  1.00  0.00    -0.014 A 
ATOM     75  C   UNL A   1      39.424  32.842  40.784  1.00  0.00     0.010 A 
ATOM     76  C   UNL A   1      40.168  35.033  40.061  1.00  0.00     0.010 A 
ATOM     77  C   UNL A   1      39.030  33.382  42.013  1.00  0.00     0.020 A 
ATOM     78  C   UNL A   1      39.806  35.569  41.301  1.00  0.00     0.020 A 
ATOM     79  C   UNL A   1      39.219  34.744  42.261  1.00  0.00     0.054 A 
BRANCH  79  80
ATOM     80  S   UNL A   1      38.707  35.421  43.863  1.00  0.00     0.124 S 
ATOM     81  O   UNL A   1      39.377  36.719  43.871  1.00  0.00    -0.237 OA
ATOM     82  O   UNL A   1      37.253  35.461  43.740  1.00  0.00    -0.237 OA
ATOM     83  O   UNL A   1      39.217  34.447  44.825  1.00  0.00    -0.744 OA
ENDBRANCH  79  80
ENDBRANCH  51  74
BRANCH  63  84
ATOM     84  C   UNL A   1      45.548  30.279  37.325  1.00  0.00    -0.014 A 
ATOM     85  C   UNL A   1      46.653  31.148  37.319  1.00  0.00     0.010 A 
ATOM     86  C   UNL A   1      45.660  29.034  37.972  1.00  0.00     0.010 A 
ATOM     87  C   UNL A   1      47.857  30.763  37.913  1.00  0.00     0.020 A 
ATOM     88  C   UNL A   1      46.851  28.658  38.596  1.00  0.00     0.020 A 
ATOM     89  C   UNL A   1      47.948  29.521  38.549  1.00  0.00     0.054 A 
BRANCH  89  90
ATOM     90  S   UNL A   1      49.511  29.061  39.346  1.00  0.00     0.124 S 
ATOM     91  O   UNL A   1      49.710  30.162  40.284  1.00  0.00    -0.237 OA
ATOM     92  O   UNL A   1      49.195  27.769  39.950  1.00  0.00    -0.237 OA
ATOM     93  O   UNL A   1      50.463  29.008  38.238  1.00  0.00    -0.744 OA
ENDBRANCH  89  90
ENDBRANCH  63  84
ENDBRANCH  37  38
ENDBRANCH  29  32
ENDBRANCH  27  28
ENDBRANCH  26  27
ENDBRANCH  25  26
ENDBRANCH   1  25
TORSDOF 20
ENDMDL
