MODEL 1
REMARK VINA RESULT:      -8.1      0.000      0.000
REMARK SMILES CC(=O)/C=C(/C)NCC(=O)NCCCCCCNC(=O)c1ccc(-c2c3nc(c(-c4ccc(S(=O)(=O)[O-])cc4)c4ccc([nH]4)c(-c4ccc(S(=O)(=O)[O-])cc4)c4nc(c(-c5ccc(S(=O)(=O)[O-])cc5)c5ccc2[nH]5)C=C4)C=C3)cc1
REMARK SMILES IDX 14 1 13 2 12 3 11 4 9 5 10 6 8 8 7 9 5 11 4 12 6 13 2 14
REMARK SMILES IDX 1 15 3 16 15 17 16 18 17 19 18 20 19 21 20 23 21 24 22 25
REMARK SMILES IDX 80 26 23 27 79 28 24 29 25 30 26 31 73 32 27 33 78 34 72 35
REMARK SMILES IDX 74 36 28 37 77 38 71 39 70 40 29 42 59 43 40 44 58 45 41 46
REMARK SMILES IDX 44 47 57 48 75 49 42 50 43 51 56 53 76 54 45 55 30 56 31 57
REMARK SMILES IDX 39 58 32 59 38 60 33 61 34 62 35 63 36 64 37 65 60 66 61 67
REMARK SMILES IDX 69 68 62 69 68 70 63 71 64 72 65 73 66 74 67 75 46 76 47 77
REMARK SMILES IDX 55 78 48 79 54 80 49 81 50 82 51 83 52 84 53 85
REMARK H PARENT 11 7 7 10 18 22 74 41 44 52
REMARK Flexibility Score: inf
ROOT
ATOM      1  C   UNL A   1      42.311  23.052  29.001  1.00  0.00     0.002 C 
ENDROOT
BRANCH   1   2
ATOM      2  C   UNL A   1      43.692  23.317  29.610  1.00  0.00     0.021 C 
BRANCH   2   3
ATOM      3  C   UNL A   1      44.817  23.309  28.577  1.00  0.00     0.116 C 
BRANCH   3   4
ATOM      4  N   UNL A   1      45.488  24.592  28.514  1.00  0.00    -0.355 N 
ATOM      5  C   UNL A   1      46.324  25.115  27.575  1.00  0.00     0.239 C 
ATOM      6  O   UNL A   1      46.792  26.236  27.811  1.00  0.00    -0.273 OA
ATOM      7  H   UNL A   1      45.307  25.187  29.278  1.00  0.00     0.163 HD
BRANCH   5   8
ATOM      8  C   UNL A   1      46.634  24.428  26.236  1.00  0.00     0.213 C 
BRANCH   8   9
ATOM      9  N   UNL A   1      45.712  24.714  25.153  1.00  0.00    -0.380 N 
ATOM     10  H   UNL A   1      46.161  24.919  24.301  1.00  0.00     0.160 HD
BRANCH   9  11
ATOM     11  C   UNL A   1      44.331  24.758  25.074  1.00  0.00     0.011 C 
ATOM     12  C   UNL A   1      43.429  25.760  25.131  1.00  0.00     0.067 C 
ATOM     13  C   UNL A   1      43.730  23.351  25.006  1.00  0.00     0.064 C 
BRANCH  12  14
ATOM     14  C   UNL A   1      43.384  27.242  25.312  1.00  0.00     0.154 C 
ATOM     15  C   UNL A   1      44.119  27.961  26.397  1.00  0.00     0.093 C 
ATOM     16  O   UNL A   1      42.714  27.889  24.500  1.00  0.00    -0.295 OA
ENDBRANCH  12  14
ENDBRANCH   9  11
ENDBRANCH   8   9
ENDBRANCH   5   8
ENDBRANCH   3   4
ENDBRANCH   2   3
ENDBRANCH   1   2
BRANCH   1  17
ATOM     17  C   UNL A   1      42.231  21.812  28.103  1.00  0.00     0.002 C 
BRANCH  17  18
ATOM     18  C   UNL A   1      40.868  21.569  27.446  1.00  0.00     0.021 C 
BRANCH  18  19
ATOM     19  C   UNL A   1      40.699  22.203  26.067  1.00  0.00     0.116 C 
BRANCH  19  20
ATOM     20  N   UNL A   1      39.307  22.504  25.771  1.00  0.00    -0.352 N 
ATOM     21  C   UNL A   1      38.498  23.499  26.259  1.00  0.00     0.251 C 
ATOM     22  H   UNL A   1      38.879  21.900  25.122  1.00  0.00     0.163 HD
ATOM     23  O   UNL A   1      37.293  23.465  26.034  1.00  0.00    -0.269 OA
BRANCH  21  24
ATOM     24  C   UNL A   1      39.070  24.601  27.066  1.00  0.00     0.039 A 
ATOM     25  C   UNL A   1      39.887  25.540  26.430  1.00  0.00     0.014 A 
ATOM     26  C   UNL A   1      38.836  24.693  28.441  1.00  0.00     0.014 A 
ATOM     27  C   UNL A   1      40.420  26.602  27.162  1.00  0.00     0.010 A 
ATOM     28  C   UNL A   1      39.315  25.790  29.156  1.00  0.00     0.010 A 
ATOM     29  C   UNL A   1      40.114  26.754  28.526  1.00  0.00    -0.014 A 
BRANCH  29  30
ATOM     30  C   UNL A   1      40.606  27.934  29.283  1.00  0.00     0.031 A 
ATOM     31  C   UNL A   1      39.739  29.151  29.461  1.00  0.00     0.074 A 
ATOM     32  C   UNL A   1      41.858  27.918  29.783  1.00  0.00     0.049 A 
ATOM     33  N   UNL A   1      40.000  30.258  30.109  1.00  0.00    -0.248 NA
ATOM     34  C   UNL A   1      38.419  29.134  28.811  1.00  0.00     0.031 C 
ATOM     35  C   UNL A   1      42.815  26.818  29.631  1.00  0.00     0.029 A 
ATOM     36  N   UNL A   1      42.539  28.850  30.523  1.00  0.00    -0.354 N 
ATOM     37  C   UNL A   1      38.884  31.070  29.940  1.00  0.00     0.074 A 
ATOM     38  C   UNL A   1      37.966  30.350  29.086  1.00  0.00     0.031 C 
ATOM     39  C   UNL A   1      43.944  27.125  30.290  1.00  0.00     0.029 A 
ATOM     40  C   UNL A   1      43.805  28.452  30.882  1.00  0.00     0.049 A 
ATOM     41  H   UNL A   1      42.158  29.723  30.774  1.00  0.00     0.167 HD
ATOM     42  C   UNL A   1      38.639  32.295  30.464  1.00  0.00     0.031 A 
ATOM     43  C   UNL A   1      44.750  29.080  31.608  1.00  0.00     0.031 A 
ATOM     44  C   UNL A   1      39.554  33.008  31.317  1.00  0.00     0.049 A 
ATOM     45  C   UNL A   1      44.452  30.436  32.182  1.00  0.00     0.074 A 
ATOM     46  C   UNL A   1      39.372  34.228  31.945  1.00  0.00     0.029 A 
ATOM     47  N   UNL A   1      40.825  32.569  31.659  1.00  0.00    -0.354 N 
ATOM     48  N   UNL A   1      43.358  31.153  32.075  1.00  0.00    -0.248 NA
ATOM     49  C   UNL A   1      45.509  31.060  32.987  1.00  0.00     0.031 C 
ATOM     50  C   UNL A   1      40.553  34.552  32.623  1.00  0.00     0.029 A 
ATOM     51  C   UNL A   1      41.449  33.506  32.466  1.00  0.00     0.049 A 
ATOM     52  H   UNL A   1      41.225  31.717  31.369  1.00  0.00     0.167 HD
ATOM     53  C   UNL A   1      43.589  32.305  32.818  1.00  0.00     0.074 A 
ATOM     54  C   UNL A   1      44.916  32.178  33.386  1.00  0.00     0.031 C 
ATOM     55  C   UNL A   1      42.775  33.372  33.013  1.00  0.00     0.031 A 
BRANCH  42  56
ATOM     56  C   UNL A   1      37.323  32.946  30.125  1.00  0.00    -0.014 A 
ATOM     57  C   UNL A   1      37.185  33.755  28.982  1.00  0.00     0.010 A 
ATOM     58  C   UNL A   1      36.196  32.713  30.935  1.00  0.00     0.010 A 
ATOM     59  C   UNL A   1      35.959  34.353  28.680  1.00  0.00     0.020 A 
ATOM     60  C   UNL A   1      34.960  33.287  30.620  1.00  0.00     0.020 A 
ATOM     61  C   UNL A   1      34.854  34.118  29.503  1.00  0.00     0.054 A 
BRANCH  61  62
ATOM     62  S   UNL A   1      33.269  34.890  29.075  1.00  0.00     0.124 S 
ATOM     63  O   UNL A   1      33.697  36.188  28.560  1.00  0.00    -0.237 OA
ATOM     64  O   UNL A   1      32.722  33.969  28.080  1.00  0.00    -0.237 OA
ATOM     65  O   UNL A   1      32.548  34.930  30.345  1.00  0.00    -0.744 OA
ENDBRANCH  61  62
ENDBRANCH  42  56
BRANCH  43  66
ATOM     66  C   UNL A   1      46.059  28.415  31.853  1.00  0.00    -0.014 A 
ATOM     67  C   UNL A   1      46.217  27.521  32.927  1.00  0.00     0.010 A 
ATOM     68  C   UNL A   1      47.151  28.657  30.999  1.00  0.00     0.010 A 
ATOM     69  C   UNL A   1      47.446  26.897  33.155  1.00  0.00     0.020 A 
ATOM     70  C   UNL A   1      48.373  28.013  31.207  1.00  0.00     0.020 A 
ATOM     71  C   UNL A   1      48.517  27.145  32.290  1.00  0.00     0.054 A 
BRANCH  71  72
ATOM     72  S   UNL A   1      50.088  26.281  32.573  1.00  0.00     0.124 S 
ATOM     73  O   UNL A   1      50.608  26.146  31.217  1.00  0.00    -0.237 OA
ATOM     74  O   UNL A   1      50.808  27.212  33.439  1.00  0.00    -0.237 OA
ATOM     75  O   UNL A   1      49.679  25.034  33.217  1.00  0.00    -0.744 OA
ENDBRANCH  71  72
ENDBRANCH  43  66
BRANCH  55  76
ATOM     76  C   UNL A   1      43.292  34.479  33.894  1.00  0.00    -0.014 A 
ATOM     77  C   UNL A   1      43.951  35.597  33.347  1.00  0.00     0.010 A 
ATOM     78  C   UNL A   1      43.088  34.416  35.284  1.00  0.00     0.010 A 
ATOM     79  C   UNL A   1      44.434  36.609  34.181  1.00  0.00     0.020 A 
ATOM     80  C   UNL A   1      43.543  35.440  36.118  1.00  0.00     0.020 A 
ATOM     81  C   UNL A   1      44.230  36.521  35.563  1.00  0.00     0.054 A 
BRANCH  81  82
ATOM     82  S   UNL A   1      44.845  37.859  36.622  1.00  0.00     0.124 S 
ATOM     83  O   UNL A   1      44.951  38.968  35.678  1.00  0.00    -0.237 OA
ATOM     84  O   UNL A   1      43.790  37.986  37.626  1.00  0.00    -0.237 OA
ATOM     85  O   UNL A   1      46.116  37.345  37.127  1.00  0.00    -0.744 OA
ENDBRANCH  81  82
ENDBRANCH  55  76
ENDBRANCH  29  30
ENDBRANCH  21  24
ENDBRANCH  19  20
ENDBRANCH  18  19
ENDBRANCH  17  18
ENDBRANCH   1  17
TORSDOF 19
ENDMDL
MODEL 2
REMARK VINA RESULT:      -7.9      3.865     10.354
REMARK SMILES CC(=O)/C=C(/C)NCC(=O)NCCCCCCNC(=O)c1ccc(-c2c3nc(c(-c4ccc(S(=O)(=O)[O-])cc4)c4ccc([nH]4)c(-c4ccc(S(=O)(=O)[O-])cc4)c4nc(c(-c5ccc(S(=O)(=O)[O-])cc5)c5ccc2[nH]5)C=C4)C=C3)cc1
REMARK SMILES IDX 14 1 13 2 12 3 11 4 9 5 10 6 8 8 7 9 5 11 4 12 6 13 2 14
REMARK SMILES IDX 1 15 3 16 15 17 16 18 17 19 18 20 19 21 20 23 21 24 22 25
REMARK SMILES IDX 80 26 23 27 79 28 24 29 25 30 26 31 73 32 27 33 78 34 72 35
REMARK SMILES IDX 74 36 28 37 77 38 71 39 70 40 29 42 59 43 40 44 58 45 41 46
REMARK SMILES IDX 44 47 57 48 75 49 42 50 43 51 56 53 76 54 45 55 30 56 31 57
REMARK SMILES IDX 39 58 32 59 38 60 33 61 34 62 35 63 36 64 37 65 60 66 61 67
REMARK SMILES IDX 69 68 62 69 68 70 63 71 64 72 65 73 66 74 67 75 46 76 47 77
REMARK SMILES IDX 55 78 48 79 54 80 49 81 50 82 51 83 52 84 53 85
REMARK H PARENT 11 7 7 10 18 22 74 41 44 52
REMARK Flexibility Score: inf
ROOT
ATOM      1  C   UNL A   1      37.549  23.093  26.022  1.00  0.00     0.002 C 
ENDROOT
BRANCH   1   2
ATOM      2  C   UNL A   1      36.753  23.507  24.780  1.00  0.00     0.021 C 
BRANCH   2   3
ATOM      3  C   UNL A   1      35.413  24.160  25.115  1.00  0.00     0.116 C 
BRANCH   3   4
ATOM      4  N   UNL A   1      34.816  24.775  23.946  1.00  0.00    -0.355 N 
ATOM      5  C   UNL A   1      34.014  24.254  22.977  1.00  0.00     0.239 C 
ATOM      6  O   UNL A   1      33.687  25.016  22.058  1.00  0.00    -0.273 OA
ATOM      7  H   UNL A   1      35.025  25.731  23.834  1.00  0.00     0.163 HD
BRANCH   5   8
ATOM      8  C   UNL A   1      33.444  22.828  23.021  1.00  0.00     0.213 C 
BRANCH   8   9
ATOM      9  N   UNL A   1      32.544  22.544  24.122  1.00  0.00    -0.380 N 
ATOM     10  H   UNL A   1      31.748  23.124  24.136  1.00  0.00     0.160 HD
BRANCH   9  11
ATOM     11  C   UNL A   1      32.574  21.624  25.155  1.00  0.00     0.011 C 
ATOM     12  C   UNL A   1      32.551  20.275  25.198  1.00  0.00     0.067 C 
ATOM     13  C   UNL A   1      32.526  22.314  26.521  1.00  0.00     0.064 C 
BRANCH  12  14
ATOM     14  C   UNL A   1      32.467  19.108  24.269  1.00  0.00     0.154 C 
ATOM     15  C   UNL A   1      32.480  17.686  24.730  1.00  0.00     0.093 C 
ATOM     16  O   UNL A   1      32.361  19.355  23.063  1.00  0.00    -0.295 OA
ENDBRANCH  12  14
ENDBRANCH   9  11
ENDBRANCH   8   9
ENDBRANCH   5   8
ENDBRANCH   3   4
ENDBRANCH   2   3
ENDBRANCH   1   2
BRANCH   1  17
ATOM     17  C   UNL A   1      38.517  21.924  25.806  1.00  0.00     0.002 C 
BRANCH  17  18
ATOM     18  C   UNL A   1      39.816  21.993  26.616  1.00  0.00     0.021 C 
BRANCH  18  19
ATOM     19  C   UNL A   1      40.183  23.387  27.120  1.00  0.00     0.116 C 
BRANCH  19  20
ATOM     20  N   UNL A   1      40.826  24.188  26.091  1.00  0.00    -0.352 N 
ATOM     21  C   UNL A   1      41.117  25.529  26.073  1.00  0.00     0.251 C 
ATOM     22  H   UNL A   1      41.093  23.693  25.283  1.00  0.00     0.163 HD
ATOM     23  O   UNL A   1      41.486  26.054  25.027  1.00  0.00    -0.269 OA
BRANCH  21  24
ATOM     24  C   UNL A   1      40.974  26.343  27.300  1.00  0.00     0.039 A 
ATOM     25  C   UNL A   1      41.988  27.249  27.624  1.00  0.00     0.014 A 
ATOM     26  C   UNL A   1      39.871  26.196  28.147  1.00  0.00     0.014 A 
ATOM     27  C   UNL A   1      41.868  28.045  28.764  1.00  0.00     0.010 A 
ATOM     28  C   UNL A   1      39.721  27.038  29.248  1.00  0.00     0.010 A 
ATOM     29  C   UNL A   1      40.719  27.969  29.570  1.00  0.00    -0.014 A 
BRANCH  29  30
ATOM     30  C   UNL A   1      40.548  28.881  30.730  1.00  0.00     0.031 A 
ATOM     31  C   UNL A   1      41.410  28.739  31.955  1.00  0.00     0.074 A 
ATOM     32  C   UNL A   1      39.583  29.822  30.688  1.00  0.00     0.049 A 
ATOM     33  N   UNL A   1      41.412  29.461  33.047  1.00  0.00    -0.248 NA
ATOM     34  C   UNL A   1      42.381  27.633  31.966  1.00  0.00     0.031 C 
ATOM     35  C   UNL A   1      38.647  30.025  29.579  1.00  0.00     0.029 A 
ATOM     36  N   UNL A   1      39.232  30.786  31.599  1.00  0.00    -0.354 N 
ATOM     37  C   UNL A   1      42.373  28.895  33.876  1.00  0.00     0.074 A 
ATOM     38  C   UNL A   1      42.898  27.740  33.183  1.00  0.00     0.031 C 
ATOM     39  C   UNL A   1      37.855  31.072  29.859  1.00  0.00     0.029 A 
ATOM     40  C   UNL A   1      38.202  31.593  31.178  1.00  0.00     0.049 A 
ATOM     41  H   UNL A   1      39.676  30.890  32.473  1.00  0.00     0.167 HD
ATOM     42  C   UNL A   1      42.794  29.310  35.095  1.00  0.00     0.031 A 
ATOM     43  C   UNL A   1      37.603  32.639  31.781  1.00  0.00     0.031 A 
ATOM     44  C   UNL A   1      42.270  30.463  35.781  1.00  0.00     0.049 A 
ATOM     45  C   UNL A   1      38.092  33.083  33.131  1.00  0.00     0.074 A 
ATOM     46  C   UNL A   1      42.672  30.999  36.993  1.00  0.00     0.029 A 
ATOM     47  N   UNL A   1      41.229  31.256  35.321  1.00  0.00    -0.354 N 
ATOM     48  N   UNL A   1      39.057  32.580  33.864  1.00  0.00    -0.248 NA
ATOM     49  C   UNL A   1      37.419  34.244  33.728  1.00  0.00     0.031 C 
ATOM     50  C   UNL A   1      41.839  32.084  37.289  1.00  0.00     0.029 A 
ATOM     51  C   UNL A   1      40.957  32.259  36.235  1.00  0.00     0.049 A 
ATOM     52  H   UNL A   1      40.754  31.123  34.468  1.00  0.00     0.167 HD
ATOM     53  C   UNL A   1      39.122  33.379  35.000  1.00  0.00     0.074 A 
ATOM     54  C   UNL A   1      38.113  34.409  34.847  1.00  0.00     0.031 C 
ATOM     55  C   UNL A   1      39.942  33.270  36.074  1.00  0.00     0.031 A 
BRANCH  42  56
ATOM     56  C   UNL A   1      43.876  28.507  35.770  1.00  0.00    -0.014 A 
ATOM     57  C   UNL A   1      45.234  28.826  35.594  1.00  0.00     0.010 A 
ATOM     58  C   UNL A   1      43.530  27.445  36.626  1.00  0.00     0.010 A 
ATOM     59  C   UNL A   1      46.228  28.073  36.226  1.00  0.00     0.020 A 
ATOM     60  C   UNL A   1      44.520  26.707  37.282  1.00  0.00     0.020 A 
ATOM     61  C   UNL A   1      45.864  27.016  37.064  1.00  0.00     0.054 A 
BRANCH  61  62
ATOM     62  S   UNL A   1      47.173  26.068  37.888  1.00  0.00     0.124 S 
ATOM     63  O   UNL A   1      48.073  25.768  36.776  1.00  0.00    -0.237 OA
ATOM     64  O   UNL A   1      47.687  27.019  38.872  1.00  0.00    -0.237 OA
ATOM     65  O   UNL A   1      46.470  24.917  38.447  1.00  0.00    -0.744 OA
ENDBRANCH  61  62
ENDBRANCH  42  56
BRANCH  43  66
ATOM     66  C   UNL A   1      36.492  33.352  31.095  1.00  0.00    -0.014 A 
ATOM     67  C   UNL A   1      35.307  33.661  31.786  1.00  0.00     0.010 A 
ATOM     68  C   UNL A   1      36.622  33.745  29.750  1.00  0.00     0.010 A 
ATOM     69  C   UNL A   1      34.265  34.332  31.141  1.00  0.00     0.020 A 
ATOM     70  C   UNL A   1      35.593  34.441  29.110  1.00  0.00     0.020 A 
ATOM     71  C   UNL A   1      34.416  34.721  29.806  1.00  0.00     0.054 A 
BRANCH  71  72
ATOM     72  S   UNL A   1      33.072  35.640  29.005  1.00  0.00     0.124 S 
ATOM     73  O   UNL A   1      32.309  36.123  30.151  1.00  0.00    -0.237 OA
ATOM     74  O   UNL A   1      33.794  36.660  28.248  1.00  0.00    -0.237 OA
ATOM     75  O   UNL A   1      32.406  34.626  28.189  1.00  0.00    -0.744 OA
ENDBRANCH  71  72
ENDBRANCH  43  66
BRANCH  55  76
ATOM     76  C   UNL A   1      39.795  34.304  37.159  1.00  0.00    -0.014 A 
ATOM     77  C   UNL A   1      38.933  34.096  38.252  1.00  0.00     0.010 A 
ATOM     78  C   UNL A   1      40.554  35.487  37.101  1.00  0.00     0.010 A 
ATOM     79  C   UNL A   1      38.802  35.071  39.244  1.00  0.00     0.020 A 
ATOM     80  C   UNL A   1      40.448  36.452  38.105  1.00  0.00     0.020 A 
ATOM     81  C   UNL A   1      39.558  36.246  39.161  1.00  0.00     0.054 A 
BRANCH  81  82
ATOM     82  S   UNL A   1      39.388  37.487  40.473  1.00  0.00     0.124 S 
ATOM     83  O   UNL A   1      40.671  38.181  40.402  1.00  0.00    -0.237 OA
ATOM     84  O   UNL A   1      38.228  38.262  40.035  1.00  0.00    -0.237 OA
ATOM     85  O   UNL A   1      39.175  36.689  41.679  1.00  0.00    -0.744 OA
ENDBRANCH  81  82
ENDBRANCH  55  76
ENDBRANCH  29  30
ENDBRANCH  21  24
ENDBRANCH  19  20
ENDBRANCH  18  19
ENDBRANCH  17  18
ENDBRANCH   1  17
TORSDOF 19
ENDMDL
MODEL 3
REMARK VINA RESULT:      -7.7      4.728     11.028
REMARK SMILES CC(=O)/C=C(/C)NCC(=O)NCCCCCCNC(=O)c1ccc(-c2c3nc(c(-c4ccc(S(=O)(=O)[O-])cc4)c4ccc([nH]4)c(-c4ccc(S(=O)(=O)[O-])cc4)c4nc(c(-c5ccc(S(=O)(=O)[O-])cc5)c5ccc2[nH]5)C=C4)C=C3)cc1
REMARK SMILES IDX 14 1 13 2 12 3 11 4 9 5 10 6 8 8 7 9 5 11 4 12 6 13 2 14
REMARK SMILES IDX 1 15 3 16 15 17 16 18 17 19 18 20 19 21 20 23 21 24 22 25
REMARK SMILES IDX 80 26 23 27 79 28 24 29 25 30 26 31 73 32 27 33 78 34 72 35
REMARK SMILES IDX 74 36 28 37 77 38 71 39 70 40 29 42 59 43 40 44 58 45 41 46
REMARK SMILES IDX 44 47 57 48 75 49 42 50 43 51 56 53 76 54 45 55 30 56 31 57
REMARK SMILES IDX 39 58 32 59 38 60 33 61 34 62 35 63 36 64 37 65 60 66 61 67
REMARK SMILES IDX 69 68 62 69 68 70 63 71 64 72 65 73 66 74 67 75 46 76 47 77
REMARK SMILES IDX 55 78 48 79 54 80 49 81 50 82 51 83 52 84 53 85
REMARK H PARENT 11 7 7 10 18 22 74 41 44 52
REMARK Flexibility Score: inf
ROOT
ATOM      1  C   UNL A   1      36.327  22.557  25.691  1.00  0.00     0.002 C 
ENDROOT
BRANCH   1   2
ATOM      2  C   UNL A   1      35.950  24.009  25.381  1.00  0.00     0.021 C 
BRANCH   2   3
ATOM      3  C   UNL A   1      34.503  24.170  24.918  1.00  0.00     0.116 C 
BRANCH   3   4
ATOM      4  N   UNL A   1      34.399  25.110  23.821  1.00  0.00    -0.355 N 
ATOM      5  C   UNL A   1      33.657  25.069  22.680  1.00  0.00     0.239 C 
ATOM      6  O   UNL A   1      33.806  26.008  21.886  1.00  0.00    -0.273 OA
ATOM      7  H   UNL A   1      34.959  25.915  23.916  1.00  0.00     0.163 HD
BRANCH   5   8
ATOM      8  C   UNL A   1      32.609  23.984  22.386  1.00  0.00     0.213 C 
BRANCH   8   9
ATOM      9  N   UNL A   1      31.280  24.235  22.907  1.00  0.00    -0.380 N 
ATOM     10  H   UNL A   1      30.564  23.828  22.367  1.00  0.00     0.160 HD
BRANCH   9  11
ATOM     11  C   UNL A   1      30.812  24.928  24.009  1.00  0.00     0.011 C 
ATOM     12  C   UNL A   1      30.618  24.595  25.303  1.00  0.00     0.067 C 
ATOM     13  C   UNL A   1      30.334  26.332  23.626  1.00  0.00     0.064 C 
BRANCH  12  14
ATOM     14  C   UNL A   1      30.754  23.413  26.206  1.00  0.00     0.154 C 
ATOM     15  C   UNL A   1      31.594  22.220  25.881  1.00  0.00     0.093 C 
ATOM     16  O   UNL A   1      30.149  23.454  27.283  1.00  0.00    -0.295 OA
ENDBRANCH  12  14
ENDBRANCH   9  11
ENDBRANCH   8   9
ENDBRANCH   5   8
ENDBRANCH   3   4
ENDBRANCH   2   3
ENDBRANCH   1   2
BRANCH   1  17
ATOM     17  C   UNL A   1      37.127  21.850  24.591  1.00  0.00     0.002 C 
BRANCH  17  18
ATOM     18  C   UNL A   1      37.930  20.629  25.049  1.00  0.00     0.021 C 
BRANCH  18  19
ATOM     19  C   UNL A   1      39.082  20.940  26.002  1.00  0.00     0.116 C 
BRANCH  19  20
ATOM     20  N   UNL A   1      40.082  19.884  26.013  1.00  0.00    -0.352 N 
ATOM     21  C   UNL A   1      41.449  19.967  26.103  1.00  0.00     0.251 C 
ATOM     22  H   UNL A   1      39.724  18.970  25.943  1.00  0.00     0.163 HD
ATOM     23  O   UNL A   1      42.131  18.968  25.896  1.00  0.00    -0.269 OA
BRANCH  21  24
ATOM     24  C   UNL A   1      42.101  21.253  26.434  1.00  0.00     0.039 A 
ATOM     25  C   UNL A   1      42.401  22.137  25.394  1.00  0.00     0.014 A 
ATOM     26  C   UNL A   1      42.446  21.578  27.749  1.00  0.00     0.014 A 
ATOM     27  C   UNL A   1      42.995  23.368  25.680  1.00  0.00     0.010 A 
ATOM     28  C   UNL A   1      42.978  22.833  28.040  1.00  0.00     0.010 A 
ATOM     29  C   UNL A   1      43.261  23.740  27.009  1.00  0.00    -0.014 A 
BRANCH  29  30
ATOM     30  C   UNL A   1      43.807  25.086  27.321  1.00  0.00     0.031 A 
ATOM     31  C   UNL A   1      45.264  25.394  27.109  1.00  0.00     0.074 A 
ATOM     32  C   UNL A   1      42.985  26.024  27.833  1.00  0.00     0.049 A 
ATOM     33  N   UNL A   1      45.904  26.520  27.308  1.00  0.00    -0.248 NA
ATOM     34  C   UNL A   1      46.119  24.295  26.634  1.00  0.00     0.031 C 
ATOM     35  C   UNL A   1      41.564  25.832  28.134  1.00  0.00     0.029 A 
ATOM     36  N   UNL A   1      43.224  27.329  28.185  1.00  0.00    -0.354 N 
ATOM     37  C   UNL A   1      47.232  26.263  26.991  1.00  0.00     0.074 A 
ATOM     38  C   UNL A   1      47.317  24.864  26.636  1.00  0.00     0.031 C 
ATOM     39  C   UNL A   1      41.051  26.986  28.590  1.00  0.00     0.029 A 
ATOM     40  C   UNL A   1      42.110  27.989  28.645  1.00  0.00     0.049 A 
ATOM     41  H   UNL A   1      44.111  27.753  28.115  1.00  0.00     0.167 HD
ATOM     42  C   UNL A   1      48.282  27.119  26.978  1.00  0.00     0.031 A 
ATOM     43  C   UNL A   1      41.952  29.260  29.063  1.00  0.00     0.031 A 
ATOM     44  C   UNL A   1      48.193  28.513  27.329  1.00  0.00     0.049 A 
ATOM     45  C   UNL A   1      43.131  30.192  29.033  1.00  0.00     0.074 A 
ATOM     46  C   UNL A   1      49.187  29.475  27.290  1.00  0.00     0.029 A 
ATOM     47  N   UNL A   1      47.046  29.144  27.787  1.00  0.00    -0.354 N 
ATOM     48  N   UNL A   1      44.363  29.949  28.655  1.00  0.00    -0.248 NA
ATOM     49  C   UNL A   1      42.894  31.572  29.475  1.00  0.00     0.031 C 
ATOM     50  C   UNL A   1      48.655  30.675  27.775  1.00  0.00     0.029 A 
ATOM     51  C   UNL A   1      47.314  30.475  28.060  1.00  0.00     0.049 A 
ATOM     52  H   UNL A   1      46.170  28.709  27.902  1.00  0.00     0.167 HD
ATOM     53  C   UNL A   1      45.044  31.153  28.791  1.00  0.00     0.074 A 
ATOM     54  C   UNL A   1      44.081  32.126  29.267  1.00  0.00     0.031 C 
ATOM     55  C   UNL A   1      46.349  31.429  28.545  1.00  0.00     0.031 A 
BRANCH  42  56
ATOM     56  C   UNL A   1      49.625  26.569  26.572  1.00  0.00    -0.014 A 
ATOM     57  C   UNL A   1      50.494  25.998  27.520  1.00  0.00     0.010 A 
ATOM     58  C   UNL A   1      50.007  26.582  25.217  1.00  0.00     0.010 A 
ATOM     59  C   UNL A   1      51.736  25.492  27.129  1.00  0.00     0.020 A 
ATOM     60  C   UNL A   1      51.238  26.050  24.818  1.00  0.00     0.020 A 
ATOM     61  C   UNL A   1      52.102  25.523  25.781  1.00  0.00     0.054 A 
BRANCH  61  62
ATOM     62  S   UNL A   1      53.711  24.839  25.298  1.00  0.00     0.124 S 
ATOM     63  O   UNL A   1      54.035  25.638  24.118  1.00  0.00    -0.237 OA
ATOM     64  O   UNL A   1      54.536  25.098  26.477  1.00  0.00    -0.237 OA
ATOM     65  O   UNL A   1      53.427  23.430  25.038  1.00  0.00    -0.744 OA
ENDBRANCH  61  62
ENDBRANCH  42  56
BRANCH  43  66
ATOM     66  C   UNL A   1      40.615  29.730  29.518  1.00  0.00    -0.014 A 
ATOM     67  C   UNL A   1      40.429  30.188  30.834  1.00  0.00     0.010 A 
ATOM     68  C   UNL A   1      39.524  29.741  28.630  1.00  0.00     0.010 A 
ATOM     69  C   UNL A   1      39.174  30.629  31.260  1.00  0.00     0.020 A 
ATOM     70  C   UNL A   1      38.274  30.208  29.043  1.00  0.00     0.020 A 
ATOM     71  C   UNL A   1      38.104  30.639  30.360  1.00  0.00     0.054 A 
BRANCH  71  72
ATOM     72  S   UNL A   1      36.496  31.269  30.919  1.00  0.00     0.124 S 
ATOM     73  O   UNL A   1      36.884  32.438  31.702  1.00  0.00    -0.237 OA
ATOM     74  O   UNL A   1      35.811  31.548  29.659  1.00  0.00    -0.237 OA
ATOM     75  O   UNL A   1      35.943  30.155  31.686  1.00  0.00    -0.744 OA
ENDBRANCH  71  72
ENDBRANCH  43  66
BRANCH  55  76
ATOM     76  C   UNL A   1      46.805  32.847  28.768  1.00  0.00    -0.014 A 
ATOM     77  C   UNL A   1      46.732  33.805  27.740  1.00  0.00     0.010 A 
ATOM     78  C   UNL A   1      47.284  33.233  30.033  1.00  0.00     0.010 A 
ATOM     79  C   UNL A   1      47.171  35.113  27.962  1.00  0.00     0.020 A 
ATOM     80  C   UNL A   1      47.696  34.547  30.267  1.00  0.00     0.020 A 
ATOM     81  C   UNL A   1      47.655  35.475  29.225  1.00  0.00     0.054 A 
BRANCH  81  82
ATOM     82  S   UNL A   1      48.196  37.185  29.495  1.00  0.00     0.124 S 
ATOM     83  O   UNL A   1      49.533  36.996  30.050  1.00  0.00    -0.237 OA
ATOM     84  O   UNL A   1      48.147  37.754  28.150  1.00  0.00    -0.237 OA
ATOM     85  O   UNL A   1      47.203  37.719  30.425  1.00  0.00    -0.744 OA
ENDBRANCH  81  82
ENDBRANCH  55  76
ENDBRANCH  29  30
ENDBRANCH  21  24
ENDBRANCH  19  20
ENDBRANCH  18  19
ENDBRANCH  17  18
ENDBRANCH   1  17
TORSDOF 19
ENDMDL
