MODEL 1
REMARK VINA RESULT:     -11.3      0.000      0.000
REMARK SMILES CC[C@](C)(NC(=O)c1cc(F)ccc1C)C(=O)NCCCCCCNC(=O)c1ccc(-c2c3nc(c(-c4ccc(S(=O)(=O)[O-])cc4)c4ccc([nH]4)c(-c4ccc(S(=O)(=O)[O-])cc4)c4nc(c(-c5ccc(S(=O)(=O)[O-])cc5)c5ccc2[nH]5)C=C4)C=C3)cc1
REMARK SMILES IDX 22 1 21 2 20 3 19 4 18 5 16 6 17 7 3 9 4 10 2 11 1 12 5 13
REMARK SMILES IDX 6 14 7 16 8 17 9 18 14 19 10 20 13 21 15 22 11 23 12 24
REMARK SMILES IDX 23 25 24 26 25 27 26 28 27 30 28 31 29 32 87 33 30 34 86 35
REMARK SMILES IDX 31 36 32 37 33 38 80 39 34 40 85 41 79 42 81 43 35 44 84 45
REMARK SMILES IDX 78 46 77 47 36 49 66 50 47 51 65 52 48 53 51 54 64 55 82 56
REMARK SMILES IDX 49 57 50 58 63 60 83 61 52 62 37 63 38 64 46 65 39 66 45 67
REMARK SMILES IDX 40 68 41 69 42 70 43 71 44 72 67 73 68 74 76 75 69 76 75 77
REMARK SMILES IDX 70 78 71 79 72 80 73 81 74 82 53 83 54 84 62 85 55 86 61 87
REMARK SMILES IDX 56 88 57 89 58 90 59 91 60 92
REMARK H PARENT 18 8 5 15 25 29 81 48 51 59
REMARK Flexibility Score: inf
ROOT
ATOM      1  C   UNL A   1      31.867  30.718  26.568  1.00  0.00     0.002 C 
ENDROOT
BRANCH   1   2
ATOM      2  C   UNL A   1      33.071  29.940  27.105  1.00  0.00     0.002 C 
BRANCH   2   3
ATOM      3  C   UNL A   1      33.082  28.426  26.819  1.00  0.00     0.021 C 
BRANCH   3   4
ATOM      4  C   UNL A   1      32.043  27.463  27.448  1.00  0.00     0.116 C 
BRANCH   4   5
ATOM      5  N   UNL A   1      31.131  26.779  26.520  1.00  0.00    -0.354 N 
ATOM      6  C   UNL A   1      31.087  25.777  25.598  1.00  0.00     0.245 C 
ATOM      7  O   UNL A   1      29.893  25.468  25.386  1.00  0.00    -0.272 OA
ATOM      8  H   UNL A   1      30.239  27.191  26.586  1.00  0.00     0.163 HD
BRANCH   6   9
ATOM      9  C   UNL A   1      32.235  24.883  24.838  1.00  0.00     0.116 C 
ATOM     10  C   UNL A   1      31.421  23.775  24.095  1.00  0.00     0.045 C 
BRANCH   9  11
ATOM     11  C   UNL A   1      33.120  24.222  25.944  1.00  0.00     0.035 C 
ATOM     12  C   UNL A   1      32.359  23.452  27.034  1.00  0.00     0.007 C 
ENDBRANCH   9  11
BRANCH   9  13
ATOM     13  N   UNL A   1      33.208  25.368  23.779  1.00  0.00    -0.338 N 
ATOM     14  C   UNL A   1      32.972  26.030  22.585  1.00  0.00     0.252 C 
ATOM     15  H   UNL A   1      34.156  25.184  23.970  1.00  0.00     0.164 HD
ATOM     16  O   UNL A   1      33.550  25.721  21.552  1.00  0.00    -0.269 OA
BRANCH  14  17
ATOM     17  C   UNL A   1      32.112  27.218  22.634  1.00  0.00     0.045 A 
ATOM     18  C   UNL A   1      30.761  27.174  22.303  1.00  0.00     0.053 A 
ATOM     19  C   UNL A   1      32.707  28.413  23.027  1.00  0.00    -0.038 A 
ATOM     20  C   UNL A   1      29.959  28.239  22.681  1.00  0.00     0.124 A 
ATOM     21  C   UNL A   1      31.865  29.383  23.573  1.00  0.00     0.007 A 
ATOM     22  C   UNL A   1      34.195  28.571  22.818  1.00  0.00     0.045 C 
ATOM     23  F   UNL A   1      28.659  28.246  22.368  1.00  0.00    -0.207 F 
ATOM     24  C   UNL A   1      30.483  29.286  23.425  1.00  0.00     0.039 A 
ENDBRANCH  14  17
ENDBRANCH   9  13
ENDBRANCH   6   9
ENDBRANCH   4   5
ENDBRANCH   3   4
ENDBRANCH   2   3
ENDBRANCH   1   2
BRANCH   1  25
ATOM     25  C   UNL A   1      31.753  32.181  27.022  1.00  0.00     0.021 C 
BRANCH  25  26
ATOM     26  C   UNL A   1      33.068  32.845  27.433  1.00  0.00     0.116 C 
BRANCH  26  27
ATOM     27  N   UNL A   1      32.854  34.213  27.873  1.00  0.00    -0.352 N 
ATOM     28  C   UNL A   1      33.324  34.819  29.014  1.00  0.00     0.251 C 
ATOM     29  H   UNL A   1      32.303  34.775  27.282  1.00  0.00     0.163 HD
ATOM     30  O   UNL A   1      32.780  35.828  29.448  1.00  0.00    -0.269 OA
BRANCH  28  31
ATOM     31  C   UNL A   1      34.497  34.246  29.705  1.00  0.00     0.039 A 
ATOM     32  C   UNL A   1      34.313  33.478  30.857  1.00  0.00     0.014 A 
ATOM     33  C   UNL A   1      35.786  34.497  29.220  1.00  0.00     0.014 A 
ATOM     34  C   UNL A   1      35.425  32.932  31.502  1.00  0.00     0.010 A 
ATOM     35  C   UNL A   1      36.884  33.894  29.824  1.00  0.00     0.010 A 
ATOM     36  C   UNL A   1      36.718  33.121  30.982  1.00  0.00    -0.014 A 
BRANCH  36  37
ATOM     37  C   UNL A   1      37.900  32.524  31.652  1.00  0.00     0.031 A 
ATOM     38  C   UNL A   1      38.352  33.037  32.995  1.00  0.00     0.074 A 
ATOM     39  C   UNL A   1      38.587  31.545  31.032  1.00  0.00     0.049 A 
ATOM     40  N   UNL A   1      39.332  32.614  33.751  1.00  0.00    -0.248 NA
ATOM     41  C   UNL A   1      37.623  34.190  33.548  1.00  0.00     0.031 C 
ATOM     42  C   UNL A   1      38.275  31.004  29.707  1.00  0.00     0.029 A 
ATOM     43  N   UNL A   1      39.679  30.821  31.438  1.00  0.00    -0.354 N 
ATOM     44  C   UNL A   1      39.348  33.457  34.857  1.00  0.00     0.074 A 
ATOM     45  C   UNL A   1      38.317  34.447  34.647  1.00  0.00     0.031 C 
ATOM     46  C   UNL A   1      39.123  29.998  29.433  1.00  0.00     0.029 A 
ATOM     47  C   UNL A   1      40.057  29.848  30.544  1.00  0.00     0.049 A 
ATOM     48  H   UNL A   1      40.149  30.985  32.288  1.00  0.00     0.167 HD
ATOM     49  C   UNL A   1      40.138  33.399  35.957  1.00  0.00     0.031 A 
ATOM     50  C   UNL A   1      41.035  28.925  30.619  1.00  0.00     0.031 A 
ATOM     51  C   UNL A   1      41.158  32.404  36.158  1.00  0.00     0.049 A 
ATOM     52  C   UNL A   1      41.893  28.875  31.852  1.00  0.00     0.074 A 
ATOM     53  C   UNL A   1      41.966  32.208  37.265  1.00  0.00     0.029 A 
ATOM     54  N   UNL A   1      41.519  31.443  35.225  1.00  0.00    -0.354 N 
ATOM     55  N   UNL A   1      41.835  29.624  32.928  1.00  0.00    -0.248 NA
ATOM     56  C   UNL A   1      42.938  27.845  31.886  1.00  0.00     0.031 C 
ATOM     57  C   UNL A   1      42.856  31.168  36.976  1.00  0.00     0.029 A 
ATOM     58  C   UNL A   1      42.561  30.673  35.715  1.00  0.00     0.049 A 
ATOM     59  H   UNL A   1      41.096  31.325  34.344  1.00  0.00     0.167 HD
ATOM     60  C   UNL A   1      42.822  29.140  33.780  1.00  0.00     0.074 A 
ATOM     61  C   UNL A   1      43.444  28.020  33.099  1.00  0.00     0.031 C 
ATOM     62  C   UNL A   1      43.181  29.577  35.013  1.00  0.00     0.031 A 
BRANCH  49  63
ATOM     63  C   UNL A   1      39.939  34.459  37.013  1.00  0.00    -0.014 A 
ATOM     64  C   UNL A   1      39.025  34.281  38.068  1.00  0.00     0.010 A 
ATOM     65  C   UNL A   1      40.687  35.649  36.955  1.00  0.00     0.010 A 
ATOM     66  C   UNL A   1      38.823  35.293  39.011  1.00  0.00     0.020 A 
ATOM     67  C   UNL A   1      40.511  36.652  37.914  1.00  0.00     0.020 A 
ATOM     68  C   UNL A   1      39.563  36.476  38.924  1.00  0.00     0.054 A 
BRANCH  68  69
ATOM     69  S   UNL A   1      39.282  37.773  40.160  1.00  0.00     0.124 S 
ATOM     70  O   UNL A   1      40.567  38.467  40.165  1.00  0.00    -0.237 OA
ATOM     71  O   UNL A   1      38.166  38.523  39.590  1.00  0.00    -0.237 OA
ATOM     72  O   UNL A   1      38.972  37.029  41.379  1.00  0.00    -0.744 OA
ENDBRANCH  68  69
ENDBRANCH  49  63
BRANCH  50  73
ATOM     73  C   UNL A   1      41.217  27.944  29.514  1.00  0.00    -0.014 A 
ATOM     74  C   UNL A   1      42.196  28.159  28.528  1.00  0.00     0.010 A 
ATOM     75  C   UNL A   1      40.438  26.775  29.458  1.00  0.00     0.010 A 
ATOM     76  C   UNL A   1      42.383  27.231  27.499  1.00  0.00     0.020 A 
ATOM     77  C   UNL A   1      40.641  25.830  28.448  1.00  0.00     0.020 A 
ATOM     78  C   UNL A   1      41.608  26.068  27.470  1.00  0.00     0.054 A 
BRANCH  78  79
ATOM     79  S   UNL A   1      41.916  24.846  26.165  1.00  0.00     0.124 S 
ATOM     80  O   UNL A   1      40.684  24.064  26.183  1.00  0.00    -0.237 OA
ATOM     81  O   UNL A   1      42.116  25.687  24.986  1.00  0.00    -0.237 OA
ATOM     82  O   UNL A   1      43.111  24.145  26.629  1.00  0.00    -0.744 OA
ENDBRANCH  78  79
ENDBRANCH  50  73
BRANCH  62  83
ATOM     83  C   UNL A   1      44.288  28.828  35.706  1.00  0.00    -0.014 A 
ATOM     84  C   UNL A   1      45.635  29.206  35.551  1.00  0.00     0.010 A 
ATOM     85  C   UNL A   1      43.974  27.738  36.538  1.00  0.00     0.010 A 
ATOM     86  C   UNL A   1      46.649  28.472  36.170  1.00  0.00     0.020 A 
ATOM     87  C   UNL A   1      44.983  27.023  37.186  1.00  0.00     0.020 A 
ATOM     88  C   UNL A   1      46.317  27.380  36.978  1.00  0.00     0.054 A 
BRANCH  88  89
ATOM     89  S   UNL A   1      47.651  26.446  37.775  1.00  0.00     0.124 S 
ATOM     90  O   UNL A   1      47.559  26.908  39.157  1.00  0.00    -0.237 OA
ATOM     91  O   UNL A   1      47.252  25.059  37.547  1.00  0.00    -0.237 OA
ATOM     92  O   UNL A   1      48.849  26.870  37.054  1.00  0.00    -0.744 OA
ENDBRANCH  88  89
ENDBRANCH  62  83
ENDBRANCH  36  37
ENDBRANCH  28  31
ENDBRANCH  26  27
ENDBRANCH  25  26
ENDBRANCH   1  25
TORSDOF 19
ENDMDL
MODEL 2
REMARK VINA RESULT:     -11.3      6.377      8.536
REMARK SMILES CC[C@](C)(NC(=O)c1cc(F)ccc1C)C(=O)NCCCCCCNC(=O)c1ccc(-c2c3nc(c(-c4ccc(S(=O)(=O)[O-])cc4)c4ccc([nH]4)c(-c4ccc(S(=O)(=O)[O-])cc4)c4nc(c(-c5ccc(S(=O)(=O)[O-])cc5)c5ccc2[nH]5)C=C4)C=C3)cc1
REMARK SMILES IDX 22 1 21 2 20 3 19 4 18 5 16 6 17 7 3 9 4 10 2 11 1 12 5 13
REMARK SMILES IDX 6 14 7 16 8 17 9 18 14 19 10 20 13 21 15 22 11 23 12 24
REMARK SMILES IDX 23 25 24 26 25 27 26 28 27 30 28 31 29 32 87 33 30 34 86 35
REMARK SMILES IDX 31 36 32 37 33 38 80 39 34 40 85 41 79 42 81 43 35 44 84 45
REMARK SMILES IDX 78 46 77 47 36 49 66 50 47 51 65 52 48 53 51 54 64 55 82 56
REMARK SMILES IDX 49 57 50 58 63 60 83 61 52 62 37 63 38 64 46 65 39 66 45 67
REMARK SMILES IDX 40 68 41 69 42 70 43 71 44 72 67 73 68 74 76 75 69 76 75 77
REMARK SMILES IDX 70 78 71 79 72 80 73 81 74 82 53 83 54 84 62 85 55 86 61 87
REMARK SMILES IDX 56 88 57 89 58 90 59 91 60 92
REMARK H PARENT 18 8 5 15 25 29 81 48 51 59
REMARK Flexibility Score: inf
ROOT
ATOM      1  C   UNL A   1      33.912  28.584  27.114  1.00  0.00     0.002 C 
ENDROOT
BRANCH   1   2
ATOM      2  C   UNL A   1      33.844  28.165  25.643  1.00  0.00     0.002 C 
BRANCH   2   3
ATOM      3  C   UNL A   1      33.261  26.767  25.363  1.00  0.00     0.021 C 
BRANCH   3   4
ATOM      4  C   UNL A   1      34.151  25.578  24.919  1.00  0.00     0.116 C 
BRANCH   4   5
ATOM      5  N   UNL A   1      34.358  24.506  25.903  1.00  0.00    -0.354 N 
ATOM      6  C   UNL A   1      34.749  23.206  26.011  1.00  0.00     0.245 C 
ATOM      7  O   UNL A   1      35.031  22.960  27.206  1.00  0.00    -0.272 OA
ATOM      8  H   UNL A   1      34.135  24.848  26.800  1.00  0.00     0.163 HD
BRANCH   6   9
ATOM      9  C   UNL A   1      35.004  22.004  24.924  1.00  0.00     0.116 C 
ATOM     10  C   UNL A   1      36.240  21.235  25.492  1.00  0.00     0.045 C 
BRANCH   9  11
ATOM     11  C   UNL A   1      35.392  22.675  23.567  1.00  0.00     0.035 C 
ATOM     12  C   UNL A   1      36.852  23.139  23.447  1.00  0.00     0.007 C 
ENDBRANCH   9  11
BRANCH   9  13
ATOM     13  N   UNL A   1      34.039  20.889  24.561  1.00  0.00    -0.338 N 
ATOM     14  C   UNL A   1      32.707  20.715  24.900  1.00  0.00     0.252 C 
ATOM     15  H   UNL A   1      34.419  20.178  23.995  1.00  0.00     0.164 HD
ATOM     16  O   UNL A   1      32.268  19.629  25.250  1.00  0.00    -0.269 OA
BRANCH  14  17
ATOM     17  C   UNL A   1      31.804  21.851  24.678  1.00  0.00     0.045 A 
ATOM     18  C   UNL A   1      31.118  22.471  25.718  1.00  0.00     0.053 A 
ATOM     19  C   UNL A   1      31.652  22.290  23.366  1.00  0.00    -0.038 A 
ATOM     20  C   UNL A   1      30.554  23.714  25.479  1.00  0.00     0.124 A 
ATOM     21  C   UNL A   1      31.254  23.616  23.192  1.00  0.00     0.007 A 
ATOM     22  C   UNL A   1      31.908  21.305  22.250  1.00  0.00     0.045 C 
ATOM     23  F   UNL A   1      29.871  24.339  26.446  1.00  0.00    -0.207 F 
ATOM     24  C   UNL A   1      30.727  24.344  24.256  1.00  0.00     0.039 A 
ENDBRANCH  14  17
ENDBRANCH   9  13
ENDBRANCH   6   9
ENDBRANCH   4   5
ENDBRANCH   3   4
ENDBRANCH   2   3
ENDBRANCH   1   2
BRANCH   1  25
ATOM     25  C   UNL A   1      34.218  30.066  27.379  1.00  0.00     0.021 C 
BRANCH  25  26
ATOM     26  C   UNL A   1      35.606  30.358  27.951  1.00  0.00     0.116 C 
BRANCH  26  27
ATOM     27  N   UNL A   1      35.567  30.464  29.400  1.00  0.00    -0.352 N 
ATOM     28  C   UNL A   1      36.465  29.957  30.310  1.00  0.00     0.251 C 
ATOM     29  H   UNL A   1      34.805  30.958  29.776  1.00  0.00     0.163 HD
ATOM     30  O   UNL A   1      36.135  29.791  31.479  1.00  0.00    -0.269 OA
BRANCH  28  31
ATOM     31  C   UNL A   1      37.834  29.624  29.865  1.00  0.00     0.039 A 
ATOM     32  C   UNL A   1      38.787  29.221  30.803  1.00  0.00     0.014 A 
ATOM     33  C   UNL A   1      38.178  29.742  28.513  1.00  0.00     0.014 A 
ATOM     34  C   UNL A   1      40.077  28.900  30.376  1.00  0.00     0.010 A 
ATOM     35  C   UNL A   1      39.442  29.354  28.083  1.00  0.00     0.010 A 
ATOM     36  C   UNL A   1      40.411  28.947  29.011  1.00  0.00    -0.014 A 
BRANCH  36  37
ATOM     37  C   UNL A   1      41.775  28.586  28.550  1.00  0.00     0.031 A 
ATOM     38  C   UNL A   1      42.868  29.623  28.527  1.00  0.00     0.074 A 
ATOM     39  C   UNL A   1      42.017  27.333  28.118  1.00  0.00     0.049 A 
ATOM     40  N   UNL A   1      44.127  29.485  28.199  1.00  0.00    -0.248 NA
ATOM     41  C   UNL A   1      42.493  30.997  28.897  1.00  0.00     0.031 C 
ATOM     42  C   UNL A   1      41.023  26.259  28.045  1.00  0.00     0.029 A 
ATOM     43  N   UNL A   1      43.174  26.747  27.673  1.00  0.00    -0.354 N 
ATOM     44  C   UNL A   1      44.688  30.753  28.306  1.00  0.00     0.074 A 
ATOM     45  C   UNL A   1      43.621  31.655  28.675  1.00  0.00     0.031 C 
ATOM     46  C   UNL A   1      41.626  25.131  27.634  1.00  0.00     0.029 A 
ATOM     47  C   UNL A   1      43.036  25.410  27.381  1.00  0.00     0.049 A 
ATOM     48  H   UNL A   1      44.022  27.236  27.571  1.00  0.00     0.167 HD
ATOM     49  C   UNL A   1      45.978  31.129  28.131  1.00  0.00     0.031 A 
ATOM     50  C   UNL A   1      43.947  24.507  26.973  1.00  0.00     0.031 A 
ATOM     51  C   UNL A   1      47.034  30.220  27.768  1.00  0.00     0.049 A 
ATOM     52  C   UNL A   1      45.374  24.945  26.793  1.00  0.00     0.074 A 
ATOM     53  C   UNL A   1      48.387  30.478  27.636  1.00  0.00     0.029 A 
ATOM     54  N   UNL A   1      46.853  28.877  27.469  1.00  0.00    -0.354 N 
ATOM     55  N   UNL A   1      45.903  26.129  26.987  1.00  0.00    -0.248 NA
ATOM     56  C   UNL A   1      46.328  23.918  26.356  1.00  0.00     0.031 C 
ATOM     57  C   UNL A   1      49.013  29.307  27.197  1.00  0.00     0.029 A 
ATOM     58  C   UNL A   1      48.062  28.302  27.118  1.00  0.00     0.049 A 
ATOM     59  H   UNL A   1      45.990  28.404  27.502  1.00  0.00     0.167 HD
ATOM     60  C   UNL A   1      47.260  25.986  26.716  1.00  0.00     0.074 A 
ATOM     61  C   UNL A   1      47.469  24.594  26.369  1.00  0.00     0.031 C 
ATOM     62  C   UNL A   1      48.245  26.919  26.754  1.00  0.00     0.031 A 
BRANCH  49  63
ATOM     63  C   UNL A   1      46.308  32.590  28.308  1.00  0.00    -0.014 A 
ATOM     64  C   UNL A   1      46.128  33.516  27.263  1.00  0.00     0.010 A 
ATOM     65  C   UNL A   1      46.795  33.050  29.545  1.00  0.00     0.010 A 
ATOM     66  C   UNL A   1      46.483  34.857  27.432  1.00  0.00     0.020 A 
ATOM     67  C   UNL A   1      47.121  34.397  29.730  1.00  0.00     0.020 A 
ATOM     68  C   UNL A   1      46.983  35.288  28.665  1.00  0.00     0.054 A 
BRANCH  68  69
ATOM     69  S   UNL A   1      47.434  37.034  28.858  1.00  0.00     0.124 S 
ATOM     70  O   UNL A   1      47.970  37.354  27.537  1.00  0.00    -0.237 OA
ATOM     71  O   UNL A   1      46.156  37.662  29.185  1.00  0.00    -0.237 OA
ATOM     72  O   UNL A   1      48.415  37.022  29.941  1.00  0.00    -0.744 OA
ENDBRANCH  68  69
ENDBRANCH  49  63
BRANCH  50  73
ATOM     73  C   UNL A   1      43.544  23.090  26.758  1.00  0.00    -0.014 A 
ATOM     74  C   UNL A   1      43.970  22.397  25.611  1.00  0.00     0.010 A 
ATOM     75  C   UNL A   1      42.760  22.415  27.711  1.00  0.00     0.010 A 
ATOM     76  C   UNL A   1      43.609  21.061  25.415  1.00  0.00     0.020 A 
ATOM     77  C   UNL A   1      42.422  21.070  27.533  1.00  0.00     0.020 A 
ATOM     78  C   UNL A   1      42.842  20.404  26.381  1.00  0.00     0.054 A 
BRANCH  78  79
ATOM     79  S   UNL A   1      42.444  18.651  26.137  1.00  0.00     0.124 S 
ATOM     80  O   UNL A   1      42.766  18.081  27.441  1.00  0.00    -0.237 OA
ATOM     81  O   UNL A   1      41.024  18.694  25.797  1.00  0.00    -0.237 OA
ATOM     82  O   UNL A   1      43.326  18.250  25.042  1.00  0.00    -0.744 OA
ENDBRANCH  78  79
ENDBRANCH  50  73
BRANCH  62  83
ATOM     83  C   UNL A   1      49.638  26.451  26.425  1.00  0.00    -0.014 A 
ATOM     84  C   UNL A   1      50.146  26.534  25.115  1.00  0.00     0.010 A 
ATOM     85  C   UNL A   1      50.457  25.936  27.445  1.00  0.00     0.010 A 
ATOM     86  C   UNL A   1      51.426  26.057  24.823  1.00  0.00     0.020 A 
ATOM     87  C   UNL A   1      51.750  25.489  27.164  1.00  0.00     0.020 A 
ATOM     88  C   UNL A   1      52.217  25.531  25.849  1.00  0.00     0.054 A 
BRANCH  88  89
ATOM     89  S   UNL A   1      53.877  24.923  25.446  1.00  0.00     0.124 S 
ATOM     90  O   UNL A   1      53.616  23.521  25.132  1.00  0.00    -0.237 OA
ATOM     91  O   UNL A   1      54.259  25.761  24.312  1.00  0.00    -0.237 OA
ATOM     92  O   UNL A   1      54.639  25.157  26.670  1.00  0.00    -0.744 OA
ENDBRANCH  88  89
ENDBRANCH  62  83
ENDBRANCH  36  37
ENDBRANCH  28  31
ENDBRANCH  26  27
ENDBRANCH  25  26
ENDBRANCH   1  25
TORSDOF 19
ENDMDL
MODEL 3
REMARK VINA RESULT:     -11.3      6.137     11.805
REMARK SMILES CC[C@](C)(NC(=O)c1cc(F)ccc1C)C(=O)NCCCCCCNC(=O)c1ccc(-c2c3nc(c(-c4ccc(S(=O)(=O)[O-])cc4)c4ccc([nH]4)c(-c4ccc(S(=O)(=O)[O-])cc4)c4nc(c(-c5ccc(S(=O)(=O)[O-])cc5)c5ccc2[nH]5)C=C4)C=C3)cc1
REMARK SMILES IDX 22 1 21 2 20 3 19 4 18 5 16 6 17 7 3 9 4 10 2 11 1 12 5 13
REMARK SMILES IDX 6 14 7 16 8 17 9 18 14 19 10 20 13 21 15 22 11 23 12 24
REMARK SMILES IDX 23 25 24 26 25 27 26 28 27 30 28 31 29 32 87 33 30 34 86 35
REMARK SMILES IDX 31 36 32 37 33 38 80 39 34 40 85 41 79 42 81 43 35 44 84 45
REMARK SMILES IDX 78 46 77 47 36 49 66 50 47 51 65 52 48 53 51 54 64 55 82 56
REMARK SMILES IDX 49 57 50 58 63 60 83 61 52 62 37 63 38 64 46 65 39 66 45 67
REMARK SMILES IDX 40 68 41 69 42 70 43 71 44 72 67 73 68 74 76 75 69 76 75 77
REMARK SMILES IDX 70 78 71 79 72 80 73 81 74 82 53 83 54 84 62 85 55 86 61 87
REMARK SMILES IDX 56 88 57 89 58 90 59 91 60 92
REMARK H PARENT 18 8 5 15 25 29 81 48 51 59
REMARK Flexibility Score: inf
ROOT
ATOM      1  C   UNL A   1      37.389  21.103  24.485  1.00  0.00     0.002 C 
ENDROOT
BRANCH   1   2
ATOM      2  C   UNL A   1      35.939  21.093  24.977  1.00  0.00     0.002 C 
BRANCH   2   3
ATOM      3  C   UNL A   1      35.641  21.945  26.226  1.00  0.00     0.021 C 
BRANCH   3   4
ATOM      4  C   UNL A   1      35.187  23.424  26.122  1.00  0.00     0.116 C 
BRANCH   4   5
ATOM      5  N   UNL A   1      34.812  23.906  24.785  1.00  0.00    -0.354 N 
ATOM      6  C   UNL A   1      34.138  24.906  24.152  1.00  0.00     0.245 C 
ATOM      7  O   UNL A   1      34.471  24.926  22.946  1.00  0.00    -0.272 OA
ATOM      8  H   UNL A   1      35.175  23.289  24.109  1.00  0.00     0.163 HD
BRANCH   6   9
ATOM      9  C   UNL A   1      33.112  26.082  24.661  1.00  0.00     0.116 C 
ATOM     10  C   UNL A   1      33.158  27.145  23.517  1.00  0.00     0.045 C 
BRANCH   9  11
ATOM     11  C   UNL A   1      33.717  26.697  25.964  1.00  0.00     0.035 C 
ATOM     12  C   UNL A   1      34.026  28.202  25.909  1.00  0.00     0.007 C 
ENDBRANCH   9  11
BRANCH   9  13
ATOM     13  N   UNL A   1      31.627  25.933  24.937  1.00  0.00    -0.338 N 
ATOM     14  C   UNL A   1      30.685  25.113  24.337  1.00  0.00     0.252 C 
ATOM     15  H   UNL A   1      31.278  26.509  25.655  1.00  0.00     0.164 HD
ATOM     16  O   UNL A   1      29.573  25.523  24.035  1.00  0.00    -0.269 OA
BRANCH  14  17
ATOM     17  C   UNL A   1      31.015  23.689  24.215  1.00  0.00     0.045 A 
ATOM     18  C   UNL A   1      31.271  23.087  22.986  1.00  0.00     0.053 A 
ATOM     19  C   UNL A   1      31.061  22.947  25.391  1.00  0.00    -0.038 A 
ATOM     20  C   UNL A   1      31.885  21.844  22.981  1.00  0.00     0.124 A 
ATOM     21  C   UNL A   1      31.848  21.794  25.375  1.00  0.00     0.007 A 
ATOM     22  C   UNL A   1      30.250  23.430  26.570  1.00  0.00     0.045 C 
ATOM     23  F   UNL A   1      32.134  21.222  21.824  1.00  0.00    -0.207 F 
ATOM     24  C   UNL A   1      32.286  21.252  24.169  1.00  0.00     0.039 A 
ENDBRANCH  14  17
ENDBRANCH   9  13
ENDBRANCH   6   9
ENDBRANCH   4   5
ENDBRANCH   3   4
ENDBRANCH   2   3
ENDBRANCH   1   2
BRANCH   1  25
ATOM     25  C   UNL A   1      38.289  19.979  25.018  1.00  0.00     0.021 C 
BRANCH  25  26
ATOM     26  C   UNL A   1      39.313  20.403  26.073  1.00  0.00     0.116 C 
BRANCH  26  27
ATOM     27  N   UNL A   1      40.410  19.454  26.155  1.00  0.00    -0.352 N 
ATOM     28  C   UNL A   1      41.760  19.713  26.102  1.00  0.00     0.251 C 
ATOM     29  H   UNL A   1      40.157  18.509  26.260  1.00  0.00     0.163 HD
ATOM     30  O   UNL A   1      42.550  18.824  25.809  1.00  0.00    -0.269 OA
BRANCH  28  31
ATOM     31  C   UNL A   1      42.246  21.074  26.410  1.00  0.00     0.039 A 
ATOM     32  C   UNL A   1      42.513  21.428  27.734  1.00  0.00     0.014 A 
ATOM     33  C   UNL A   1      42.407  22.009  25.382  1.00  0.00     0.014 A 
ATOM     34  C   UNL A   1      42.979  22.713  28.021  1.00  0.00     0.010 A 
ATOM     35  C   UNL A   1      42.938  23.264  25.662  1.00  0.00     0.010 A 
ATOM     36  C   UNL A   1      43.212  23.636  26.986  1.00  0.00    -0.014 A 
BRANCH  36  37
ATOM     37  C   UNL A   1      43.727  24.996  27.282  1.00  0.00     0.031 A 
ATOM     38  C   UNL A   1      45.176  25.329  27.036  1.00  0.00     0.074 A 
ATOM     39  C   UNL A   1      42.897  25.918  27.805  1.00  0.00     0.049 A 
ATOM     40  N   UNL A   1      45.797  26.471  27.191  1.00  0.00    -0.248 NA
ATOM     41  C   UNL A   1      46.045  24.232  26.579  1.00  0.00     0.031 C 
ATOM     42  C   UNL A   1      41.487  25.695  28.136  1.00  0.00     0.029 A 
ATOM     43  N   UNL A   1      43.112  27.231  28.139  1.00  0.00    -0.354 N 
ATOM     44  C   UNL A   1      47.127  26.226  26.870  1.00  0.00     0.074 A 
ATOM     45  C   UNL A   1      47.233  24.817  26.563  1.00  0.00     0.031 C 
ATOM     46  C   UNL A   1      40.951  26.846  28.574  1.00  0.00     0.029 A 
ATOM     47  C   UNL A   1      41.984  27.876  28.589  1.00  0.00     0.049 A 
ATOM     48  H   UNL A   1      43.990  27.670  28.065  1.00  0.00     0.167 HD
ATOM     49  C   UNL A   1      48.162  27.098  26.815  1.00  0.00     0.031 A 
ATOM     50  C   UNL A   1      41.799  29.158  28.956  1.00  0.00     0.031 A 
ATOM     51  C   UNL A   1      48.043  28.501  27.117  1.00  0.00     0.049 A 
ATOM     52  C   UNL A   1      42.960  30.110  28.880  1.00  0.00     0.074 A 
ATOM     53  C   UNL A   1      49.008  29.488  27.025  1.00  0.00     0.029 A 
ATOM     54  N   UNL A   1      46.888  29.114  27.581  1.00  0.00    -0.354 N 
ATOM     55  N   UNL A   1      44.191  29.880  28.487  1.00  0.00    -0.248 NA
ATOM     56  C   UNL A   1      42.701  31.498  29.283  1.00  0.00     0.031 C 
ATOM     57  C   UNL A   1      48.454  30.685  27.492  1.00  0.00     0.029 A 
ATOM     58  C   UNL A   1      47.125  30.458  27.813  1.00  0.00     0.049 A 
ATOM     59  H   UNL A   1      46.027  28.659  27.724  1.00  0.00     0.167 HD
ATOM     60  C   UNL A   1      44.850  31.102  28.573  1.00  0.00     0.074 A 
ATOM     61  C   UNL A   1      43.872  32.069  29.033  1.00  0.00     0.031 C 
ATOM     62  C   UNL A   1      46.144  31.399  28.294  1.00  0.00     0.031 A 
BRANCH  49  63
ATOM     63  C   UNL A   1      49.516  26.550  26.437  1.00  0.00    -0.014 A 
ATOM     64  C   UNL A   1      49.992  26.617  25.114  1.00  0.00     0.010 A 
ATOM     65  C   UNL A   1      50.332  25.966  27.423  1.00  0.00     0.010 A 
ATOM     66  C   UNL A   1      51.230  26.063  24.775  1.00  0.00     0.020 A 
ATOM     67  C   UNL A   1      51.585  25.439  27.095  1.00  0.00     0.020 A 
ATOM     68  C   UNL A   1      52.016  25.471  25.767  1.00  0.00     0.054 A 
BRANCH  68  69
ATOM     69  S   UNL A   1      53.618  24.760  25.301  1.00  0.00     0.124 S 
ATOM     70  O   UNL A   1      53.982  25.575  24.143  1.00  0.00    -0.237 OA
ATOM     71  O   UNL A   1      54.426  24.975  26.498  1.00  0.00    -0.237 OA
ATOM     72  O   UNL A   1      53.305  23.364  25.005  1.00  0.00    -0.744 OA
ENDBRANCH  68  69
ENDBRANCH  49  63
BRANCH  50  73
ATOM     73  C   UNL A   1      40.449  29.623  29.377  1.00  0.00    -0.014 A 
ATOM     74  C   UNL A   1      40.176  29.873  30.734  1.00  0.00     0.010 A 
ATOM     75  C   UNL A   1      39.439  29.849  28.425  1.00  0.00     0.010 A 
ATOM     76  C   UNL A   1      38.915  30.328  31.132  1.00  0.00     0.020 A 
ATOM     77  C   UNL A   1      38.186  30.332  28.815  1.00  0.00     0.020 A 
ATOM     78  C   UNL A   1      37.929  30.561  30.168  1.00  0.00     0.054 A 
BRANCH  78  79
ATOM     79  S   UNL A   1      36.324  31.216  30.700  1.00  0.00     0.124 S 
ATOM     80  O   UNL A   1      35.903  30.227  31.687  1.00  0.00    -0.237 OA
ATOM     81  O   UNL A   1      36.680  32.530  31.231  1.00  0.00    -0.237 OA
ATOM     82  O   UNL A   1      35.541  31.244  29.466  1.00  0.00    -0.744 OA
ENDBRANCH  78  79
ENDBRANCH  50  73
BRANCH  62  83
ATOM     83  C   UNL A   1      46.566  32.835  28.467  1.00  0.00    -0.014 A 
ATOM     84  C   UNL A   1      47.173  33.280  29.656  1.00  0.00     0.010 A 
ATOM     85  C   UNL A   1      46.365  33.749  27.417  1.00  0.00     0.010 A 
ATOM     86  C   UNL A   1      47.518  34.624  29.811  1.00  0.00     0.020 A 
ATOM     87  C   UNL A   1      46.740  35.086  27.555  1.00  0.00     0.020 A 
ATOM     88  C   UNL A   1      47.293  35.521  28.762  1.00  0.00     0.054 A 
BRANCH  88  89
ATOM     89  S   UNL A   1      47.755  37.260  28.986  1.00  0.00     0.124 S 
ATOM     90  O   UNL A   1      48.017  37.681  27.612  1.00  0.00    -0.237 OA
ATOM     91  O   UNL A   1      46.560  37.832  29.602  1.00  0.00    -0.237 OA
ATOM     92  O   UNL A   1      48.928  37.198  29.854  1.00  0.00    -0.744 OA
ENDBRANCH  88  89
ENDBRANCH  62  83
ENDBRANCH  36  37
ENDBRANCH  28  31
ENDBRANCH  26  27
ENDBRANCH  25  26
ENDBRANCH   1  25
TORSDOF 19
ENDMDL
