MODEL 1
REMARK VINA RESULT:     -10.6      0.000      0.000
REMARK SMILES CC[C@@H]1CCC[C@@](CC[NH+]2CCOCC2)(C(=O)NCCCCCCNC(=O)c2ccc(-c3c4nc(c(-c5ccc(S(=O)(=O)[O-])cc5)c5ccc([nH]5)c(-c5ccc(S(=O)(=O)[O-])cc5)c5nc(c(-c6ccc(S(=O)(=O)[O-])cc6)c6ccc3[nH]6)C=C5)C=C4)cc2)C1
REMARK SMILES IDX 21 1 20 2 19 3 18 4 16 5 17 6 7 8 3 9 4 10 88 11 5 12 6 13
REMARK SMILES IDX 2 14 1 15 8 16 9 17 10 18 11 19 15 20 12 22 14 23 13 24
REMARK SMILES IDX 22 25 23 26 24 27 25 28 26 29 27 31 28 32 29 33 87 34 30 35
REMARK SMILES IDX 86 36 31 37 32 38 33 39 80 40 34 41 85 42 79 43 81 44 35 45
REMARK SMILES IDX 84 46 78 47 77 48 36 50 66 51 47 52 65 53 48 54 51 55 64 56
REMARK SMILES IDX 82 57 49 58 50 59 63 61 83 62 52 63 37 64 38 65 46 66 39 67
REMARK SMILES IDX 45 68 40 69 41 70 42 71 43 72 44 73 67 74 68 75 76 76 69 77
REMARK SMILES IDX 75 78 70 79 71 80 72 81 73 82 74 83 53 84 54 85 62 86 55 87
REMARK SMILES IDX 61 88 56 89 57 90 58 91 59 92 60 93
REMARK H PARENT 18 7 10 21 25 30 81 49 51 60
REMARK Flexibility Score: inf
ROOT
ATOM      1  C   UNL A   1      34.771  24.530  23.725  1.00  0.00     0.002 C 
ENDROOT
BRANCH   1   2
ATOM      2  C   UNL A   1      33.435  24.202  23.035  1.00  0.00     0.021 C 
BRANCH   2   3
ATOM      3  C   UNL A   1      32.553  25.382  22.605  1.00  0.00     0.116 C 
BRANCH   3   4
ATOM      4  N   UNL A   1      33.204  26.655  22.844  1.00  0.00    -0.356 N 
ATOM      5  C   UNL A   1      32.839  27.845  23.380  1.00  0.00     0.226 C 
ATOM      6  O   UNL A   1      33.777  28.650  23.477  1.00  0.00    -0.274 OA
ATOM      7  H   UNL A   1      34.141  26.656  22.544  1.00  0.00     0.163 HD
BRANCH   5   8
ATOM      8  C   UNL A   1      31.396  28.244  23.790  1.00  0.00     0.055 C 
ATOM      9  C   UNL A   1      31.251  26.326  25.603  1.00  0.00    -0.010 C 
ATOM     10  C   UNL A   1      31.590  27.350  26.697  1.00  0.00     0.003 C 
ATOM     11  C   UNL A   1      30.652  26.963  24.328  1.00  0.00     0.020 C 
ATOM     12  C   UNL A   1      32.214  28.639  26.174  1.00  0.00     0.001 C 
ATOM     13  C   UNL A   1      31.423  29.213  24.997  1.00  0.00     0.017 C 
BRANCH   9  14
ATOM     14  C   UNL A   1      30.371  25.176  26.146  1.00  0.00     0.000 C 
ATOM     15  C   UNL A   1      31.050  23.817  26.274  1.00  0.00     0.004 C 
ENDBRANCH   9  14
BRANCH   8  16
ATOM     16  C   UNL A   1      30.488  28.825  22.636  1.00  0.00     0.078 C 
BRANCH  16  17
ATOM     17  C   UNL A   1      29.083  29.376  22.934  1.00  0.00     0.263 C 
BRANCH  17  18
ATOM     18  N   UNL A   1      28.890  30.706  22.407  1.00  0.00    -0.331 N 
ATOM     19  C   UNL A   1      28.003  30.862  21.256  1.00  0.00     0.291 C 
ATOM     20  C   UNL A   1      28.555  31.718  23.405  1.00  0.00     0.291 C 
ATOM     21  H   UNL A   1      29.833  30.869  22.054  1.00  0.00     0.348 HD
ATOM     22  C   UNL A   1      28.221  32.274  20.673  1.00  0.00     0.221 C 
ATOM     23  C   UNL A   1      28.778  33.114  22.805  1.00  0.00     0.221 C 
ATOM     24  O   UNL A   1      27.952  33.301  21.645  1.00  0.00    -0.370 OA
ENDBRANCH  17  18
ENDBRANCH  16  17
ENDBRANCH   8  16
ENDBRANCH   5   8
ENDBRANCH   3   4
ENDBRANCH   2   3
ENDBRANCH   1   2
BRANCH   1  25
ATOM     25  C   UNL A   1      34.824  24.496  25.254  1.00  0.00     0.002 C 
BRANCH  25  26
ATOM     26  C   UNL A   1      35.583  23.339  25.887  1.00  0.00     0.021 C 
BRANCH  26  27
ATOM     27  C   UNL A   1      37.042  23.652  26.165  1.00  0.00     0.116 C 
BRANCH  27  28
ATOM     28  N   UNL A   1      37.870  22.459  26.233  1.00  0.00    -0.352 N 
ATOM     29  C   UNL A   1      39.212  22.362  26.507  1.00  0.00     0.251 C 
ATOM     30  H   UNL A   1      37.407  21.607  26.058  1.00  0.00     0.163 HD
ATOM     31  O   UNL A   1      39.791  21.291  26.399  1.00  0.00    -0.269 OA
BRANCH  29  32
ATOM     32  C   UNL A   1      39.950  23.583  26.896  1.00  0.00     0.039 A 
ATOM     33  C   UNL A   1      39.801  24.734  26.122  1.00  0.00     0.014 A 
ATOM     34  C   UNL A   1      40.756  23.595  28.038  1.00  0.00     0.014 A 
ATOM     35  C   UNL A   1      40.430  25.911  26.522  1.00  0.00     0.010 A 
ATOM     36  C   UNL A   1      41.296  24.791  28.490  1.00  0.00     0.010 A 
ATOM     37  C   UNL A   1      41.161  25.954  27.723  1.00  0.00    -0.014 A 
BRANCH  37  38
ATOM     38  C   UNL A   1      41.818  27.207  28.164  1.00  0.00     0.031 A 
ATOM     39  C   UNL A   1      43.286  27.416  27.906  1.00  0.00     0.074 A 
ATOM     40  C   UNL A   1      41.095  28.138  28.815  1.00  0.00     0.049 A 
ATOM     41  N   UNL A   1      44.027  28.459  28.173  1.00  0.00    -0.248 NA
ATOM     42  C   UNL A   1      44.027  26.296  27.298  1.00  0.00     0.031 C 
ATOM     43  C   UNL A   1      39.681  28.010  29.183  1.00  0.00     0.029 A 
ATOM     44  N   UNL A   1      41.444  29.383  29.269  1.00  0.00    -0.354 N 
ATOM     45  C   UNL A   1      45.316  28.117  27.779  1.00  0.00     0.074 A 
ATOM     46  C   UNL A   1      45.271  26.748  27.318  1.00  0.00     0.031 C 
ATOM     47  C   UNL A   1      39.272  29.152  29.758  1.00  0.00     0.029 A 
ATOM     48  C   UNL A   1      40.396  30.080  29.823  1.00  0.00     0.049 A 
ATOM     49  H   UNL A   1      42.358  29.744  29.205  1.00  0.00     0.167 HD
ATOM     50  C   UNL A   1      46.431  28.884  27.769  1.00  0.00     0.031 A 
ATOM     51  C   UNL A   1      40.345  31.334  30.309  1.00  0.00     0.031 A 
ATOM     52  C   UNL A   1      46.460  30.253  28.208  1.00  0.00     0.049 A 
ATOM     53  C   UNL A   1      41.584  32.183  30.247  1.00  0.00     0.074 A 
ATOM     54  C   UNL A   1      47.518  31.143  28.189  1.00  0.00     0.029 A 
ATOM     55  N   UNL A   1      45.373  30.930  28.743  1.00  0.00    -0.354 N 
ATOM     56  N   UNL A   1      42.777  31.867  29.799  1.00  0.00    -0.248 NA
ATOM     57  C   UNL A   1      41.463  33.563  30.731  1.00  0.00     0.031 C 
ATOM     58  C   UNL A   1      47.081  32.348  28.752  1.00  0.00     0.029 A 
ATOM     59  C   UNL A   1      45.738  32.224  29.072  1.00  0.00     0.049 A 
ATOM     60  H   UNL A   1      44.476  30.547  28.870  1.00  0.00     0.167 HD
ATOM     61  C   UNL A   1      43.545  33.018  29.928  1.00  0.00     0.074 A 
ATOM     62  C   UNL A   1      42.673  34.041  30.472  1.00  0.00     0.031 C 
ATOM     63  C   UNL A   1      44.854  33.216  29.626  1.00  0.00     0.031 A 
BRANCH  50  64
ATOM     64  C   UNL A   1      47.702  28.254  27.260  1.00  0.00    -0.014 A 
ATOM     65  C   UNL A   1      48.008  28.243  25.887  1.00  0.00     0.010 A 
ATOM     66  C   UNL A   1      48.612  27.682  28.167  1.00  0.00     0.010 A 
ATOM     67  C   UNL A   1      49.175  27.630  25.425  1.00  0.00     0.020 A 
ATOM     68  C   UNL A   1      49.796  27.093  27.712  1.00  0.00     0.020 A 
ATOM     69  C   UNL A   1      50.060  27.055  26.341  1.00  0.00     0.054 A 
BRANCH  69  70
ATOM     70  S   UNL A   1      51.578  26.284  25.716  1.00  0.00     0.124 S 
ATOM     71  O   UNL A   1      51.510  24.954  26.317  1.00  0.00    -0.237 OA
ATOM     72  O   UNL A   1      51.390  26.329  24.268  1.00  0.00    -0.237 OA
ATOM     73  O   UNL A   1      52.641  27.144  26.229  1.00  0.00    -0.744 OA
ENDBRANCH  69  70
ENDBRANCH  50  64
BRANCH  51  74
ATOM     74  C   UNL A   1      39.066  31.872  30.846  1.00  0.00    -0.014 A 
ATOM     75  C   UNL A   1      38.138  32.498  29.993  1.00  0.00     0.010 A 
ATOM     76  C   UNL A   1      38.757  31.742  32.212  1.00  0.00     0.010 A 
ATOM     77  C   UNL A   1      36.936  33.002  30.500  1.00  0.00     0.020 A 
ATOM     78  C   UNL A   1      37.544  32.220  32.717  1.00  0.00     0.020 A 
ATOM     79  C   UNL A   1      36.647  32.859  31.860  1.00  0.00     0.054 A 
BRANCH  79  80
ATOM     80  S   UNL A   1      35.058  33.473  32.486  1.00  0.00     0.124 S 
ATOM     81  O   UNL A   1      34.104  32.747  31.655  1.00  0.00    -0.237 OA
ATOM     82  O   UNL A   1      35.101  33.083  33.893  1.00  0.00    -0.237 OA
ATOM     83  O   UNL A   1      35.132  34.913  32.246  1.00  0.00    -0.744 OA
ENDBRANCH  79  80
ENDBRANCH  51  74
BRANCH  63  84
ATOM     84  C   UNL A   1      45.404  34.596  29.863  1.00  0.00    -0.014 A 
ATOM     85  C   UNL A   1      46.199  34.880  30.987  1.00  0.00     0.010 A 
ATOM     86  C   UNL A   1      45.131  35.619  28.936  1.00  0.00     0.010 A 
ATOM     87  C   UNL A   1      46.665  36.177  31.211  1.00  0.00     0.020 A 
ATOM     88  C   UNL A   1      45.620  36.910  29.142  1.00  0.00     0.020 A 
ATOM     89  C   UNL A   1      46.364  37.186  30.290  1.00  0.00     0.054 A 
BRANCH  89  90
ATOM     90  S   UNL A   1      46.980  38.862  30.600  1.00  0.00     0.124 S 
ATOM     91  O   UNL A   1      46.370  39.175  31.890  1.00  0.00    -0.237 OA
ATOM     92  O   UNL A   1      48.428  38.677  30.619  1.00  0.00    -0.237 OA
ATOM     93  O   UNL A   1      46.471  39.632  29.467  1.00  0.00    -0.744 OA
ENDBRANCH  89  90
ENDBRANCH  63  84
ENDBRANCH  37  38
ENDBRANCH  29  32
ENDBRANCH  27  28
ENDBRANCH  26  27
ENDBRANCH  25  26
ENDBRANCH   1  25
TORSDOF 20
ENDMDL
MODEL 2
REMARK VINA RESULT:     -10.5      1.329      2.140
REMARK SMILES CC[C@@H]1CCC[C@@](CC[NH+]2CCOCC2)(C(=O)NCCCCCCNC(=O)c2ccc(-c3c4nc(c(-c5ccc(S(=O)(=O)[O-])cc5)c5ccc([nH]5)c(-c5ccc(S(=O)(=O)[O-])cc5)c5nc(c(-c6ccc(S(=O)(=O)[O-])cc6)c6ccc3[nH]6)C=C5)C=C4)cc2)C1
REMARK SMILES IDX 21 1 20 2 19 3 18 4 16 5 17 6 7 8 3 9 4 10 88 11 5 12 6 13
REMARK SMILES IDX 2 14 1 15 8 16 9 17 10 18 11 19 15 20 12 22 14 23 13 24
REMARK SMILES IDX 22 25 23 26 24 27 25 28 26 29 27 31 28 32 29 33 87 34 30 35
REMARK SMILES IDX 86 36 31 37 32 38 33 39 80 40 34 41 85 42 79 43 81 44 35 45
REMARK SMILES IDX 84 46 78 47 77 48 36 50 66 51 47 52 65 53 48 54 51 55 64 56
REMARK SMILES IDX 82 57 49 58 50 59 63 61 83 62 52 63 37 64 38 65 46 66 39 67
REMARK SMILES IDX 45 68 40 69 41 70 42 71 43 72 44 73 67 74 68 75 76 76 69 77
REMARK SMILES IDX 75 78 70 79 71 80 72 81 73 82 74 83 53 84 54 85 62 86 55 87
REMARK SMILES IDX 61 88 56 89 57 90 58 91 59 92 60 93
REMARK H PARENT 18 7 10 21 25 30 81 49 51 60
REMARK Flexibility Score: inf
ROOT
ATOM      1  C   UNL A   1      34.818  21.657  24.172  1.00  0.00     0.002 C 
ENDROOT
BRANCH   1   2
ATOM      2  C   UNL A   1      33.754  22.170  25.158  1.00  0.00     0.021 C 
BRANCH   2   3
ATOM      3  C   UNL A   1      32.658  23.090  24.603  1.00  0.00     0.116 C 
BRANCH   3   4
ATOM      4  N   UNL A   1      31.966  23.801  25.660  1.00  0.00    -0.356 N 
ATOM      5  C   UNL A   1      31.446  25.042  25.815  1.00  0.00     0.226 C 
ATOM      6  O   UNL A   1      30.839  25.192  26.885  1.00  0.00    -0.274 OA
ATOM      7  H   UNL A   1      31.846  23.245  26.464  1.00  0.00     0.163 HD
BRANCH   5   8
ATOM      8  C   UNL A   1      31.614  26.221  24.818  1.00  0.00     0.055 C 
ATOM      9  C   UNL A   1      32.261  27.914  26.741  1.00  0.00    -0.010 C 
ATOM     10  C   UNL A   1      33.745  27.722  26.396  1.00  0.00     0.003 C 
ATOM     11  C   UNL A   1      31.308  27.569  25.574  1.00  0.00     0.020 C 
ATOM     12  C   UNL A   1      34.038  26.474  25.571  1.00  0.00     0.001 C 
ATOM     13  C   UNL A   1      33.092  26.351  24.376  1.00  0.00     0.017 C 
BRANCH   9  14
ATOM     14  C   UNL A   1      31.983  29.321  27.321  1.00  0.00     0.000 C 
ATOM     15  C   UNL A   1      31.864  30.452  26.306  1.00  0.00     0.004 C 
ENDBRANCH   9  14
BRANCH   8  16
ATOM     16  C   UNL A   1      30.661  26.198  23.559  1.00  0.00     0.078 C 
BRANCH  16  17
ATOM     17  C   UNL A   1      30.818  27.229  22.428  1.00  0.00     0.263 C 
BRANCH  17  18
ATOM     18  N   UNL A   1      29.765  28.217  22.435  1.00  0.00    -0.331 N 
ATOM     19  C   UNL A   1      28.590  27.957  23.263  1.00  0.00     0.291 C 
ATOM     20  C   UNL A   1      30.214  29.588  22.664  1.00  0.00     0.291 C 
ATOM     21  H   UNL A   1      29.453  28.114  21.469  1.00  0.00     0.348 HD
ATOM     22  C   UNL A   1      27.485  28.951  22.850  1.00  0.00     0.221 C 
ATOM     23  C   UNL A   1      29.101  30.561  22.248  1.00  0.00     0.221 C 
ATOM     24  O   UNL A   1      27.908  30.318  23.012  1.00  0.00    -0.370 OA
ENDBRANCH  17  18
ENDBRANCH  16  17
ENDBRANCH   8  16
ENDBRANCH   5   8
ENDBRANCH   3   4
ENDBRANCH   2   3
ENDBRANCH   1   2
BRANCH   1  25
ATOM     25  C   UNL A   1      36.095  22.481  23.991  1.00  0.00     0.002 C 
BRANCH  25  26
ATOM     26  C   UNL A   1      36.257  23.697  24.891  1.00  0.00     0.021 C 
BRANCH  26  27
ATOM     27  C   UNL A   1      36.938  23.388  26.212  1.00  0.00     0.116 C 
BRANCH  27  28
ATOM     28  N   UNL A   1      37.971  22.373  26.089  1.00  0.00    -0.352 N 
ATOM     29  C   UNL A   1      39.322  22.496  26.301  1.00  0.00     0.251 C 
ATOM     30  H   UNL A   1      37.661  21.478  25.817  1.00  0.00     0.163 HD
ATOM     31  O   UNL A   1      40.078  21.574  26.030  1.00  0.00    -0.269 OA
BRANCH  29  32
ATOM     32  C   UNL A   1      39.848  23.774  26.827  1.00  0.00     0.039 A 
ATOM     33  C   UNL A   1      40.325  23.816  28.137  1.00  0.00     0.014 A 
ATOM     34  C   UNL A   1      39.899  24.912  26.016  1.00  0.00     0.014 A 
ATOM     35  C   UNL A   1      40.894  24.993  28.619  1.00  0.00     0.010 A 
ATOM     36  C   UNL A   1      40.558  26.049  26.462  1.00  0.00     0.010 A 
ATOM     37  C   UNL A   1      41.037  26.110  27.776  1.00  0.00    -0.014 A 
BRANCH  37  38
ATOM     38  C   UNL A   1      41.656  27.360  28.276  1.00  0.00     0.031 A 
ATOM     39  C   UNL A   1      43.149  27.536  28.210  1.00  0.00     0.074 A 
ATOM     40  C   UNL A   1      40.873  28.318  28.808  1.00  0.00     0.049 A 
ATOM     41  N   UNL A   1      43.871  28.571  28.553  1.00  0.00    -0.248 NA
ATOM     42  C   UNL A   1      43.940  26.391  27.726  1.00  0.00     0.031 C 
ATOM     43  C   UNL A   1      39.421  28.223  28.989  1.00  0.00     0.029 A 
ATOM     44  N   UNL A   1      41.185  29.565  29.281  1.00  0.00    -0.354 N 
ATOM     45  C   UNL A   1      45.193  28.197  28.339  1.00  0.00     0.074 A 
ATOM     46  C   UNL A   1      45.179  26.820  27.902  1.00  0.00     0.031 C 
ATOM     47  C   UNL A   1      38.964  29.384  29.484  1.00  0.00     0.029 A 
ATOM     48  C   UNL A   1      40.088  30.293  29.680  1.00  0.00     0.049 A 
ATOM     49  H   UNL A   1      42.107  29.908  29.332  1.00  0.00     0.167 HD
ATOM     50  C   UNL A   1      46.315  28.943  28.462  1.00  0.00     0.031 A 
ATOM     51  C   UNL A   1      40.000  31.557  30.131  1.00  0.00     0.031 A 
ATOM     52  C   UNL A   1      46.314  30.321  28.876  1.00  0.00     0.049 A 
ATOM     53  C   UNL A   1      41.254  32.382  30.217  1.00  0.00     0.074 A 
ATOM     54  C   UNL A   1      47.384  31.191  28.980  1.00  0.00     0.029 A 
ATOM     55  N   UNL A   1      45.182  31.028  29.250  1.00  0.00    -0.354 N 
ATOM     56  N   UNL A   1      42.489  32.035  29.936  1.00  0.00    -0.248 NA
ATOM     57  C   UNL A   1      41.100  33.774  30.656  1.00  0.00     0.031 C 
ATOM     58  C   UNL A   1      46.902  32.415  29.458  1.00  0.00     0.029 A 
ATOM     59  C   UNL A   1      45.527  32.322  29.600  1.00  0.00     0.049 A 
ATOM     60  H   UNL A   1      44.267  30.665  29.264  1.00  0.00     0.167 HD
ATOM     61  C   UNL A   1      43.257  33.175  30.145  1.00  0.00     0.074 A 
ATOM     62  C   UNL A   1      42.343  34.224  30.549  1.00  0.00     0.031 C 
ATOM     63  C   UNL A   1      44.598  33.342  30.014  1.00  0.00     0.031 A 
BRANCH  50  64
ATOM     64  C   UNL A   1      47.628  28.280  28.137  1.00  0.00    -0.014 A 
ATOM     65  C   UNL A   1      48.386  27.641  29.137  1.00  0.00     0.010 A 
ATOM     66  C   UNL A   1      48.105  28.279  26.814  1.00  0.00     0.010 A 
ATOM     67  C   UNL A   1      49.617  27.056  28.829  1.00  0.00     0.020 A 
ATOM     68  C   UNL A   1      49.322  27.668  26.496  1.00  0.00     0.020 A 
ATOM     69  C   UNL A   1      50.078  27.076  27.510  1.00  0.00     0.054 A 
BRANCH  69  70
ATOM     70  S   UNL A   1      51.670  26.291  27.135  1.00  0.00     0.124 S 
ATOM     71  O   UNL A   1      52.400  26.476  28.387  1.00  0.00    -0.237 OA
ATOM     72  O   UNL A   1      51.286  24.914  26.831  1.00  0.00    -0.237 OA
ATOM     73  O   UNL A   1      52.176  27.058  25.999  1.00  0.00    -0.744 OA
ENDBRANCH  69  70
ENDBRANCH  50  64
BRANCH  51  74
ATOM     74  C   UNL A   1      38.673  32.131  30.484  1.00  0.00    -0.014 A 
ATOM     75  C   UNL A   1      37.924  32.842  29.530  1.00  0.00     0.010 A 
ATOM     76  C   UNL A   1      38.140  31.948  31.773  1.00  0.00     0.010 A 
ATOM     77  C   UNL A   1      36.676  33.378  29.864  1.00  0.00     0.020 A 
ATOM     78  C   UNL A   1      36.881  32.459  32.102  1.00  0.00     0.020 A 
ATOM     79  C   UNL A   1      36.162  33.183  31.149  1.00  0.00     0.054 A 
BRANCH  79  80
ATOM     80  S   UNL A   1      34.519  33.841  31.545  1.00  0.00     0.124 S 
ATOM     81  O   UNL A   1      33.952  32.773  32.361  1.00  0.00    -0.237 OA
ATOM     82  O   UNL A   1      34.836  35.080  32.251  1.00  0.00    -0.237 OA
ATOM     83  O   UNL A   1      33.900  34.023  30.233  1.00  0.00    -0.744 OA
ENDBRANCH  79  80
ENDBRANCH  51  74
BRANCH  63  84
ATOM     84  C   UNL A   1      45.141  34.716  30.295  1.00  0.00    -0.014 A 
ATOM     85  C   UNL A   1      45.529  35.573  29.250  1.00  0.00     0.010 A 
ATOM     86  C   UNL A   1      45.251  35.159  31.626  1.00  0.00     0.010 A 
ATOM     87  C   UNL A   1      46.070  36.829  29.534  1.00  0.00     0.020 A 
ATOM     88  C   UNL A   1      45.764  36.426  31.911  1.00  0.00     0.020 A 
ATOM     89  C   UNL A   1      46.192  37.243  30.864  1.00  0.00     0.054 A 
BRANCH  89  90
ATOM     90  S   UNL A   1      46.897  38.877  31.208  1.00  0.00     0.124 S 
ATOM     91  O   UNL A   1      46.436  39.123  32.573  1.00  0.00    -0.237 OA
ATOM     92  O   UNL A   1      48.332  38.648  31.062  1.00  0.00    -0.237 OA
ATOM     93  O   UNL A   1      46.301  39.733  30.185  1.00  0.00    -0.744 OA
ENDBRANCH  89  90
ENDBRANCH  63  84
ENDBRANCH  37  38
ENDBRANCH  29  32
ENDBRANCH  27  28
ENDBRANCH  26  27
ENDBRANCH  25  26
ENDBRANCH   1  25
TORSDOF 20
ENDMDL
MODEL 3
REMARK VINA RESULT:     -10.5      1.442      2.892
REMARK SMILES CC[C@@H]1CCC[C@@](CC[NH+]2CCOCC2)(C(=O)NCCCCCCNC(=O)c2ccc(-c3c4nc(c(-c5ccc(S(=O)(=O)[O-])cc5)c5ccc([nH]5)c(-c5ccc(S(=O)(=O)[O-])cc5)c5nc(c(-c6ccc(S(=O)(=O)[O-])cc6)c6ccc3[nH]6)C=C5)C=C4)cc2)C1
REMARK SMILES IDX 21 1 20 2 19 3 18 4 16 5 17 6 7 8 3 9 4 10 88 11 5 12 6 13
REMARK SMILES IDX 2 14 1 15 8 16 9 17 10 18 11 19 15 20 12 22 14 23 13 24
REMARK SMILES IDX 22 25 23 26 24 27 25 28 26 29 27 31 28 32 29 33 87 34 30 35
REMARK SMILES IDX 86 36 31 37 32 38 33 39 80 40 34 41 85 42 79 43 81 44 35 45
REMARK SMILES IDX 84 46 78 47 77 48 36 50 66 51 47 52 65 53 48 54 51 55 64 56
REMARK SMILES IDX 82 57 49 58 50 59 63 61 83 62 52 63 37 64 38 65 46 66 39 67
REMARK SMILES IDX 45 68 40 69 41 70 42 71 43 72 44 73 67 74 68 75 76 76 69 77
REMARK SMILES IDX 75 78 70 79 71 80 72 81 73 82 74 83 53 84 54 85 62 86 55 87
REMARK SMILES IDX 61 88 56 89 57 90 58 91 59 92 60 93
REMARK H PARENT 18 7 10 21 25 30 81 49 51 60
REMARK Flexibility Score: inf
ROOT
ATOM      1  C   UNL A   1      34.071  22.692  23.788  1.00  0.00     0.002 C 
ENDROOT
BRANCH   1   2
ATOM      2  C   UNL A   1      33.461  24.032  24.238  1.00  0.00     0.021 C 
BRANCH   2   3
ATOM      3  C   UNL A   1      33.909  25.299  23.495  1.00  0.00     0.116 C 
BRANCH   3   4
ATOM      4  N   UNL A   1      32.886  25.777  22.585  1.00  0.00    -0.356 N 
ATOM      5  C   UNL A   1      31.955  26.761  22.605  1.00  0.00     0.226 C 
ATOM      6  O   UNL A   1      31.338  26.876  21.536  1.00  0.00    -0.274 OA
ATOM      7  H   UNL A   1      32.862  25.260  21.748  1.00  0.00     0.163 HD
BRANCH   5   8
ATOM      8  C   UNL A   1      31.604  27.646  23.831  1.00  0.00     0.055 C 
ATOM      9  C   UNL A   1      29.063  27.827  23.125  1.00  0.00    -0.010 C 
ATOM     10  C   UNL A   1      28.717  26.715  24.127  1.00  0.00     0.003 C 
ATOM     11  C   UNL A   1      30.380  28.565  23.456  1.00  0.00     0.020 C 
ATOM     12  C   UNL A   1      29.914  25.887  24.579  1.00  0.00     0.001 C 
ATOM     13  C   UNL A   1      31.088  26.772  25.001  1.00  0.00     0.017 C 
BRANCH   9  14
ATOM     14  C   UNL A   1      27.883  28.806  22.923  1.00  0.00     0.000 C 
ATOM     15  C   UNL A   1      28.197  30.284  23.129  1.00  0.00     0.004 C 
ENDBRANCH   9  14
BRANCH   8  16
ATOM     16  C   UNL A   1      32.745  28.616  24.329  1.00  0.00     0.078 C 
BRANCH  16  17
ATOM     17  C   UNL A   1      33.568  28.292  25.589  1.00  0.00     0.263 C 
BRANCH  17  18
ATOM     18  N   UNL A   1      33.888  29.472  26.355  1.00  0.00    -0.331 N 
ATOM     19  C   UNL A   1      32.803  30.136  27.074  1.00  0.00     0.291 C 
ATOM     20  C   UNL A   1      35.034  29.329  27.250  1.00  0.00     0.291 C 
ATOM     21  H   UNL A   1      34.130  30.094  25.583  1.00  0.00     0.348 HD
ATOM     22  C   UNL A   1      33.304  31.525  27.520  1.00  0.00     0.221 C 
ATOM     23  C   UNL A   1      35.516  30.721  27.682  1.00  0.00     0.221 C 
ATOM     24  O   UNL A   1      34.468  31.429  28.363  1.00  0.00    -0.370 OA
ENDBRANCH  17  18
ENDBRANCH  16  17
ENDBRANCH   8  16
ENDBRANCH   5   8
ENDBRANCH   3   4
ENDBRANCH   2   3
ENDBRANCH   1   2
BRANCH   1  25
ATOM     25  C   UNL A   1      35.494  22.357  24.239  1.00  0.00     0.002 C 
BRANCH  25  26
ATOM     26  C   UNL A   1      36.333  23.510  24.768  1.00  0.00     0.021 C 
BRANCH  26  27
ATOM     27  C   UNL A   1      36.928  23.248  26.139  1.00  0.00     0.116 C 
BRANCH  27  28
ATOM     28  N   UNL A   1      37.931  22.195  26.125  1.00  0.00    -0.352 N 
ATOM     29  C   UNL A   1      39.276  22.289  26.386  1.00  0.00     0.251 C 
ATOM     30  H   UNL A   1      37.601  21.294  25.900  1.00  0.00     0.163 HD
ATOM     31  O   UNL A   1      40.010  21.328  26.207  1.00  0.00    -0.269 OA
BRANCH  29  32
ATOM     32  C   UNL A   1      39.823  23.582  26.849  1.00  0.00     0.039 A 
ATOM     33  C   UNL A   1      40.523  23.621  28.055  1.00  0.00     0.014 A 
ATOM     34  C   UNL A   1      39.673  24.738  26.077  1.00  0.00     0.014 A 
ATOM     35  C   UNL A   1      41.110  24.818  28.464  1.00  0.00     0.010 A 
ATOM     36  C   UNL A   1      40.344  25.899  26.434  1.00  0.00     0.010 A 
ATOM     37  C   UNL A   1      41.046  25.958  27.644  1.00  0.00    -0.014 A 
BRANCH  37  38
ATOM     38  C   UNL A   1      41.682  27.228  28.064  1.00  0.00     0.031 A 
ATOM     39  C   UNL A   1      43.165  27.418  27.892  1.00  0.00     0.074 A 
ATOM     40  C   UNL A   1      40.925  28.194  28.621  1.00  0.00     0.049 A 
ATOM     41  N   UNL A   1      43.896  28.470  28.156  1.00  0.00    -0.248 NA
ATOM     42  C   UNL A   1      43.936  26.267  27.389  1.00  0.00     0.031 C 
ATOM     43  C   UNL A   1      39.490  28.090  28.902  1.00  0.00     0.029 A 
ATOM     44  N   UNL A   1      41.253  29.457  29.035  1.00  0.00    -0.354 N 
ATOM     45  C   UNL A   1      45.205  28.103  27.863  1.00  0.00     0.074 A 
ATOM     46  C   UNL A   1      45.179  26.714  27.468  1.00  0.00     0.031 C 
ATOM     47  C   UNL A   1      39.053  29.260  29.393  1.00  0.00     0.029 A 
ATOM     48  C   UNL A   1      40.177  30.185  29.486  1.00  0.00     0.049 A 
ATOM     49  H   UNL A   1      42.172  29.811  29.013  1.00  0.00     0.167 HD
ATOM     50  C   UNL A   1      46.323  28.864  27.889  1.00  0.00     0.031 A 
ATOM     51  C   UNL A   1      40.104  31.462  29.905  1.00  0.00     0.031 A 
ATOM     52  C   UNL A   1      46.334  30.253  28.261  1.00  0.00     0.049 A 
ATOM     53  C   UNL A   1      41.351  32.301  29.882  1.00  0.00     0.074 A 
ATOM     54  C   UNL A   1      47.397  31.137  28.267  1.00  0.00     0.029 A 
ATOM     55  N   UNL A   1      45.220  30.960  28.691  1.00  0.00    -0.354 N 
ATOM     56  N   UNL A   1      42.568  31.959  29.529  1.00  0.00    -0.248 NA
ATOM     57  C   UNL A   1      41.209  33.705  30.290  1.00  0.00     0.031 C 
ATOM     58  C   UNL A   1      46.934  32.369  28.741  1.00  0.00     0.029 A 
ATOM     59  C   UNL A   1      45.573  32.267  28.979  1.00  0.00     0.049 A 
ATOM     60  H   UNL A   1      44.314  30.588  28.778  1.00  0.00     0.167 HD
ATOM     61  C   UNL A   1      43.334  33.112  29.651  1.00  0.00     0.074 A 
ATOM     62  C   UNL A   1      42.437  34.164  30.087  1.00  0.00     0.031 C 
ATOM     63  C   UNL A   1      44.662  33.289  29.426  1.00  0.00     0.031 A 
BRANCH  50  64
ATOM     64  C   UNL A   1      47.620  28.205  27.495  1.00  0.00    -0.014 A 
ATOM     65  C   UNL A   1      48.444  27.592  28.458  1.00  0.00     0.010 A 
ATOM     66  C   UNL A   1      48.013  28.181  26.145  1.00  0.00     0.010 A 
ATOM     67  C   UNL A   1      49.658  27.010  28.084  1.00  0.00     0.020 A 
ATOM     68  C   UNL A   1      49.213  27.574  25.763  1.00  0.00     0.020 A 
ATOM     69  C   UNL A   1      50.037  27.008  26.739  1.00  0.00     0.054 A 
BRANCH  69  70
ATOM     70  S   UNL A   1      51.609  26.228  26.280  1.00  0.00     0.124 S 
ATOM     71  O   UNL A   1      52.560  26.949  27.122  1.00  0.00    -0.237 OA
ATOM     72  O   UNL A   1      51.390  24.828  26.637  1.00  0.00    -0.237 OA
ATOM     73  O   UNL A   1      51.721  26.491  24.847  1.00  0.00    -0.744 OA
ENDBRANCH  69  70
ENDBRANCH  50  64
BRANCH  51  74
ATOM     74  C   UNL A   1      38.797  32.032  30.331  1.00  0.00    -0.014 A 
ATOM     75  C   UNL A   1      38.293  31.783  31.620  1.00  0.00     0.010 A 
ATOM     76  C   UNL A   1      38.058  32.848  29.456  1.00  0.00     0.010 A 
ATOM     77  C   UNL A   1      37.066  32.321  32.019  1.00  0.00     0.020 A 
ATOM     78  C   UNL A   1      36.844  33.410  29.860  1.00  0.00     0.020 A 
ATOM     79  C   UNL A   1      36.349  33.133  31.135  1.00  0.00     0.054 A 
BRANCH  79  80
ATOM     80  S   UNL A   1      34.784  33.864  31.691  1.00  0.00     0.124 S 
ATOM     81  O   UNL A   1      34.272  34.456  30.459  1.00  0.00    -0.237 OA
ATOM     82  O   UNL A   1      34.052  32.704  32.190  1.00  0.00    -0.237 OA
ATOM     83  O   UNL A   1      35.200  34.817  32.719  1.00  0.00    -0.744 OA
ENDBRANCH  79  80
ENDBRANCH  51  74
BRANCH  63  84
ATOM     84  C   UNL A   1      45.205  34.676  29.629  1.00  0.00    -0.014 A 
ATOM     85  C   UNL A   1      45.710  35.084  30.877  1.00  0.00     0.010 A 
ATOM     86  C   UNL A   1      45.224  35.579  28.551  1.00  0.00     0.010 A 
ATOM     87  C   UNL A   1      46.171  36.390  31.057  1.00  0.00     0.020 A 
ATOM     88  C   UNL A   1      45.712  36.876  28.720  1.00  0.00     0.020 A 
ATOM     89  C   UNL A   1      46.161  37.280  29.979  1.00  0.00     0.054 A 
BRANCH  89  90
ATOM     90  S   UNL A   1      46.765  38.970  30.235  1.00  0.00     0.124 S 
ATOM     91  O   UNL A   1      48.206  38.761  30.354  1.00  0.00    -0.237 OA
ATOM     92  O   UNL A   1      46.328  39.656  29.022  1.00  0.00    -0.237 OA
ATOM     93  O   UNL A   1      46.093  39.395  31.461  1.00  0.00    -0.744 OA
ENDBRANCH  89  90
ENDBRANCH  63  84
ENDBRANCH  37  38
ENDBRANCH  29  32
ENDBRANCH  27  28
ENDBRANCH  26  27
ENDBRANCH  25  26
ENDBRANCH   1  25
TORSDOF 20
ENDMDL
