MODEL 1
REMARK VINA RESULT:     -11.7      0.000      0.000
REMARK SMILES O=C(NCCCCCCNC(=O)[C@@H]1CCCC[C@@H]1NS(=O)(=O)c1ccc2ccccc2c1)c1ccc(-c2c3nc(c(-c4ccc(S(=O)(=O)[O-])cc4)c4ccc([nH]4)c(-c4ccc(S(=O)(=O)[O-])cc4)c4nc(c(-c5ccc(S(=O)(=O)[O-])cc5)c5ccc2[nH]5)C=C4)C=C3)cc1
REMARK SMILES IDX 6 1 5 2 4 3 3 4 1 5 2 6 33 8 34 9 92 10 35 11 91 12 36 13
REMARK SMILES IDX 37 14 38 15 85 16 39 17 90 18 84 19 86 20 40 21 89 22 83 23
REMARK SMILES IDX 82 24 41 26 71 27 52 28 70 29 53 30 56 31 69 32 87 33 54 34
REMARK SMILES IDX 55 35 68 37 88 38 57 39 42 40 43 41 51 42 44 43 50 44 45 45
REMARK SMILES IDX 46 46 47 47 48 48 49 49 72 50 73 51 81 52 74 53 80 54 75 55
REMARK SMILES IDX 76 56 77 57 78 58 79 59 58 60 59 61 67 62 60 63 66 64 61 65
REMARK SMILES IDX 62 66 63 67 64 68 65 69 7 70 8 71 9 72 10 73 11 74 12 76
REMARK SMILES IDX 13 77 14 78 18 79 15 80 17 81 16 82 19 83 20 85 21 86 22 87
REMARK SMILES IDX 23 88 24 89 32 90 25 91 31 92 26 93 30 94 27 95 29 96 28 97
REMARK H PARENT 3 7 86 25 56 36 10 75 19 84
REMARK Flexibility Score: inf
ROOT
ATOM      1  C   UNL A   1      36.473  21.273  25.299  1.00  0.00     0.002 C 
ENDROOT
BRANCH   1   2
ATOM      2  C   UNL A   1      37.868  20.783  24.901  1.00  0.00     0.021 C 
BRANCH   2   3
ATOM      3  C   UNL A   1      38.940  21.000  25.963  1.00  0.00     0.116 C 
BRANCH   3   4
ATOM      4  N   UNL A   1      39.816  19.850  26.080  1.00  0.00    -0.352 N 
ATOM      5  O   UNL A   1      41.788  18.763  26.032  1.00  0.00    -0.269 OA
ATOM      6  C   UNL A   1      41.186  19.824  26.157  1.00  0.00     0.251 C 
ATOM      7  H   UNL A   1      39.370  18.972  26.106  1.00  0.00     0.163 HD
BRANCH   6   8
ATOM      8  C   UNL A   1      41.930  21.081  26.386  1.00  0.00     0.039 A 
ATOM      9  C   UNL A   1      42.285  21.907  25.315  1.00  0.00     0.014 A 
ATOM     10  C   UNL A   1      42.222  21.464  27.698  1.00  0.00     0.014 A 
ATOM     11  C   UNL A   1      42.981  23.090  25.552  1.00  0.00     0.010 A 
ATOM     12  C   UNL A   1      42.877  22.674  27.938  1.00  0.00     0.010 A 
ATOM     13  C   UNL A   1      43.256  23.496  26.866  1.00  0.00    -0.014 A 
BRANCH  13  14
ATOM     14  C   UNL A   1      43.811  24.848  27.114  1.00  0.00     0.031 A 
ATOM     15  C   UNL A   1      45.260  25.155  26.876  1.00  0.00     0.074 A 
ATOM     16  C   UNL A   1      42.980  25.795  27.591  1.00  0.00     0.049 A 
ATOM     17  N   UNL A   1      45.897  26.282  27.063  1.00  0.00    -0.248 NA
ATOM     18  C   UNL A   1      46.106  24.063  26.367  1.00  0.00     0.031 C 
ATOM     19  C   UNL A   1      41.557  25.596  27.889  1.00  0.00     0.029 A 
ATOM     20  N   UNL A   1      43.206  27.107  27.916  1.00  0.00    -0.354 N 
ATOM     21  C   UNL A   1      47.220  26.035  26.717  1.00  0.00     0.074 A 
ATOM     22  C   UNL A   1      47.298  24.647  26.313  1.00  0.00     0.031 C 
ATOM     23  C   UNL A   1      41.037  26.747  28.338  1.00  0.00     0.029 A 
ATOM     24  C   UNL A   1      42.093  27.749  28.407  1.00  0.00     0.049 A 
ATOM     25  H   UNL A   1      44.080  27.548  27.810  1.00  0.00     0.167 HD
ATOM     26  C   UNL A   1      48.268  26.892  26.735  1.00  0.00     0.031 A 
ATOM     27  C   UNL A   1      41.943  28.997  28.885  1.00  0.00     0.031 A 
ATOM     28  C   UNL A   1      48.178  28.274  27.130  1.00  0.00     0.049 A 
ATOM     29  C   UNL A   1      43.130  29.913  28.918  1.00  0.00     0.074 A 
ATOM     30  C   UNL A   1      49.168  29.241  27.101  1.00  0.00     0.029 A 
ATOM     31  N   UNL A   1      47.041  28.879  27.641  1.00  0.00    -0.354 N 
ATOM     32  N   UNL A   1      44.354  29.683  28.509  1.00  0.00    -0.248 NA
ATOM     33  C   UNL A   1      42.919  31.251  29.486  1.00  0.00     0.031 C 
ATOM     34  C   UNL A   1      48.642  30.420  27.641  1.00  0.00     0.029 A 
ATOM     35  C   UNL A   1      47.315  30.196  27.970  1.00  0.00     0.049 A 
ATOM     36  H   UNL A   1      46.168  28.440  27.753  1.00  0.00     0.167 HD
ATOM     37  C   UNL A   1      45.062  30.847  28.773  1.00  0.00     0.074 A 
ATOM     38  C   UNL A   1      44.125  31.788  29.352  1.00  0.00     0.031 C 
ATOM     39  C   UNL A   1      46.374  31.110  28.563  1.00  0.00     0.031 A 
BRANCH  26  40
ATOM     40  C   UNL A   1      49.618  26.368  26.334  1.00  0.00    -0.014 A 
ATOM     41  C   UNL A   1      50.061  26.453  25.003  1.00  0.00     0.010 A 
ATOM     42  C   UNL A   1      50.493  25.874  27.319  1.00  0.00     0.010 A 
ATOM     43  C   UNL A   1      51.353  26.042  24.661  1.00  0.00     0.020 A 
ATOM     44  C   UNL A   1      51.791  25.476  26.985  1.00  0.00     0.020 A 
ATOM     45  C   UNL A   1      52.210  25.556  25.654  1.00  0.00     0.054 A 
BRANCH  45  46
ATOM     46  S   UNL A   1      53.900  25.082  25.194  1.00  0.00     0.124 S 
ATOM     47  O   UNL A   1      53.743  23.660  24.897  1.00  0.00    -0.237 OA
ATOM     48  O   UNL A   1      54.172  25.935  24.041  1.00  0.00    -0.237 OA
ATOM     49  O   UNL A   1      54.684  25.386  26.388  1.00  0.00    -0.744 OA
ENDBRANCH  45  46
ENDBRANCH  26  40
BRANCH  27  50
ATOM     50  C   UNL A   1      40.625  29.429  29.417  1.00  0.00    -0.014 A 
ATOM     51  C   UNL A   1      40.353  29.372  30.794  1.00  0.00     0.010 A 
ATOM     52  C   UNL A   1      39.640  29.921  28.541  1.00  0.00     0.010 A 
ATOM     53  C   UNL A   1      39.111  29.785  31.285  1.00  0.00     0.020 A 
ATOM     54  C   UNL A   1      38.407  30.355  29.030  1.00  0.00     0.020 A 
ATOM     55  C   UNL A   1      38.144  30.272  30.398  1.00  0.00     0.054 A 
BRANCH  55  56
ATOM     56  S   UNL A   1      36.555  30.851  31.052  1.00  0.00     0.124 S 
ATOM     57  O   UNL A   1      36.269  29.853  32.077  1.00  0.00    -0.237 OA
ATOM     58  O   UNL A   1      36.877  32.189  31.545  1.00  0.00    -0.237 OA
ATOM     59  O   UNL A   1      35.679  30.823  29.883  1.00  0.00    -0.744 OA
ENDBRANCH  55  56
ENDBRANCH  27  50
BRANCH  39  60
ATOM     60  C   UNL A   1      46.871  32.465  28.975  1.00  0.00    -0.014 A 
ATOM     61  C   UNL A   1      46.801  33.552  28.087  1.00  0.00     0.010 A 
ATOM     62  C   UNL A   1      47.377  32.664  30.271  1.00  0.00     0.010 A 
ATOM     63  C   UNL A   1      47.249  34.815  28.481  1.00  0.00     0.020 A 
ATOM     64  C   UNL A   1      47.808  33.930  30.676  1.00  0.00     0.020 A 
ATOM     65  C   UNL A   1      47.754  34.994  29.772  1.00  0.00     0.054 A 
BRANCH  65  66
ATOM     66  S   UNL A   1      48.289  36.652  30.280  1.00  0.00     0.124 S 
ATOM     67  O   UNL A   1      49.529  36.363  30.994  1.00  0.00    -0.237 OA
ATOM     68  O   UNL A   1      48.444  37.348  29.006  1.00  0.00    -0.237 OA
ATOM     69  O   UNL A   1      47.186  37.127  31.113  1.00  0.00    -0.744 OA
ENDBRANCH  65  66
ENDBRANCH  39  60
ENDBRANCH  13  14
ENDBRANCH   6   8
ENDBRANCH   3   4
ENDBRANCH   2   3
ENDBRANCH   1   2
BRANCH   1  70
ATOM     70  C   UNL A   1      36.412  22.722  25.794  1.00  0.00     0.002 C 
BRANCH  70  71
ATOM     71  C   UNL A   1      35.862  23.729  24.776  1.00  0.00     0.021 C 
BRANCH  71  72
ATOM     72  C   UNL A   1      35.376  23.079  23.483  1.00  0.00     0.116 C 
BRANCH  72  73
ATOM     73  N   UNL A   1      34.003  23.463  23.209  1.00  0.00    -0.356 N 
ATOM     74  C   UNL A   1      32.859  22.721  23.253  1.00  0.00     0.224 C 
ATOM     75  H   UNL A   1      33.878  24.404  22.951  1.00  0.00     0.163 HD
ATOM     76  O   UNL A   1      31.796  23.292  23.005  1.00  0.00    -0.275 OA
BRANCH  74  77
ATOM     77  C   UNL A   1      32.926  21.280  23.743  1.00  0.00     0.096 C 
ATOM     78  C   UNL A   1      32.195  20.215  22.921  1.00  0.00     0.015 C 
ATOM     79  C   UNL A   1      32.658  21.152  25.248  1.00  0.00     0.082 C 
ATOM     80  C   UNL A   1      32.635  18.824  23.369  1.00  0.00     0.001 C 
ATOM     81  C   UNL A   1      32.906  19.725  25.750  1.00  0.00     0.021 C 
ATOM     82  C   UNL A   1      32.379  18.606  24.854  1.00  0.00     0.002 C 
BRANCH  79  83
ATOM     83  N   UNL A   1      31.460  21.809  25.832  1.00  0.00    -0.207 NA
ATOM     84  H   UNL A   1      30.891  21.031  26.167  1.00  0.00     0.141 HD
BRANCH  83  85
ATOM     85  S   UNL A   1      31.335  22.957  27.047  1.00  0.00     0.240 S 
ATOM     86  O   UNL A   1      29.974  22.865  27.536  1.00  0.00    -0.207 OA
ATOM     87  O   UNL A   1      32.451  22.829  27.950  1.00  0.00    -0.207 OA
BRANCH  85  88
ATOM     88  C   UNL A   1      31.441  24.506  26.200  1.00  0.00     0.083 A 
ATOM     89  C   UNL A   1      30.287  25.099  25.684  1.00  0.00     0.022 A 
ATOM     90  C   UNL A   1      32.665  25.177  26.180  1.00  0.00     0.030 A 
ATOM     91  C   UNL A   1      30.345  26.417  25.227  1.00  0.00     0.010 A 
ATOM     92  C   UNL A   1      32.721  26.512  25.764  1.00  0.00    -0.017 A 
ATOM     93  C   UNL A   1      31.544  27.148  25.301  1.00  0.00    -0.018 A 
ATOM     94  C   UNL A   1      33.913  27.244  25.861  1.00  0.00     0.009 A 
ATOM     95  C   UNL A   1      31.593  28.510  24.968  1.00  0.00     0.009 A 
ATOM     96  C   UNL A   1      33.941  28.600  25.535  1.00  0.00     0.001 A 
ATOM     97  C   UNL A   1      32.782  29.232  25.094  1.00  0.00     0.001 A 
ENDBRANCH  85  88
ENDBRANCH  83  85
ENDBRANCH  79  83
ENDBRANCH  74  77
ENDBRANCH  72  73
ENDBRANCH  71  72
ENDBRANCH  70  71
ENDBRANCH   1  70
TORSDOF 19
ENDMDL
MODEL 2
REMARK VINA RESULT:     -11.6      2.315      8.839
REMARK SMILES O=C(NCCCCCCNC(=O)[C@@H]1CCCC[C@@H]1NS(=O)(=O)c1ccc2ccccc2c1)c1ccc(-c2c3nc(c(-c4ccc(S(=O)(=O)[O-])cc4)c4ccc([nH]4)c(-c4ccc(S(=O)(=O)[O-])cc4)c4nc(c(-c5ccc(S(=O)(=O)[O-])cc5)c5ccc2[nH]5)C=C4)C=C3)cc1
REMARK SMILES IDX 6 1 5 2 4 3 3 4 1 5 2 6 33 8 34 9 92 10 35 11 91 12 36 13
REMARK SMILES IDX 37 14 38 15 85 16 39 17 90 18 84 19 86 20 40 21 89 22 83 23
REMARK SMILES IDX 82 24 41 26 71 27 52 28 70 29 53 30 56 31 69 32 87 33 54 34
REMARK SMILES IDX 55 35 68 37 88 38 57 39 42 40 43 41 51 42 44 43 50 44 45 45
REMARK SMILES IDX 46 46 47 47 48 48 49 49 72 50 73 51 81 52 74 53 80 54 75 55
REMARK SMILES IDX 76 56 77 57 78 58 79 59 58 60 59 61 67 62 60 63 66 64 61 65
REMARK SMILES IDX 62 66 63 67 64 68 65 69 7 70 8 71 9 72 10 73 11 74 12 76
REMARK SMILES IDX 13 77 14 78 18 79 15 80 17 81 16 82 19 83 20 85 21 86 22 87
REMARK SMILES IDX 23 88 24 89 32 90 25 91 31 92 26 93 30 94 27 95 29 96 28 97
REMARK H PARENT 3 7 86 25 56 36 10 75 19 84
REMARK Flexibility Score: inf
ROOT
ATOM      1  C   UNL A   1      34.540  29.236  27.386  1.00  0.00     0.002 C 
ENDROOT
BRANCH   1   2
ATOM      2  C   UNL A   1      34.518  30.755  27.584  1.00  0.00     0.021 C 
BRANCH   2   3
ATOM      3  C   UNL A   1      35.748  31.317  28.287  1.00  0.00     0.116 C 
BRANCH   3   4
ATOM      4  N   UNL A   1      35.633  31.212  29.729  1.00  0.00    -0.352 N 
ATOM      5  O   UNL A   1      36.097  30.371  31.766  1.00  0.00    -0.269 OA
ATOM      6  C   UNL A   1      36.452  30.546  30.605  1.00  0.00     0.251 C 
ATOM      7  H   UNL A   1      34.864  31.678  30.133  1.00  0.00     0.163 HD
BRANCH   6   8
ATOM      8  C   UNL A   1      37.761  30.039  30.141  1.00  0.00     0.039 A 
ATOM      9  C   UNL A   1      38.091  30.050  28.782  1.00  0.00     0.014 A 
ATOM     10  C   UNL A   1      38.691  29.602  31.088  1.00  0.00     0.014 A 
ATOM     11  C   UNL A   1      39.331  29.573  28.364  1.00  0.00     0.010 A 
ATOM     12  C   UNL A   1      39.953  29.169  30.673  1.00  0.00     0.010 A 
ATOM     13  C   UNL A   1      40.281  29.157  29.309  1.00  0.00    -0.014 A 
BRANCH  13  14
ATOM     14  C   UNL A   1      41.663  28.847  28.870  1.00  0.00     0.031 A 
ATOM     15  C   UNL A   1      42.721  29.908  28.809  1.00  0.00     0.074 A 
ATOM     16  C   UNL A   1      41.938  27.582  28.496  1.00  0.00     0.049 A 
ATOM     17  N   UNL A   1      43.968  29.796  28.428  1.00  0.00    -0.248 NA
ATOM     18  C   UNL A   1      42.337  31.268  29.219  1.00  0.00     0.031 C 
ATOM     19  C   UNL A   1      40.974  26.476  28.488  1.00  0.00     0.029 A 
ATOM     20  N   UNL A   1      43.101  27.011  28.047  1.00  0.00    -0.354 N 
ATOM     21  C   UNL A   1      44.515  31.069  28.534  1.00  0.00     0.074 A 
ATOM     22  C   UNL A   1      43.462  31.942  29.008  1.00  0.00     0.031 C 
ATOM     23  C   UNL A   1      41.588  25.360  28.069  1.00  0.00     0.029 A 
ATOM     24  C   UNL A   1      42.972  25.678  27.734  1.00  0.00     0.049 A 
ATOM     25  H   UNL A   1      43.947  27.507  27.956  1.00  0.00     0.167 HD
ATOM     26  C   UNL A   1      45.780  31.465  28.260  1.00  0.00     0.031 A 
ATOM     27  C   UNL A   1      43.857  24.812  27.210  1.00  0.00     0.031 A 
ATOM     28  C   UNL A   1      46.823  30.587  27.797  1.00  0.00     0.049 A 
ATOM     29  C   UNL A   1      45.242  25.290  26.891  1.00  0.00     0.074 A 
ATOM     30  C   UNL A   1      48.157  30.881  27.573  1.00  0.00     0.029 A 
ATOM     31  N   UNL A   1      46.647  29.251  27.471  1.00  0.00    -0.354 N 
ATOM     32  N   UNL A   1      45.762  26.480  27.076  1.00  0.00    -0.248 NA
ATOM     33  C   UNL A   1      46.157  24.314  26.286  1.00  0.00     0.031 C 
ATOM     34  C   UNL A   1      48.777  29.734  27.065  1.00  0.00     0.029 A 
ATOM     35  C   UNL A   1      47.838  28.717  27.008  1.00  0.00     0.049 A 
ATOM     36  H   UNL A   1      45.802  28.755  27.557  1.00  0.00     0.167 HD
ATOM     37  C   UNL A   1      47.064  26.397  26.605  1.00  0.00     0.074 A 
ATOM     38  C   UNL A   1      47.263  25.035  26.152  1.00  0.00     0.031 C 
ATOM     39  C   UNL A   1      48.010  27.366  26.544  1.00  0.00     0.031 A 
BRANCH  26  40
ATOM     40  C   UNL A   1      46.119  32.919  28.432  1.00  0.00    -0.014 A 
ATOM     41  C   UNL A   1      45.938  33.834  27.379  1.00  0.00     0.010 A 
ATOM     42  C   UNL A   1      46.529  33.394  29.691  1.00  0.00     0.010 A 
ATOM     43  C   UNL A   1      46.174  35.197  27.581  1.00  0.00     0.020 A 
ATOM     44  C   UNL A   1      46.752  34.758  29.901  1.00  0.00     0.020 A 
ATOM     45  C   UNL A   1      46.579  35.651  28.840  1.00  0.00     0.054 A 
BRANCH  45  46
ATOM     46  S   UNL A   1      46.823  37.431  29.090  1.00  0.00     0.124 S 
ATOM     47  O   UNL A   1      48.221  37.486  29.515  1.00  0.00    -0.237 OA
ATOM     48  O   UNL A   1      46.549  37.984  27.767  1.00  0.00    -0.237 OA
ATOM     49  O   UNL A   1      45.845  37.775  30.120  1.00  0.00    -0.744 OA
ENDBRANCH  45  46
ENDBRANCH  26  40
BRANCH  27  50
ATOM     50  C   UNL A   1      43.438  23.420  26.910  1.00  0.00    -0.014 A 
ATOM     51  C   UNL A   1      43.325  22.975  25.582  1.00  0.00     0.010 A 
ATOM     52  C   UNL A   1      43.168  22.525  27.961  1.00  0.00     0.010 A 
ATOM     53  C   UNL A   1      42.933  21.660  25.310  1.00  0.00     0.020 A 
ATOM     54  C   UNL A   1      42.798  21.205  27.693  1.00  0.00     0.020 A 
ATOM     55  C   UNL A   1      42.670  20.785  26.369  1.00  0.00     0.054 A 
BRANCH  55  56
ATOM     56  S   UNL A   1      42.210  19.068  26.004  1.00  0.00     0.124 S 
ATOM     57  O   UNL A   1      42.981  18.800  24.794  1.00  0.00    -0.237 OA
ATOM     58  O   UNL A   1      42.648  18.356  27.203  1.00  0.00    -0.237 OA
ATOM     59  O   UNL A   1      40.762  19.137  25.826  1.00  0.00    -0.744 OA
ENDBRANCH  55  56
ENDBRANCH  27  50
BRANCH  39  60
ATOM     60  C   UNL A   1      49.337  26.985  25.955  1.00  0.00    -0.014 A 
ATOM     61  C   UNL A   1      49.615  27.236  24.601  1.00  0.00     0.010 A 
ATOM     62  C   UNL A   1      50.327  26.408  26.769  1.00  0.00     0.010 A 
ATOM     63  C   UNL A   1      50.858  26.895  24.062  1.00  0.00     0.020 A 
ATOM     64  C   UNL A   1      51.578  26.084  26.238  1.00  0.00     0.020 A 
ATOM     65  C   UNL A   1      51.830  26.318  24.883  1.00  0.00     0.054 A 
BRANCH  65  66
ATOM     66  S   UNL A   1      53.453  25.924  24.175  1.00  0.00     0.124 S 
ATOM     67  O   UNL A   1      53.721  24.607  24.747  1.00  0.00    -0.237 OA
ATOM     68  O   UNL A   1      53.194  25.945  22.738  1.00  0.00    -0.237 OA
ATOM     69  O   UNL A   1      54.310  27.003  24.663  1.00  0.00    -0.744 OA
ENDBRANCH  65  66
ENDBRANCH  39  60
ENDBRANCH  13  14
ENDBRANCH   6   8
ENDBRANCH   3   4
ENDBRANCH   2   3
ENDBRANCH   1   2
BRANCH   1  70
ATOM     70  C   UNL A   1      33.841  28.736  26.117  1.00  0.00     0.002 C 
BRANCH  70  71
ATOM     71  C   UNL A   1      33.313  27.299  26.195  1.00  0.00     0.021 C 
BRANCH  71  72
ATOM     72  C   UNL A   1      31.804  27.219  26.413  1.00  0.00     0.116 C 
BRANCH  72  73
ATOM     73  N   UNL A   1      31.243  26.111  25.661  1.00  0.00    -0.356 N 
ATOM     74  C   UNL A   1      30.453  26.117  24.549  1.00  0.00     0.224 C 
ATOM     75  H   UNL A   1      31.466  25.218  26.008  1.00  0.00     0.163 HD
ATOM     76  O   UNL A   1      30.128  25.029  24.071  1.00  0.00    -0.275 OA
BRANCH  74  77
ATOM     77  C   UNL A   1      30.137  27.442  23.868  1.00  0.00     0.096 C 
ATOM     78  C   UNL A   1      28.699  27.672  23.395  1.00  0.00     0.015 C 
ATOM     79  C   UNL A   1      31.176  27.829  22.809  1.00  0.00     0.082 C 
ATOM     80  C   UNL A   1      28.499  29.144  23.044  1.00  0.00     0.001 C 
ATOM     81  C   UNL A   1      30.937  29.244  22.268  1.00  0.00     0.021 C 
ATOM     82  C   UNL A   1      29.481  29.604  21.975  1.00  0.00     0.002 C 
BRANCH  79  83
ATOM     83  N   UNL A   1      31.568  26.836  21.777  1.00  0.00    -0.207 NA
ATOM     84  H   UNL A   1      31.221  27.236  20.905  1.00  0.00     0.141 HD
BRANCH  83  85
ATOM     85  S   UNL A   1      33.077  26.227  21.372  1.00  0.00     0.240 S 
ATOM     86  O   UNL A   1      32.915  25.607  20.073  1.00  0.00    -0.207 OA
ATOM     87  O   UNL A   1      34.080  27.240  21.585  1.00  0.00    -0.207 OA
BRANCH  85  88
ATOM     88  C   UNL A   1      33.335  24.899  22.512  1.00  0.00     0.083 A 
ATOM     89  C   UNL A   1      32.845  23.625  22.220  1.00  0.00     0.022 A 
ATOM     90  C   UNL A   1      34.145  25.121  23.628  1.00  0.00     0.030 A 
ATOM     91  C   UNL A   1      33.250  22.544  23.007  1.00  0.00     0.010 A 
ATOM     92  C   UNL A   1      34.589  24.037  24.393  1.00  0.00    -0.017 A 
ATOM     93  C   UNL A   1      34.154  22.730  24.068  1.00  0.00    -0.018 A 
ATOM     94  C   UNL A   1      35.508  24.223  25.436  1.00  0.00     0.009 A 
ATOM     95  C   UNL A   1      34.672  21.642  24.787  1.00  0.00     0.009 A 
ATOM     96  C   UNL A   1      36.020  23.129  26.133  1.00  0.00     0.001 A 
ATOM     97  C   UNL A   1      35.607  21.841  25.806  1.00  0.00     0.001 A 
ENDBRANCH  85  88
ENDBRANCH  83  85
ENDBRANCH  79  83
ENDBRANCH  74  77
ENDBRANCH  72  73
ENDBRANCH  71  72
ENDBRANCH  70  71
ENDBRANCH   1  70
TORSDOF 19
ENDMDL
MODEL 3
REMARK VINA RESULT:     -11.4      0.736      8.020
REMARK SMILES O=C(NCCCCCCNC(=O)[C@@H]1CCCC[C@@H]1NS(=O)(=O)c1ccc2ccccc2c1)c1ccc(-c2c3nc(c(-c4ccc(S(=O)(=O)[O-])cc4)c4ccc([nH]4)c(-c4ccc(S(=O)(=O)[O-])cc4)c4nc(c(-c5ccc(S(=O)(=O)[O-])cc5)c5ccc2[nH]5)C=C4)C=C3)cc1
REMARK SMILES IDX 6 1 5 2 4 3 3 4 1 5 2 6 33 8 34 9 92 10 35 11 91 12 36 13
REMARK SMILES IDX 37 14 38 15 85 16 39 17 90 18 84 19 86 20 40 21 89 22 83 23
REMARK SMILES IDX 82 24 41 26 71 27 52 28 70 29 53 30 56 31 69 32 87 33 54 34
REMARK SMILES IDX 55 35 68 37 88 38 57 39 42 40 43 41 51 42 44 43 50 44 45 45
REMARK SMILES IDX 46 46 47 47 48 48 49 49 72 50 73 51 81 52 74 53 80 54 75 55
REMARK SMILES IDX 76 56 77 57 78 58 79 59 58 60 59 61 67 62 60 63 66 64 61 65
REMARK SMILES IDX 62 66 63 67 64 68 65 69 7 70 8 71 9 72 10 73 11 74 12 76
REMARK SMILES IDX 13 77 14 78 18 79 15 80 17 81 16 82 19 83 20 85 21 86 22 87
REMARK SMILES IDX 23 88 24 89 32 90 25 91 31 92 26 93 30 94 27 95 29 96 28 97
REMARK H PARENT 3 7 86 25 56 36 10 75 19 84
REMARK Flexibility Score: inf
ROOT
ATOM      1  C   UNL A   1      36.924  20.858  24.887  1.00  0.00     0.002 C 
ENDROOT
BRANCH   1   2
ATOM      2  C   UNL A   1      38.180  19.984  24.957  1.00  0.00     0.021 C 
BRANCH   2   3
ATOM      3  C   UNL A   1      39.245  20.488  25.925  1.00  0.00     0.116 C 
BRANCH   3   4
ATOM      4  N   UNL A   1      40.365  19.570  26.012  1.00  0.00    -0.352 N 
ATOM      5  O   UNL A   1      42.540  18.987  26.024  1.00  0.00    -0.269 OA
ATOM      6  C   UNL A   1      41.694  19.859  26.190  1.00  0.00     0.251 C 
ATOM      7  H   UNL A   1      40.142  18.614  25.931  1.00  0.00     0.163 HD
BRANCH   6   8
ATOM      8  C   UNL A   1      42.100  21.227  26.579  1.00  0.00     0.039 A 
ATOM      9  C   UNL A   1      42.342  21.546  27.919  1.00  0.00     0.014 A 
ATOM     10  C   UNL A   1      42.297  22.184  25.580  1.00  0.00     0.014 A 
ATOM     11  C   UNL A   1      42.729  22.838  28.266  1.00  0.00     0.010 A 
ATOM     12  C   UNL A   1      42.733  23.466  25.924  1.00  0.00     0.010 A 
ATOM     13  C   UNL A   1      42.955  23.799  27.268  1.00  0.00    -0.014 A 
BRANCH  13  14
ATOM     14  C   UNL A   1      43.561  25.102  27.630  1.00  0.00     0.031 A 
ATOM     15  C   UNL A   1      42.736  26.218  28.199  1.00  0.00     0.074 A 
ATOM     16  C   UNL A   1      44.879  25.270  27.406  1.00  0.00     0.049 A 
ATOM     17  N   UNL A   1      43.118  27.420  28.547  1.00  0.00    -0.248 NA
ATOM     18  C   UNL A   1      41.301  25.961  28.400  1.00  0.00     0.031 C 
ATOM     19  C   UNL A   1      45.772  24.260  26.828  1.00  0.00     0.029 A 
ATOM     20  N   UNL A   1      45.698  26.347  27.629  1.00  0.00    -0.354 N 
ATOM     21  C   UNL A   1      41.973  28.071  28.990  1.00  0.00     0.074 A 
ATOM     22  C   UNL A   1      40.878  27.133  28.861  1.00  0.00     0.031 C 
ATOM     23  C   UNL A   1      47.014  24.760  26.755  1.00  0.00     0.029 A 
ATOM     24  C   UNL A   1      46.998  26.137  27.235  1.00  0.00     0.049 A 
ATOM     25  H   UNL A   1      45.386  27.189  28.032  1.00  0.00     0.167 HD
ATOM     26  C   UNL A   1      41.854  29.335  29.460  1.00  0.00     0.031 A 
ATOM     27  C   UNL A   1      48.057  26.966  27.231  1.00  0.00     0.031 A 
ATOM     28  C   UNL A   1      42.951  30.258  29.593  1.00  0.00     0.049 A 
ATOM     29  C   UNL A   1      47.885  28.369  27.733  1.00  0.00     0.074 A 
ATOM     30  C   UNL A   1      42.941  31.530  30.138  1.00  0.00     0.029 A 
ATOM     31  N   UNL A   1      44.245  30.016  29.163  1.00  0.00    -0.354 N 
ATOM     32  N   UNL A   1      46.810  28.938  28.224  1.00  0.00    -0.248 NA
ATOM     33  C   UNL A   1      49.063  29.244  27.672  1.00  0.00     0.031 C 
ATOM     34  C   UNL A   1      44.221  32.077  29.992  1.00  0.00     0.029 A 
ATOM     35  C   UNL A   1      45.035  31.131  29.391  1.00  0.00     0.049 A 
ATOM     36  H   UNL A   1      44.559  29.177  28.755  1.00  0.00     0.167 HD
ATOM     37  C   UNL A   1      47.181  30.240  28.527  1.00  0.00     0.074 A 
ATOM     38  C   UNL A   1      48.584  30.368  28.190  1.00  0.00     0.031 C 
ATOM     39  C   UNL A   1      46.424  31.245  29.031  1.00  0.00     0.031 A 
BRANCH  26  40
ATOM     40  C   UNL A   1      40.486  29.817  29.855  1.00  0.00    -0.014 A 
ATOM     41  C   UNL A   1      40.129  29.953  31.209  1.00  0.00     0.010 A 
ATOM     42  C   UNL A   1      39.581  30.232  28.862  1.00  0.00     0.010 A 
ATOM     43  C   UNL A   1      38.885  30.485  31.560  1.00  0.00     0.020 A 
ATOM     44  C   UNL A   1      38.342  30.778  29.209  1.00  0.00     0.020 A 
ATOM     45  C   UNL A   1      37.999  30.895  30.559  1.00  0.00     0.054 A 
BRANCH  45  46
ATOM     46  S   UNL A   1      36.415  31.634  31.044  1.00  0.00     0.124 S 
ATOM     47  O   UNL A   1      36.822  32.980  31.443  1.00  0.00    -0.237 OA
ATOM     48  O   UNL A   1      35.632  31.557  29.814  1.00  0.00    -0.237 OA
ATOM     49  O   UNL A   1      35.950  30.776  32.131  1.00  0.00    -0.744 OA
ENDBRANCH  45  46
ENDBRANCH  26  40
BRANCH  27  50
ATOM     50  C   UNL A   1      49.358  26.500  26.688  1.00  0.00    -0.014 A 
ATOM     51  C   UNL A   1      49.693  26.718  25.341  1.00  0.00     0.010 A 
ATOM     52  C   UNL A   1      50.279  25.850  27.530  1.00  0.00     0.010 A 
ATOM     53  C   UNL A   1      50.922  26.279  24.841  1.00  0.00     0.020 A 
ATOM     54  C   UNL A   1      51.517  25.430  27.038  1.00  0.00     0.020 A 
ATOM     55  C   UNL A   1      51.825  25.634  25.693  1.00  0.00     0.054 A 
BRANCH  55  56
ATOM     56  S   UNL A   1      53.437  25.113  25.044  1.00  0.00     0.124 S 
ATOM     57  O   UNL A   1      53.377  23.665  25.215  1.00  0.00    -0.237 OA
ATOM     58  O   UNL A   1      53.397  25.589  23.663  1.00  0.00    -0.237 OA
ATOM     59  O   UNL A   1      54.388  25.811  25.906  1.00  0.00    -0.744 OA
ENDBRANCH  55  56
ENDBRANCH  27  50
BRANCH  39  60
ATOM     60  C   UNL A   1      47.099  32.570  29.234  1.00  0.00    -0.014 A 
ATOM     61  C   UNL A   1      47.769  32.852  30.437  1.00  0.00     0.010 A 
ATOM     62  C   UNL A   1      47.096  33.525  28.204  1.00  0.00     0.010 A 
ATOM     63  C   UNL A   1      48.410  34.080  30.614  1.00  0.00     0.020 A 
ATOM     64  C   UNL A   1      47.753  34.747  28.371  1.00  0.00     0.020 A 
ATOM     65  C   UNL A   1      48.395  35.022  29.581  1.00  0.00     0.054 A 
BRANCH  65  66
ATOM     66  S   UNL A   1      49.271  36.593  29.815  1.00  0.00     0.124 S 
ATOM     67  O   UNL A   1      49.732  36.886  28.460  1.00  0.00    -0.237 OA
ATOM     68  O   UNL A   1      48.227  37.475  30.328  1.00  0.00    -0.237 OA
ATOM     69  O   UNL A   1      50.323  36.259  30.773  1.00  0.00    -0.744 OA
ENDBRANCH  65  66
ENDBRANCH  39  60
ENDBRANCH  13  14
ENDBRANCH   6   8
ENDBRANCH   3   4
ENDBRANCH   2   3
ENDBRANCH   1   2
BRANCH   1  70
ATOM     70  C   UNL A   1      37.187  22.361  24.741  1.00  0.00     0.002 C 
BRANCH  70  71
ATOM     71  C   UNL A   1      35.945  23.205  24.426  1.00  0.00     0.021 C 
BRANCH  71  72
ATOM     72  C   UNL A   1      35.405  22.985  23.015  1.00  0.00     0.116 C 
BRANCH  72  73
ATOM     73  N   UNL A   1      34.025  23.428  22.928  1.00  0.00    -0.356 N 
ATOM     74  C   UNL A   1      32.868  22.741  23.153  1.00  0.00     0.224 C 
ATOM     75  H   UNL A   1      33.906  24.368  22.666  1.00  0.00     0.163 HD
ATOM     76  O   UNL A   1      31.806  23.356  23.043  1.00  0.00    -0.275 OA
BRANCH  74  77
ATOM     77  C   UNL A   1      32.940  21.310  23.668  1.00  0.00     0.096 C 
ATOM     78  C   UNL A   1      32.168  20.237  22.896  1.00  0.00     0.015 C 
ATOM     79  C   UNL A   1      32.732  21.212  25.184  1.00  0.00     0.082 C 
ATOM     80  C   UNL A   1      32.612  18.850  23.352  1.00  0.00     0.001 C 
ATOM     81  C   UNL A   1      32.987  19.792  25.703  1.00  0.00     0.021 C 
ATOM     82  C   UNL A   1      32.413  18.662  24.850  1.00  0.00     0.002 C 
BRANCH  79  83
ATOM     83  N   UNL A   1      31.565  21.891  25.803  1.00  0.00    -0.207 NA
ATOM     84  H   UNL A   1      30.972  21.124  26.120  1.00  0.00     0.141 HD
BRANCH  83  85
ATOM     85  S   UNL A   1      31.494  23.003  27.056  1.00  0.00     0.240 S 
ATOM     86  O   UNL A   1      30.100  23.065  27.448  1.00  0.00    -0.207 OA
ATOM     87  O   UNL A   1      32.518  22.705  28.026  1.00  0.00    -0.207 OA
BRANCH  85  88
ATOM     88  C   UNL A   1      31.850  24.556  26.287  1.00  0.00     0.083 A 
ATOM     89  C   UNL A   1      33.173  24.978  26.153  1.00  0.00     0.022 A 
ATOM     90  C   UNL A   1      30.802  25.272  25.706  1.00  0.00     0.030 A 
ATOM     91  C   UNL A   1      33.456  26.084  25.347  1.00  0.00     0.010 A 
ATOM     92  C   UNL A   1      31.081  26.353  24.862  1.00  0.00    -0.017 A 
ATOM     93  C   UNL A   1      32.425  26.752  24.662  1.00  0.00    -0.018 A 
ATOM     94  C   UNL A   1      30.053  27.002  24.164  1.00  0.00     0.009 A 
ATOM     95  C   UNL A   1      32.699  27.781  23.748  1.00  0.00     0.009 A 
ATOM     96  C   UNL A   1      30.346  28.016  23.252  1.00  0.00     0.001 A 
ATOM     97  C   UNL A   1      31.667  28.400  23.041  1.00  0.00     0.001 A 
ENDBRANCH  85  88
ENDBRANCH  83  85
ENDBRANCH  79  83
ENDBRANCH  74  77
ENDBRANCH  72  73
ENDBRANCH  71  72
ENDBRANCH  70  71
ENDBRANCH   1  70
TORSDOF 19
ENDMDL
