MODEL 1
REMARK VINA RESULT:     -11.3      0.000      0.000
REMARK SMILES C#Cc1cc(Cl)cc2c1O[C@H](C(F)(F)F)C(C(=O)NCCCCCCNC(=O)c1ccc(-c3c4nc(c(-c5ccc(S(=O)(=O)[O-])cc5)c5ccc([nH]5)c(-c5ccc(S(=O)(=O)[O-])cc5)c5nc(c(-c6ccc(S(=O)(=O)[O-])cc6)c6ccc3[nH]6)C=C5)C=C4)cc1)=C2
REMARK SMILES IDX 23 1 22 2 21 3 20 4 19 5 17 6 18 7 16 9 3 10 4 11 9 12 5 13
REMARK SMILES IDX 8 14 10 15 6 16 7 17 89 18 11 19 2 20 1 21 12 22 13 23 14 24
REMARK SMILES IDX 15 25 24 26 25 27 26 28 27 29 28 31 29 32 30 33 88 34 31 35
REMARK SMILES IDX 87 36 32 37 33 38 34 39 81 40 35 41 86 42 80 43 82 44 36 45
REMARK SMILES IDX 85 46 79 47 78 48 37 50 67 51 48 52 66 53 49 54 52 55 65 56
REMARK SMILES IDX 83 57 50 58 51 59 64 61 84 62 53 63 38 64 39 65 47 66 40 67
REMARK SMILES IDX 46 68 41 69 42 70 43 71 44 72 45 73 68 74 69 75 77 76 70 77
REMARK SMILES IDX 76 78 71 79 72 80 73 81 74 82 75 83 54 84 55 85 63 86 56 87
REMARK SMILES IDX 62 88 57 89 58 90 59 91 60 92 61 93
REMARK H PARENT 19 8 26 30 82 49 52 60
REMARK Flexibility Score: inf
ROOT
ATOM      1  C   UNL A   1      31.492  28.576  25.965  1.00  0.00     0.002 C 
ENDROOT
BRANCH   1   2
ATOM      2  C   UNL A   1      31.579  28.250  24.467  1.00  0.00     0.002 C 
BRANCH   2   3
ATOM      3  C   UNL A   1      30.353  27.534  23.902  1.00  0.00     0.021 C 
BRANCH   3   4
ATOM      4  C   UNL A   1      30.651  26.104  23.471  1.00  0.00     0.116 C 
BRANCH   4   5
ATOM      5  N   UNL A   1      31.524  26.064  22.311  1.00  0.00    -0.352 N 
ATOM      6  C   UNL A   1      32.586  25.334  21.896  1.00  0.00     0.251 C 
ATOM      7  O   UNL A   1      33.033  25.624  20.781  1.00  0.00    -0.270 OA
ATOM      8  H   UNL A   1      31.278  26.751  21.649  1.00  0.00     0.163 HD
BRANCH   6   9
ATOM      9  C   UNL A   1      33.227  24.239  22.685  1.00  0.00     0.067 C 
ATOM     10  C   UNL A   1      35.068  21.019  24.664  1.00  0.00     0.068 A 
ATOM     11  C   UNL A   1      34.378  19.822  24.835  1.00  0.00     0.041 A 
ATOM     12  C   UNL A   1      34.456  22.079  23.982  1.00  0.00     0.143 A 
ATOM     13  C   UNL A   1      33.089  19.694  24.319  1.00  0.00     0.043 A 
ATOM     14  C   UNL A   1      33.167  21.952  23.457  1.00  0.00     0.020 A 
ATOM     15  O   UNL A   1      35.198  23.211  23.815  1.00  0.00    -0.474 OA
ATOM     16  Cl  UNL A   1      32.238  18.212  24.521  1.00  0.00    -0.084 Cl
ATOM     17  C   UNL A   1      32.480  20.748  23.630  1.00  0.00     0.032 A 
ATOM     18  C   UNL A   1      32.586  23.057  22.700  1.00  0.00     0.025 C 
ATOM     19  C   UNL A   1      34.500  24.421  23.457  1.00  0.00     0.314 C 
BRANCH  10  20
ATOM     20  C   UNL A   1      36.396  21.169  25.185  1.00  0.00    -0.067 C 
ATOM     21  C   UNL A   1      37.510  21.367  25.593  1.00  0.00     0.010 C 
ENDBRANCH  10  20
BRANCH  19  22
ATOM     22  C   UNL A   1      34.312  25.292  24.715  1.00  0.00     0.429 C 
ATOM     23  F   UNL A   1      34.354  26.607  24.395  1.00  0.00    -0.167 F 
ATOM     24  F   UNL A   1      33.120  25.084  25.322  1.00  0.00    -0.167 F 
ATOM     25  F   UNL A   1      35.267  25.062  25.643  1.00  0.00    -0.167 F 
ENDBRANCH  19  22
ENDBRANCH   6   9
ENDBRANCH   4   5
ENDBRANCH   3   4
ENDBRANCH   2   3
ENDBRANCH   1   2
BRANCH   1  26
ATOM     26  C   UNL A   1      32.363  27.696  26.866  1.00  0.00     0.021 C 
BRANCH  26  27
ATOM     27  C   UNL A   1      33.714  28.313  27.206  1.00  0.00     0.116 C 
BRANCH  27  28
ATOM     28  N   UNL A   1      33.593  29.735  27.482  1.00  0.00    -0.352 N 
ATOM     29  C   UNL A   1      34.475  30.568  28.121  1.00  0.00     0.251 C 
ATOM     30  H   UNL A   1      32.762  30.159  27.168  1.00  0.00     0.163 HD
ATOM     31  O   UNL A   1      34.114  31.677  28.500  1.00  0.00    -0.269 OA
BRANCH  29  32
ATOM     32  C   UNL A   1      35.857  30.106  28.353  1.00  0.00     0.039 A 
ATOM     33  C   UNL A   1      36.781  30.180  27.312  1.00  0.00     0.014 A 
ATOM     34  C   UNL A   1      36.234  29.612  29.607  1.00  0.00     0.014 A 
ATOM     35  C   UNL A   1      38.103  29.799  27.543  1.00  0.00     0.010 A 
ATOM     36  C   UNL A   1      37.568  29.314  29.857  1.00  0.00     0.010 A 
ATOM     37  C   UNL A   1      38.512  29.390  28.824  1.00  0.00    -0.014 A 
BRANCH  37  38
ATOM     38  C   UNL A   1      39.921  29.012  29.089  1.00  0.00     0.031 A 
ATOM     39  C   UNL A   1      40.851  30.004  29.734  1.00  0.00     0.074 A 
ATOM     40  C   UNL A   1      40.363  27.791  28.729  1.00  0.00     0.049 A 
ATOM     41  N   UNL A   1      42.117  29.867  30.030  1.00  0.00    -0.248 NA
ATOM     42  C   UNL A   1      40.294  31.323  30.079  1.00  0.00     0.031 C 
ATOM     43  C   UNL A   1      39.557  26.755  28.078  1.00  0.00     0.029 A 
ATOM     44  N   UNL A   1      41.598  27.210  28.869  1.00  0.00    -0.354 N 
ATOM     45  C   UNL A   1      42.505  31.077  30.595  1.00  0.00     0.074 A 
ATOM     46  C   UNL A   1      41.361  31.958  30.544  1.00  0.00     0.031 C 
ATOM     47  C   UNL A   1      40.305  25.653  27.916  1.00  0.00     0.029 A 
ATOM     48  C   UNL A   1      41.656  25.917  28.402  1.00  0.00     0.049 A 
ATOM     49  H   UNL A   1      42.370  27.674  29.265  1.00  0.00     0.167 HD
ATOM     50  C   UNL A   1      43.698  31.411  31.137  1.00  0.00     0.031 A 
ATOM     51  C   UNL A   1      42.683  25.044  28.367  1.00  0.00     0.031 A 
ATOM     52  C   UNL A   1      44.830  30.526  31.194  1.00  0.00     0.049 A 
ATOM     53  C   UNL A   1      44.016  25.466  28.924  1.00  0.00     0.074 A 
ATOM     54  C   UNL A   1      46.074  30.763  31.751  1.00  0.00     0.029 A 
ATOM     55  N   UNL A   1      44.857  29.239  30.681  1.00  0.00    -0.354 N 
ATOM     56  N   UNL A   1      44.347  26.596  29.503  1.00  0.00    -0.248 NA
ATOM     57  C   UNL A   1      45.114  24.492  28.831  1.00  0.00     0.031 C 
ATOM     58  C   UNL A   1      46.875  29.644  31.516  1.00  0.00     0.029 A 
ATOM     59  C   UNL A   1      46.108  28.681  30.880  1.00  0.00     0.049 A 
ATOM     60  H   UNL A   1      44.102  28.789  30.240  1.00  0.00     0.167 HD
ATOM     61  C   UNL A   1      45.682  26.459  29.867  1.00  0.00     0.074 A 
ATOM     62  C   UNL A   1      46.090  25.128  29.465  1.00  0.00     0.031 C 
ATOM     63  C   UNL A   1      46.498  27.354  30.476  1.00  0.00     0.031 A 
BRANCH  50  64
ATOM     64  C   UNL A   1      43.847  32.789  31.727  1.00  0.00    -0.014 A 
ATOM     65  C   UNL A   1      43.706  32.998  33.111  1.00  0.00     0.010 A 
ATOM     66  C   UNL A   1      44.225  33.866  30.906  1.00  0.00     0.010 A 
ATOM     67  C   UNL A   1      43.930  34.263  33.660  1.00  0.00     0.020 A 
ATOM     68  C   UNL A   1      44.480  35.126  31.456  1.00  0.00     0.020 A 
ATOM     69  C   UNL A   1      44.326  35.315  32.831  1.00  0.00     0.054 A 
BRANCH  69  70
ATOM     70  S   UNL A   1      44.676  36.926  33.587  1.00  0.00     0.124 S 
ATOM     71  O   UNL A   1      45.169  36.540  34.906  1.00  0.00    -0.237 OA
ATOM     72  O   UNL A   1      45.675  37.489  32.682  1.00  0.00    -0.237 OA
ATOM     73  O   UNL A   1      43.381  37.602  33.582  1.00  0.00    -0.744 OA
ENDBRANCH  69  70
ENDBRANCH  50  64
BRANCH  51  74
ATOM     74  C   UNL A   1      42.490  23.683  27.792  1.00  0.00    -0.014 A 
ATOM     75  C   UNL A   1      42.044  22.620  28.599  1.00  0.00     0.010 A 
ATOM     76  C   UNL A   1      42.759  23.436  26.432  1.00  0.00     0.010 A 
ATOM     77  C   UNL A   1      41.897  21.336  28.066  1.00  0.00     0.020 A 
ATOM     78  C   UNL A   1      42.580  22.162  25.887  1.00  0.00     0.020 A 
ATOM     79  C   UNL A   1      42.163  21.117  26.712  1.00  0.00     0.054 A 
BRANCH  79  80
ATOM     80  S   UNL A   1      41.937  19.447  26.039  1.00  0.00     0.124 S 
ATOM     81  O   UNL A   1      40.495  19.397  25.824  1.00  0.00    -0.237 OA
ATOM     82  O   UNL A   1      42.759  19.483  24.832  1.00  0.00    -0.237 OA
ATOM     83  O   UNL A   1      42.442  18.578  27.101  1.00  0.00    -0.744 OA
ENDBRANCH  79  80
ENDBRANCH  51  74
BRANCH  63  84
ATOM     84  C   UNL A   1      47.912  26.927  30.772  1.00  0.00    -0.014 A 
ATOM     85  C   UNL A   1      48.962  27.229  29.888  1.00  0.00     0.010 A 
ATOM     86  C   UNL A   1      48.206  26.294  31.994  1.00  0.00     0.010 A 
ATOM     87  C   UNL A   1      50.276  26.883  30.209  1.00  0.00     0.020 A 
ATOM     88  C   UNL A   1      49.523  25.978  32.334  1.00  0.00     0.020 A 
ATOM     89  C   UNL A   1      50.549  26.266  31.433  1.00  0.00     0.054 A 
BRANCH  89  90
ATOM     90  S   UNL A   1      52.272  25.879  31.843  1.00  0.00     0.124 S 
ATOM     91  O   UNL A   1      52.180  24.487  32.272  1.00  0.00    -0.237 OA
ATOM     92  O   UNL A   1      52.958  26.101  30.573  1.00  0.00    -0.237 OA
ATOM     93  O   UNL A   1      52.602  26.834  32.899  1.00  0.00    -0.744 OA
ENDBRANCH  89  90
ENDBRANCH  63  84
ENDBRANCH  37  38
ENDBRANCH  29  32
ENDBRANCH  27  28
ENDBRANCH  26  27
ENDBRANCH   1  26
TORSDOF 18
ENDMDL
MODEL 2
REMARK VINA RESULT:     -11.1      1.580      2.173
REMARK SMILES C#Cc1cc(Cl)cc2c1O[C@H](C(F)(F)F)C(C(=O)NCCCCCCNC(=O)c1ccc(-c3c4nc(c(-c5ccc(S(=O)(=O)[O-])cc5)c5ccc([nH]5)c(-c5ccc(S(=O)(=O)[O-])cc5)c5nc(c(-c6ccc(S(=O)(=O)[O-])cc6)c6ccc3[nH]6)C=C5)C=C4)cc1)=C2
REMARK SMILES IDX 23 1 22 2 21 3 20 4 19 5 17 6 18 7 16 9 3 10 4 11 9 12 5 13
REMARK SMILES IDX 8 14 10 15 6 16 7 17 89 18 11 19 2 20 1 21 12 22 13 23 14 24
REMARK SMILES IDX 15 25 24 26 25 27 26 28 27 29 28 31 29 32 30 33 88 34 31 35
REMARK SMILES IDX 87 36 32 37 33 38 34 39 81 40 35 41 86 42 80 43 82 44 36 45
REMARK SMILES IDX 85 46 79 47 78 48 37 50 67 51 48 52 66 53 49 54 52 55 65 56
REMARK SMILES IDX 83 57 50 58 51 59 64 61 84 62 53 63 38 64 39 65 47 66 40 67
REMARK SMILES IDX 46 68 41 69 42 70 43 71 44 72 45 73 68 74 69 75 77 76 70 77
REMARK SMILES IDX 76 78 71 79 72 80 73 81 74 82 75 83 54 84 55 85 63 86 56 87
REMARK SMILES IDX 62 88 57 89 58 90 59 91 60 92 61 93
REMARK H PARENT 19 8 26 30 82 49 52 60
REMARK Flexibility Score: inf
ROOT
ATOM      1  C   UNL A   1      33.541  28.831  24.494  1.00  0.00     0.002 C 
ENDROOT
BRANCH   1   2
ATOM      2  C   UNL A   1      32.851  28.252  23.251  1.00  0.00     0.002 C 
BRANCH   2   3
ATOM      3  C   UNL A   1      32.876  26.726  23.165  1.00  0.00     0.021 C 
BRANCH   3   4
ATOM      4  C   UNL A   1      31.486  26.108  23.243  1.00  0.00     0.116 C 
BRANCH   4   5
ATOM      5  N   UNL A   1      31.107  25.810  24.613  1.00  0.00    -0.352 N 
ATOM      6  C   UNL A   1      31.447  24.905  25.561  1.00  0.00     0.251 C 
ATOM      7  O   UNL A   1      30.877  25.028  26.650  1.00  0.00    -0.270 OA
ATOM      8  H   UNL A   1      30.418  26.433  24.941  1.00  0.00     0.163 HD
BRANCH   6   9
ATOM      9  C   UNL A   1      32.436  23.803  25.368  1.00  0.00     0.067 C 
ATOM     10  C   UNL A   1      35.250  20.690  25.103  1.00  0.00     0.068 A 
ATOM     11  C   UNL A   1      36.600  20.953  25.320  1.00  0.00     0.041 A 
ATOM     12  C   UNL A   1      34.316  21.728  25.217  1.00  0.00     0.143 A 
ATOM     13  C   UNL A   1      37.002  22.246  25.654  1.00  0.00     0.043 A 
ATOM     14  C   UNL A   1      34.714  23.023  25.559  1.00  0.00     0.020 A 
ATOM     15  O   UNL A   1      33.006  21.398  25.029  1.00  0.00    -0.474 OA
ATOM     16  Cl  UNL A   1      38.669  22.571  25.931  1.00  0.00    -0.084 Cl
ATOM     17  C   UNL A   1      36.070  23.281  25.777  1.00  0.00     0.032 A 
ATOM     18  C   UNL A   1      33.706  24.065  25.727  1.00  0.00     0.025 C 
ATOM     19  C   UNL A   1      32.076  22.471  24.777  1.00  0.00     0.314 C 
BRANCH  10  20
ATOM     20  C   UNL A   1      34.817  19.366  24.762  1.00  0.00    -0.067 C 
ATOM     21  C   UNL A   1      34.434  18.283  24.406  1.00  0.00     0.010 C 
ENDBRANCH  10  20
BRANCH  19  22
ATOM     22  C   UNL A   1      31.787  22.550  23.266  1.00  0.00     0.429 C 
ATOM     23  F   UNL A   1      30.563  23.086  23.042  1.00  0.00    -0.167 F 
ATOM     24  F   UNL A   1      32.673  23.331  22.604  1.00  0.00    -0.167 F 
ATOM     25  F   UNL A   1      31.821  21.336  22.674  1.00  0.00    -0.167 F 
ENDBRANCH  19  22
ENDBRANCH   6   9
ENDBRANCH   4   5
ENDBRANCH   3   4
ENDBRANCH   2   3
ENDBRANCH   1   2
BRANCH   1  26
ATOM     26  C   UNL A   1      33.974  27.790  25.531  1.00  0.00     0.021 C 
BRANCH  26  27
ATOM     27  C   UNL A   1      33.497  28.096  26.945  1.00  0.00     0.116 C 
BRANCH  27  28
ATOM     28  N   UNL A   1      33.350  29.527  27.156  1.00  0.00    -0.352 N 
ATOM     29  C   UNL A   1      34.200  30.396  27.791  1.00  0.00     0.251 C 
ATOM     30  H   UNL A   1      32.527  29.927  26.795  1.00  0.00     0.163 HD
ATOM     31  O   UNL A   1      33.814  31.515  28.110  1.00  0.00    -0.269 OA
BRANCH  29  32
ATOM     32  C   UNL A   1      35.577  29.961  28.093  1.00  0.00     0.039 A 
ATOM     33  C   UNL A   1      36.542  30.019  27.088  1.00  0.00     0.014 A 
ATOM     34  C   UNL A   1      35.908  29.508  29.374  1.00  0.00     0.014 A 
ATOM     35  C   UNL A   1      37.858  29.664  27.384  1.00  0.00     0.010 A 
ATOM     36  C   UNL A   1      37.235  29.236  29.688  1.00  0.00     0.010 A 
ATOM     37  C   UNL A   1      38.219  29.297  28.692  1.00  0.00    -0.014 A 
BRANCH  37  38
ATOM     38  C   UNL A   1      39.621  28.947  29.025  1.00  0.00     0.031 A 
ATOM     39  C   UNL A   1      40.498  29.955  29.717  1.00  0.00     0.074 A 
ATOM     40  C   UNL A   1      40.105  27.736  28.685  1.00  0.00     0.049 A 
ATOM     41  N   UNL A   1      41.751  29.844  30.074  1.00  0.00    -0.248 NA
ATOM     42  C   UNL A   1      39.898  31.262  30.037  1.00  0.00     0.031 C 
ATOM     43  C   UNL A   1      39.354  26.686  27.994  1.00  0.00     0.029 A 
ATOM     44  N   UNL A   1      41.344  27.180  28.884  1.00  0.00    -0.354 N 
ATOM     45  C   UNL A   1      42.086  31.059  30.660  1.00  0.00     0.074 A 
ATOM     46  C   UNL A   1      40.928  31.917  30.554  1.00  0.00     0.031 C 
ATOM     47  C   UNL A   1      40.131  25.600  27.866  1.00  0.00     0.029 A 
ATOM     48  C   UNL A   1      41.451  25.890  28.418  1.00  0.00     0.049 A 
ATOM     49  H   UNL A   1      42.086  27.659  29.318  1.00  0.00     0.167 HD
ATOM     50  C   UNL A   1      43.243  31.416  31.260  1.00  0.00     0.031 A 
ATOM     51  C   UNL A   1      42.496  25.038  28.431  1.00  0.00     0.031 A 
ATOM     52  C   UNL A   1      44.389  30.555  31.371  1.00  0.00     0.049 A 
ATOM     53  C   UNL A   1      43.792  25.486  29.054  1.00  0.00     0.074 A 
ATOM     54  C   UNL A   1      45.599  30.815  31.989  1.00  0.00     0.029 A 
ATOM     55  N   UNL A   1      44.468  29.269  30.858  1.00  0.00    -0.354 N 
ATOM     56  N   UNL A   1      44.070  26.621  29.651  1.00  0.00    -0.248 NA
ATOM     57  C   UNL A   1      44.912  24.535  29.014  1.00  0.00     0.031 C 
ATOM     58  C   UNL A   1      46.434  29.713  31.791  1.00  0.00     0.029 A 
ATOM     59  C   UNL A   1      45.719  28.737  31.116  1.00  0.00     0.049 A 
ATOM     60  H   UNL A   1      43.744  28.806  30.380  1.00  0.00     0.167 HD
ATOM     61  C   UNL A   1      45.389  26.509  30.080  1.00  0.00     0.074 A 
ATOM     62  C   UNL A   1      45.843  25.188  29.695  1.00  0.00     0.031 C 
ATOM     63  C   UNL A   1      46.155  27.419  30.730  1.00  0.00     0.031 A 
BRANCH  50  64
ATOM     64  C   UNL A   1      43.335  32.795  31.860  1.00  0.00    -0.014 A 
ATOM     65  C   UNL A   1      42.941  33.029  33.189  1.00  0.00     0.010 A 
ATOM     66  C   UNL A   1      43.910  33.844  31.120  1.00  0.00     0.010 A 
ATOM     67  C   UNL A   1      43.109  34.292  33.764  1.00  0.00     0.020 A 
ATOM     68  C   UNL A   1      44.108  35.100  31.701  1.00  0.00     0.020 A 
ATOM     69  C   UNL A   1      43.702  35.315  33.020  1.00  0.00     0.054 A 
BRANCH  69  70
ATOM     70  S   UNL A   1      43.968  36.921  33.819  1.00  0.00     0.124 S 
ATOM     71  O   UNL A   1      44.089  37.815  32.671  1.00  0.00    -0.237 OA
ATOM     72  O   UNL A   1      42.754  37.082  34.616  1.00  0.00    -0.237 OA
ATOM     73  O   UNL A   1      45.195  36.728  34.588  1.00  0.00    -0.744 OA
ENDBRANCH  69  70
ENDBRANCH  50  64
BRANCH  51  74
ATOM     74  C   UNL A   1      42.360  23.675  27.845  1.00  0.00    -0.014 A 
ATOM     75  C   UNL A   1      41.816  22.621  28.601  1.00  0.00     0.010 A 
ATOM     76  C   UNL A   1      42.781  23.418  26.526  1.00  0.00     0.010 A 
ATOM     77  C   UNL A   1      41.720  21.335  28.061  1.00  0.00     0.020 A 
ATOM     78  C   UNL A   1      42.655  22.142  25.971  1.00  0.00     0.020 A 
ATOM     79  C   UNL A   1      42.138  21.105  26.747  1.00  0.00     0.054 A 
BRANCH  79  80
ATOM     80  S   UNL A   1      41.977  19.433  26.062  1.00  0.00     0.124 S 
ATOM     81  O   UNL A   1      42.801  19.516  24.860  1.00  0.00    -0.237 OA
ATOM     82  O   UNL A   1      42.507  18.602  27.139  1.00  0.00    -0.237 OA
ATOM     83  O   UNL A   1      40.541  19.294  25.827  1.00  0.00    -0.744 OA
ENDBRANCH  79  80
ENDBRANCH  51  74
BRANCH  63  84
ATOM     84  C   UNL A   1      47.561  27.020  31.094  1.00  0.00    -0.014 A 
ATOM     85  C   UNL A   1      48.648  27.350  30.265  1.00  0.00     0.010 A 
ATOM     86  C   UNL A   1      47.807  26.385  32.325  1.00  0.00     0.010 A 
ATOM     87  C   UNL A   1      49.951  27.030  30.650  1.00  0.00     0.020 A 
ATOM     88  C   UNL A   1      49.113  26.094  32.730  1.00  0.00     0.020 A 
ATOM     89  C   UNL A   1      50.176  26.410  31.883  1.00  0.00     0.054 A 
BRANCH  89  90
ATOM     90  S   UNL A   1      51.884  26.058  32.376  1.00  0.00     0.124 S 
ATOM     91  O   UNL A   1      51.739  24.800  33.103  1.00  0.00    -0.237 OA
ATOM     92  O   UNL A   1      52.573  25.965  31.092  1.00  0.00    -0.237 OA
ATOM     93  O   UNL A   1      52.256  27.210  33.196  1.00  0.00    -0.744 OA
ENDBRANCH  89  90
ENDBRANCH  63  84
ENDBRANCH  37  38
ENDBRANCH  29  32
ENDBRANCH  27  28
ENDBRANCH  26  27
ENDBRANCH   1  26
TORSDOF 18
ENDMDL
MODEL 3
REMARK VINA RESULT:     -11.1      1.528      8.311
REMARK SMILES C#Cc1cc(Cl)cc2c1O[C@H](C(F)(F)F)C(C(=O)NCCCCCCNC(=O)c1ccc(-c3c4nc(c(-c5ccc(S(=O)(=O)[O-])cc5)c5ccc([nH]5)c(-c5ccc(S(=O)(=O)[O-])cc5)c5nc(c(-c6ccc(S(=O)(=O)[O-])cc6)c6ccc3[nH]6)C=C5)C=C4)cc1)=C2
REMARK SMILES IDX 23 1 22 2 21 3 20 4 19 5 17 6 18 7 16 9 3 10 4 11 9 12 5 13
REMARK SMILES IDX 8 14 10 15 6 16 7 17 89 18 11 19 2 20 1 21 12 22 13 23 14 24
REMARK SMILES IDX 15 25 24 26 25 27 26 28 27 29 28 31 29 32 30 33 88 34 31 35
REMARK SMILES IDX 87 36 32 37 33 38 34 39 81 40 35 41 86 42 80 43 82 44 36 45
REMARK SMILES IDX 85 46 79 47 78 48 37 50 67 51 48 52 66 53 49 54 52 55 65 56
REMARK SMILES IDX 83 57 50 58 51 59 64 61 84 62 53 63 38 64 39 65 47 66 40 67
REMARK SMILES IDX 46 68 41 69 42 70 43 71 44 72 45 73 68 74 69 75 77 76 70 77
REMARK SMILES IDX 76 78 71 79 72 80 73 81 74 82 75 83 54 84 55 85 63 86 56 87
REMARK SMILES IDX 62 88 57 89 58 90 59 91 60 92 61 93
REMARK H PARENT 19 8 26 30 82 49 52 60
REMARK Flexibility Score: inf
ROOT
ATOM      1  C   UNL A   1      33.563  29.009  24.644  1.00  0.00     0.002 C 
ENDROOT
BRANCH   1   2
ATOM      2  C   UNL A   1      33.226  28.463  23.249  1.00  0.00     0.002 C 
BRANCH   2   3
ATOM      3  C   UNL A   1      33.047  26.946  23.188  1.00  0.00     0.021 C 
BRANCH   3   4
ATOM      4  C   UNL A   1      31.587  26.520  23.257  1.00  0.00     0.116 C 
BRANCH   4   5
ATOM      5  N   UNL A   1      31.177  26.227  24.620  1.00  0.00    -0.352 N 
ATOM      6  C   UNL A   1      31.463  25.299  25.562  1.00  0.00     0.251 C 
ATOM      7  O   UNL A   1      30.884  25.438  26.645  1.00  0.00    -0.270 OA
ATOM      8  H   UNL A   1      30.513  26.878  24.945  1.00  0.00     0.163 HD
BRANCH   6   9
ATOM      9  C   UNL A   1      32.402  24.153  25.371  1.00  0.00     0.067 C 
ATOM     10  C   UNL A   1      35.080  20.922  25.110  1.00  0.00     0.068 A 
ATOM     11  C   UNL A   1      36.443  21.131  25.311  1.00  0.00     0.041 A 
ATOM     12  C   UNL A   1      34.192  22.000  25.222  1.00  0.00     0.143 A 
ATOM     13  C   UNL A   1      36.901  22.409  25.628  1.00  0.00     0.043 A 
ATOM     14  C   UNL A   1      34.647  23.281  25.547  1.00  0.00     0.020 A 
ATOM     15  O   UNL A   1      32.867  21.724  25.051  1.00  0.00    -0.474 OA
ATOM     16  Cl  UNL A   1      38.583  22.666  25.885  1.00  0.00    -0.084 Cl
ATOM     17  C   UNL A   1      36.015  23.483  25.750  1.00  0.00     0.032 A 
ATOM     18  C   UNL A   1      33.685  24.366  25.715  1.00  0.00     0.025 C 
ATOM     19  C   UNL A   1      31.981  22.833  24.798  1.00  0.00     0.314 C 
BRANCH  10  20
ATOM     20  C   UNL A   1      34.588  19.614  24.788  1.00  0.00    -0.067 C 
ATOM     21  C   UNL A   1      34.104  18.544  24.532  1.00  0.00     0.010 C 
ENDBRANCH  10  20
BRANCH  19  22
ATOM     22  C   UNL A   1      31.680  22.909  23.289  1.00  0.00     0.429 C 
ATOM     23  F   UNL A   1      30.455  23.447  23.073  1.00  0.00    -0.167 F 
ATOM     24  F   UNL A   1      32.562  23.686  22.618  1.00  0.00    -0.167 F 
ATOM     25  F   UNL A   1      31.706  21.693  22.700  1.00  0.00    -0.167 F 
ENDBRANCH  19  22
ENDBRANCH   6   9
ENDBRANCH   4   5
ENDBRANCH   3   4
ENDBRANCH   2   3
ENDBRANCH   1   2
BRANCH   1  26
ATOM     26  C   UNL A   1      34.173  27.984  25.604  1.00  0.00     0.021 C 
BRANCH  26  27
ATOM     27  C   UNL A   1      33.774  28.193  27.059  1.00  0.00     0.116 C 
BRANCH  27  28
ATOM     28  N   UNL A   1      33.579  29.602  27.358  1.00  0.00    -0.352 N 
ATOM     29  C   UNL A   1      34.402  30.461  28.040  1.00  0.00     0.251 C 
ATOM     30  H   UNL A   1      32.739  29.994  27.027  1.00  0.00     0.163 HD
ATOM     31  O   UNL A   1      33.979  31.545  28.428  1.00  0.00    -0.269 OA
BRANCH  29  32
ATOM     32  C   UNL A   1      35.796  30.059  28.307  1.00  0.00     0.039 A 
ATOM     33  C   UNL A   1      36.742  30.177  27.290  1.00  0.00     0.014 A 
ATOM     34  C   UNL A   1      36.161  29.576  29.568  1.00  0.00     0.014 A 
ATOM     35  C   UNL A   1      38.073  29.853  27.554  1.00  0.00     0.010 A 
ATOM     36  C   UNL A   1      37.499  29.335  29.852  1.00  0.00     0.010 A 
ATOM     37  C   UNL A   1      38.466  29.456  28.844  1.00  0.00    -0.014 A 
BRANCH  37  38
ATOM     38  C   UNL A   1      39.883  29.138  29.145  1.00  0.00     0.031 A 
ATOM     39  C   UNL A   1      40.430  27.777  28.808  1.00  0.00     0.074 A 
ATOM     40  C   UNL A   1      40.663  30.063  29.738  1.00  0.00     0.049 A 
ATOM     41  N   UNL A   1      41.632  27.305  29.009  1.00  0.00    -0.248 NA
ATOM     42  C   UNL A   1      39.506  26.817  28.179  1.00  0.00     0.031 C 
ATOM     43  C   UNL A   1      40.235  31.409  30.129  1.00  0.00     0.029 A 
ATOM     44  N   UNL A   1      41.983  30.016  30.108  1.00  0.00    -0.354 N 
ATOM     45  C   UNL A   1      41.609  26.000  28.530  1.00  0.00     0.074 A 
ATOM     46  C   UNL A   1      40.260  25.731  28.089  1.00  0.00     0.031 C 
ATOM     47  C   UNL A   1      41.283  32.072  30.642  1.00  0.00     0.029 A 
ATOM     48  C   UNL A   1      42.444  31.186  30.665  1.00  0.00     0.049 A 
ATOM     49  H   UNL A   1      42.548  29.219  29.986  1.00  0.00     0.167 HD
ATOM     50  C   UNL A   1      42.629  25.117  28.438  1.00  0.00     0.031 A 
ATOM     51  C   UNL A   1      43.662  31.509  31.143  1.00  0.00     0.031 A 
ATOM     52  C   UNL A   1      43.972  25.394  28.871  1.00  0.00     0.049 A 
ATOM     53  C   UNL A   1      44.763  30.483  31.081  1.00  0.00     0.074 A 
ATOM     54  C   UNL A   1      45.083  24.573  28.791  1.00  0.00     0.029 A 
ATOM     55  N   UNL A   1      44.388  26.578  29.459  1.00  0.00    -0.354 N 
ATOM     56  N   UNL A   1      44.734  29.273  30.575  1.00  0.00    -0.248 NA
ATOM     57  C   UNL A   1      46.063  30.870  31.647  1.00  0.00     0.031 C 
ATOM     58  C   UNL A   1      46.156  25.235  29.392  1.00  0.00     0.029 A 
ATOM     59  C   UNL A   1      45.733  26.497  29.778  1.00  0.00     0.049 A 
ATOM     60  H   UNL A   1      43.814  27.358  29.627  1.00  0.00     0.167 HD
ATOM     61  C   UNL A   1      46.018  28.764  30.738  1.00  0.00     0.074 A 
ATOM     62  C   UNL A   1      46.804  29.806  31.367  1.00  0.00     0.031 C 
ATOM     63  C   UNL A   1      46.501  27.544  30.401  1.00  0.00     0.031 A 
BRANCH  50  64
ATOM     64  C   UNL A   1      42.345  23.766  27.836  1.00  0.00    -0.014 A 
ATOM     65  C   UNL A   1      42.632  23.506  26.484  1.00  0.00     0.010 A 
ATOM     66  C   UNL A   1      41.876  22.719  28.650  1.00  0.00     0.010 A 
ATOM     67  C   UNL A   1      42.445  22.227  25.955  1.00  0.00     0.020 A 
ATOM     68  C   UNL A   1      41.717  21.431  28.133  1.00  0.00     0.020 A 
ATOM     69  C   UNL A   1      41.999  21.195  26.786  1.00  0.00     0.054 A 
BRANCH  69  70
ATOM     70  S   UNL A   1      41.834  19.531  26.084  1.00  0.00     0.124 S 
ATOM     71  O   UNL A   1      42.354  18.695  27.161  1.00  0.00    -0.237 OA
ATOM     72  O   UNL A   1      40.396  19.430  25.848  1.00  0.00    -0.237 OA
ATOM     73  O   UNL A   1      42.660  19.577  24.879  1.00  0.00    -0.744 OA
ENDBRANCH  69  70
ENDBRANCH  50  64
BRANCH  51  74
ATOM     74  C   UNL A   1      43.909  32.863  31.714  1.00  0.00    -0.014 A 
ATOM     75  C   UNL A   1      43.635  33.132  33.067  1.00  0.00     0.010 A 
ATOM     76  C   UNL A   1      44.415  33.899  30.905  1.00  0.00     0.010 A 
ATOM     77  C   UNL A   1      43.836  34.411  33.593  1.00  0.00     0.020 A 
ATOM     78  C   UNL A   1      44.650  35.170  31.435  1.00  0.00     0.020 A 
ATOM     79  C   UNL A   1      44.346  35.422  32.773  1.00  0.00     0.054 A 
BRANCH  79  80
ATOM     80  S   UNL A   1      44.623  37.067  33.487  1.00  0.00     0.124 S 
ATOM     81  O   UNL A   1      43.329  37.710  33.281  1.00  0.00    -0.237 OA
ATOM     82  O   UNL A   1      44.963  36.753  34.872  1.00  0.00    -0.237 OA
ATOM     83  O   UNL A   1      45.723  37.606  32.689  1.00  0.00    -0.744 OA
ENDBRANCH  79  80
ENDBRANCH  51  74
BRANCH  63  84
ATOM     84  C   UNL A   1      47.956  27.263  30.678  1.00  0.00    -0.014 A 
ATOM     85  C   UNL A   1      48.352  26.552  31.824  1.00  0.00     0.010 A 
ATOM     86  C   UNL A   1      48.929  27.640  29.735  1.00  0.00     0.010 A 
ATOM     87  C   UNL A   1      49.699  26.245  32.033  1.00  0.00     0.020 A 
ATOM     88  C   UNL A   1      50.272  27.304  29.922  1.00  0.00     0.020 A 
ATOM     89  C   UNL A   1      50.649  26.617  31.077  1.00  0.00     0.054 A 
BRANCH  89  90
ATOM     90  S   UNL A   1      52.380  26.155  31.352  1.00  0.00     0.124 S 
ATOM     91  O   UNL A   1      52.251  24.838  31.968  1.00  0.00    -0.237 OA
ATOM     92  O   UNL A   1      52.929  26.165  29.999  1.00  0.00    -0.237 OA
ATOM     93  O   UNL A   1      52.886  27.206  32.232  1.00  0.00    -0.744 OA
ENDBRANCH  89  90
ENDBRANCH  63  84
ENDBRANCH  37  38
ENDBRANCH  29  32
ENDBRANCH  27  28
ENDBRANCH  26  27
ENDBRANCH   1  26
TORSDOF 18
ENDMDL
