MODEL 1
REMARK VINA RESULT:     -10.5      0.000      0.000
REMARK SMILES [NH3+]C1CC[NH+](CC(=O)Nc2cc(Cl)ccc2C(=O)NCCCCCCNC(=O)c2ccc(-c3c4nc(c(-c5ccc(S(=O)(=O)[O-])cc5)c5ccc([nH]5)c(-c5ccc(S(=O)(=O)[O-])cc5)c5nc(c(-c6ccc(S(=O)(=O)[O-])cc6)c6ccc3[nH]6)C=C5)C=C4)cc2)CC1
REMARK SMILES IDX 22 1 21 2 20 3 19 4 17 5 18 6 16 8 10 9 11 10 12 11 15 12
REMARK SMILES IDX 13 13 14 14 9 15 7 16 8 17 6 19 5 20 2 21 3 22 90 23 4 24
REMARK SMILES IDX 89 25 1 27 23 31 24 32 25 33 26 34 27 35 28 37 29 38 30 39
REMARK SMILES IDX 88 40 31 41 87 42 32 43 33 44 34 45 81 46 35 47 86 48 80 49
REMARK SMILES IDX 82 50 36 51 85 52 79 53 78 54 37 56 67 57 48 58 66 59 49 60
REMARK SMILES IDX 52 61 65 62 83 63 50 64 51 65 64 67 84 68 53 69 38 70 39 71
REMARK SMILES IDX 47 72 40 73 46 74 41 75 42 76 43 77 44 78 45 79 68 80 69 81
REMARK SMILES IDX 77 82 70 83 76 84 71 85 72 86 73 87 74 88 75 89 54 90 55 91
REMARK SMILES IDX 63 92 56 93 62 94 57 95 58 96 59 97 60 98 61 99
REMARK H PARENT 19 7 9 18 5 26 1 28 1 29 1 30 26 36 82 55 52 66
REMARK Flexibility Score: inf
ROOT
ATOM      1  C   UNL A   1      39.538  22.852  26.498  1.00  0.00     0.002 C 
ENDROOT
BRANCH   1   2
ATOM      2  C   UNL A   1      38.435  23.790  26.984  1.00  0.00     0.021 C 
BRANCH   2   3
ATOM      3  C   UNL A   1      37.205  23.930  26.106  1.00  0.00     0.116 C 
BRANCH   3   4
ATOM      4  N   UNL A   1      37.351  23.744  24.679  1.00  0.00    -0.352 N 
ATOM      5  C   UNL A   1      36.587  23.088  23.733  1.00  0.00     0.253 C 
ATOM      6  O   UNL A   1      36.960  23.242  22.564  1.00  0.00    -0.269 OA
ATOM      7  H   UNL A   1      38.157  24.169  24.306  1.00  0.00     0.163 HD
BRANCH   5   8
ATOM      8  C   UNL A   1      35.402  22.168  23.975  1.00  0.00     0.063 A 
ATOM      9  C   UNL A   1      34.070  22.277  23.495  1.00  0.00     0.055 A 
ATOM     10  C   UNL A   1      33.096  21.397  23.986  1.00  0.00     0.047 A 
ATOM     11  C   UNL A   1      33.449  20.289  24.758  1.00  0.00     0.043 A 
ATOM     12  C   UNL A   1      35.716  21.052  24.791  1.00  0.00     0.017 A 
ATOM     13  Cl  UNL A   1      32.259  19.112  25.158  1.00  0.00    -0.084 Cl
ATOM     14  C   UNL A   1      34.763  20.097  25.144  1.00  0.00     0.021 A 
BRANCH   9  15
ATOM     15  N   UNL A   1      33.800  23.137  22.422  1.00  0.00    -0.320 N 
ATOM     16  C   UNL A   1      32.938  24.133  22.079  1.00  0.00     0.279 C 
ATOM     17  O   UNL A   1      33.224  24.715  21.021  1.00  0.00    -0.268 OA
ATOM     18  H   UNL A   1      34.431  22.968  21.687  1.00  0.00     0.170 HD
BRANCH  16  19
ATOM     19  C   UNL A   1      31.736  24.596  22.884  1.00  0.00     0.363 C 
BRANCH  19  20
ATOM     20  N   UNL A   1      31.927  25.865  23.613  1.00  0.00    -0.327 N 
ATOM     21  C   UNL A   1      31.005  25.990  26.452  1.00  0.00     0.192 C 
ATOM     22  C   UNL A   1      30.037  26.244  25.286  1.00  0.00     0.126 C 
ATOM     23  C   UNL A   1      32.267  25.252  26.008  1.00  0.00     0.126 C 
ATOM     24  C   UNL A   1      30.707  26.611  23.953  1.00  0.00     0.268 C 
ATOM     25  C   UNL A   1      32.856  25.847  24.732  1.00  0.00     0.268 C 
ATOM     26  H   UNL A   1      32.393  26.395  22.877  1.00  0.00     0.348 HD
BRANCH  21  27
ATOM     27  N   UNL A   1      31.377  27.236  27.123  1.00  0.00    -0.355 N 
ATOM     28  H   UNL A   1      30.553  27.832  27.214  1.00  0.00     0.344 HD
ATOM     29  H   UNL A   1      32.088  27.719  26.574  1.00  0.00     0.344 HD
ATOM     30  H   UNL A   1      31.747  27.025  28.050  1.00  0.00     0.344 HD
ENDBRANCH  21  27
ENDBRANCH  19  20
ENDBRANCH  16  19
ENDBRANCH   9  15
ENDBRANCH   5   8
ENDBRANCH   3   4
ENDBRANCH   2   3
ENDBRANCH   1   2
BRANCH   1  31
ATOM     31  C   UNL A   1      40.471  22.219  27.538  1.00  0.00     0.002 C 
BRANCH  31  32
ATOM     32  C   UNL A   1      41.951  22.040  27.183  1.00  0.00     0.021 C 
BRANCH  32  33
ATOM     33  C   UNL A   1      42.851  23.267  27.291  1.00  0.00     0.116 C 
BRANCH  33  34
ATOM     34  N   UNL A   1      42.856  24.081  26.088  1.00  0.00    -0.352 N 
ATOM     35  C   UNL A   1      42.532  25.401  25.911  1.00  0.00     0.251 C 
ATOM     36  H   UNL A   1      43.135  23.610  25.271  1.00  0.00     0.163 HD
ATOM     37  O   UNL A   1      42.493  25.863  24.767  1.00  0.00    -0.269 OA
BRANCH  35  38
ATOM     38  C   UNL A   1      42.207  26.270  27.063  1.00  0.00     0.039 A 
ATOM     39  C   UNL A   1      41.161  25.893  27.911  1.00  0.00     0.014 A 
ATOM     40  C   UNL A   1      42.898  27.461  27.299  1.00  0.00     0.014 A 
ATOM     41  C   UNL A   1      40.847  26.678  29.024  1.00  0.00     0.010 A 
ATOM     42  C   UNL A   1      42.630  28.206  28.447  1.00  0.00     0.010 A 
ATOM     43  C   UNL A   1      41.600  27.825  29.321  1.00  0.00    -0.014 A 
BRANCH  43  44
ATOM     44  C   UNL A   1      41.322  28.636  30.535  1.00  0.00     0.031 A 
ATOM     45  C   UNL A   1      40.212  29.655  30.528  1.00  0.00     0.074 A 
ATOM     46  C   UNL A   1      42.096  28.490  31.631  1.00  0.00     0.049 A 
ATOM     47  N   UNL A   1      39.864  30.502  31.463  1.00  0.00    -0.248 NA
ATOM     48  C   UNL A   1      39.396  29.743  29.306  1.00  0.00     0.031 C 
ATOM     49  C   UNL A   1      43.213  27.550  31.761  1.00  0.00     0.029 A 
ATOM     50  N   UNL A   1      42.064  29.131  32.844  1.00  0.00    -0.354 N 
ATOM     51  C   UNL A   1      38.796  31.225  30.943  1.00  0.00     0.074 A 
ATOM     52  C   UNL A   1      38.590  30.756  29.589  1.00  0.00     0.031 C 
ATOM     53  C   UNL A   1      43.740  27.658  32.991  1.00  0.00     0.029 A 
ATOM     54  C   UNL A   1      43.033  28.704  33.722  1.00  0.00     0.049 A 
ATOM     55  H   UNL A   1      41.408  29.831  33.066  1.00  0.00     0.167 HD
ATOM     56  C   UNL A   1      38.037  32.173  31.544  1.00  0.00     0.031 A 
ATOM     57  C   UNL A   1      43.330  29.117  34.971  1.00  0.00     0.031 A 
ATOM     58  C   UNL A   1      38.244  32.636  32.890  1.00  0.00     0.049 A 
ATOM     59  C   UNL A   1      42.508  30.217  35.593  1.00  0.00     0.074 A 
ATOM     60  C   UNL A   1      37.517  33.581  33.596  1.00  0.00     0.029 A 
ATOM     61  N   UNL A   1      39.244  32.188  33.739  1.00  0.00    -0.354 N 
ATOM     62  N   UNL A   1      41.476  30.858  35.095  1.00  0.00    -0.248 NA
ATOM     63  C   UNL A   1      42.884  30.641  36.949  1.00  0.00     0.031 C 
ATOM     64  C   UNL A   1      38.108  33.741  34.852  1.00  0.00     0.029 A 
ATOM     65  C   UNL A   1      39.164  32.848  34.954  1.00  0.00     0.049 A 
ATOM     66  H   UNL A   1      39.913  31.503  33.512  1.00  0.00     0.167 HD
ATOM     67  C   UNL A   1      41.056  31.729  36.096  1.00  0.00     0.074 A 
ATOM     68  C   UNL A   1      41.936  31.524  37.227  1.00  0.00     0.031 C 
ATOM     69  C   UNL A   1      40.034  32.620  36.079  1.00  0.00     0.031 A 
BRANCH  56  70
ATOM     70  C   UNL A   1      36.902  32.768  30.752  1.00  0.00    -0.014 A 
ATOM     71  C   UNL A   1      35.592  32.272  30.888  1.00  0.00     0.010 A 
ATOM     72  C   UNL A   1      37.130  33.875  29.914  1.00  0.00     0.010 A 
ATOM     73  C   UNL A   1      34.537  32.852  30.178  1.00  0.00     0.020 A 
ATOM     74  C   UNL A   1      36.071  34.477  29.226  1.00  0.00     0.020 A 
ATOM     75  C   UNL A   1      34.784  33.953  29.354  1.00  0.00     0.054 A 
BRANCH  75  76
ATOM     76  S   UNL A   1      33.385  34.711  28.482  1.00  0.00     0.124 S 
ATOM     77  O   UNL A   1      34.060  35.619  27.559  1.00  0.00    -0.237 OA
ATOM     78  O   UNL A   1      32.732  33.558  27.864  1.00  0.00    -0.237 OA
ATOM     79  O   UNL A   1      32.622  35.359  29.545  1.00  0.00    -0.744 OA
ENDBRANCH  75  76
ENDBRANCH  56  70
BRANCH  57  80
ATOM     80  C   UNL A   1      44.454  28.497  35.729  1.00  0.00    -0.014 A 
ATOM     81  C   UNL A   1      44.234  27.365  36.534  1.00  0.00     0.010 A 
ATOM     82  C   UNL A   1      45.743  29.059  35.682  1.00  0.00     0.010 A 
ATOM     83  C   UNL A   1      45.266  26.835  37.313  1.00  0.00     0.020 A 
ATOM     84  C   UNL A   1      46.788  28.511  36.433  1.00  0.00     0.020 A 
ATOM     85  C   UNL A   1      46.536  27.416  37.262  1.00  0.00     0.054 A 
BRANCH  85  86
ATOM     86  S   UNL A   1      47.861  26.714  38.283  1.00  0.00     0.124 S 
ATOM     87  O   UNL A   1      49.057  27.191  37.598  1.00  0.00    -0.237 OA
ATOM     88  O   UNL A   1      47.600  27.310  39.591  1.00  0.00    -0.237 OA
ATOM     89  O   UNL A   1      47.626  25.274  38.205  1.00  0.00    -0.744 OA
ENDBRANCH  85  86
ENDBRANCH  57  80
BRANCH  69  90
ATOM     90  C   UNL A   1      39.766  33.398  37.340  1.00  0.00    -0.014 A 
ATOM     91  C   UNL A   1      40.480  34.570  37.647  1.00  0.00     0.010 A 
ATOM     92  C   UNL A   1      38.739  32.976  38.206  1.00  0.00     0.010 A 
ATOM     93  C   UNL A   1      40.191  35.289  38.811  1.00  0.00     0.020 A 
ATOM     94  C   UNL A   1      38.426  33.709  39.354  1.00  0.00     0.020 A 
ATOM     95  C   UNL A   1      39.164  34.855  39.655  1.00  0.00     0.054 A 
BRANCH  95  96
ATOM     96  S   UNL A   1      38.777  35.835  41.131  1.00  0.00     0.124 S 
ATOM     97  O   UNL A   1      37.591  35.156  41.646  1.00  0.00    -0.237 OA
ATOM     98  O   UNL A   1      39.986  35.689  41.938  1.00  0.00    -0.237 OA
ATOM     99  O   UNL A   1      38.545  37.178  40.604  1.00  0.00    -0.744 OA
ENDBRANCH  95  96
ENDBRANCH  69  90
ENDBRANCH  43  44
ENDBRANCH  35  38
ENDBRANCH  33  34
ENDBRANCH  32  33
ENDBRANCH  31  32
ENDBRANCH   1  31
TORSDOF 20
ENDMDL
MODEL 2
REMARK VINA RESULT:     -10.4      2.216      8.598
REMARK SMILES [NH3+]C1CC[NH+](CC(=O)Nc2cc(Cl)ccc2C(=O)NCCCCCCNC(=O)c2ccc(-c3c4nc(c(-c5ccc(S(=O)(=O)[O-])cc5)c5ccc([nH]5)c(-c5ccc(S(=O)(=O)[O-])cc5)c5nc(c(-c6ccc(S(=O)(=O)[O-])cc6)c6ccc3[nH]6)C=C5)C=C4)cc2)CC1
REMARK SMILES IDX 22 1 21 2 20 3 19 4 17 5 18 6 16 8 10 9 11 10 12 11 15 12
REMARK SMILES IDX 13 13 14 14 9 15 7 16 8 17 6 19 5 20 2 21 3 22 90 23 4 24
REMARK SMILES IDX 89 25 1 27 23 31 24 32 25 33 26 34 27 35 28 37 29 38 30 39
REMARK SMILES IDX 88 40 31 41 87 42 32 43 33 44 34 45 81 46 35 47 86 48 80 49
REMARK SMILES IDX 82 50 36 51 85 52 79 53 78 54 37 56 67 57 48 58 66 59 49 60
REMARK SMILES IDX 52 61 65 62 83 63 50 64 51 65 64 67 84 68 53 69 38 70 39 71
REMARK SMILES IDX 47 72 40 73 46 74 41 75 42 76 43 77 44 78 45 79 68 80 69 81
REMARK SMILES IDX 77 82 70 83 76 84 71 85 72 86 73 87 74 88 75 89 54 90 55 91
REMARK SMILES IDX 63 92 56 93 62 94 57 95 58 96 59 97 60 98 61 99
REMARK H PARENT 19 7 9 18 5 26 1 28 1 29 1 30 26 36 82 55 52 66
REMARK Flexibility Score: inf
ROOT
ATOM      1  C   UNL A   1      33.233  29.312  26.855  1.00  0.00     0.002 C 
ENDROOT
BRANCH   1   2
ATOM      2  C   UNL A   1      32.996  29.304  25.346  1.00  0.00     0.021 C 
BRANCH   2   3
ATOM      3  C   UNL A   1      31.598  29.637  24.860  1.00  0.00     0.116 C 
BRANCH   3   4
ATOM      4  N   UNL A   1      31.162  29.099  23.590  1.00  0.00    -0.352 N 
ATOM      5  C   UNL A   1      30.743  27.844  23.194  1.00  0.00     0.253 C 
ATOM      6  O   UNL A   1      30.322  27.777  22.033  1.00  0.00    -0.269 OA
ATOM      7  H   UNL A   1      31.166  29.760  22.860  1.00  0.00     0.163 HD
BRANCH   5   8
ATOM      8  C   UNL A   1      30.800  26.553  23.994  1.00  0.00     0.063 A 
ATOM      9  C   UNL A   1      31.249  25.267  23.592  1.00  0.00     0.055 A 
ATOM     10  C   UNL A   1      31.053  24.179  24.451  1.00  0.00     0.047 A 
ATOM     11  C   UNL A   1      30.634  24.368  25.769  1.00  0.00     0.043 A 
ATOM     12  C   UNL A   1      30.342  26.700  25.328  1.00  0.00     0.017 A 
ATOM     13  Cl  UNL A   1      30.616  23.035  26.859  1.00  0.00    -0.084 Cl
ATOM     14  C   UNL A   1      30.299  25.630  26.222  1.00  0.00     0.021 A 
BRANCH   9  15
ATOM     15  N   UNL A   1      32.027  25.149  22.432  1.00  0.00    -0.320 N 
ATOM     16  C   UNL A   1      33.051  24.401  21.938  1.00  0.00     0.279 C 
ATOM     17  O   UNL A   1      33.292  24.592  20.736  1.00  0.00    -0.268 OA
ATOM     18  H   UNL A   1      31.743  25.815  21.766  1.00  0.00     0.170 HD
BRANCH  16  19
ATOM     19  C   UNL A   1      33.852  23.362  22.704  1.00  0.00     0.363 C 
BRANCH  19  20
ATOM     20  N   UNL A   1      35.066  23.878  23.365  1.00  0.00    -0.327 N 
ATOM     21  C   UNL A   1      36.029  22.455  25.810  1.00  0.00     0.192 C 
ATOM     22  C   UNL A   1      34.939  23.534  25.891  1.00  0.00     0.126 C 
ATOM     23  C   UNL A   1      36.196  21.905  24.393  1.00  0.00     0.126 C 
ATOM     24  C   UNL A   1      34.877  24.488  24.690  1.00  0.00     0.268 C 
ATOM     25  C   UNL A   1      36.240  23.018  23.351  1.00  0.00     0.268 C 
ATOM     26  H   UNL A   1      35.277  24.642  22.724  1.00  0.00     0.348 HD
BRANCH  21  27
ATOM     27  N   UNL A   1      37.317  22.953  26.295  1.00  0.00    -0.355 N 
ATOM     28  H   UNL A   1      37.381  22.801  27.302  1.00  0.00     0.344 HD
ATOM     29  H   UNL A   1      37.394  23.950  26.094  1.00  0.00     0.344 HD
ATOM     30  H   UNL A   1      38.073  22.453  25.828  1.00  0.00     0.344 HD
ENDBRANCH  21  27
ENDBRANCH  19  20
ENDBRANCH  16  19
ENDBRANCH   9  15
ENDBRANCH   5   8
ENDBRANCH   3   4
ENDBRANCH   2   3
ENDBRANCH   1   2
BRANCH   1  31
ATOM     31  C   UNL A   1      34.324  30.230  27.420  1.00  0.00     0.002 C 
BRANCH  31  32
ATOM     32  C   UNL A   1      34.137  31.747  27.306  1.00  0.00     0.021 C 
BRANCH  32  33
ATOM     33  C   UNL A   1      32.729  32.297  27.505  1.00  0.00     0.116 C 
BRANCH  33  34
ATOM     34  N   UNL A   1      32.698  33.734  27.713  1.00  0.00    -0.352 N 
ATOM     35  C   UNL A   1      33.453  34.525  28.538  1.00  0.00     0.251 C 
ATOM     36  H   UNL A   1      32.028  34.216  27.177  1.00  0.00     0.163 HD
ATOM     37  O   UNL A   1      33.174  35.723  28.645  1.00  0.00    -0.269 OA
BRANCH  35  38
ATOM     38  C   UNL A   1      34.577  33.964  29.318  1.00  0.00     0.039 A 
ATOM     39  C   UNL A   1      34.289  33.174  30.435  1.00  0.00     0.014 A 
ATOM     40  C   UNL A   1      35.907  34.230  28.980  1.00  0.00     0.014 A 
ATOM     41  C   UNL A   1      35.328  32.606  31.177  1.00  0.00     0.010 A 
ATOM     42  C   UNL A   1      36.942  33.606  29.678  1.00  0.00     0.010 A 
ATOM     43  C   UNL A   1      36.665  32.790  30.785  1.00  0.00    -0.014 A 
BRANCH  43  44
ATOM     44  C   UNL A   1      37.780  32.141  31.523  1.00  0.00     0.031 A 
ATOM     45  C   UNL A   1      38.222  32.683  32.858  1.00  0.00     0.074 A 
ATOM     46  C   UNL A   1      38.426  31.091  30.974  1.00  0.00     0.049 A 
ATOM     47  N   UNL A   1      39.216  32.297  33.616  1.00  0.00    -0.248 NA
ATOM     48  C   UNL A   1      37.456  33.815  33.405  1.00  0.00     0.031 C 
ATOM     49  C   UNL A   1      38.107  30.482  29.680  1.00  0.00     0.029 A 
ATOM     50  N   UNL A   1      39.488  30.352  31.433  1.00  0.00    -0.354 N 
ATOM     51  C   UNL A   1      39.198  33.137  34.724  1.00  0.00     0.074 A 
ATOM     52  C   UNL A   1      38.131  34.091  34.512  1.00  0.00     0.031 C 
ATOM     53  C   UNL A   1      38.936  29.448  29.463  1.00  0.00     0.029 A 
ATOM     54  C   UNL A   1      39.875  29.348  30.575  1.00  0.00     0.049 A 
ATOM     55  H   UNL A   1      39.931  30.524  32.295  1.00  0.00     0.167 HD
ATOM     56  C   UNL A   1      39.980  33.105  35.830  1.00  0.00     0.031 A 
ATOM     57  C   UNL A   1      40.881  28.456  30.666  1.00  0.00     0.031 A 
ATOM     58  C   UNL A   1      41.040  32.155  36.040  1.00  0.00     0.049 A 
ATOM     59  C   UNL A   1      41.775  28.481  31.880  1.00  0.00     0.074 A 
ATOM     60  C   UNL A   1      41.877  32.028  37.136  1.00  0.00     0.029 A 
ATOM     61  N   UNL A   1      41.407  31.164  35.141  1.00  0.00    -0.354 N 
ATOM     62  N   UNL A   1      41.713  29.261  32.933  1.00  0.00    -0.248 NA
ATOM     63  C   UNL A   1      42.867  27.498  31.921  1.00  0.00     0.031 C 
ATOM     64  C   UNL A   1      42.783  30.995  36.878  1.00  0.00     0.029 A 
ATOM     65  C   UNL A   1      42.468  30.434  35.650  1.00  0.00     0.049 A 
ATOM     66  H   UNL A   1      40.978  31.004  34.270  1.00  0.00     0.167 HD
ATOM     67  C   UNL A   1      42.731  28.832  33.779  1.00  0.00     0.074 A 
ATOM     68  C   UNL A   1      43.383  27.720  33.121  1.00  0.00     0.031 C 
ATOM     69  C   UNL A   1      43.095  29.316  34.992  1.00  0.00     0.031 A 
BRANCH  56  70
ATOM     70  C   UNL A   1      39.711  34.122  36.909  1.00  0.00    -0.014 A 
ATOM     71  C   UNL A   1      39.078  33.748  38.108  1.00  0.00     0.010 A 
ATOM     72  C   UNL A   1      40.153  35.448  36.754  1.00  0.00     0.010 A 
ATOM     73  C   UNL A   1      38.864  34.688  39.121  1.00  0.00     0.020 A 
ATOM     74  C   UNL A   1      39.969  36.384  37.778  1.00  0.00     0.020 A 
ATOM     75  C   UNL A   1      39.314  36.000  38.949  1.00  0.00     0.054 A 
BRANCH  75  76
ATOM     76  S   UNL A   1      39.061  37.184  40.300  1.00  0.00     0.124 S 
ATOM     77  O   UNL A   1      38.511  38.337  39.592  1.00  0.00    -0.237 OA
ATOM     78  O   UNL A   1      38.126  36.478  41.172  1.00  0.00    -0.237 OA
ATOM     79  O   UNL A   1      40.401  37.374  40.851  1.00  0.00    -0.744 OA
ENDBRANCH  75  76
ENDBRANCH  56  70
BRANCH  57  80
ATOM     80  C   UNL A   1      41.110  27.457  29.584  1.00  0.00    -0.014 A 
ATOM     81  C   UNL A   1      40.194  26.411  29.371  1.00  0.00     0.010 A 
ATOM     82  C   UNL A   1      42.267  27.520  28.785  1.00  0.00     0.010 A 
ATOM     83  C   UNL A   1      40.450  25.424  28.416  1.00  0.00     0.020 A 
ATOM     84  C   UNL A   1      42.511  26.555  27.804  1.00  0.00     0.020 A 
ATOM     85  C   UNL A   1      41.611  25.499  27.642  1.00  0.00     0.054 A 
BRANCH  85  86
ATOM     86  S   UNL A   1      41.926  24.205  26.409  1.00  0.00     0.124 S 
ATOM     87  O   UNL A   1      42.271  24.989  25.228  1.00  0.00    -0.237 OA
ATOM     88  O   UNL A   1      43.022  23.453  27.014  1.00  0.00    -0.237 OA
ATOM     89  O   UNL A   1      40.655  23.488  26.335  1.00  0.00    -0.744 OA
ENDBRANCH  85  86
ENDBRANCH  57  80
BRANCH  69  90
ATOM     90  C   UNL A   1      44.208  28.610  35.721  1.00  0.00    -0.014 A 
ATOM     91  C   UNL A   1      45.548  29.010  35.581  1.00  0.00     0.010 A 
ATOM     92  C   UNL A   1      43.896  27.562  36.608  1.00  0.00     0.010 A 
ATOM     93  C   UNL A   1      46.559  28.354  36.290  1.00  0.00     0.020 A 
ATOM     94  C   UNL A   1      44.899  26.925  37.343  1.00  0.00     0.020 A 
ATOM     95  C   UNL A   1      46.226  27.318  37.169  1.00  0.00     0.054 A 
BRANCH  95  96
ATOM     96  S   UNL A   1      47.552  26.520  38.116  1.00  0.00     0.124 S 
ATOM     97  O   UNL A   1      47.216  25.106  37.979  1.00  0.00    -0.237 OA
ATOM     98  O   UNL A   1      48.755  26.953  37.409  1.00  0.00    -0.237 OA
ATOM     99  O   UNL A   1      47.396  27.069  39.461  1.00  0.00    -0.744 OA
ENDBRANCH  95  96
ENDBRANCH  69  90
ENDBRANCH  43  44
ENDBRANCH  35  38
ENDBRANCH  33  34
ENDBRANCH  32  33
ENDBRANCH  31  32
ENDBRANCH   1  31
TORSDOF 20
ENDMDL
MODEL 3
REMARK VINA RESULT:     -10.3      2.772      9.440
REMARK SMILES [NH3+]C1CC[NH+](CC(=O)Nc2cc(Cl)ccc2C(=O)NCCCCCCNC(=O)c2ccc(-c3c4nc(c(-c5ccc(S(=O)(=O)[O-])cc5)c5ccc([nH]5)c(-c5ccc(S(=O)(=O)[O-])cc5)c5nc(c(-c6ccc(S(=O)(=O)[O-])cc6)c6ccc3[nH]6)C=C5)C=C4)cc2)CC1
REMARK SMILES IDX 22 1 21 2 20 3 19 4 17 5 18 6 16 8 10 9 11 10 12 11 15 12
REMARK SMILES IDX 13 13 14 14 9 15 7 16 8 17 6 19 5 20 2 21 3 22 90 23 4 24
REMARK SMILES IDX 89 25 1 27 23 31 24 32 25 33 26 34 27 35 28 37 29 38 30 39
REMARK SMILES IDX 88 40 31 41 87 42 32 43 33 44 34 45 81 46 35 47 86 48 80 49
REMARK SMILES IDX 82 50 36 51 85 52 79 53 78 54 37 56 67 57 48 58 66 59 49 60
REMARK SMILES IDX 52 61 65 62 83 63 50 64 51 65 64 67 84 68 53 69 38 70 39 71
REMARK SMILES IDX 47 72 40 73 46 74 41 75 42 76 43 77 44 78 45 79 68 80 69 81
REMARK SMILES IDX 77 82 70 83 76 84 71 85 72 86 73 87 74 88 75 89 54 90 55 91
REMARK SMILES IDX 63 92 56 93 62 94 57 95 58 96 59 97 60 98 61 99
REMARK H PARENT 19 7 9 18 5 26 1 28 1 29 1 30 26 36 82 55 52 66
REMARK Flexibility Score: inf
ROOT
ATOM      1  C   UNL A   1      35.507  31.264  28.063  1.00  0.00     0.002 C 
ENDROOT
BRANCH   1   2
ATOM      2  C   UNL A   1      34.662  30.540  27.017  1.00  0.00     0.021 C 
BRANCH   2   3
ATOM      3  C   UNL A   1      34.428  29.054  27.220  1.00  0.00     0.116 C 
BRANCH   3   4
ATOM      4  N   UNL A   1      33.227  28.632  27.907  1.00  0.00    -0.352 N 
ATOM      5  C   UNL A   1      31.975  28.253  27.467  1.00  0.00     0.253 C 
ATOM      6  O   UNL A   1      31.217  27.831  28.349  1.00  0.00    -0.269 OA
ATOM      7  H   UNL A   1      33.322  28.611  28.887  1.00  0.00     0.163 HD
BRANCH   5   8
ATOM      8  C   UNL A   1      31.419  28.356  26.056  1.00  0.00     0.063 A 
ATOM      9  C   UNL A   1      30.918  27.329  25.213  1.00  0.00     0.055 A 
ATOM     10  C   UNL A   1      30.610  27.633  23.881  1.00  0.00     0.047 A 
ATOM     11  C   UNL A   1      30.575  28.954  23.432  1.00  0.00     0.043 A 
ATOM     12  C   UNL A   1      31.407  29.682  25.554  1.00  0.00     0.017 A 
ATOM     13  Cl  UNL A   1      29.981  29.306  21.855  1.00  0.00    -0.084 Cl
ATOM     14  C   UNL A   1      30.949  29.987  24.272  1.00  0.00     0.021 A 
BRANCH   9  15
ATOM     15  N   UNL A   1      30.579  26.090  25.774  1.00  0.00    -0.320 N 
ATOM     16  C   UNL A   1      31.180  24.976  26.274  1.00  0.00     0.279 C 
ATOM     17  O   UNL A   1      30.403  24.177  26.822  1.00  0.00    -0.268 OA
ATOM     18  H   UNL A   1      29.601  25.997  25.822  1.00  0.00     0.170 HD
BRANCH  16  19
ATOM     19  C   UNL A   1      32.668  24.674  26.254  1.00  0.00     0.363 C 
BRANCH  19  20
ATOM     20  N   UNL A   1      33.054  23.508  25.434  1.00  0.00    -0.327 N 
ATOM     21  C   UNL A   1      35.967  23.057  24.943  1.00  0.00     0.192 C 
ATOM     22  C   UNL A   1      35.148  24.015  24.065  1.00  0.00     0.126 C 
ATOM     23  C   UNL A   1      35.282  22.766  26.278  1.00  0.00     0.126 C 
ATOM     24  C   UNL A   1      33.628  23.803  24.113  1.00  0.00     0.268 C 
ATOM     25  C   UNL A   1      33.799  22.452  26.102  1.00  0.00     0.268 C 
ATOM     26  H   UNL A   1      32.124  23.125  25.265  1.00  0.00     0.348 HD
BRANCH  21  27
ATOM     27  N   UNL A   1      36.245  21.798  24.251  1.00  0.00    -0.355 N 
ATOM     28  H   UNL A   1      35.497  21.605  23.585  1.00  0.00     0.344 HD
ATOM     29  H   UNL A   1      36.300  21.041  24.932  1.00  0.00     0.344 HD
ATOM     30  H   UNL A   1      37.132  21.873  23.754  1.00  0.00     0.344 HD
ENDBRANCH  21  27
ENDBRANCH  19  20
ENDBRANCH  16  19
ENDBRANCH   9  15
ENDBRANCH   5   8
ENDBRANCH   3   4
ENDBRANCH   2   3
ENDBRANCH   1   2
BRANCH   1  31
ATOM     31  C   UNL A   1      35.368  32.786  28.189  1.00  0.00     0.002 C 
BRANCH  31  32
ATOM     32  C   UNL A   1      33.974  33.409  28.063  1.00  0.00     0.021 C 
BRANCH  32  33
ATOM     33  C   UNL A   1      33.856  34.913  28.285  1.00  0.00     0.116 C 
BRANCH  33  34
ATOM     34  N   UNL A   1      32.968  35.263  29.380  1.00  0.00    -0.352 N 
ATOM     35  C   UNL A   1      33.087  35.029  30.725  1.00  0.00     0.251 C 
ATOM     36  H   UNL A   1      32.152  35.743  29.114  1.00  0.00     0.163 HD
ATOM     37  O   UNL A   1      32.145  35.313  31.470  1.00  0.00    -0.269 OA
BRANCH  35  38
ATOM     38  C   UNL A   1      34.312  34.424  31.291  1.00  0.00     0.039 A 
ATOM     39  C   UNL A   1      34.287  33.071  31.644  1.00  0.00     0.014 A 
ATOM     40  C   UNL A   1      35.469  35.177  31.505  1.00  0.00     0.014 A 
ATOM     41  C   UNL A   1      35.436  32.461  32.156  1.00  0.00     0.010 A 
ATOM     42  C   UNL A   1      36.635  34.552  31.949  1.00  0.00     0.010 A 
ATOM     43  C   UNL A   1      36.631  33.189  32.283  1.00  0.00    -0.014 A 
BRANCH  43  44
ATOM     44  C   UNL A   1      37.880  32.542  32.764  1.00  0.00     0.031 A 
ATOM     45  C   UNL A   1      38.383  32.810  34.158  1.00  0.00     0.074 A 
ATOM     46  C   UNL A   1      38.587  31.748  31.933  1.00  0.00     0.049 A 
ATOM     47  N   UNL A   1      39.483  32.395  34.732  1.00  0.00    -0.248 NA
ATOM     48  C   UNL A   1      37.548  33.668  35.015  1.00  0.00     0.031 C 
ATOM     49  C   UNL A   1      38.217  31.422  30.553  1.00  0.00     0.029 A 
ATOM     50  N   UNL A   1      39.767  31.073  32.125  1.00  0.00    -0.354 N 
ATOM     51  C   UNL A   1      39.476  32.942  36.010  1.00  0.00     0.074 A 
ATOM     52  C   UNL A   1      38.290  33.766  36.109  1.00  0.00     0.031 C 
ATOM     53  C   UNL A   1      39.135  30.589  30.035  1.00  0.00     0.029 A 
ATOM     54  C   UNL A   1      40.183  30.360  31.024  1.00  0.00     0.049 A 
ATOM     55  H   UNL A   1      40.268  31.096  32.972  1.00  0.00     0.167 HD
ATOM     56  C   UNL A   1      40.359  32.757  37.021  1.00  0.00     0.031 A 
ATOM     57  C   UNL A   1      41.289  29.616  30.827  1.00  0.00     0.031 A 
ATOM     58  C   UNL A   1      41.537  31.937  36.921  1.00  0.00     0.049 A 
ATOM     59  C   UNL A   1      42.286  29.477  31.949  1.00  0.00     0.074 A 
ATOM     60  C   UNL A   1      42.485  31.671  37.895  1.00  0.00     0.029 A 
ATOM     61  N   UNL A   1      41.928  31.244  35.785  1.00  0.00    -0.354 N 
ATOM     62  N   UNL A   1      42.237  29.972  33.163  1.00  0.00    -0.248 NA
ATOM     63  C   UNL A   1      43.484  28.668  31.675  1.00  0.00     0.031 C 
ATOM     64  C   UNL A   1      43.476  30.860  37.333  1.00  0.00     0.029 A 
ATOM     65  C   UNL A   1      43.110  30.566  36.029  1.00  0.00     0.049 A 
ATOM     66  H   UNL A   1      41.438  31.237  34.932  1.00  0.00     0.167 HD
ATOM     67  C   UNL A   1      43.375  29.498  33.809  1.00  0.00     0.074 A 
ATOM     68  C   UNL A   1      44.084  28.670  32.857  1.00  0.00     0.031 C 
ATOM     69  C   UNL A   1      43.796  29.729  35.077  1.00  0.00     0.031 A 
BRANCH  56  70
ATOM     70  C   UNL A   1      40.080  33.446  38.331  1.00  0.00    -0.014 A 
ATOM     71  C   UNL A   1      40.655  34.697  38.623  1.00  0.00     0.010 A 
ATOM     72  C   UNL A   1      39.185  32.874  39.253  1.00  0.00     0.010 A 
ATOM     73  C   UNL A   1      40.363  35.349  39.824  1.00  0.00     0.020 A 
ATOM     74  C   UNL A   1      38.867  33.538  40.443  1.00  0.00     0.020 A 
ATOM     75  C   UNL A   1      39.468  34.766  40.725  1.00  0.00     0.054 A 
BRANCH  75  76
ATOM     76  S   UNL A   1      39.077  35.659  42.255  1.00  0.00     0.124 S 
ATOM     77  O   UNL A   1      39.352  37.042  41.877  1.00  0.00    -0.237 OA
ATOM     78  O   UNL A   1      37.668  35.333  42.463  1.00  0.00    -0.237 OA
ATOM     79  O   UNL A   1      39.997  35.088  43.236  1.00  0.00    -0.744 OA
ENDBRANCH  75  76
ENDBRANCH  56  70
BRANCH  57  80
ATOM     80  C   UNL A   1      41.526  28.939  29.520  1.00  0.00    -0.014 A 
ATOM     81  C   UNL A   1      41.116  27.609  29.320  1.00  0.00     0.010 A 
ATOM     82  C   UNL A   1      42.200  29.607  28.481  1.00  0.00     0.010 A 
ATOM     83  C   UNL A   1      41.415  26.944  28.127  1.00  0.00     0.020 A 
ATOM     84  C   UNL A   1      42.470  28.958  27.273  1.00  0.00     0.020 A 
ATOM     85  C   UNL A   1      42.096  27.622  27.113  1.00  0.00     0.054 A 
BRANCH  85  86
ATOM     86  S   UNL A   1      42.476  26.740  25.574  1.00  0.00     0.124 S 
ATOM     87  O   UNL A   1      42.656  27.839  24.631  1.00  0.00    -0.237 OA
ATOM     88  O   UNL A   1      43.686  26.001  25.924  1.00  0.00    -0.237 OA
ATOM     89  O   UNL A   1      41.292  25.912  25.353  1.00  0.00    -0.744 OA
ENDBRANCH  85  86
ENDBRANCH  57  80
BRANCH  69  90
ATOM     90  C   UNL A   1      45.048  29.029  35.535  1.00  0.00    -0.014 A 
ATOM     91  C   UNL A   1      46.312  29.632  35.419  1.00  0.00     0.010 A 
ATOM     92  C   UNL A   1      44.947  27.764  36.147  1.00  0.00     0.010 A 
ATOM     93  C   UNL A   1      47.456  28.971  35.878  1.00  0.00     0.020 A 
ATOM     94  C   UNL A   1      46.083  27.115  36.636  1.00  0.00     0.020 A 
ATOM     95  C   UNL A   1      47.332  27.718  36.486  1.00  0.00     0.054 A 
BRANCH  95  96
ATOM     96  S   UNL A   1      48.826  26.907  37.119  1.00  0.00     0.124 S 
ATOM     97  O   UNL A   1      48.326  25.582  37.475  1.00  0.00    -0.237 OA
ATOM     98  O   UNL A   1      49.726  26.952  35.970  1.00  0.00    -0.237 OA
ATOM     99  O   UNL A   1      49.224  27.745  38.248  1.00  0.00    -0.744 OA
ENDBRANCH  95  96
ENDBRANCH  69  90
ENDBRANCH  43  44
ENDBRANCH  35  38
ENDBRANCH  33  34
ENDBRANCH  32  33
ENDBRANCH  31  32
ENDBRANCH   1  31
TORSDOF 20
ENDMDL
