MODEL 1
REMARK VINA RESULT:      -9.8      0.000      0.000
REMARK SMILES O=C(Cc1ccc(S(=O)(=O)CC(=O)NCC2CC2)cc1)NCCCCCCNC(=O)c1ccc(-c2c3nc(c(-c4ccc(S(=O)(=O)[O-])cc4)c4ccc([nH]4)c(-c4ccc(S(=O)(=O)[O-])cc4)c4nc(c(-c5ccc(S(=O)(=O)[O-])cc5)c5ccc2[nH]5)C=C4)C=C3)cc1
REMARK SMILES IDX 23 1 22 2 21 3 1 4 2 5 3 7 4 8 5 9 20 10 6 11 19 12 7 13
REMARK SMILES IDX 8 14 9 15 10 16 11 17 12 18 13 19 14 20 15 22 16 23 17 24
REMARK SMILES IDX 18 25 24 26 25 27 26 28 27 29 28 30 29 31 30 33 31 34 32 35
REMARK SMILES IDX 90 36 33 37 89 38 34 39 35 40 36 41 83 42 37 43 88 44 82 45
REMARK SMILES IDX 84 46 38 47 87 48 81 49 80 50 39 52 69 53 50 54 68 55 51 56
REMARK SMILES IDX 54 57 67 58 85 59 52 60 53 61 66 63 86 64 55 65 40 66 41 67
REMARK SMILES IDX 49 68 42 69 48 70 43 71 44 72 45 73 46 74 47 75 70 76 71 77
REMARK SMILES IDX 79 78 72 79 78 80 73 81 74 82 75 83 76 84 77 85 56 86 57 87
REMARK SMILES IDX 65 88 58 89 64 90 59 91 60 92 61 93 62 94 63 95
REMARK H PARENT 21 6 14 21 28 32 84 51 54 62
REMARK Flexibility Score: inf
ROOT
ATOM      1  C   UNL A   1      34.113  26.648  25.693  1.00  0.00     0.021 C 
ENDROOT
BRANCH   1   2
ATOM      2  C   UNL A   1      32.760  27.354  25.611  1.00  0.00     0.116 C 
BRANCH   2   3
ATOM      3  N   UNL A   1      31.716  26.432  25.222  1.00  0.00    -0.356 N 
ATOM      4  O   UNL A   1      31.496  27.126  23.039  1.00  0.00    -0.275 OA
ATOM      5  C   UNL A   1      31.201  26.356  23.947  1.00  0.00     0.224 C 
ATOM      6  H   UNL A   1      31.352  25.825  25.906  1.00  0.00     0.163 HD
BRANCH   5   7
ATOM      7  C   UNL A   1      30.237  25.193  23.766  1.00  0.00     0.135 C 
BRANCH   7   8
ATOM      8  C   UNL A   1      30.891  23.853  24.026  1.00  0.00    -0.039 A 
ATOM      9  C   UNL A   1      30.729  23.193  25.253  1.00  0.00     0.005 A 
ATOM     10  C   UNL A   1      31.691  23.257  23.041  1.00  0.00     0.005 A 
ATOM     11  C   UNL A   1      31.378  21.986  25.502  1.00  0.00     0.020 A 
ATOM     12  C   UNL A   1      32.351  22.050  23.287  1.00  0.00     0.020 A 
ATOM     13  C   UNL A   1      32.186  21.414  24.517  1.00  0.00     0.067 A 
BRANCH  13  14
ATOM     14  S   UNL A   1      33.026  19.901  24.896  1.00  0.00     0.187 S 
ATOM     15  O   UNL A   1      34.192  20.279  25.674  1.00  0.00    -0.223 OA
ATOM     16  O   UNL A   1      32.039  19.009  25.482  1.00  0.00    -0.223 OA
BRANCH  14  17
ATOM     17  C   UNL A   1      33.606  19.131  23.429  1.00  0.00     0.241 C 
BRANCH  17  18
ATOM     18  C   UNL A   1      32.820  17.933  23.008  1.00  0.00     0.235 C 
ATOM     19  O   UNL A   1      31.936  18.035  22.153  1.00  0.00    -0.274 OA
ATOM     20  N   UNL A   1      33.100  16.690  23.473  1.00  0.00    -0.355 N 
ATOM     21  H   UNL A   1      32.534  15.972  23.107  1.00  0.00     0.163 HD
BRANCH  20  22
ATOM     22  C   UNL A   1      34.100  16.256  24.424  1.00  0.00     0.119 C 
BRANCH  22  23
ATOM     23  C   UNL A   1      33.416  15.728  25.645  1.00  0.00     0.008 C 
ATOM     24  C   UNL A   1      31.946  15.394  25.605  1.00  0.00     0.006 C 
ATOM     25  C   UNL A   1      32.956  14.292  25.732  1.00  0.00     0.006 C 
ENDBRANCH  22  23
ENDBRANCH  20  22
ENDBRANCH  17  18
ENDBRANCH  14  17
ENDBRANCH  13  14
ENDBRANCH   7   8
ENDBRANCH   5   7
ENDBRANCH   2   3
ENDBRANCH   1   2
BRANCH   1  26
ATOM     26  C   UNL A   1      34.250  25.408  24.794  1.00  0.00     0.002 C 
BRANCH  26  27
ATOM     27  C   UNL A   1      34.494  24.087  25.530  1.00  0.00     0.002 C 
BRANCH  27  28
ATOM     28  C   UNL A   1      35.583  23.202  24.922  1.00  0.00     0.021 C 
BRANCH  28  29
ATOM     29  C   UNL A   1      36.997  23.764  25.019  1.00  0.00     0.116 C 
BRANCH  29  30
ATOM     30  N   UNL A   1      37.982  22.749  25.362  1.00  0.00    -0.352 N 
ATOM     31  C   UNL A   1      39.149  22.887  26.074  1.00  0.00     0.251 C 
ATOM     32  H   UNL A   1      37.785  21.840  25.039  1.00  0.00     0.163 HD
ATOM     33  O   UNL A   1      39.945  21.955  26.138  1.00  0.00    -0.269 OA
BRANCH  31  34
ATOM     34  C   UNL A   1      39.451  24.173  26.741  1.00  0.00     0.039 A 
ATOM     35  C   UNL A   1      38.975  24.393  28.035  1.00  0.00     0.014 A 
ATOM     36  C   UNL A   1      40.213  25.152  26.096  1.00  0.00     0.014 A 
ATOM     37  C   UNL A   1      39.313  25.572  28.706  1.00  0.00     0.010 A 
ATOM     38  C   UNL A   1      40.609  26.291  26.791  1.00  0.00     0.010 A 
ATOM     39  C   UNL A   1      40.161  26.516  28.102  1.00  0.00    -0.014 A 
BRANCH  39  40
ATOM     40  C   UNL A   1      40.579  27.750  28.819  1.00  0.00     0.031 A 
ATOM     41  C   UNL A   1      41.929  27.814  29.484  1.00  0.00     0.074 A 
ATOM     42  C   UNL A   1      39.726  28.791  28.920  1.00  0.00     0.049 A 
ATOM     43  N   UNL A   1      42.441  28.769  30.217  1.00  0.00    -0.248 NA
ATOM     44  C   UNL A   1      42.809  26.644  29.323  1.00  0.00     0.031 C 
ATOM     45  C   UNL A   1      38.377  28.841  28.350  1.00  0.00     0.029 A 
ATOM     46  N   UNL A   1      39.865  30.006  29.544  1.00  0.00    -0.354 N 
ATOM     47  C   UNL A   1      43.695  28.314  30.609  1.00  0.00     0.074 A 
ATOM     48  C   UNL A   1      43.844  26.975  30.081  1.00  0.00     0.031 C 
ATOM     49  C   UNL A   1      37.823  30.031  28.635  1.00  0.00     0.029 A 
ATOM     50  C   UNL A   1      38.755  30.812  29.441  1.00  0.00     0.049 A 
ATOM     51  H   UNL A   1      40.683  30.274  30.021  1.00  0.00     0.167 HD
ATOM     52  C   UNL A   1      44.649  28.959  31.322  1.00  0.00     0.031 A 
ATOM     53  C   UNL A   1      38.510  32.036  29.948  1.00  0.00     0.031 A 
ATOM     54  C   UNL A   1      44.506  30.295  31.837  1.00  0.00     0.049 A 
ATOM     55  C   UNL A   1      39.579  32.722  30.759  1.00  0.00     0.074 A 
ATOM     56  C   UNL A   1      45.429  31.046  32.544  1.00  0.00     0.029 A 
ATOM     57  N   UNL A   1      43.373  31.081  31.698  1.00  0.00    -0.354 N 
ATOM     58  N   UNL A   1      40.777  32.292  31.075  1.00  0.00    -0.248 NA
ATOM     59  C   UNL A   1      39.267  34.065  31.270  1.00  0.00     0.031 C 
ATOM     60  C   UNL A   1      44.837  32.269  32.872  1.00  0.00     0.029 A 
ATOM     61  C   UNL A   1      43.568  32.305  32.316  1.00  0.00     0.049 A 
ATOM     62  H   UNL A   1      42.551  30.811  31.228  1.00  0.00     0.167 HD
ATOM     63  C   UNL A   1      41.374  33.326  31.788  1.00  0.00     0.074 A 
ATOM     64  C   UNL A   1      40.412  34.406  31.845  1.00  0.00     0.031 C 
ATOM     65  C   UNL A   1      42.607  33.377  32.349  1.00  0.00     0.031 A 
BRANCH  52  66
ATOM     66  C   UNL A   1      45.945  28.235  31.577  1.00  0.00    -0.014 A 
ATOM     67  C   UNL A   1      47.026  28.358  30.685  1.00  0.00     0.010 A 
ATOM     68  C   UNL A   1      46.112  27.484  32.755  1.00  0.00     0.010 A 
ATOM     69  C   UNL A   1      48.242  27.724  30.953  1.00  0.00     0.020 A 
ATOM     70  C   UNL A   1      47.336  26.871  33.040  1.00  0.00     0.020 A 
ATOM     71  C   UNL A   1      48.390  26.988  32.131  1.00  0.00     0.054 A 
BRANCH  71  72
ATOM     72  S   UNL A   1      49.997  26.221  32.477  1.00  0.00     0.124 S 
ATOM     73  O   UNL A   1      49.667  24.798  32.434  1.00  0.00    -0.237 OA
ATOM     74  O   UNL A   1      50.825  26.707  31.376  1.00  0.00    -0.237 OA
ATOM     75  O   UNL A   1      50.353  26.736  33.797  1.00  0.00    -0.744 OA
ENDBRANCH  71  72
ENDBRANCH  52  66
BRANCH  53  76
ATOM     76  C   UNL A   1      37.195  32.699  29.716  1.00  0.00    -0.014 A 
ATOM     77  C   UNL A   1      36.998  33.536  28.603  1.00  0.00     0.010 A 
ATOM     78  C   UNL A   1      36.139  32.521  30.629  1.00  0.00     0.010 A 
ATOM     79  C   UNL A   1      35.789  34.215  28.431  1.00  0.00     0.020 A 
ATOM     80  C   UNL A   1      34.916  33.172  30.442  1.00  0.00     0.020 A 
ATOM     81  C   UNL A   1      34.757  34.032  29.355  1.00  0.00     0.054 A 
BRANCH  81  82
ATOM     82  S   UNL A   1      33.192  34.918  29.108  1.00  0.00     0.124 S 
ATOM     83  O   UNL A   1      33.654  36.223  28.646  1.00  0.00    -0.237 OA
ATOM     84  O   UNL A   1      32.516  34.094  28.110  1.00  0.00    -0.237 OA
ATOM     85  O   UNL A   1      32.580  34.903  30.436  1.00  0.00    -0.744 OA
ENDBRANCH  81  82
ENDBRANCH  53  76
BRANCH  65  86
ATOM     86  C   UNL A   1      43.015  34.660  33.023  1.00  0.00    -0.014 A 
ATOM     87  C   UNL A   1      42.863  34.840  34.409  1.00  0.00     0.010 A 
ATOM     88  C   UNL A   1      43.612  35.681  32.261  1.00  0.00     0.010 A 
ATOM     89  C   UNL A   1      43.271  36.033  35.014  1.00  0.00     0.020 A 
ATOM     90  C   UNL A   1      44.050  36.860  32.866  1.00  0.00     0.020 A 
ATOM     91  C   UNL A   1      43.863  37.035  34.239  1.00  0.00     0.054 A 
BRANCH  91  92
ATOM     92  S   UNL A   1      44.425  38.553  35.056  1.00  0.00     0.124 S 
ATOM     93  O   UNL A   1      43.905  38.380  36.409  1.00  0.00    -0.237 OA
ATOM     94  O   UNL A   1      45.878  38.470  34.924  1.00  0.00    -0.237 OA
ATOM     95  O   UNL A   1      43.795  39.619  34.279  1.00  0.00    -0.744 OA
ENDBRANCH  91  92
ENDBRANCH  65  86
ENDBRANCH  39  40
ENDBRANCH  31  34
ENDBRANCH  29  30
ENDBRANCH  28  29
ENDBRANCH  27  28
ENDBRANCH  26  27
ENDBRANCH   1  26
TORSDOF 22
ENDMDL
MODEL 2
REMARK VINA RESULT:      -9.7      3.827     10.104
REMARK SMILES O=C(Cc1ccc(S(=O)(=O)CC(=O)NCC2CC2)cc1)NCCCCCCNC(=O)c1ccc(-c2c3nc(c(-c4ccc(S(=O)(=O)[O-])cc4)c4ccc([nH]4)c(-c4ccc(S(=O)(=O)[O-])cc4)c4nc(c(-c5ccc(S(=O)(=O)[O-])cc5)c5ccc2[nH]5)C=C4)C=C3)cc1
REMARK SMILES IDX 23 1 22 2 21 3 1 4 2 5 3 7 4 8 5 9 20 10 6 11 19 12 7 13
REMARK SMILES IDX 8 14 9 15 10 16 11 17 12 18 13 19 14 20 15 22 16 23 17 24
REMARK SMILES IDX 18 25 24 26 25 27 26 28 27 29 28 30 29 31 30 33 31 34 32 35
REMARK SMILES IDX 90 36 33 37 89 38 34 39 35 40 36 41 83 42 37 43 88 44 82 45
REMARK SMILES IDX 84 46 38 47 87 48 81 49 80 50 39 52 69 53 50 54 68 55 51 56
REMARK SMILES IDX 54 57 67 58 85 59 52 60 53 61 66 63 86 64 55 65 40 66 41 67
REMARK SMILES IDX 49 68 42 69 48 70 43 71 44 72 45 73 46 74 47 75 70 76 71 77
REMARK SMILES IDX 79 78 72 79 78 80 73 81 74 82 75 83 76 84 77 85 56 86 57 87
REMARK SMILES IDX 65 88 58 89 64 90 59 91 60 92 61 93 62 94 63 95
REMARK H PARENT 21 6 14 21 28 32 84 51 54 62
REMARK Flexibility Score: inf
ROOT
ATOM      1  C   UNL A   1      45.313  20.818  24.343  1.00  0.00     0.021 C 
ENDROOT
BRANCH   1   2
ATOM      2  C   UNL A   1      44.786  19.553  25.019  1.00  0.00     0.116 C 
BRANCH   2   3
ATOM      3  N   UNL A   1      43.664  19.855  25.882  1.00  0.00    -0.356 N 
ATOM      4  O   UNL A   1      42.596  17.824  25.714  1.00  0.00    -0.275 OA
ATOM      5  C   UNL A   1      42.682  18.945  26.203  1.00  0.00     0.224 C 
ATOM      6  H   UNL A   1      43.599  20.762  26.260  1.00  0.00     0.163 HD
BRANCH   5   7
ATOM      7  C   UNL A   1      41.716  19.464  27.258  1.00  0.00     0.135 C 
BRANCH   7   8
ATOM      8  C   UNL A   1      40.565  20.241  26.657  1.00  0.00    -0.039 A 
ATOM      9  C   UNL A   1      40.384  21.604  26.939  1.00  0.00     0.005 A 
ATOM     10  C   UNL A   1      39.645  19.598  25.817  1.00  0.00     0.005 A 
ATOM     11  C   UNL A   1      39.291  22.296  26.424  1.00  0.00     0.020 A 
ATOM     12  C   UNL A   1      38.543  20.287  25.303  1.00  0.00     0.020 A 
ATOM     13  C   UNL A   1      38.374  21.638  25.603  1.00  0.00     0.067 A 
BRANCH  13  14
ATOM     14  S   UNL A   1      36.976  22.550  25.007  1.00  0.00     0.187 S 
ATOM     15  O   UNL A   1      37.160  23.911  25.477  1.00  0.00    -0.223 OA
ATOM     16  O   UNL A   1      36.889  22.296  23.578  1.00  0.00    -0.223 OA
BRANCH  14  17
ATOM     17  C   UNL A   1      35.491  21.947  25.726  1.00  0.00     0.241 C 
BRANCH  17  18
ATOM     18  C   UNL A   1      34.754  20.959  24.883  1.00  0.00     0.235 C 
ATOM     19  O   UNL A   1      35.127  19.783  24.829  1.00  0.00    -0.274 OA
ATOM     20  N   UNL A   1      33.615  21.284  24.224  1.00  0.00    -0.355 N 
ATOM     21  H   UNL A   1      33.200  20.547  23.720  1.00  0.00     0.163 HD
BRANCH  20  22
ATOM     22  C   UNL A   1      32.914  22.548  24.145  1.00  0.00     0.119 C 
BRANCH  22  23
ATOM     23  C   UNL A   1      33.407  23.306  22.954  1.00  0.00     0.008 C 
ATOM     24  C   UNL A   1      32.713  24.574  22.525  1.00  0.00     0.006 C 
ATOM     25  C   UNL A   1      34.097  24.642  23.102  1.00  0.00     0.006 C 
ENDBRANCH  22  23
ENDBRANCH  20  22
ENDBRANCH  17  18
ENDBRANCH  14  17
ENDBRANCH  13  14
ENDBRANCH   7   8
ENDBRANCH   5   7
ENDBRANCH   2   3
ENDBRANCH   1   2
BRANCH   1  26
ATOM     26  C   UNL A   1      44.708  22.131  24.866  1.00  0.00     0.002 C 
BRANCH  26  27
ATOM     27  C   UNL A   1      45.382  22.715  26.111  1.00  0.00     0.002 C 
BRANCH  27  28
ATOM     28  C   UNL A   1      44.431  23.062  27.257  1.00  0.00     0.021 C 
BRANCH  28  29
ATOM     29  C   UNL A   1      43.905  24.493  27.244  1.00  0.00     0.116 C 
BRANCH  29  30
ATOM     30  N   UNL A   1      43.002  24.749  26.132  1.00  0.00    -0.352 N 
ATOM     31  C   UNL A   1      41.901  25.572  26.088  1.00  0.00     0.251 C 
ATOM     32  H   UNL A   1      43.207  24.268  25.299  1.00  0.00     0.163 HD
ATOM     33  O   UNL A   1      41.156  25.551  25.113  1.00  0.00    -0.269 OA
BRANCH  31  34
ATOM     34  C   UNL A   1      41.606  26.461  27.233  1.00  0.00     0.039 A 
ATOM     35  C   UNL A   1      40.706  26.030  28.211  1.00  0.00     0.014 A 
ATOM     36  C   UNL A   1      42.225  27.708  27.350  1.00  0.00     0.014 A 
ATOM     37  C   UNL A   1      40.472  26.826  29.335  1.00  0.00     0.010 A 
ATOM     38  C   UNL A   1      42.047  28.465  28.504  1.00  0.00     0.010 A 
ATOM     39  C   UNL A   1      41.166  28.035  29.508  1.00  0.00    -0.014 A 
BRANCH  39  40
ATOM     40  C   UNL A   1      40.974  28.869  30.724  1.00  0.00     0.031 A 
ATOM     41  C   UNL A   1      39.896  29.920  30.755  1.00  0.00     0.074 A 
ATOM     42  C   UNL A   1      41.803  28.721  31.779  1.00  0.00     0.049 A 
ATOM     43  N   UNL A   1      39.623  30.793  31.691  1.00  0.00    -0.248 NA
ATOM     44  C   UNL A   1      39.024  30.017  29.572  1.00  0.00     0.031 C 
ATOM     45  C   UNL A   1      42.910  27.763  31.861  1.00  0.00     0.029 A 
ATOM     46  N   UNL A   1      41.849  29.380  32.982  1.00  0.00    -0.354 N 
ATOM     47  C   UNL A   1      38.557  31.545  31.208  1.00  0.00     0.074 A 
ATOM     48  C   UNL A   1      38.270  31.064  29.874  1.00  0.00     0.031 C 
ATOM     49  C   UNL A   1      43.509  27.885  33.056  1.00  0.00     0.029 A 
ATOM     50  C   UNL A   1      42.862  28.954  33.810  1.00  0.00     0.049 A 
ATOM     51  H   UNL A   1      41.215  30.091  33.230  1.00  0.00     0.167 HD
ATOM     52  C   UNL A   1      37.863  32.529  31.826  1.00  0.00     0.031 A 
ATOM     53  C   UNL A   1      43.236  29.384  35.031  1.00  0.00     0.031 A 
ATOM     54  C   UNL A   1      38.141  33.000  33.157  1.00  0.00     0.049 A 
ATOM     55  C   UNL A   1      42.462  30.497  35.686  1.00  0.00     0.074 A 
ATOM     56  C   UNL A   1      37.473  33.971  33.882  1.00  0.00     0.029 A 
ATOM     57  N   UNL A   1      39.166  32.532  33.965  1.00  0.00    -0.354 N 
ATOM     58  N   UNL A   1      41.425  31.160  35.230  1.00  0.00    -0.248 NA
ATOM     59  C   UNL A   1      42.900  30.912  37.027  1.00  0.00     0.031 C 
ATOM     60  C   UNL A   1      38.121  34.123  35.111  1.00  0.00     0.029 A 
ATOM     61  C   UNL A   1      39.155  33.203  35.177  1.00  0.00     0.049 A 
ATOM     62  H   UNL A   1      39.805  31.826  33.716  1.00  0.00     0.167 HD
ATOM     63  C   UNL A   1      41.066  32.042  36.244  1.00  0.00     0.074 A 
ATOM     64  C   UNL A   1      41.985  31.818  37.340  1.00  0.00     0.031 C 
ATOM     65  C   UNL A   1      40.066  32.957  36.265  1.00  0.00     0.031 A 
BRANCH  52  66
ATOM     66  C   UNL A   1      36.719  33.159  31.076  1.00  0.00    -0.014 A 
ATOM     67  C   UNL A   1      35.418  33.161  31.615  1.00  0.00     0.010 A 
ATOM     68  C   UNL A   1      36.954  33.819  29.856  1.00  0.00     0.010 A 
ATOM     69  C   UNL A   1      34.371  33.791  30.937  1.00  0.00     0.020 A 
ATOM     70  C   UNL A   1      35.915  34.474  29.189  1.00  0.00     0.020 A 
ATOM     71  C   UNL A   1      34.627  34.446  29.730  1.00  0.00     0.054 A 
BRANCH  71  72
ATOM     72  S   UNL A   1      33.258  35.299  28.900  1.00  0.00     0.124 S 
ATOM     73  O   UNL A   1      33.958  36.353  28.170  1.00  0.00    -0.237 OA
ATOM     74  O   UNL A   1      32.678  34.242  28.076  1.00  0.00    -0.237 OA
ATOM     75  O   UNL A   1      32.416  35.760  30.002  1.00  0.00    -0.744 OA
ENDBRANCH  71  72
ENDBRANCH  52  66
BRANCH  53  76
ATOM     76  C   UNL A   1      44.407  28.769  35.719  1.00  0.00    -0.014 A 
ATOM     77  C   UNL A   1      45.710  29.246  35.488  1.00  0.00     0.010 A 
ATOM     78  C   UNL A   1      44.227  27.676  36.588  1.00  0.00     0.010 A 
ATOM     79  C   UNL A   1      46.811  28.617  36.076  1.00  0.00     0.020 A 
ATOM     80  C   UNL A   1      45.322  27.066  37.205  1.00  0.00     0.020 A 
ATOM     81  C   UNL A   1      46.609  27.527  36.928  1.00  0.00     0.054 A 
BRANCH  81  82
ATOM     82  S   UNL A   1      48.052  26.730  37.686  1.00  0.00     0.124 S 
ATOM     83  O   UNL A   1      48.859  27.879  38.083  1.00  0.00    -0.237 OA
ATOM     84  O   UNL A   1      47.454  25.967  38.778  1.00  0.00    -0.237 OA
ATOM     85  O   UNL A   1      48.604  25.921  36.600  1.00  0.00    -0.744 OA
ENDBRANCH  81  82
ENDBRANCH  53  76
BRANCH  65  86
ATOM     86  C   UNL A   1      39.870  33.749  37.531  1.00  0.00    -0.014 A 
ATOM     87  C   UNL A   1      40.625  34.904  37.798  1.00  0.00     0.010 A 
ATOM     88  C   UNL A   1      38.873  33.356  38.443  1.00  0.00     0.010 A 
ATOM     89  C   UNL A   1      40.408  35.634  38.970  1.00  0.00     0.020 A 
ATOM     90  C   UNL A   1      38.631  34.100  39.600  1.00  0.00     0.020 A 
ATOM     91  C   UNL A   1      39.412  35.227  39.863  1.00  0.00     0.054 A 
BRANCH  91  92
ATOM     92  S   UNL A   1      39.119  36.217  41.354  1.00  0.00     0.124 S 
ATOM     93  O   UNL A   1      40.449  36.260  41.956  1.00  0.00    -0.237 OA
ATOM     94  O   UNL A   1      38.635  37.483  40.809  1.00  0.00    -0.237 OA
ATOM     95  O   UNL A   1      38.125  35.444  42.095  1.00  0.00    -0.744 OA
ENDBRANCH  91  92
ENDBRANCH  65  86
ENDBRANCH  39  40
ENDBRANCH  31  34
ENDBRANCH  29  30
ENDBRANCH  28  29
ENDBRANCH  27  28
ENDBRANCH  26  27
ENDBRANCH   1  26
TORSDOF 22
ENDMDL
MODEL 3
REMARK VINA RESULT:      -9.6      3.817      9.824
REMARK SMILES O=C(Cc1ccc(S(=O)(=O)CC(=O)NCC2CC2)cc1)NCCCCCCNC(=O)c1ccc(-c2c3nc(c(-c4ccc(S(=O)(=O)[O-])cc4)c4ccc([nH]4)c(-c4ccc(S(=O)(=O)[O-])cc4)c4nc(c(-c5ccc(S(=O)(=O)[O-])cc5)c5ccc2[nH]5)C=C4)C=C3)cc1
REMARK SMILES IDX 23 1 22 2 21 3 1 4 2 5 3 7 4 8 5 9 20 10 6 11 19 12 7 13
REMARK SMILES IDX 8 14 9 15 10 16 11 17 12 18 13 19 14 20 15 22 16 23 17 24
REMARK SMILES IDX 18 25 24 26 25 27 26 28 27 29 28 30 29 31 30 33 31 34 32 35
REMARK SMILES IDX 90 36 33 37 89 38 34 39 35 40 36 41 83 42 37 43 88 44 82 45
REMARK SMILES IDX 84 46 38 47 87 48 81 49 80 50 39 52 69 53 50 54 68 55 51 56
REMARK SMILES IDX 54 57 67 58 85 59 52 60 53 61 66 63 86 64 55 65 40 66 41 67
REMARK SMILES IDX 49 68 42 69 48 70 43 71 44 72 45 73 46 74 47 75 70 76 71 77
REMARK SMILES IDX 79 78 72 79 78 80 73 81 74 82 75 83 76 84 77 85 56 86 57 87
REMARK SMILES IDX 65 88 58 89 64 90 59 91 60 92 61 93 62 94 63 95
REMARK H PARENT 21 6 14 21 28 32 84 51 54 62
REMARK Flexibility Score: inf
ROOT
ATOM      1  C   UNL A   1      40.027  22.349  27.223  1.00  0.00     0.021 C 
ENDROOT
BRANCH   1   2
ATOM      2  C   UNL A   1      39.107  23.100  26.261  1.00  0.00     0.116 C 
BRANCH   2   3
ATOM      3  N   UNL A   1      37.727  22.712  26.453  1.00  0.00    -0.356 N 
ATOM      4  O   UNL A   1      37.416  21.676  24.422  1.00  0.00    -0.275 OA
ATOM      5  C   UNL A   1      37.004  21.982  25.535  1.00  0.00     0.224 C 
ATOM      6  H   UNL A   1      37.279  22.985  27.286  1.00  0.00     0.163 HD
BRANCH   5   7
ATOM      7  C   UNL A   1      35.636  21.566  26.055  1.00  0.00     0.135 C 
BRANCH   7   8
ATOM      8  C   UNL A   1      34.516  22.399  25.471  1.00  0.00    -0.039 A 
ATOM      9  C   UNL A   1      33.770  21.944  24.373  1.00  0.00     0.005 A 
ATOM     10  C   UNL A   1      34.218  23.657  26.013  1.00  0.00     0.005 A 
ATOM     11  C   UNL A   1      32.777  22.742  23.809  1.00  0.00     0.020 A 
ATOM     12  C   UNL A   1      33.228  24.464  25.447  1.00  0.00     0.020 A 
ATOM     13  C   UNL A   1      32.505  23.999  24.349  1.00  0.00     0.067 A 
BRANCH  13  14
ATOM     14  S   UNL A   1      31.263  24.995  23.571  1.00  0.00     0.187 S 
ATOM     15  O   UNL A   1      31.962  25.808  22.592  1.00  0.00    -0.223 OA
ATOM     16  O   UNL A   1      30.218  24.088  23.126  1.00  0.00    -0.223 OA
BRANCH  14  17
ATOM     17  C   UNL A   1      30.531  26.092  24.731  1.00  0.00     0.241 C 
BRANCH  17  18
ATOM     18  C   UNL A   1      30.640  27.536  24.369  1.00  0.00     0.235 C 
ATOM     19  O   UNL A   1      29.900  28.022  23.509  1.00  0.00    -0.274 OA
ATOM     20  N   UNL A   1      31.478  28.379  25.020  1.00  0.00    -0.355 N 
ATOM     21  H   UNL A   1      31.448  29.315  24.714  1.00  0.00     0.163 HD
BRANCH  20  22
ATOM     22  C   UNL A   1      32.413  28.118  26.093  1.00  0.00     0.119 C 
BRANCH  22  23
ATOM     23  C   UNL A   1      33.494  29.150  26.062  1.00  0.00     0.008 C 
ATOM     24  C   UNL A   1      33.712  30.054  27.249  1.00  0.00     0.006 C 
ATOM     25  C   UNL A   1      34.738  29.013  26.909  1.00  0.00     0.006 C 
ENDBRANCH  22  23
ENDBRANCH  20  22
ENDBRANCH  17  18
ENDBRANCH  14  17
ENDBRANCH  13  14
ENDBRANCH   7   8
ENDBRANCH   5   7
ENDBRANCH   2   3
ENDBRANCH   1   2
BRANCH   1  26
ATOM     26  C   UNL A   1      40.888  21.254  26.573  1.00  0.00     0.002 C 
BRANCH  26  27
ATOM     27  C   UNL A   1      42.395  21.373  26.816  1.00  0.00     0.002 C 
BRANCH  27  28
ATOM     28  C   UNL A   1      42.802  22.433  27.839  1.00  0.00     0.021 C 
BRANCH  28  29
ATOM     29  C   UNL A   1      43.654  23.569  27.284  1.00  0.00     0.116 C 
BRANCH  29  30
ATOM     30  N   UNL A   1      43.032  24.234  26.149  1.00  0.00    -0.352 N 
ATOM     31  C   UNL A   1      42.226  25.348  26.139  1.00  0.00     0.251 C 
ATOM     32  H   UNL A   1      43.212  23.832  25.269  1.00  0.00     0.163 HD
ATOM     33  O   UNL A   1      41.656  25.685  25.106  1.00  0.00    -0.269 OA
BRANCH  31  34
ATOM     34  C   UNL A   1      42.030  26.120  27.385  1.00  0.00     0.039 A 
ATOM     35  C   UNL A   1      42.855  27.219  27.638  1.00  0.00     0.014 A 
ATOM     36  C   UNL A   1      41.028  25.770  28.295  1.00  0.00     0.014 A 
ATOM     37  C   UNL A   1      42.636  28.002  28.774  1.00  0.00     0.010 A 
ATOM     38  C   UNL A   1      40.765  26.593  29.386  1.00  0.00     0.010 A 
ATOM     39  C   UNL A   1      41.568  27.716  29.641  1.00  0.00    -0.014 A 
BRANCH  39  40
ATOM     40  C   UNL A   1      41.281  28.570  30.824  1.00  0.00     0.031 A 
ATOM     41  C   UNL A   1      40.165  29.579  30.773  1.00  0.00     0.074 A 
ATOM     42  C   UNL A   1      42.058  28.477  31.924  1.00  0.00     0.049 A 
ATOM     43  N   UNL A   1      39.811  30.462  31.671  1.00  0.00    -0.248 NA
ATOM     44  C   UNL A   1      39.354  29.616  29.544  1.00  0.00     0.031 C 
ATOM     45  C   UNL A   1      43.193  27.564  32.088  1.00  0.00     0.029 A 
ATOM     46  N   UNL A   1      42.016  29.165  33.111  1.00  0.00    -0.354 N 
ATOM     47  C   UNL A   1      38.746  31.162  31.115  1.00  0.00     0.074 A 
ATOM     48  C   UNL A   1      38.547  30.640  29.781  1.00  0.00     0.031 C 
ATOM     49  C   UNL A   1      43.724  27.736  33.309  1.00  0.00     0.029 A 
ATOM     50  C   UNL A   1      42.999  28.796  34.001  1.00  0.00     0.049 A 
ATOM     51  H   UNL A   1      41.344  29.857  33.308  1.00  0.00     0.167 HD
ATOM     52  C   UNL A   1      37.984  32.133  31.672  1.00  0.00     0.031 A 
ATOM     53  C   UNL A   1      43.292  29.268  35.229  1.00  0.00     0.031 A 
ATOM     54  C   UNL A   1      38.174  32.644  33.004  1.00  0.00     0.049 A 
ATOM     55  C   UNL A   1      42.444  30.366  35.815  1.00  0.00     0.074 A 
ATOM     56  C   UNL A   1      37.433  33.605  33.669  1.00  0.00     0.029 A 
ATOM     57  N   UNL A   1      39.171  32.234  33.875  1.00  0.00    -0.354 N 
ATOM     58  N   UNL A   1      41.409  30.978  35.290  1.00  0.00    -0.248 NA
ATOM     59  C   UNL A   1      42.795  30.827  37.166  1.00  0.00     0.031 C 
ATOM     60  C   UNL A   1      38.009  33.810  34.925  1.00  0.00     0.029 A 
ATOM     61  C   UNL A   1      39.072  32.931  35.067  1.00  0.00     0.049 A 
ATOM     62  H   UNL A   1      39.848  31.547  33.677  1.00  0.00     0.167 HD
ATOM     63  C   UNL A   1      40.964  31.869  36.261  1.00  0.00     0.074 A 
ATOM     64  C   UNL A   1      41.831  31.705  37.409  1.00  0.00     0.031 C 
ATOM     65  C   UNL A   1      39.932  32.745  36.207  1.00  0.00     0.031 A 
BRANCH  52  66
ATOM     66  C   UNL A   1      36.859  32.702  30.848  1.00  0.00    -0.014 A 
ATOM     67  C   UNL A   1      35.532  32.278  31.051  1.00  0.00     0.010 A 
ATOM     68  C   UNL A   1      37.115  33.721  29.913  1.00  0.00     0.010 A 
ATOM     69  C   UNL A   1      34.487  32.845  30.317  1.00  0.00     0.020 A 
ATOM     70  C   UNL A   1      36.069  34.311  29.197  1.00  0.00     0.020 A 
ATOM     71  C   UNL A   1      34.762  33.861  29.398  1.00  0.00     0.054 A 
BRANCH  71  72
ATOM     72  S   UNL A   1      33.378  34.614  28.500  1.00  0.00     0.124 S 
ATOM     73  O   UNL A   1      34.028  35.737  27.830  1.00  0.00    -0.237 OA
ATOM     74  O   UNL A   1      32.938  33.530  27.626  1.00  0.00    -0.237 OA
ATOM     75  O   UNL A   1      32.436  34.981  29.555  1.00  0.00    -0.744 OA
ENDBRANCH  71  72
ENDBRANCH  52  66
BRANCH  53  76
ATOM     76  C   UNL A   1      44.446  28.713  35.992  1.00  0.00    -0.014 A 
ATOM     77  C   UNL A   1      44.275  27.620  36.862  1.00  0.00     0.010 A 
ATOM     78  C   UNL A   1      45.720  29.299  35.880  1.00  0.00     0.010 A 
ATOM     79  C   UNL A   1      45.343  27.153  37.633  1.00  0.00     0.020 A 
ATOM     80  C   UNL A   1      46.799  28.813  36.624  1.00  0.00     0.020 A 
ATOM     81  C   UNL A   1      46.598  27.756  37.512  1.00  0.00     0.054 A 
BRANCH  81  82
ATOM     82  S   UNL A   1      47.972  27.130  38.518  1.00  0.00     0.124 S 
ATOM     83  O   UNL A   1      49.130  27.701  37.839  1.00  0.00    -0.237 OA
ATOM     84  O   UNL A   1      47.674  27.681  39.838  1.00  0.00    -0.237 OA
ATOM     85  O   UNL A   1      47.835  25.678  38.413  1.00  0.00    -0.744 OA
ENDBRANCH  81  82
ENDBRANCH  53  76
BRANCH  65  86
ATOM     86  C   UNL A   1      39.641  33.557  37.442  1.00  0.00    -0.014 A 
ATOM     87  C   UNL A   1      38.770  33.087  38.441  1.00  0.00     0.010 A 
ATOM     88  C   UNL A   1      40.295  34.789  37.627  1.00  0.00     0.010 A 
ATOM     89  C   UNL A   1      38.536  33.851  39.588  1.00  0.00     0.020 A 
ATOM     90  C   UNL A   1      40.088  35.540  38.786  1.00  0.00     0.020 A 
ATOM     91  C   UNL A   1      39.196  35.072  39.754  1.00  0.00     0.054 A 
BRANCH  91  92
ATOM     92  S   UNL A   1      38.909  36.021  41.272  1.00  0.00     0.124 S 
ATOM     93  O   UNL A   1      38.627  37.355  40.747  1.00  0.00    -0.237 OA
ATOM     94  O   UNL A   1      37.771  35.328  41.873  1.00  0.00    -0.237 OA
ATOM     95  O   UNL A   1      40.166  35.894  42.005  1.00  0.00    -0.744 OA
ENDBRANCH  91  92
ENDBRANCH  65  86
ENDBRANCH  39  40
ENDBRANCH  31  34
ENDBRANCH  29  30
ENDBRANCH  28  29
ENDBRANCH  27  28
ENDBRANCH  26  27
ENDBRANCH   1  26
TORSDOF 22
ENDMDL
