MODEL 1
REMARK VINA RESULT:     -10.8      0.000      0.000
REMARK SMILES O=C(C[C@@H](NC(=O)C1CCC1)c1ccc(Cl)cc1)NCCCCCCNC(=O)c1ccc(-c2c3nc(c(-c4ccc(S(=O)(=O)[O-])cc4)c4ccc([nH]4)c(-c4ccc(S(=O)(=O)[O-])cc4)c4nc(c(-c5ccc(S(=O)(=O)[O-])cc5)c5ccc2[nH]5)C=C4)C=C3)cc1
REMARK SMILES IDX 22 1 21 2 20 3 19 4 1 5 2 6 3 8 4 9 5 10 6 11 7 13 8 14 9 15
REMARK SMILES IDX 11 16 10 17 12 18 13 19 18 20 14 21 17 22 15 23 16 24 23 25
REMARK SMILES IDX 24 26 25 27 26 28 27 29 28 31 29 32 30 33 88 34 31 35 87 36
REMARK SMILES IDX 32 37 33 38 34 39 81 40 35 41 86 42 80 43 82 44 36 45 85 46
REMARK SMILES IDX 79 47 78 48 37 50 67 51 48 52 66 53 49 54 52 55 65 56 83 57
REMARK SMILES IDX 50 58 51 59 64 61 84 62 53 63 38 64 39 65 47 66 40 67 46 68
REMARK SMILES IDX 41 69 42 70 43 71 44 72 45 73 68 74 69 75 77 76 70 77 76 78
REMARK SMILES IDX 71 79 72 80 73 81 74 82 75 83 54 84 55 85 63 86 56 87 62 88
REMARK SMILES IDX 57 89 58 90 59 91 60 92 61 93
REMARK H PARENT 19 7 5 12 26 30 82 49 52 60
REMARK Flexibility Score: inf
ROOT
ATOM      1  C   UNL A   1      32.370  30.224  27.250  1.00  0.00     0.002 C 
ENDROOT
BRANCH   1   2
ATOM      2  C   UNL A   1      31.959  30.074  25.778  1.00  0.00     0.021 C 
BRANCH   2   3
ATOM      3  C   UNL A   1      33.060  29.524  24.872  1.00  0.00     0.116 C 
BRANCH   3   4
ATOM      4  N   UNL A   1      33.235  28.102  25.086  1.00  0.00    -0.356 N 
ATOM      5  O   UNL A   1      33.854  27.558  22.942  1.00  0.00    -0.275 OA
ATOM      6  C   UNL A   1      33.542  27.225  24.081  1.00  0.00     0.222 C 
ATOM      7  H   UNL A   1      33.126  27.750  25.998  1.00  0.00     0.163 HD
BRANCH   6   8
ATOM      8  C   UNL A   1      33.482  25.775  24.496  1.00  0.00     0.129 C 
BRANCH   8   9
ATOM      9  C   UNL A   1      32.062  25.230  24.337  1.00  0.00     0.121 C 
BRANCH   9  10
ATOM     10  N   UNL A   1      31.203  25.893  23.322  1.00  0.00    -0.349 N 
ATOM     11  C   UNL A   1      30.003  26.528  23.566  1.00  0.00     0.223 C 
ATOM     12  H   UNL A   1      31.519  25.876  22.389  1.00  0.00     0.164 HD
ATOM     13  O   UNL A   1      29.008  25.803  23.699  1.00  0.00    -0.275 OA
BRANCH  11  14
ATOM     14  C   UNL A   1      29.912  28.077  23.478  1.00  0.00     0.078 C 
ATOM     15  C   UNL A   1      30.699  28.753  22.330  1.00  0.00     0.013 C 
ATOM     16  C   UNL A   1      28.654  28.852  23.041  1.00  0.00     0.013 C 
ATOM     17  C   UNL A   1      29.499  29.663  22.042  1.00  0.00     0.002 C 
ENDBRANCH  11  14
ENDBRANCH   9  10
BRANCH   9  18
ATOM     18  C   UNL A   1      32.082  23.715  24.212  1.00  0.00    -0.025 A 
ATOM     19  C   UNL A   1      32.175  23.122  22.942  1.00  0.00     0.007 A 
ATOM     20  C   UNL A   1      31.959  22.870  25.318  1.00  0.00     0.007 A 
ATOM     21  C   UNL A   1      32.261  21.733  22.802  1.00  0.00     0.021 A 
ATOM     22  C   UNL A   1      32.106  21.487  25.192  1.00  0.00     0.021 A 
ATOM     23  C   UNL A   1      32.271  20.925  23.933  1.00  0.00     0.041 A 
ATOM     24  Cl  UNL A   1      32.481  19.225  23.776  1.00  0.00    -0.084 Cl
ENDBRANCH   9  18
ENDBRANCH   8   9
ENDBRANCH   6   8
ENDBRANCH   3   4
ENDBRANCH   2   3
ENDBRANCH   1   2
BRANCH   1  25
ATOM     25  C   UNL A   1      33.520  31.205  27.501  1.00  0.00     0.002 C 
BRANCH  25  26
ATOM     26  C   UNL A   1      34.884  30.549  27.718  1.00  0.00     0.021 C 
BRANCH  26  27
ATOM     27  C   UNL A   1      35.852  31.359  28.575  1.00  0.00     0.116 C 
BRANCH  27  28
ATOM     28  N   UNL A   1      35.705  31.076  29.995  1.00  0.00    -0.352 N 
ATOM     29  C   UNL A   1      36.501  30.317  30.814  1.00  0.00     0.251 C 
ATOM     30  H   UNL A   1      34.923  31.488  30.429  1.00  0.00     0.163 HD
ATOM     31  O   UNL A   1      36.127  30.042  31.955  1.00  0.00    -0.269 OA
BRANCH  29  32
ATOM     32  C   UNL A   1      37.797  29.807  30.317  1.00  0.00     0.039 A 
ATOM     33  C   UNL A   1      38.070  29.867  28.949  1.00  0.00     0.014 A 
ATOM     34  C   UNL A   1      38.743  29.279  31.199  1.00  0.00     0.014 A 
ATOM     35  C   UNL A   1      39.318  29.456  28.475  1.00  0.00     0.010 A 
ATOM     36  C   UNL A   1      40.012  28.944  30.736  1.00  0.00     0.010 A 
ATOM     37  C   UNL A   1      40.314  29.026  29.368  1.00  0.00    -0.014 A 
BRANCH  37  38
ATOM     38  C   UNL A   1      41.675  28.667  28.891  1.00  0.00     0.031 A 
ATOM     39  C   UNL A   1      42.750  29.717  28.799  1.00  0.00     0.074 A 
ATOM     40  C   UNL A   1      41.928  27.408  28.481  1.00  0.00     0.049 A 
ATOM     41  N   UNL A   1      43.979  29.603  28.363  1.00  0.00    -0.248 NA
ATOM     42  C   UNL A   1      42.389  31.077  29.228  1.00  0.00     0.031 C 
ATOM     43  C   UNL A   1      40.960  26.307  28.482  1.00  0.00     0.029 A 
ATOM     44  N   UNL A   1      43.072  26.841  27.978  1.00  0.00    -0.354 N 
ATOM     45  C   UNL A   1      44.531  30.875  28.451  1.00  0.00     0.074 A 
ATOM     46  C   UNL A   1      43.488  31.756  28.930  1.00  0.00     0.031 C 
ATOM     47  C   UNL A   1      41.561  25.194  28.031  1.00  0.00     0.029 A 
ATOM     48  C   UNL A   1      42.938  25.509  27.664  1.00  0.00     0.049 A 
ATOM     49  H   UNL A   1      43.911  27.342  27.853  1.00  0.00     0.167 HD
ATOM     50  C   UNL A   1      45.797  31.274  28.177  1.00  0.00     0.031 A 
ATOM     51  C   UNL A   1      43.818  24.638  27.132  1.00  0.00     0.031 A 
ATOM     52  C   UNL A   1      46.831  30.394  27.698  1.00  0.00     0.049 A 
ATOM     53  C   UNL A   1      45.212  25.105  26.815  1.00  0.00     0.074 A 
ATOM     54  C   UNL A   1      48.160  30.688  27.441  1.00  0.00     0.029 A 
ATOM     55  N   UNL A   1      46.654  29.052  27.395  1.00  0.00    -0.354 N 
ATOM     56  N   UNL A   1      45.736  26.298  26.972  1.00  0.00    -0.248 NA
ATOM     57  C   UNL A   1      46.136  24.107  26.262  1.00  0.00     0.031 C 
ATOM     58  C   UNL A   1      48.769  29.542  26.922  1.00  0.00     0.029 A 
ATOM     59  C   UNL A   1      47.841  28.512  26.924  1.00  0.00     0.049 A 
ATOM     60  H   UNL A   1      45.810  28.556  27.499  1.00  0.00     0.167 HD
ATOM     61  C   UNL A   1      47.061  26.186  26.563  1.00  0.00     0.074 A 
ATOM     62  C   UNL A   1      47.259  24.806  26.166  1.00  0.00     0.031 C 
ATOM     63  C   UNL A   1      48.026  27.139  26.525  1.00  0.00     0.031 A 
BRANCH  50  64
ATOM     64  C   UNL A   1      46.125  32.733  28.372  1.00  0.00    -0.014 A 
ATOM     65  C   UNL A   1      46.701  33.199  29.569  1.00  0.00     0.010 A 
ATOM     66  C   UNL A   1      45.873  33.650  27.335  1.00  0.00     0.010 A 
ATOM     67  C   UNL A   1      46.967  34.560  29.745  1.00  0.00     0.020 A 
ATOM     68  C   UNL A   1      46.170  35.007  27.494  1.00  0.00     0.020 A 
ATOM     69  C   UNL A   1      46.694  35.456  28.708  1.00  0.00     0.054 A 
BRANCH  69  70
ATOM     70  S   UNL A   1      47.051  37.216  28.965  1.00  0.00     0.124 S 
ATOM     71  O   UNL A   1      45.709  37.791  29.012  1.00  0.00    -0.237 OA
ATOM     72  O   UNL A   1      47.777  37.214  30.232  1.00  0.00    -0.237 OA
ATOM     73  O   UNL A   1      47.846  37.584  27.795  1.00  0.00    -0.744 OA
ENDBRANCH  69  70
ENDBRANCH  50  64
BRANCH  51  74
ATOM     74  C   UNL A   1      43.403  23.230  26.883  1.00  0.00    -0.014 A 
ATOM     75  C   UNL A   1      43.364  22.715  25.576  1.00  0.00     0.010 A 
ATOM     76  C   UNL A   1      43.074  22.385  27.960  1.00  0.00     0.010 A 
ATOM     77  C   UNL A   1      42.997  21.384  25.349  1.00  0.00     0.020 A 
ATOM     78  C   UNL A   1      42.737  21.047  27.739  1.00  0.00     0.020 A 
ATOM     79  C   UNL A   1      42.693  20.557  26.433  1.00  0.00     0.054 A 
BRANCH  79  80
ATOM     80  S   UNL A   1      42.290  18.816  26.118  1.00  0.00     0.124 S 
ATOM     81  O   UNL A   1      42.573  18.199  27.409  1.00  0.00    -0.237 OA
ATOM     82  O   UNL A   1      40.878  18.883  25.744  1.00  0.00    -0.237 OA
ATOM     83  O   UNL A   1      43.196  18.446  25.033  1.00  0.00    -0.744 OA
ENDBRANCH  79  80
ENDBRANCH  51  74
BRANCH  63  84
ATOM     84  C   UNL A   1      49.400  26.721  26.069  1.00  0.00    -0.014 A 
ATOM     85  C   UNL A   1      49.848  26.970  24.760  1.00  0.00     0.010 A 
ATOM     86  C   UNL A   1      50.278  26.117  26.989  1.00  0.00     0.010 A 
ATOM     87  C   UNL A   1      51.138  26.596  24.371  1.00  0.00     0.020 A 
ATOM     88  C   UNL A   1      51.579  25.772  26.614  1.00  0.00     0.020 A 
ATOM     89  C   UNL A   1      51.996  26.001  25.302  1.00  0.00     0.054 A 
BRANCH  89  90
ATOM     90  S   UNL A   1      53.679  25.569  24.783  1.00  0.00     0.124 S 
ATOM     91  O   UNL A   1      54.485  26.134  25.862  1.00  0.00    -0.237 OA
ATOM     92  O   UNL A   1      53.633  24.110  24.731  1.00  0.00    -0.237 OA
ATOM     93  O   UNL A   1      53.823  26.229  23.487  1.00  0.00    -0.744 OA
ENDBRANCH  89  90
ENDBRANCH  63  84
ENDBRANCH  37  38
ENDBRANCH  29  32
ENDBRANCH  27  28
ENDBRANCH  26  27
ENDBRANCH  25  26
ENDBRANCH   1  25
TORSDOF 20
ENDMDL
MODEL 2
REMARK VINA RESULT:     -10.7      1.758      3.297
REMARK SMILES O=C(C[C@@H](NC(=O)C1CCC1)c1ccc(Cl)cc1)NCCCCCCNC(=O)c1ccc(-c2c3nc(c(-c4ccc(S(=O)(=O)[O-])cc4)c4ccc([nH]4)c(-c4ccc(S(=O)(=O)[O-])cc4)c4nc(c(-c5ccc(S(=O)(=O)[O-])cc5)c5ccc2[nH]5)C=C4)C=C3)cc1
REMARK SMILES IDX 22 1 21 2 20 3 19 4 1 5 2 6 3 8 4 9 5 10 6 11 7 13 8 14 9 15
REMARK SMILES IDX 11 16 10 17 12 18 13 19 18 20 14 21 17 22 15 23 16 24 23 25
REMARK SMILES IDX 24 26 25 27 26 28 27 29 28 31 29 32 30 33 88 34 31 35 87 36
REMARK SMILES IDX 32 37 33 38 34 39 81 40 35 41 86 42 80 43 82 44 36 45 85 46
REMARK SMILES IDX 79 47 78 48 37 50 67 51 48 52 66 53 49 54 52 55 65 56 83 57
REMARK SMILES IDX 50 58 51 59 64 61 84 62 53 63 38 64 39 65 47 66 40 67 46 68
REMARK SMILES IDX 41 69 42 70 43 71 44 72 45 73 68 74 69 75 77 76 70 77 76 78
REMARK SMILES IDX 71 79 72 80 73 81 74 82 75 83 54 84 55 85 63 86 56 87 62 88
REMARK SMILES IDX 57 89 58 90 59 91 60 92 61 93
REMARK H PARENT 19 7 5 12 26 30 82 49 52 60
REMARK Flexibility Score: inf
ROOT
ATOM      1  C   UNL A   1      33.354  31.343  27.407  1.00  0.00     0.002 C 
ENDROOT
BRANCH   1   2
ATOM      2  C   UNL A   1      34.294  30.203  26.988  1.00  0.00     0.021 C 
BRANCH   2   3
ATOM      3  C   UNL A   1      33.971  28.855  27.633  1.00  0.00     0.116 C 
BRANCH   3   4
ATOM      4  N   UNL A   1      32.768  28.289  27.060  1.00  0.00    -0.356 N 
ATOM      5  O   UNL A   1      33.729  26.409  26.157  1.00  0.00    -0.275 OA
ATOM      6  C   UNL A   1      32.762  27.150  26.301  1.00  0.00     0.222 C 
ATOM      7  H   UNL A   1      31.912  28.747  27.223  1.00  0.00     0.163 HD
BRANCH   6   8
ATOM      8  C   UNL A   1      31.433  26.857  25.648  1.00  0.00     0.129 C 
BRANCH   8   9
ATOM      9  C   UNL A   1      31.483  27.191  24.156  1.00  0.00     0.121 C 
BRANCH   9  10
ATOM     10  N   UNL A   1      31.384  26.047  23.214  1.00  0.00    -0.349 N 
ATOM     11  C   UNL A   1      32.384  25.140  22.933  1.00  0.00     0.223 C 
ATOM     12  H   UNL A   1      30.526  25.926  22.745  1.00  0.00     0.164 HD
ATOM     13  O   UNL A   1      33.262  25.507  22.141  1.00  0.00    -0.275 OA
BRANCH  11  14
ATOM     14  C   UNL A   1      32.275  23.678  23.450  1.00  0.00     0.078 C 
ATOM     15  C   UNL A   1      33.103  22.612  22.695  1.00  0.00     0.013 C 
ATOM     16  C   UNL A   1      32.879  23.175  24.776  1.00  0.00     0.013 C 
ATOM     17  C   UNL A   1      33.531  21.996  24.032  1.00  0.00     0.002 C 
ENDBRANCH  11  14
ENDBRANCH   9  10
BRANCH   9  18
ATOM     18  C   UNL A   1      30.524  28.325  23.830  1.00  0.00    -0.025 A 
ATOM     19  C   UNL A   1      29.295  28.041  23.214  1.00  0.00     0.007 A 
ATOM     20  C   UNL A   1      30.838  29.665  24.074  1.00  0.00     0.007 A 
ATOM     21  C   UNL A   1      28.367  29.057  22.962  1.00  0.00     0.021 A 
ATOM     22  C   UNL A   1      29.893  30.676  23.883  1.00  0.00     0.021 A 
ATOM     23  C   UNL A   1      28.654  30.364  23.339  1.00  0.00     0.041 A 
ATOM     24  Cl  UNL A   1      27.478  31.601  23.128  1.00  0.00    -0.084 Cl
ENDBRANCH   9  18
ENDBRANCH   8   9
ENDBRANCH   6   8
ENDBRANCH   3   4
ENDBRANCH   2   3
ENDBRANCH   1   2
BRANCH   1  25
ATOM     25  C   UNL A   1      34.044  32.529  28.088  1.00  0.00     0.002 C 
BRANCH  25  26
ATOM     26  C   UNL A   1      35.565  32.559  27.936  1.00  0.00     0.021 C 
BRANCH  26  27
ATOM     27  C   UNL A   1      36.334  32.698  29.246  1.00  0.00     0.116 C 
BRANCH  27  28
ATOM     28  N   UNL A   1      35.934  31.704  30.231  1.00  0.00    -0.352 N 
ATOM     29  C   UNL A   1      36.579  30.557  30.616  1.00  0.00     0.251 C 
ATOM     30  H   UNL A   1      35.079  31.881  30.686  1.00  0.00     0.163 HD
ATOM     31  O   UNL A   1      36.006  29.741  31.340  1.00  0.00    -0.269 OA
BRANCH  29  32
ATOM     32  C   UNL A   1      37.953  30.288  30.141  1.00  0.00     0.039 A 
ATOM     33  C   UNL A   1      38.984  30.174  31.075  1.00  0.00     0.014 A 
ATOM     34  C   UNL A   1      38.221  30.140  28.777  1.00  0.00     0.014 A 
ATOM     35  C   UNL A   1      40.273  29.849  30.646  1.00  0.00     0.010 A 
ATOM     36  C   UNL A   1      39.487  29.740  28.360  1.00  0.00     0.010 A 
ATOM     37  C   UNL A   1      40.529  29.592  29.288  1.00  0.00    -0.014 A 
BRANCH  37  38
ATOM     38  C   UNL A   1      41.873  29.160  28.825  1.00  0.00     0.031 A 
ATOM     39  C   UNL A   1      42.998  30.155  28.724  1.00  0.00     0.074 A 
ATOM     40  C   UNL A   1      42.066  27.884  28.435  1.00  0.00     0.049 A 
ATOM     41  N   UNL A   1      44.223  29.975  28.297  1.00  0.00    -0.248 NA
ATOM     42  C   UNL A   1      42.703  31.537  29.131  1.00  0.00     0.031 C 
ATOM     43  C   UNL A   1      41.046  26.832  28.446  1.00  0.00     0.029 A 
ATOM     44  N   UNL A   1      43.184  27.255  27.947  1.00  0.00    -0.354 N 
ATOM     45  C   UNL A   1      44.836  31.219  28.369  1.00  0.00     0.074 A 
ATOM     46  C   UNL A   1      43.835  32.157  28.829  1.00  0.00     0.031 C 
ATOM     47  C   UNL A   1      41.593  25.684  28.014  1.00  0.00     0.029 A 
ATOM     48  C   UNL A   1      42.986  25.926  27.651  1.00  0.00     0.049 A 
ATOM     49  H   UNL A   1      44.047  27.712  27.819  1.00  0.00     0.167 HD
ATOM     50  C   UNL A   1      46.121  31.551  28.096  1.00  0.00     0.031 A 
ATOM     51  C   UNL A   1      43.825  25.005  27.137  1.00  0.00     0.031 A 
ATOM     52  C   UNL A   1      47.114  30.615  27.636  1.00  0.00     0.049 A 
ATOM     53  C   UNL A   1      45.242  25.399  26.821  1.00  0.00     0.074 A 
ATOM     54  C   UNL A   1      48.456  30.840  27.383  1.00  0.00     0.029 A 
ATOM     55  N   UNL A   1      46.873  29.279  27.352  1.00  0.00    -0.354 N 
ATOM     56  N   UNL A   1      45.823  26.567  26.964  1.00  0.00    -0.248 NA
ATOM     57  C   UNL A   1      46.119  24.349  26.288  1.00  0.00     0.031 C 
ATOM     58  C   UNL A   1      49.011  29.658  26.884  1.00  0.00     0.029 A 
ATOM     59  C   UNL A   1      48.034  28.674  26.896  1.00  0.00     0.049 A 
ATOM     60  H   UNL A   1      46.005  28.826  27.458  1.00  0.00     0.167 HD
ATOM     61  C   UNL A   1      47.143  26.384  26.564  1.00  0.00     0.074 A 
ATOM     62  C   UNL A   1      47.275  24.991  26.188  1.00  0.00     0.031 C 
ATOM     63  C   UNL A   1      48.153  27.288  26.517  1.00  0.00     0.031 A 
BRANCH  50  64
ATOM     64  C   UNL A   1      46.519  32.995  28.272  1.00  0.00    -0.014 A 
ATOM     65  C   UNL A   1      46.851  33.803  27.168  1.00  0.00     0.010 A 
ATOM     66  C   UNL A   1      46.540  33.562  29.560  1.00  0.00     0.010 A 
ATOM     67  C   UNL A   1      47.249  35.129  27.354  1.00  0.00     0.020 A 
ATOM     68  C   UNL A   1      46.904  34.898  29.748  1.00  0.00     0.020 A 
ATOM     69  C   UNL A   1      47.279  35.667  28.644  1.00  0.00     0.054 A 
BRANCH  69  70
ATOM     70  S   UNL A   1      47.799  37.392  28.854  1.00  0.00     0.124 S 
ATOM     71  O   UNL A   1      49.255  37.272  28.837  1.00  0.00    -0.237 OA
ATOM     72  O   UNL A   1      47.210  38.048  27.689  1.00  0.00    -0.237 OA
ATOM     73  O   UNL A   1      47.221  37.775  30.140  1.00  0.00    -0.744 OA
ENDBRANCH  69  70
ENDBRANCH  50  64
BRANCH  51  74
ATOM     74  C   UNL A   1      43.343  23.615  26.906  1.00  0.00    -0.014 A 
ATOM     75  C   UNL A   1      42.964  23.193  25.621  1.00  0.00     0.010 A 
ATOM     76  C   UNL A   1      43.291  22.695  27.970  1.00  0.00     0.010 A 
ATOM     77  C   UNL A   1      42.535  21.880  25.404  1.00  0.00     0.020 A 
ATOM     78  C   UNL A   1      42.892  21.374  27.751  1.00  0.00     0.020 A 
ATOM     79  C   UNL A   1      42.509  20.976  26.470  1.00  0.00     0.054 A 
BRANCH  79  80
ATOM     80  S   UNL A   1      42.016  19.260  26.149  1.00  0.00     0.124 S 
ATOM     81  O   UNL A   1      42.883  18.898  25.032  1.00  0.00    -0.237 OA
ATOM     82  O   UNL A   1      42.315  18.604  27.420  1.00  0.00    -0.237 OA
ATOM     83  O   UNL A   1      40.594  19.365  25.831  1.00  0.00    -0.744 OA
ENDBRANCH  79  80
ENDBRANCH  51  74
BRANCH  63  84
ATOM     84  C   UNL A   1      49.507  26.797  26.076  1.00  0.00    -0.014 A 
ATOM     85  C   UNL A   1      49.949  26.950  24.750  1.00  0.00     0.010 A 
ATOM     86  C   UNL A   1      50.376  26.222  27.023  1.00  0.00     0.010 A 
ATOM     87  C   UNL A   1      51.221  26.509  24.372  1.00  0.00     0.020 A 
ATOM     88  C   UNL A   1      51.660  25.810  26.658  1.00  0.00     0.020 A 
ATOM     89  C   UNL A   1      52.069  25.944  25.330  1.00  0.00     0.054 A 
BRANCH  89  90
ATOM     90  S   UNL A   1      53.732  25.425  24.824  1.00  0.00     0.124 S 
ATOM     91  O   UNL A   1      53.852  26.034  23.503  1.00  0.00    -0.237 OA
ATOM     92  O   UNL A   1      54.578  26.005  25.863  1.00  0.00    -0.237 OA
ATOM     93  O   UNL A   1      53.657  23.965  24.833  1.00  0.00    -0.744 OA
ENDBRANCH  89  90
ENDBRANCH  63  84
ENDBRANCH  37  38
ENDBRANCH  29  32
ENDBRANCH  27  28
ENDBRANCH  26  27
ENDBRANCH  25  26
ENDBRANCH   1  25
TORSDOF 20
ENDMDL
MODEL 3
REMARK VINA RESULT:     -10.6      6.389     10.824
REMARK SMILES O=C(C[C@@H](NC(=O)C1CCC1)c1ccc(Cl)cc1)NCCCCCCNC(=O)c1ccc(-c2c3nc(c(-c4ccc(S(=O)(=O)[O-])cc4)c4ccc([nH]4)c(-c4ccc(S(=O)(=O)[O-])cc4)c4nc(c(-c5ccc(S(=O)(=O)[O-])cc5)c5ccc2[nH]5)C=C4)C=C3)cc1
REMARK SMILES IDX 22 1 21 2 20 3 19 4 1 5 2 6 3 8 4 9 5 10 6 11 7 13 8 14 9 15
REMARK SMILES IDX 11 16 10 17 12 18 13 19 18 20 14 21 17 22 15 23 16 24 23 25
REMARK SMILES IDX 24 26 25 27 26 28 27 29 28 31 29 32 30 33 88 34 31 35 87 36
REMARK SMILES IDX 32 37 33 38 34 39 81 40 35 41 86 42 80 43 82 44 36 45 85 46
REMARK SMILES IDX 79 47 78 48 37 50 67 51 48 52 66 53 49 54 52 55 65 56 83 57
REMARK SMILES IDX 50 58 51 59 64 61 84 62 53 63 38 64 39 65 47 66 40 67 46 68
REMARK SMILES IDX 41 69 42 70 43 71 44 72 45 73 68 74 69 75 77 76 70 77 76 78
REMARK SMILES IDX 71 79 72 80 73 81 74 82 75 83 54 84 55 85 63 86 56 87 62 88
REMARK SMILES IDX 57 89 58 90 59 91 60 92 61 93
REMARK H PARENT 19 7 5 12 26 30 82 49 52 60
REMARK Flexibility Score: inf
ROOT
ATOM      1  C   UNL A   1      35.512  32.530  27.940  1.00  0.00     0.002 C 
ENDROOT
BRANCH   1   2
ATOM      2  C   UNL A   1      36.177  31.150  28.040  1.00  0.00     0.021 C 
BRANCH   2   3
ATOM      3  C   UNL A   1      35.200  29.976  27.969  1.00  0.00     0.116 C 
BRANCH   3   4
ATOM      4  N   UNL A   1      34.834  29.698  26.595  1.00  0.00    -0.356 N 
ATOM      5  O   UNL A   1      32.562  29.593  26.912  1.00  0.00    -0.275 OA
ATOM      6  C   UNL A   1      33.549  29.452  26.196  1.00  0.00     0.222 C 
ATOM      7  H   UNL A   1      35.546  29.685  25.915  1.00  0.00     0.163 HD
BRANCH   6   8
ATOM      8  C   UNL A   1      33.430  28.996  24.763  1.00  0.00     0.129 C 
BRANCH   8   9
ATOM      9  C   UNL A   1      31.964  28.762  24.394  1.00  0.00     0.121 C 
BRANCH   9  10
ATOM     10  N   UNL A   1      31.517  29.288  23.078  1.00  0.00    -0.349 N 
ATOM     11  C   UNL A   1      30.405  28.871  22.375  1.00  0.00     0.223 C 
ATOM     12  H   UNL A   1      32.063  29.998  22.670  1.00  0.00     0.164 HD
ATOM     13  O   UNL A   1      30.516  27.817  21.734  1.00  0.00    -0.275 OA
BRANCH  11  14
ATOM     14  C   UNL A   1      29.165  29.800  22.259  1.00  0.00     0.078 C 
ATOM     15  C   UNL A   1      27.879  29.333  22.981  1.00  0.00     0.013 C 
ATOM     16  C   UNL A   1      29.033  31.168  22.957  1.00  0.00     0.013 C 
ATOM     17  C   UNL A   1      27.652  30.757  23.501  1.00  0.00     0.002 C 
ENDBRANCH  11  14
ENDBRANCH   9  10
BRANCH   9  18
ATOM     18  C   UNL A   1      31.579  27.310  24.624  1.00  0.00    -0.025 A 
ATOM     19  C   UNL A   1      32.435  26.285  24.190  1.00  0.00     0.007 A 
ATOM     20  C   UNL A   1      30.368  26.941  25.215  1.00  0.00     0.007 A 
ATOM     21  C   UNL A   1      32.137  24.943  24.447  1.00  0.00     0.021 A 
ATOM     22  C   UNL A   1      30.092  25.608  25.531  1.00  0.00     0.021 A 
ATOM     23  C   UNL A   1      30.987  24.615  25.157  1.00  0.00     0.041 A 
ATOM     24  Cl  UNL A   1      30.667  22.976  25.568  1.00  0.00    -0.084 Cl
ENDBRANCH   9  18
ENDBRANCH   8   9
ENDBRANCH   6   8
ENDBRANCH   3   4
ENDBRANCH   2   3
ENDBRANCH   1   2
BRANCH   1  25
ATOM     25  C   UNL A   1      34.081  32.597  28.484  1.00  0.00     0.002 C 
BRANCH  25  26
ATOM     26  C   UNL A   1      33.279  33.816  28.026  1.00  0.00     0.021 C 
BRANCH  26  27
ATOM     27  C   UNL A   1      33.715  35.137  28.652  1.00  0.00     0.116 C 
BRANCH  27  28
ATOM     28  N   UNL A   1      32.923  35.484  29.823  1.00  0.00    -0.352 N 
ATOM     29  C   UNL A   1      33.101  35.111  31.130  1.00  0.00     0.251 C 
ATOM     30  H   UNL A   1      32.150  36.069  29.652  1.00  0.00     0.163 HD
ATOM     31  O   UNL A   1      32.228  35.355  31.965  1.00  0.00    -0.269 OA
BRANCH  29  32
ATOM     32  C   UNL A   1      34.328  34.392  31.532  1.00  0.00     0.039 A 
ATOM     33  C   UNL A   1      35.572  34.951  31.231  1.00  0.00     0.014 A 
ATOM     34  C   UNL A   1      34.253  33.172  32.211  1.00  0.00     0.014 A 
ATOM     35  C   UNL A   1      36.738  34.319  31.668  1.00  0.00     0.010 A 
ATOM     36  C   UNL A   1      35.411  32.586  32.713  1.00  0.00     0.010 A 
ATOM     37  C   UNL A   1      36.667  33.150  32.445  1.00  0.00    -0.014 A 
BRANCH  37  38
ATOM     38  C   UNL A   1      37.893  32.512  32.991  1.00  0.00     0.031 A 
ATOM     39  C   UNL A   1      38.562  31.388  32.246  1.00  0.00     0.074 A 
ATOM     40  C   UNL A   1      38.370  32.901  34.191  1.00  0.00     0.049 A 
ATOM     41  N   UNL A   1      39.608  30.679  32.588  1.00  0.00    -0.248 NA
ATOM     42  C   UNL A   1      37.963  30.992  30.962  1.00  0.00     0.031 C 
ATOM     43  C   UNL A   1      37.789  33.951  35.032  1.00  0.00     0.029 A 
ATOM     44  N   UNL A   1      39.447  32.456  34.915  1.00  0.00    -0.354 N 
ATOM     45  C   UNL A   1      39.782  29.747  31.573  1.00  0.00     0.074 A 
ATOM     46  C   UNL A   1      38.703  29.943  30.630  1.00  0.00     0.031 C 
ATOM     47  C   UNL A   1      38.533  34.088  36.141  1.00  0.00     0.029 A 
ATOM     48  C   UNL A   1      39.614  33.107  36.115  1.00  0.00     0.049 A 
ATOM     49  H   UNL A   1      40.045  31.737  34.605  1.00  0.00     0.167 HD
ATOM     50  C   UNL A   1      40.762  28.821  31.427  1.00  0.00     0.031 A 
ATOM     51  C   UNL A   1      40.526  32.931  37.092  1.00  0.00     0.031 A 
ATOM     52  C   UNL A   1      41.833  28.628  32.369  1.00  0.00     0.049 A 
ATOM     53  C   UNL A   1      41.593  31.885  36.920  1.00  0.00     0.074 A 
ATOM     54  C   UNL A   1      42.904  27.754  32.286  1.00  0.00     0.029 A 
ATOM     55  N   UNL A   1      41.966  29.309  33.570  1.00  0.00    -0.354 N 
ATOM     56  N   UNL A   1      41.782  31.060  35.917  1.00  0.00    -0.248 NA
ATOM     57  C   UNL A   1      42.575  31.755  38.003  1.00  0.00     0.031 C 
ATOM     58  C   UNL A   1      43.647  27.861  33.465  1.00  0.00     0.029 A 
ATOM     59  C   UNL A   1      43.083  28.853  34.252  1.00  0.00     0.049 A 
ATOM     60  H   UNL A   1      41.356  30.012  33.891  1.00  0.00     0.167 HD
ATOM     61  C   UNL A   1      42.923  30.331  36.237  1.00  0.00     0.074 A 
ATOM     62  C   UNL A   1      43.386  30.824  37.518  1.00  0.00     0.031 C 
ATOM     63  C   UNL A   1      43.532  29.346  35.531  1.00  0.00     0.031 A 
BRANCH  50  64
ATOM     64  C   UNL A   1      40.705  27.936  30.207  1.00  0.00    -0.014 A 
ATOM     65  C   UNL A   1      39.576  27.143  29.930  1.00  0.00     0.010 A 
ATOM     66  C   UNL A   1      41.790  27.912  29.310  1.00  0.00     0.010 A 
ATOM     67  C   UNL A   1      39.555  26.304  28.813  1.00  0.00     0.020 A 
ATOM     68  C   UNL A   1      41.759  27.100  28.173  1.00  0.00     0.020 A 
ATOM     69  C   UNL A   1      40.650  26.283  27.944  1.00  0.00     0.054 A 
BRANCH  69  70
ATOM     70  S   UNL A   1      40.594  25.186  26.501  1.00  0.00     0.124 S 
ATOM     71  O   UNL A   1      40.853  26.117  25.405  1.00  0.00    -0.237 OA
ATOM     72  O   UNL A   1      41.665  24.233  26.781  1.00  0.00    -0.237 OA
ATOM     73  O   UNL A   1      39.243  24.630  26.539  1.00  0.00    -0.744 OA
ENDBRANCH  69  70
ENDBRANCH  50  64
BRANCH  51  74
ATOM     74  C   UNL A   1      40.473  33.783  38.312  1.00  0.00    -0.014 A 
ATOM     75  C   UNL A   1      41.188  34.991  38.374  1.00  0.00     0.010 A 
ATOM     76  C   UNL A   1      39.678  33.403  39.410  1.00  0.00     0.010 A 
ATOM     77  C   UNL A   1      41.115  35.801  39.512  1.00  0.00     0.020 A 
ATOM     78  C   UNL A   1      39.580  34.224  40.536  1.00  0.00     0.020 A 
ATOM     79  C   UNL A   1      40.306  35.415  40.584  1.00  0.00     0.054 A 
BRANCH  79  80
ATOM     80  S   UNL A   1      40.173  36.517  42.019  1.00  0.00     0.124 S 
ATOM     81  O   UNL A   1      41.562  36.905  42.235  1.00  0.00    -0.237 OA
ATOM     82  O   UNL A   1      39.290  37.571  41.525  1.00  0.00    -0.237 OA
ATOM     83  O   UNL A   1      39.592  35.663  43.054  1.00  0.00    -0.744 OA
ENDBRANCH  79  80
ENDBRANCH  51  74
BRANCH  63  84
ATOM     84  C   UNL A   1      44.792  28.754  36.107  1.00  0.00    -0.014 A 
ATOM     85  C   UNL A   1      44.760  27.615  36.929  1.00  0.00     0.010 A 
ATOM     86  C   UNL A   1      46.037  29.317  35.769  1.00  0.00     0.010 A 
ATOM     87  C   UNL A   1      45.946  27.068  37.429  1.00  0.00     0.020 A 
ATOM     88  C   UNL A   1      47.227  28.756  36.239  1.00  0.00     0.020 A 
ATOM     89  C   UNL A   1      47.172  27.642  37.078  1.00  0.00     0.054 A 
BRANCH  89  90
ATOM     90  S   UNL A   1      48.698  26.885  37.702  1.00  0.00     0.124 S 
ATOM     91  O   UNL A   1      48.195  25.686  38.366  1.00  0.00    -0.237 OA
ATOM     92  O   UNL A   1      49.463  26.652  36.479  1.00  0.00    -0.237 OA
ATOM     93  O   UNL A   1      49.252  27.904  38.591  1.00  0.00    -0.744 OA
ENDBRANCH  89  90
ENDBRANCH  63  84
ENDBRANCH  37  38
ENDBRANCH  29  32
ENDBRANCH  27  28
ENDBRANCH  26  27
ENDBRANCH  25  26
ENDBRANCH   1  25
TORSDOF 20
ENDMDL
