MODEL 1
REMARK VINA RESULT:     -11.4      0.000      0.000
REMARK SMILES O=C(NCCCCCCNC(=O)c1cc(Cl)c2c(c1)[C@H]1C=CC[C@H]1[C@H](c1ccc(S(=O)(=O)N3CCOCC3)cc1)N2)c1ccc(-c2c3nc(c(-c4ccc(S(=O)(=O)[O-])cc4)c4ccc([nH]4)c(-c4ccc(S(=O)(=O)[O-])cc4)c4nc(c(-c5ccc(S(=O)(=O)[O-])cc5)c5ccc2[nH]5)C=C4)C=C3)cc1
REMARK SMILES IDX 6 1 5 2 4 3 3 4 1 5 2 6 42 8 43 9 101 10 44 11 100 12 45 13
REMARK SMILES IDX 46 14 47 15 94 16 48 17 99 18 93 19 95 20 49 21 98 22 92 23
REMARK SMILES IDX 91 24 50 26 80 27 61 28 79 29 62 30 65 31 78 32 96 33 63 34
REMARK SMILES IDX 64 35 77 37 97 38 66 39 51 40 52 41 60 42 53 43 59 44 54 45
REMARK SMILES IDX 55 46 56 47 57 48 58 49 81 50 82 51 90 52 83 53 89 54 84 55
REMARK SMILES IDX 85 56 86 57 87 58 88 59 67 60 68 61 76 62 69 63 75 64 70 65
REMARK SMILES IDX 71 66 72 67 73 68 74 69 7 70 8 71 9 72 10 73 11 74 12 76
REMARK SMILES IDX 13 77 14 78 19 79 15 80 18 81 16 82 17 83 20 84 41 85 21 86
REMARK SMILES IDX 24 87 25 88 22 90 23 91 26 92 27 93 40 94 28 95 39 96 29 97
REMARK SMILES IDX 30 98 31 99 32 100 33 101 34 102 38 103 35 104 37 105 36 106
REMARK H PARENT 3 7 95 25 65 36 10 75 41 89
REMARK Flexibility Score: inf
ROOT
ATOM      1  C   UNL A   1      32.862  30.027  27.338  1.00  0.00     0.002 C 
ENDROOT
BRANCH   1   2
ATOM      2  C   UNL A   1      34.061  29.487  26.552  1.00  0.00     0.021 C 
BRANCH   2   3
ATOM      3  C   UNL A   1      35.311  29.227  27.387  1.00  0.00     0.116 C 
BRANCH   3   4
ATOM      4  N   UNL A   1      35.233  29.861  28.691  1.00  0.00    -0.352 N 
ATOM      5  O   UNL A   1      35.925  30.372  30.775  1.00  0.00    -0.269 OA
ATOM      6  C   UNL A   1      36.210  29.989  29.646  1.00  0.00     0.251 C 
ATOM      7  H   UNL A   1      34.359  30.250  28.923  1.00  0.00     0.163 HD
BRANCH   6   8
ATOM      8  C   UNL A   1      37.606  29.651  29.304  1.00  0.00     0.039 A 
ATOM      9  C   UNL A   1      38.113  29.932  28.032  1.00  0.00     0.014 A 
ATOM     10  C   UNL A   1      38.418  29.063  30.278  1.00  0.00     0.014 A 
ATOM     11  C   UNL A   1      39.409  29.548  27.705  1.00  0.00     0.010 A 
ATOM     12  C   UNL A   1      39.732  28.716  29.961  1.00  0.00     0.010 A 
ATOM     13  C   UNL A   1      40.230  28.938  28.668  1.00  0.00    -0.014 A 
BRANCH  13  14
ATOM     14  C   UNL A   1      41.627  28.588  28.325  1.00  0.00     0.031 A 
ATOM     15  C   UNL A   1      42.726  29.604  28.437  1.00  0.00     0.074 A 
ATOM     16  C   UNL A   1      41.904  27.329  27.936  1.00  0.00     0.049 A 
ATOM     17  N   UNL A   1      44.005  29.455  28.210  1.00  0.00    -0.248 NA
ATOM     18  C   UNL A   1      42.341  30.958  28.862  1.00  0.00     0.031 C 
ATOM     19  C   UNL A   1      40.917  26.254  27.808  1.00  0.00     0.029 A 
ATOM     20  N   UNL A   1      43.092  26.738  27.595  1.00  0.00    -0.354 N 
ATOM     21  C   UNL A   1      44.582  30.690  28.469  1.00  0.00     0.074 A 
ATOM     22  C   UNL A   1      43.509  31.589  28.840  1.00  0.00     0.031 C 
ATOM     23  C   UNL A   1      41.548  25.125  27.451  1.00  0.00     0.029 A 
ATOM     24  C   UNL A   1      42.971  25.406  27.285  1.00  0.00     0.049 A 
ATOM     25  H   UNL A   1      43.950  27.223  27.573  1.00  0.00     0.167 HD
ATOM     26  C   UNL A   1      45.889  31.040  28.410  1.00  0.00     0.031 A 
ATOM     27  C   UNL A   1      43.900  24.507  26.907  1.00  0.00     0.031 A 
ATOM     28  C   UNL A   1      46.950  30.151  28.019  1.00  0.00     0.049 A 
ATOM     29  C   UNL A   1      45.332  24.933  26.786  1.00  0.00     0.074 A 
ATOM     30  C   UNL A   1      48.306  30.417  27.927  1.00  0.00     0.029 A 
ATOM     31  N   UNL A   1      46.778  28.826  27.648  1.00  0.00    -0.354 N 
ATOM     32  N   UNL A   1      45.859  26.108  27.031  1.00  0.00    -0.248 NA
ATOM     33  C   UNL A   1      46.292  23.918  26.335  1.00  0.00     0.031 C 
ATOM     34  C   UNL A   1      48.947  29.264  27.464  1.00  0.00     0.029 A 
ATOM     35  C   UNL A   1      47.998  28.266  27.310  1.00  0.00     0.049 A 
ATOM     36  H   UNL A   1      45.914  28.353  27.628  1.00  0.00     0.167 HD
ATOM     37  C   UNL A   1      47.217  25.972  26.777  1.00  0.00     0.074 A 
ATOM     38  C   UNL A   1      47.432  24.599  26.363  1.00  0.00     0.031 C 
ATOM     39  C   UNL A   1      48.196  26.903  26.886  1.00  0.00     0.031 A 
BRANCH  26  40
ATOM     40  C   UNL A   1      46.243  32.457  28.770  1.00  0.00    -0.014 A 
ATOM     41  C   UNL A   1      46.582  32.800  30.091  1.00  0.00     0.010 A 
ATOM     42  C   UNL A   1      46.281  33.447  27.772  1.00  0.00     0.010 A 
ATOM     43  C   UNL A   1      46.923  34.115  30.413  1.00  0.00     0.020 A 
ATOM     44  C   UNL A   1      46.640  34.761  28.087  1.00  0.00     0.020 A 
ATOM     45  C   UNL A   1      46.949  35.088  29.409  1.00  0.00     0.054 A 
BRANCH  45  46
ATOM     46  S   UNL A   1      47.392  36.787  29.864  1.00  0.00     0.124 S 
ATOM     47  O   UNL A   1      47.148  37.507  28.616  1.00  0.00    -0.237 OA
ATOM     48  O   UNL A   1      46.459  37.076  30.949  1.00  0.00    -0.237 OA
ATOM     49  O   UNL A   1      48.796  36.688  30.257  1.00  0.00    -0.744 OA
ENDBRANCH  45  46
ENDBRANCH  26  40
BRANCH  27  50
ATOM     50  C   UNL A   1      43.472  23.110  26.645  1.00  0.00    -0.014 A 
ATOM     51  C   UNL A   1      43.923  22.438  25.496  1.00  0.00     0.010 A 
ATOM     52  C   UNL A   1      42.713  22.410  27.600  1.00  0.00     0.010 A 
ATOM     53  C   UNL A   1      43.644  21.080  25.320  1.00  0.00     0.020 A 
ATOM     54  C   UNL A   1      42.447  21.048  27.436  1.00  0.00     0.020 A 
ATOM     55  C   UNL A   1      42.923  20.390  26.301  1.00  0.00     0.054 A 
BRANCH  55  56
ATOM     56  S   UNL A   1      42.677  18.604  26.096  1.00  0.00     0.124 S 
ATOM     57  O   UNL A   1      43.597  18.289  25.007  1.00  0.00    -0.237 OA
ATOM     58  O   UNL A   1      43.053  18.090  27.410  1.00  0.00    -0.237 OA
ATOM     59  O   UNL A   1      41.257  18.487  25.769  1.00  0.00    -0.744 OA
ENDBRANCH  55  56
ENDBRANCH  27  50
BRANCH  39  60
ATOM     60  C   UNL A   1      49.601  26.480  26.560  1.00  0.00    -0.014 A 
ATOM     61  C   UNL A   1      50.408  25.858  27.527  1.00  0.00     0.010 A 
ATOM     62  C   UNL A   1      50.079  26.615  25.244  1.00  0.00     0.010 A 
ATOM     63  C   UNL A   1      51.674  25.377  27.181  1.00  0.00     0.020 A 
ATOM     64  C   UNL A   1      51.337  26.121  24.891  1.00  0.00     0.020 A 
ATOM     65  C   UNL A   1      52.127  25.504  25.863  1.00  0.00     0.054 A 
BRANCH  65  66
ATOM     66  S   UNL A   1      53.749  24.814  25.435  1.00  0.00     0.124 S 
ATOM     67  O   UNL A   1      54.160  25.663  24.321  1.00  0.00    -0.237 OA
ATOM     68  O   UNL A   1      54.502  24.992  26.673  1.00  0.00    -0.237 OA
ATOM     69  O   UNL A   1      53.455  23.426  25.081  1.00  0.00    -0.744 OA
ENDBRANCH  65  66
ENDBRANCH  39  60
ENDBRANCH  13  14
ENDBRANCH   6   8
ENDBRANCH   3   4
ENDBRANCH   2   3
ENDBRANCH   1   2
BRANCH   1  70
ATOM     70  C   UNL A   1      31.837  30.807  26.511  1.00  0.00     0.002 C 
BRANCH  70  71
ATOM     71  C   UNL A   1      31.760  32.305  26.812  1.00  0.00     0.021 C 
BRANCH  71  72
ATOM     72  C   UNL A   1      32.930  32.857  27.621  1.00  0.00     0.116 C 
BRANCH  72  73
ATOM     73  N   UNL A   1      32.857  34.302  27.774  1.00  0.00    -0.352 N 
ATOM     74  C   UNL A   1      33.442  35.086  28.735  1.00  0.00     0.251 C 
ATOM     75  H   UNL A   1      32.321  34.779  27.100  1.00  0.00     0.163 HD
ATOM     76  O   UNL A   1      33.182  36.279  28.834  1.00  0.00    -0.269 OA
BRANCH  74  77
ATOM     77  C   UNL A   1      34.369  34.452  29.685  1.00  0.00     0.041 A 
ATOM     78  C   UNL A   1      33.942  34.105  30.966  1.00  0.00     0.036 A 
ATOM     79  C   UNL A   1      35.684  34.233  29.287  1.00  0.00     0.020 A 
ATOM     80  C   UNL A   1      34.874  33.623  31.878  1.00  0.00     0.065 A 
ATOM     81  C   UNL A   1      36.617  33.723  30.201  1.00  0.00    -0.015 A 
ATOM     82  Cl  UNL A   1      34.331  33.258  33.480  1.00  0.00    -0.082 Cl
ATOM     83  C   UNL A   1      36.230  33.463  31.525  1.00  0.00     0.057 A 
ATOM     84  C   UNL A   1      38.011  33.427  29.730  1.00  0.00     0.049 C 
ATOM     85  N   UNL A   1      37.151  32.980  32.445  1.00  0.00    -0.376 N 
ATOM     86  C   UNL A   1      38.869  34.637  29.464  1.00  0.00    -0.023 C 
ATOM     87  C   UNL A   1      38.883  32.629  30.723  1.00  0.00     0.031 C 
ATOM     88  C   UNL A   1      38.577  33.071  32.178  1.00  0.00     0.114 C 
ATOM     89  H   UNL A   1      36.834  32.572  33.283  1.00  0.00     0.161 HD
ATOM     90  C   UNL A   1      40.153  34.376  29.737  1.00  0.00    -0.030 C 
ATOM     91  C   UNL A   1      40.306  32.973  30.234  1.00  0.00     0.034 C 
BRANCH  88  92
ATOM     92  C   UNL A   1      39.330  32.243  33.212  1.00  0.00    -0.025 A 
ATOM     93  C   UNL A   1      38.970  30.930  33.577  1.00  0.00     0.007 A 
ATOM     94  C   UNL A   1      40.450  32.811  33.823  1.00  0.00     0.007 A 
ATOM     95  C   UNL A   1      39.730  30.203  34.505  1.00  0.00     0.022 A 
ATOM     96  C   UNL A   1      41.230  32.073  34.702  1.00  0.00     0.022 A 
ATOM     97  C   UNL A   1      40.878  30.777  35.051  1.00  0.00     0.082 A 
BRANCH  97  98
ATOM     98  S   UNL A   1      41.887  29.827  36.168  1.00  0.00     0.243 S 
ATOM     99  O   UNL A   1      42.161  30.680  37.302  1.00  0.00    -0.207 OA
ATOM    100  O   UNL A   1      41.231  28.543  36.316  1.00  0.00    -0.207 OA
BRANCH  98 101
ATOM    101  N   UNL A   1      43.328  29.567  35.347  1.00  0.00    -0.193 NA
ATOM    102  C   UNL A   1      44.616  30.123  35.814  1.00  0.00     0.131 C 
ATOM    103  C   UNL A   1      43.378  28.825  34.076  1.00  0.00     0.131 C 
ATOM    104  C   UNL A   1      45.412  30.774  34.669  1.00  0.00     0.177 C 
ATOM    105  C   UNL A   1      44.144  29.626  33.024  1.00  0.00     0.177 C 
ATOM    106  O   UNL A   1      45.459  29.965  33.486  1.00  0.00    -0.379 OA
ENDBRANCH  98 101
ENDBRANCH  97  98
ENDBRANCH  88  92
ENDBRANCH  74  77
ENDBRANCH  72  73
ENDBRANCH  71  72
ENDBRANCH  70  71
ENDBRANCH   1  70
TORSDOF 19
ENDMDL
MODEL 2
REMARK VINA RESULT:     -10.2      4.031     10.162
REMARK SMILES O=C(NCCCCCCNC(=O)c1cc(Cl)c2c(c1)[C@H]1C=CC[C@H]1[C@H](c1ccc(S(=O)(=O)N3CCOCC3)cc1)N2)c1ccc(-c2c3nc(c(-c4ccc(S(=O)(=O)[O-])cc4)c4ccc([nH]4)c(-c4ccc(S(=O)(=O)[O-])cc4)c4nc(c(-c5ccc(S(=O)(=O)[O-])cc5)c5ccc2[nH]5)C=C4)C=C3)cc1
REMARK SMILES IDX 6 1 5 2 4 3 3 4 1 5 2 6 42 8 43 9 101 10 44 11 100 12 45 13
REMARK SMILES IDX 46 14 47 15 94 16 48 17 99 18 93 19 95 20 49 21 98 22 92 23
REMARK SMILES IDX 91 24 50 26 80 27 61 28 79 29 62 30 65 31 78 32 96 33 63 34
REMARK SMILES IDX 64 35 77 37 97 38 66 39 51 40 52 41 60 42 53 43 59 44 54 45
REMARK SMILES IDX 55 46 56 47 57 48 58 49 81 50 82 51 90 52 83 53 89 54 84 55
REMARK SMILES IDX 85 56 86 57 87 58 88 59 67 60 68 61 76 62 69 63 75 64 70 65
REMARK SMILES IDX 71 66 72 67 73 68 74 69 7 70 8 71 9 72 10 73 11 74 12 76
REMARK SMILES IDX 13 77 14 78 19 79 15 80 18 81 16 82 17 83 20 84 41 85 21 86
REMARK SMILES IDX 24 87 25 88 22 90 23 91 26 92 27 93 40 94 28 95 39 96 29 97
REMARK SMILES IDX 30 98 31 99 32 100 33 101 34 102 38 103 35 104 37 105 36 106
REMARK H PARENT 3 7 95 25 65 36 10 75 41 89
REMARK Flexibility Score: inf
ROOT
ATOM      1  C   UNL A   1      41.998  36.444  37.744  1.00  0.00     0.002 C 
ENDROOT
BRANCH   1   2
ATOM      2  C   UNL A   1      41.826  36.244  39.253  1.00  0.00     0.021 C 
BRANCH   2   3
ATOM      3  C   UNL A   1      42.652  35.107  39.847  1.00  0.00     0.116 C 
BRANCH   3   4
ATOM      4  N   UNL A   1      41.814  34.091  40.461  1.00  0.00    -0.352 N 
ATOM      5  O   UNL A   1      40.500  32.259  40.507  1.00  0.00    -0.269 OA
ATOM      6  C   UNL A   1      41.366  32.908  39.930  1.00  0.00     0.251 C 
ATOM      7  H   UNL A   1      41.526  34.278  41.384  1.00  0.00     0.163 HD
BRANCH   6   8
ATOM      8  C   UNL A   1      41.928  32.429  38.652  1.00  0.00     0.039 A 
ATOM      9  C   UNL A   1      43.293  32.146  38.538  1.00  0.00     0.014 A 
ATOM     10  C   UNL A   1      41.072  32.244  37.562  1.00  0.00     0.014 A 
ATOM     11  C   UNL A   1      43.818  31.759  37.309  1.00  0.00     0.010 A 
ATOM     12  C   UNL A   1      41.594  31.815  36.341  1.00  0.00     0.010 A 
ATOM     13  C   UNL A   1      42.972  31.588  36.202  1.00  0.00    -0.014 A 
BRANCH  13  14
ATOM     14  C   UNL A   1      43.534  31.118  34.915  1.00  0.00     0.031 A 
ATOM     15  C   UNL A   1      44.035  29.712  34.761  1.00  0.00     0.074 A 
ATOM     16  C   UNL A   1      43.565  31.968  33.871  1.00  0.00     0.049 A 
ATOM     17  N   UNL A   1      44.524  29.130  33.698  1.00  0.00    -0.248 NA
ATOM     18  C   UNL A   1      43.974  28.848  35.949  1.00  0.00     0.031 C 
ATOM     19  C   UNL A   1      43.090  33.353  33.902  1.00  0.00     0.029 A 
ATOM     20  N   UNL A   1      43.996  31.788  32.583  1.00  0.00    -0.354 N 
ATOM     21  C   UNL A   1      44.825  27.830  34.082  1.00  0.00     0.074 A 
ATOM     22  C   UNL A   1      44.493  27.717  35.487  1.00  0.00     0.031 C 
ATOM     23  C   UNL A   1      43.222  33.886  32.677  1.00  0.00     0.029 A 
ATOM     24  C   UNL A   1      43.828  32.897  31.790  1.00  0.00     0.049 A 
ATOM     25  H   UNL A   1      44.389  30.945  32.257  1.00  0.00     0.167 HD
ATOM     26  C   UNL A   1      45.325  26.821  33.329  1.00  0.00     0.031 A 
ATOM     27  C   UNL A   1      44.129  33.101  30.493  1.00  0.00     0.031 A 
ATOM     28  C   UNL A   1      45.676  26.943  31.939  1.00  0.00     0.049 A 
ATOM     29  C   UNL A   1      44.743  31.989  29.696  1.00  0.00     0.074 A 
ATOM     30  C   UNL A   1      46.192  25.975  31.095  1.00  0.00     0.029 A 
ATOM     31  N   UNL A   1      45.553  28.103  31.190  1.00  0.00    -0.354 N 
ATOM     32  N   UNL A   1      45.024  30.767  30.078  1.00  0.00    -0.248 NA
ATOM     33  C   UNL A   1      45.082  32.282  28.298  1.00  0.00     0.031 C 
ATOM     34  C   UNL A   1      46.417  26.561  29.845  1.00  0.00     0.029 A 
ATOM     35  C   UNL A   1      45.999  27.881  29.898  1.00  0.00     0.049 A 
ATOM     36  H   UNL A   1      45.200  28.958  31.527  1.00  0.00     0.167 HD
ATOM     37  C   UNL A   1      45.562  30.138  28.964  1.00  0.00     0.074 A 
ATOM     38  C   UNL A   1      45.564  31.113  27.891  1.00  0.00     0.031 C 
ATOM     39  C   UNL A   1      46.008  28.864  28.844  1.00  0.00     0.031 A 
BRANCH  26  40
ATOM     40  C   UNL A   1      45.534  25.493  34.003  1.00  0.00    -0.014 A 
ATOM     41  C   UNL A   1      46.776  25.166  34.578  1.00  0.00     0.010 A 
ATOM     42  C   UNL A   1      44.469  24.580  34.103  1.00  0.00     0.010 A 
ATOM     43  C   UNL A   1      46.957  23.936  35.214  1.00  0.00     0.020 A 
ATOM     44  C   UNL A   1      44.642  23.355  34.755  1.00  0.00     0.020 A 
ATOM     45  C   UNL A   1      45.889  23.038  35.298  1.00  0.00     0.054 A 
BRANCH  45  46
ATOM     46  S   UNL A   1      46.161  21.448  36.127  1.00  0.00     0.124 S 
ATOM     47  O   UNL A   1      47.601  21.263  35.961  1.00  0.00    -0.237 OA
ATOM     48  O   UNL A   1      45.717  21.724  37.490  1.00  0.00    -0.237 OA
ATOM     49  O   UNL A   1      45.325  20.514  35.375  1.00  0.00    -0.744 OA
ENDBRANCH  45  46
ENDBRANCH  26  40
BRANCH  27  50
ATOM     50  C   UNL A   1      43.819  34.420  29.889  1.00  0.00    -0.014 A 
ATOM     51  C   UNL A   1      44.790  35.436  29.874  1.00  0.00     0.010 A 
ATOM     52  C   UNL A   1      42.597  34.625  29.223  1.00  0.00     0.010 A 
ATOM     53  C   UNL A   1      44.554  36.624  29.179  1.00  0.00     0.020 A 
ATOM     54  C   UNL A   1      42.365  35.805  28.513  1.00  0.00     0.020 A 
ATOM     55  C   UNL A   1      43.351  36.793  28.488  1.00  0.00     0.054 A 
BRANCH  55  56
ATOM     56  S   UNL A   1      43.124  38.300  27.502  1.00  0.00     0.124 S 
ATOM     57  O   UNL A   1      42.821  39.296  28.527  1.00  0.00    -0.237 OA
ATOM     58  O   UNL A   1      44.423  38.439  26.850  1.00  0.00    -0.237 OA
ATOM     59  O   UNL A   1      42.016  37.965  26.610  1.00  0.00    -0.744 OA
ENDBRANCH  55  56
ENDBRANCH  27  50
BRANCH  39  60
ATOM     60  C   UNL A   1      46.534  28.432  27.504  1.00  0.00    -0.014 A 
ATOM     61  C   UNL A   1      45.660  28.198  26.428  1.00  0.00     0.010 A 
ATOM     62  C   UNL A   1      47.923  28.360  27.294  1.00  0.00     0.010 A 
ATOM     63  C   UNL A   1      46.170  27.898  25.162  1.00  0.00     0.020 A 
ATOM     64  C   UNL A   1      48.435  28.075  26.026  1.00  0.00     0.020 A 
ATOM     65  C   UNL A   1      47.554  27.847  24.967  1.00  0.00     0.054 A 
BRANCH  65  66
ATOM     66  S   UNL A   1      48.181  27.516  23.298  1.00  0.00     0.124 S 
ATOM     67  O   UNL A   1      47.237  28.251  22.462  1.00  0.00    -0.237 OA
ATOM     68  O   UNL A   1      49.533  28.068  23.355  1.00  0.00    -0.237 OA
ATOM     69  O   UNL A   1      48.111  26.060  23.181  1.00  0.00    -0.744 OA
ENDBRANCH  65  66
ENDBRANCH  39  60
ENDBRANCH  13  14
ENDBRANCH   6   8
ENDBRANCH   3   4
ENDBRANCH   2   3
ENDBRANCH   1   2
BRANCH   1  70
ATOM     70  C   UNL A   1      40.890  35.843  36.874  1.00  0.00     0.002 C 
BRANCH  70  71
ATOM     71  C   UNL A   1      40.948  36.219  35.392  1.00  0.00     0.021 C 
BRANCH  71  72
ATOM     72  C   UNL A   1      40.258  35.234  34.454  1.00  0.00     0.116 C 
BRANCH  72  73
ATOM     73  N   UNL A   1      38.831  35.135  34.717  1.00  0.00    -0.352 N 
ATOM     74  C   UNL A   1      37.894  34.386  34.052  1.00  0.00     0.251 C 
ATOM     75  H   UNL A   1      38.494  35.673  35.470  1.00  0.00     0.163 HD
ATOM     76  O   UNL A   1      36.697  34.505  34.285  1.00  0.00    -0.269 OA
BRANCH  74  77
ATOM     77  C   UNL A   1      38.354  33.455  33.010  1.00  0.00     0.041 A 
ATOM     78  C   UNL A   1      37.886  33.568  31.703  1.00  0.00     0.036 A 
ATOM     79  C   UNL A   1      39.243  32.444  33.366  1.00  0.00     0.020 A 
ATOM     80  C   UNL A   1      38.244  32.598  30.774  1.00  0.00     0.065 A 
ATOM     81  C   UNL A   1      39.623  31.481  32.421  1.00  0.00    -0.015 A 
ATOM     82  Cl  UNL A   1      37.600  32.727  29.172  1.00  0.00    -0.082 Cl
ATOM     83  C   UNL A   1      39.082  31.520  31.126  1.00  0.00     0.057 A 
ATOM     84  C   UNL A   1      40.637  30.444  32.806  1.00  0.00     0.049 C 
ATOM     85  N   UNL A   1      39.432  30.557  30.189  1.00  0.00    -0.376 N 
ATOM     86  C   UNL A   1      40.141  29.381  33.752  1.00  0.00    -0.023 C 
ATOM     87  C   UNL A   1      41.186  29.599  31.636  1.00  0.00     0.031 C 
ATOM     88  C   UNL A   1      40.060  29.315  30.606  1.00  0.00     0.114 C 
ATOM     89  H   UNL A   1      39.255  30.719  29.234  1.00  0.00     0.161 HD
ATOM     90  C   UNL A   1      40.751  28.214  33.515  1.00  0.00    -0.030 C 
ATOM     91  C   UNL A   1      41.710  28.348  32.374  1.00  0.00     0.034 C 
BRANCH  88  92
ATOM     92  C   UNL A   1      40.567  28.574  29.375  1.00  0.00    -0.025 A 
ATOM     93  C   UNL A   1      39.963  27.412  28.856  1.00  0.00     0.007 A 
ATOM     94  C   UNL A   1      41.686  29.085  28.713  1.00  0.00     0.007 A 
ATOM     95  C   UNL A   1      40.452  26.800  27.693  1.00  0.00     0.022 A 
ATOM     96  C   UNL A   1      42.138  28.509  27.535  1.00  0.00     0.022 A 
ATOM     97  C   UNL A   1      41.533  27.369  27.021  1.00  0.00     0.082 A 
BRANCH  97  98
ATOM     98  S   UNL A   1      42.105  26.640  25.502  1.00  0.00     0.243 S 
ATOM     99  O   UNL A   1      41.025  25.815  25.009  1.00  0.00    -0.207 OA
ATOM    100  O   UNL A   1      42.663  27.721  24.715  1.00  0.00    -0.207 OA
BRANCH  98 101
ATOM    101  N   UNL A   1      43.372  25.633  25.946  1.00  0.00    -0.193 NA
ATOM    102  C   UNL A   1      44.173  24.883  24.955  1.00  0.00     0.131 C 
ATOM    103  C   UNL A   1      43.715  25.387  27.357  1.00  0.00     0.131 C 
ATOM    104  C   UNL A   1      44.374  23.415  25.368  1.00  0.00     0.177 C 
ATOM    105  C   UNL A   1      43.816  23.886  27.625  1.00  0.00     0.177 C 
ATOM    106  O   UNL A   1      44.759  23.264  26.740  1.00  0.00    -0.379 OA
ENDBRANCH  98 101
ENDBRANCH  97  98
ENDBRANCH  88  92
ENDBRANCH  74  77
ENDBRANCH  72  73
ENDBRANCH  71  72
ENDBRANCH  70  71
ENDBRANCH   1  70
TORSDOF 19
ENDMDL
MODEL 3
REMARK VINA RESULT:     -10.0      3.922     11.368
REMARK SMILES O=C(NCCCCCCNC(=O)c1cc(Cl)c2c(c1)[C@H]1C=CC[C@H]1[C@H](c1ccc(S(=O)(=O)N3CCOCC3)cc1)N2)c1ccc(-c2c3nc(c(-c4ccc(S(=O)(=O)[O-])cc4)c4ccc([nH]4)c(-c4ccc(S(=O)(=O)[O-])cc4)c4nc(c(-c5ccc(S(=O)(=O)[O-])cc5)c5ccc2[nH]5)C=C4)C=C3)cc1
REMARK SMILES IDX 6 1 5 2 4 3 3 4 1 5 2 6 42 8 43 9 101 10 44 11 100 12 45 13
REMARK SMILES IDX 46 14 47 15 94 16 48 17 99 18 93 19 95 20 49 21 98 22 92 23
REMARK SMILES IDX 91 24 50 26 80 27 61 28 79 29 62 30 65 31 78 32 96 33 63 34
REMARK SMILES IDX 64 35 77 37 97 38 66 39 51 40 52 41 60 42 53 43 59 44 54 45
REMARK SMILES IDX 55 46 56 47 57 48 58 49 81 50 82 51 90 52 83 53 89 54 84 55
REMARK SMILES IDX 85 56 86 57 87 58 88 59 67 60 68 61 76 62 69 63 75 64 70 65
REMARK SMILES IDX 71 66 72 67 73 68 74 69 7 70 8 71 9 72 10 73 11 74 12 76
REMARK SMILES IDX 13 77 14 78 19 79 15 80 18 81 16 82 17 83 20 84 41 85 21 86
REMARK SMILES IDX 24 87 25 88 22 90 23 91 26 92 27 93 40 94 28 95 39 96 29 97
REMARK SMILES IDX 30 98 31 99 32 100 33 101 34 102 38 103 35 104 37 105 36 106
REMARK H PARENT 3 7 95 25 65 36 10 75 41 89
REMARK Flexibility Score: inf
ROOT
ATOM      1  C   UNL A   1      51.145  27.078  29.345  1.00  0.00     0.002 C 
ENDROOT
BRANCH   1   2
ATOM      2  C   UNL A   1      52.126  27.124  28.170  1.00  0.00     0.021 C 
BRANCH   2   3
ATOM      3  C   UNL A   1      51.476  27.113  26.790  1.00  0.00     0.116 C 
BRANCH   3   4
ATOM      4  N   UNL A   1      51.783  28.316  26.035  1.00  0.00    -0.352 N 
ATOM      5  O   UNL A   1      51.378  30.350  25.151  1.00  0.00    -0.269 OA
ATOM      6  C   UNL A   1      51.099  29.505  25.994  1.00  0.00     0.251 C 
ATOM      7  H   UNL A   1      52.592  28.272  25.476  1.00  0.00     0.163 HD
BRANCH   6   8
ATOM      8  C   UNL A   1      50.017  29.752  26.968  1.00  0.00     0.039 A 
ATOM      9  C   UNL A   1      48.724  29.276  26.727  1.00  0.00     0.014 A 
ATOM     10  C   UNL A   1      50.309  30.451  28.143  1.00  0.00     0.014 A 
ATOM     11  C   UNL A   1      47.702  29.574  27.622  1.00  0.00     0.010 A 
ATOM     12  C   UNL A   1      49.290  30.712  29.060  1.00  0.00     0.010 A 
ATOM     13  C   UNL A   1      47.977  30.292  28.797  1.00  0.00    -0.014 A 
BRANCH  13  14
ATOM     14  C   UNL A   1      46.891  30.550  29.770  1.00  0.00     0.031 A 
ATOM     15  C   UNL A   1      46.114  31.833  29.735  1.00  0.00     0.074 A 
ATOM     16  C   UNL A   1      46.591  29.599  30.674  1.00  0.00     0.049 A 
ATOM     17  N   UNL A   1      45.112  32.204  30.489  1.00  0.00    -0.248 NA
ATOM     18  C   UNL A   1      46.508  32.824  28.723  1.00  0.00     0.031 C 
ATOM     19  C   UNL A   1      47.269  28.306  30.790  1.00  0.00     0.029 A 
ATOM     20  N   UNL A   1      45.631  29.564  31.652  1.00  0.00    -0.354 N 
ATOM     21  C   UNL A   1      44.748  33.466  30.042  1.00  0.00     0.074 A 
ATOM     22  C   UNL A   1      45.658  33.814  28.970  1.00  0.00     0.031 C 
ATOM     23  C   UNL A   1      46.680  27.590  31.759  1.00  0.00     0.029 A 
ATOM     24  C   UNL A   1      45.613  28.387  32.359  1.00  0.00     0.049 A 
ATOM     25  H   UNL A   1      45.015  30.312  31.831  1.00  0.00     0.167 HD
ATOM     26  C   UNL A   1      43.742  34.260  30.480  1.00  0.00     0.031 A 
ATOM     27  C   UNL A   1      44.829  27.990  33.379  1.00  0.00     0.031 A 
ATOM     28  C   UNL A   1      42.854  33.922  31.560  1.00  0.00     0.049 A 
ATOM     29  C   UNL A   1      43.763  28.911  33.891  1.00  0.00     0.074 A 
ATOM     30  C   UNL A   1      41.806  34.665  32.076  1.00  0.00     0.029 A 
ATOM     31  N   UNL A   1      42.911  32.747  32.295  1.00  0.00    -0.354 N 
ATOM     32  N   UNL A   1      43.437  30.104  33.458  1.00  0.00    -0.248 NA
ATOM     33  C   UNL A   1      42.964  28.437  35.028  1.00  0.00     0.031 C 
ATOM     34  C   UNL A   1      41.255  33.955  33.149  1.00  0.00     0.029 A 
ATOM     35  C   UNL A   1      41.930  32.751  33.271  1.00  0.00     0.049 A 
ATOM     36  H   UNL A   1      43.556  32.018  32.145  1.00  0.00     0.167 HD
ATOM     37  C   UNL A   1      42.383  30.522  34.261  1.00  0.00     0.074 A 
ATOM     38  C   UNL A   1      42.124  29.452  35.204  1.00  0.00     0.031 C 
ATOM     39  C   UNL A   1      41.692  31.686  34.213  1.00  0.00     0.031 A 
BRANCH  26  40
ATOM     40  C   UNL A   1      43.556  35.584  29.793  1.00  0.00    -0.014 A 
ATOM     41  C   UNL A   1      42.694  35.706  28.687  1.00  0.00     0.010 A 
ATOM     42  C   UNL A   1      44.212  36.729  30.281  1.00  0.00     0.010 A 
ATOM     43  C   UNL A   1      42.516  36.942  28.064  1.00  0.00     0.020 A 
ATOM     44  C   UNL A   1      44.022  37.972  29.671  1.00  0.00     0.020 A 
ATOM     45  C   UNL A   1      43.182  38.068  28.559  1.00  0.00     0.054 A 
BRANCH  45  46
ATOM     46  S   UNL A   1      42.931  39.657  27.722  1.00  0.00     0.124 S 
ATOM     47  O   UNL A   1      42.131  40.391  28.701  1.00  0.00    -0.237 OA
ATOM     48  O   UNL A   1      44.298  40.137  27.541  1.00  0.00    -0.237 OA
ATOM     49  O   UNL A   1      42.227  39.298  26.492  1.00  0.00    -0.744 OA
ENDBRANCH  45  46
ENDBRANCH  26  40
BRANCH  27  50
ATOM     50  C   UNL A   1      45.034  26.634  33.949  1.00  0.00    -0.014 A 
ATOM     51  C   UNL A   1      44.338  25.534  33.420  1.00  0.00     0.010 A 
ATOM     52  C   UNL A   1      46.012  26.422  34.938  1.00  0.00     0.010 A 
ATOM     53  C   UNL A   1      44.636  24.240  33.853  1.00  0.00     0.020 A 
ATOM     54  C   UNL A   1      46.324  25.128  35.360  1.00  0.00     0.020 A 
ATOM     55  C   UNL A   1      45.640  24.044  34.806  1.00  0.00     0.054 A 
BRANCH  55  56
ATOM     56  S   UNL A   1      46.080  22.343  35.262  1.00  0.00     0.124 S 
ATOM     57  O   UNL A   1      45.963  22.373  36.717  1.00  0.00    -0.237 OA
ATOM     58  O   UNL A   1      45.062  21.564  34.561  1.00  0.00    -0.237 OA
ATOM     59  O   UNL A   1      47.439  22.189  34.747  1.00  0.00    -0.744 OA
ENDBRANCH  55  56
ENDBRANCH  27  50
BRANCH  39  60
ATOM     60  C   UNL A   1      40.576  31.877  35.201  1.00  0.00    -0.014 A 
ATOM     61  C   UNL A   1      39.309  31.314  34.974  1.00  0.00     0.010 A 
ATOM     62  C   UNL A   1      40.831  32.538  36.416  1.00  0.00     0.010 A 
ATOM     63  C   UNL A   1      38.312  31.412  35.948  1.00  0.00     0.020 A 
ATOM     64  C   UNL A   1      39.842  32.623  37.399  1.00  0.00     0.020 A 
ATOM     65  C   UNL A   1      38.587  32.058  37.159  1.00  0.00     0.054 A 
BRANCH  65  66
ATOM     66  S   UNL A   1      37.291  32.112  38.426  1.00  0.00     0.124 S 
ATOM     67  O   UNL A   1      36.920  30.706  38.548  1.00  0.00    -0.237 OA
ATOM     68  O   UNL A   1      37.997  32.679  39.572  1.00  0.00    -0.237 OA
ATOM     69  O   UNL A   1      36.267  32.975  37.840  1.00  0.00    -0.744 OA
ENDBRANCH  65  66
ENDBRANCH  39  60
ENDBRANCH  13  14
ENDBRANCH   6   8
ENDBRANCH   3   4
ENDBRANCH   2   3
ENDBRANCH   1   2
BRANCH   1  70
ATOM     70  C   UNL A   1      50.890  25.685  29.928  1.00  0.00     0.002 C 
BRANCH  70  71
ATOM     71  C   UNL A   1      49.429  25.229  29.913  1.00  0.00     0.021 C 
BRANCH  71  72
ATOM     72  C   UNL A   1      48.568  25.872  28.830  1.00  0.00     0.116 C 
BRANCH  72  73
ATOM     73  N   UNL A   1      48.348  24.979  27.702  1.00  0.00    -0.352 N 
ATOM     74  C   UNL A   1      47.157  24.557  27.173  1.00  0.00     0.251 C 
ATOM     75  H   UNL A   1      49.159  24.636  27.262  1.00  0.00     0.163 HD
ATOM     76  O   UNL A   1      47.111  23.688  26.310  1.00  0.00    -0.269 OA
BRANCH  74  77
ATOM     77  C   UNL A   1      45.912  25.144  27.694  1.00  0.00     0.041 A 
ATOM     78  C   UNL A   1      44.886  24.325  28.161  1.00  0.00     0.036 A 
ATOM     79  C   UNL A   1      45.774  26.529  27.685  1.00  0.00     0.020 A 
ATOM     80  C   UNL A   1      43.678  24.906  28.531  1.00  0.00     0.065 A 
ATOM     81  C   UNL A   1      44.564  27.114  28.082  1.00  0.00    -0.015 A 
ATOM     82  Cl  UNL A   1      42.397  23.864  29.049  1.00  0.00    -0.082 Cl
ATOM     83  C   UNL A   1      43.483  26.301  28.458  1.00  0.00     0.057 A 
ATOM     84  C   UNL A   1      44.461  28.611  28.132  1.00  0.00     0.049 C 
ATOM     85  N   UNL A   1      42.272  26.869  28.831  1.00  0.00    -0.376 N 
ATOM     86  C   UNL A   1      44.402  29.296  26.791  1.00  0.00    -0.023 C 
ATOM     87  C   UNL A   1      43.195  29.158  28.826  1.00  0.00     0.031 C 
ATOM     88  C   UNL A   1      41.975  28.254  28.504  1.00  0.00     0.114 C 
ATOM     89  H   UNL A   1      41.610  26.329  29.321  1.00  0.00     0.161 HD
ATOM     90  C   UNL A   1      43.654  30.404  26.859  1.00  0.00    -0.030 C 
ATOM     91  C   UNL A   1      43.109  30.583  28.241  1.00  0.00     0.034 C 
BRANCH  88  92
ATOM     92  C   UNL A   1      40.717  28.683  29.249  1.00  0.00    -0.025 A 
ATOM     93  C   UNL A   1      39.448  28.788  28.645  1.00  0.00     0.007 A 
ATOM     94  C   UNL A   1      40.824  28.974  30.610  1.00  0.00     0.007 A 
ATOM     95  C   UNL A   1      38.318  29.147  29.395  1.00  0.00     0.022 A 
ATOM     96  C   UNL A   1      39.698  29.279  31.361  1.00  0.00     0.022 A 
ATOM     97  C   UNL A   1      38.447  29.372  30.765  1.00  0.00     0.082 A 
BRANCH  97  98
ATOM     98  S   UNL A   1      37.002  29.750  31.732  1.00  0.00     0.243 S 
ATOM     99  O   UNL A   1      35.859  29.402  30.918  1.00  0.00    -0.207 OA
ATOM    100  O   UNL A   1      37.220  29.160  33.038  1.00  0.00    -0.207 OA
BRANCH  98 101
ATOM    101  N   UNL A   1      37.022  31.418  31.921  1.00  0.00    -0.193 NA
ATOM    102  C   UNL A   1      36.290  32.100  33.010  1.00  0.00     0.131 C 
ATOM    103  C   UNL A   1      37.718  32.302  30.971  1.00  0.00     0.131 C 
ATOM    104  C   UNL A   1      35.500  33.317  32.498  1.00  0.00     0.177 C 
ATOM    105  C   UNL A   1      36.785  33.421  30.507  1.00  0.00     0.177 C 
ATOM    106  O   UNL A   1      36.264  34.156  31.622  1.00  0.00    -0.379 OA
ENDBRANCH  98 101
ENDBRANCH  97  98
ENDBRANCH  88  92
ENDBRANCH  74  77
ENDBRANCH  72  73
ENDBRANCH  71  72
ENDBRANCH  70  71
ENDBRANCH   1  70
TORSDOF 19
ENDMDL
