MODEL 1
REMARK VINA RESULT:     -12.0      0.000      0.000
REMARK SMILES CC1=C(C)C[C@H](C(=O)N[C@@H](C)CCc2ccccc2)[C@@H](C(=O)NCCCCCCNC(=O)c2ccc(-c3c4nc(c(-c5ccc(S(=O)(=O)[O-])cc5)c5ccc([nH]5)c(-c5ccc(S(=O)(=O)[O-])cc5)c5nc(c(-c6ccc(S(=O)(=O)[O-])cc6)c6ccc3[nH]6)C=C5)C=C4)cc2)C1
REMARK SMILES IDX 25 1 24 2 23 3 21 4 22 5 20 7 1 8 2 9 3 10 93 11 4 12 5 13
REMARK SMILES IDX 6 14 7 15 8 16 9 17 10 19 11 20 12 21 13 22 14 23 15 24
REMARK SMILES IDX 19 25 16 26 18 27 17 28 26 29 27 30 28 31 29 32 30 33 31 34
REMARK SMILES IDX 32 36 33 37 34 38 92 39 35 40 91 41 36 42 37 43 38 44 85 45
REMARK SMILES IDX 39 46 90 47 84 48 86 49 40 50 89 51 83 52 82 53 41 55 71 56
REMARK SMILES IDX 52 57 70 58 53 59 56 60 69 61 87 62 54 63 55 64 68 66 88 67
REMARK SMILES IDX 57 68 42 69 43 70 51 71 44 72 50 73 45 74 46 75 47 76 48 77
REMARK SMILES IDX 49 78 72 79 73 80 81 81 74 82 80 83 75 84 76 85 77 86 78 87
REMARK SMILES IDX 79 88 58 89 59 90 67 91 60 92 66 93 61 94 62 95 63 96 64 97
REMARK SMILES IDX 65 98
REMARK H PARENT 23 6 9 18 30 35 86 54 56 65
REMARK Flexibility Score: inf
ROOT
ATOM      1  C   UNL A   1      31.688  28.444  27.496  1.00  0.00     0.021 C 
ENDROOT
BRANCH   1   2
ATOM      2  C   UNL A   1      31.493  27.471  26.330  1.00  0.00     0.116 C 
BRANCH   2   3
ATOM      3  N   UNL A   1      31.172  26.131  26.805  1.00  0.00    -0.356 N 
ATOM      4  C   UNL A   1      31.680  24.903  26.492  1.00  0.00     0.224 C 
ATOM      5  O   UNL A   1      31.175  23.926  27.053  1.00  0.00    -0.275 OA
ATOM      6  H   UNL A   1      30.456  26.107  27.480  1.00  0.00     0.163 HD
BRANCH   4   7
ATOM      7  C   UNL A   1      32.848  24.743  25.510  1.00  0.00     0.095 C 
ATOM      8  C   UNL A   1      34.207  21.162  26.322  1.00  0.00     0.039 C 
ATOM      9  C   UNL A   1      33.516  22.223  25.501  1.00  0.00    -0.074 C 
ATOM     10  C   UNL A   1      32.748  21.985  24.419  1.00  0.00    -0.074 C 
ATOM     11  C   UNL A   1      33.763  23.622  26.016  1.00  0.00     0.045 C 
ATOM     12  C   UNL A   1      32.502  20.628  23.802  1.00  0.00     0.039 C 
ATOM     13  C   UNL A   1      32.005  23.085  23.698  1.00  0.00     0.045 C 
ATOM     14  C   UNL A   1      32.291  24.546  24.091  1.00  0.00     0.095 C 
BRANCH  14  15
ATOM     15  C   UNL A   1      33.044  25.267  22.965  1.00  0.00     0.224 C 
ATOM     16  O   UNL A   1      34.047  24.795  22.426  1.00  0.00    -0.275 OA
ATOM     17  N   UNL A   1      32.539  26.434  22.442  1.00  0.00    -0.353 N 
ATOM     18  H   UNL A   1      32.665  26.572  21.476  1.00  0.00     0.163 HD
BRANCH  17  19
ATOM     19  C   UNL A   1      31.838  27.487  23.161  1.00  0.00     0.079 C 
ATOM     20  C   UNL A   1      32.799  28.687  23.228  1.00  0.00     0.031 C 
BRANCH  19  21
ATOM     21  C   UNL A   1      30.509  27.939  22.527  1.00  0.00     0.029 C 
BRANCH  21  22
ATOM     22  C   UNL A   1      29.540  28.747  23.405  1.00  0.00     0.037 C 
BRANCH  22  23
ATOM     23  C   UNL A   1      29.100  30.087  22.865  1.00  0.00    -0.048 A 
ATOM     24  C   UNL A   1      28.734  30.201  21.520  1.00  0.00     0.004 A 
ATOM     25  C   UNL A   1      29.053  31.234  23.670  1.00  0.00     0.004 A 
ATOM     26  C   UNL A   1      28.256  31.406  21.005  1.00  0.00     0.000 A 
ATOM     27  C   UNL A   1      28.596  32.451  23.147  1.00  0.00     0.000 A 
ATOM     28  C   UNL A   1      28.180  32.530  21.820  1.00  0.00     0.000 A 
ENDBRANCH  22  23
ENDBRANCH  21  22
ENDBRANCH  19  21
ENDBRANCH  17  19
ENDBRANCH  14  15
ENDBRANCH   4   7
ENDBRANCH   2   3
ENDBRANCH   1   2
BRANCH   1  29
ATOM     29  C   UNL A   1      32.374  29.770  27.165  1.00  0.00     0.002 C 
BRANCH  29  30
ATOM     30  C   UNL A   1      31.553  30.731  26.299  1.00  0.00     0.002 C 
BRANCH  30  31
ATOM     31  C   UNL A   1      31.506  32.195  26.758  1.00  0.00     0.021 C 
BRANCH  31  32
ATOM     32  C   UNL A   1      32.826  32.779  27.266  1.00  0.00     0.116 C 
BRANCH  32  33
ATOM     33  N   UNL A   1      32.686  34.150  27.724  1.00  0.00    -0.352 N 
ATOM     34  C   UNL A   1      33.281  34.808  28.771  1.00  0.00     0.251 C 
ATOM     35  H   UNL A   1      32.059  34.697  27.196  1.00  0.00     0.163 HD
ATOM     36  O   UNL A   1      32.849  35.906  29.112  1.00  0.00    -0.269 OA
BRANCH  34  37
ATOM     37  C   UNL A   1      34.422  34.211  29.506  1.00  0.00     0.039 A 
ATOM     38  C   UNL A   1      34.165  33.496  30.680  1.00  0.00     0.014 A 
ATOM     39  C   UNL A   1      35.743  34.407  29.091  1.00  0.00     0.014 A 
ATOM     40  C   UNL A   1      35.220  32.933  31.404  1.00  0.00     0.010 A 
ATOM     41  C   UNL A   1      36.791  33.794  29.784  1.00  0.00     0.010 A 
ATOM     42  C   UNL A   1      36.542  33.053  30.948  1.00  0.00    -0.014 A 
BRANCH  42  43
ATOM     43  C   UNL A   1      37.667  32.402  31.673  1.00  0.00     0.031 A 
ATOM     44  C   UNL A   1      38.132  32.932  33.004  1.00  0.00     0.074 A 
ATOM     45  C   UNL A   1      38.308  31.358  31.110  1.00  0.00     0.049 A 
ATOM     46  N   UNL A   1      39.121  32.518  33.756  1.00  0.00    -0.248 NA
ATOM     47  C   UNL A   1      37.407  34.090  33.550  1.00  0.00     0.031 C 
ATOM     48  C   UNL A   1      37.981  30.766  29.810  1.00  0.00     0.029 A 
ATOM     49  N   UNL A   1      39.371  30.613  31.556  1.00  0.00    -0.354 N 
ATOM     50  C   UNL A   1      39.148  33.371  34.854  1.00  0.00     0.074 A 
ATOM     51  C   UNL A   1      38.102  34.350  34.649  1.00  0.00     0.031 C 
ATOM     52  C   UNL A   1      38.812  29.737  29.576  1.00  0.00     0.029 A 
ATOM     53  C   UNL A   1      39.750  29.617  30.687  1.00  0.00     0.049 A 
ATOM     54  H   UNL A   1      39.821  30.776  32.416  1.00  0.00     0.167 HD
ATOM     55  C   UNL A   1      39.955  33.335  35.942  1.00  0.00     0.031 A 
ATOM     56  C   UNL A   1      40.742  28.709  30.768  1.00  0.00     0.031 A 
ATOM     57  C   UNL A   1      40.990  32.357  36.153  1.00  0.00     0.049 A 
ATOM     58  C   UNL A   1      41.629  28.691  31.982  1.00  0.00     0.074 A 
ATOM     59  C   UNL A   1      41.824  32.208  37.250  1.00  0.00     0.029 A 
ATOM     60  N   UNL A   1      41.336  31.361  35.252  1.00  0.00    -0.354 N 
ATOM     61  N   UNL A   1      41.598  29.471  33.036  1.00  0.00    -0.248 NA
ATOM     62  C   UNL A   1      42.678  27.661  32.022  1.00  0.00     0.031 C 
ATOM     63  C   UNL A   1      42.703  31.150  36.991  1.00  0.00     0.029 A 
ATOM     64  C   UNL A   1      42.383  30.608  35.756  1.00  0.00     0.049 A 
ATOM     65  H   UNL A   1      40.900  31.212  34.382  1.00  0.00     0.167 HD
ATOM     66  C   UNL A   1      42.608  29.012  33.874  1.00  0.00     0.074 A 
ATOM     67  C   UNL A   1      43.221  27.879  33.212  1.00  0.00     0.031 C 
ATOM     68  C   UNL A   1      42.991  29.488  35.085  1.00  0.00     0.031 A 
BRANCH  55  69
ATOM     69  C   UNL A   1      39.756  34.400  36.989  1.00  0.00    -0.014 A 
ATOM     70  C   UNL A   1      40.274  35.696  36.814  1.00  0.00     0.010 A 
ATOM     71  C   UNL A   1      39.017  34.111  38.151  1.00  0.00     0.010 A 
ATOM     72  C   UNL A   1      40.100  36.668  37.802  1.00  0.00     0.020 A 
ATOM     73  C   UNL A   1      38.818  35.088  39.130  1.00  0.00     0.020 A 
ATOM     74  C   UNL A   1      39.379  36.356  38.959  1.00  0.00     0.054 A 
BRANCH  74  75
ATOM     75  S   UNL A   1      39.165  37.637  40.225  1.00  0.00     0.124 S 
ATOM     76  O   UNL A   1      38.142  38.487  39.620  1.00  0.00    -0.237 OA
ATOM     77  O   UNL A   1      38.735  36.870  41.391  1.00  0.00    -0.237 OA
ATOM     78  O   UNL A   1      40.491  38.241  40.334  1.00  0.00    -0.744 OA
ENDBRANCH  74  75
ENDBRANCH  55  69
BRANCH  56  79
ATOM     79  C   UNL A   1      40.936  27.727  29.669  1.00  0.00    -0.014 A 
ATOM     80  C   UNL A   1      39.968  26.739  29.418  1.00  0.00     0.010 A 
ATOM     81  C   UNL A   1      42.079  27.790  28.851  1.00  0.00     0.010 A 
ATOM     82  C   UNL A   1      40.144  25.825  28.375  1.00  0.00     0.020 A 
ATOM     83  C   UNL A   1      42.246  26.893  27.791  1.00  0.00     0.020 A 
ATOM     84  C   UNL A   1      41.280  25.910  27.566  1.00  0.00     0.054 A 
BRANCH  84  85
ATOM     85  S   UNL A   1      41.455  24.756  26.176  1.00  0.00     0.124 S 
ATOM     86  O   UNL A   1      40.402  23.786  26.453  1.00  0.00    -0.237 OA
ATOM     87  O   UNL A   1      41.233  25.619  25.019  1.00  0.00    -0.237 OA
ATOM     88  O   UNL A   1      42.822  24.258  26.319  1.00  0.00    -0.744 OA
ENDBRANCH  84  85
ENDBRANCH  56  79
BRANCH  68  89
ATOM     89  C   UNL A   1      44.113  28.768  35.786  1.00  0.00    -0.014 A 
ATOM     90  C   UNL A   1      43.856  27.683  36.642  1.00  0.00     0.010 A 
ATOM     91  C   UNL A   1      45.443  29.156  35.550  1.00  0.00     0.010 A 
ATOM     92  C   UNL A   1      44.910  27.019  37.277  1.00  0.00     0.020 A 
ATOM     93  C   UNL A   1      46.502  28.480  36.164  1.00  0.00     0.020 A 
ATOM     94  C   UNL A   1      46.227  27.425  37.035  1.00  0.00     0.054 A 
BRANCH  94  95
ATOM     95  S   UNL A   1      47.582  26.526  37.840  1.00  0.00     0.124 S 
ATOM     96  O   UNL A   1      47.160  25.137  37.679  1.00  0.00    -0.237 OA
ATOM     97  O   UNL A   1      48.746  26.924  37.051  1.00  0.00    -0.237 OA
ATOM     98  O   UNL A   1      47.564  27.029  39.211  1.00  0.00    -0.744 OA
ENDBRANCH  94  95
ENDBRANCH  68  89
ENDBRANCH  42  43
ENDBRANCH  34  37
ENDBRANCH  32  33
ENDBRANCH  31  32
ENDBRANCH  30  31
ENDBRANCH  29  30
ENDBRANCH   1  29
TORSDOF 21
ENDMDL
MODEL 2
REMARK VINA RESULT:     -12.0      4.333      6.964
REMARK SMILES CC1=C(C)C[C@H](C(=O)N[C@@H](C)CCc2ccccc2)[C@@H](C(=O)NCCCCCCNC(=O)c2ccc(-c3c4nc(c(-c5ccc(S(=O)(=O)[O-])cc5)c5ccc([nH]5)c(-c5ccc(S(=O)(=O)[O-])cc5)c5nc(c(-c6ccc(S(=O)(=O)[O-])cc6)c6ccc3[nH]6)C=C5)C=C4)cc2)C1
REMARK SMILES IDX 25 1 24 2 23 3 21 4 22 5 20 7 1 8 2 9 3 10 93 11 4 12 5 13
REMARK SMILES IDX 6 14 7 15 8 16 9 17 10 19 11 20 12 21 13 22 14 23 15 24
REMARK SMILES IDX 19 25 16 26 18 27 17 28 26 29 27 30 28 31 29 32 30 33 31 34
REMARK SMILES IDX 32 36 33 37 34 38 92 39 35 40 91 41 36 42 37 43 38 44 85 45
REMARK SMILES IDX 39 46 90 47 84 48 86 49 40 50 89 51 83 52 82 53 41 55 71 56
REMARK SMILES IDX 52 57 70 58 53 59 56 60 69 61 87 62 54 63 55 64 68 66 88 67
REMARK SMILES IDX 57 68 42 69 43 70 51 71 44 72 50 73 45 74 46 75 47 76 48 77
REMARK SMILES IDX 49 78 72 79 73 80 81 81 74 82 80 83 75 84 76 85 77 86 78 87
REMARK SMILES IDX 79 88 58 89 59 90 67 91 60 92 66 93 61 94 62 95 63 96 64 97
REMARK SMILES IDX 65 98
REMARK H PARENT 23 6 9 18 30 35 86 54 56 65
REMARK Flexibility Score: inf
ROOT
ATOM      1  C   UNL A   1      30.626  27.695  24.243  1.00  0.00     0.021 C 
ENDROOT
BRANCH   1   2
ATOM      2  C   UNL A   1      30.682  26.678  23.100  1.00  0.00     0.116 C 
BRANCH   2   3
ATOM      3  N   UNL A   1      32.015  26.609  22.516  1.00  0.00    -0.356 N 
ATOM      4  C   UNL A   1      33.051  25.739  22.701  1.00  0.00     0.224 C 
ATOM      5  O   UNL A   1      34.089  25.959  22.069  1.00  0.00    -0.275 OA
ATOM      6  H   UNL A   1      32.204  27.323  21.864  1.00  0.00     0.163 HD
BRANCH   4   7
ATOM      7  C   UNL A   1      32.924  24.523  23.627  1.00  0.00     0.095 C 
ATOM      8  C   UNL A   1      36.329  22.658  23.118  1.00  0.00     0.039 C 
ATOM      9  C   UNL A   1      35.298  23.473  23.862  1.00  0.00    -0.074 C 
ATOM     10  C   UNL A   1      35.527  24.151  25.004  1.00  0.00    -0.074 C 
ATOM     11  C   UNL A   1      33.944  23.466  23.191  1.00  0.00     0.045 C 
ATOM     12  C   UNL A   1      36.827  24.159  25.772  1.00  0.00     0.039 C 
ATOM     13  C   UNL A   1      34.477  25.027  25.646  1.00  0.00     0.045 C 
ATOM     14  C   UNL A   1      33.042  24.986  25.088  1.00  0.00     0.095 C 
BRANCH  14  15
ATOM     15  C   UNL A   1      32.096  24.310  26.089  1.00  0.00     0.224 C 
ATOM     16  O   UNL A   1      31.314  24.945  26.799  1.00  0.00    -0.275 OA
ATOM     17  N   UNL A   1      32.019  22.938  26.138  1.00  0.00    -0.353 N 
ATOM     18  H   UNL A   1      31.131  22.555  26.321  1.00  0.00     0.163 HD
BRANCH  17  19
ATOM     19  C   UNL A   1      33.107  21.990  25.948  1.00  0.00     0.079 C 
ATOM     20  C   UNL A   1      33.706  21.727  27.340  1.00  0.00     0.031 C 
BRANCH  19  21
ATOM     21  C   UNL A   1      32.701  20.648  25.311  1.00  0.00     0.029 C 
BRANCH  21  22
ATOM     22  C   UNL A   1      33.805  19.814  24.642  1.00  0.00     0.037 C 
BRANCH  22  23
ATOM     23  C   UNL A   1      33.711  18.317  24.805  1.00  0.00    -0.048 A 
ATOM     24  C   UNL A   1      32.644  17.767  25.525  1.00  0.00     0.004 A 
ATOM     25  C   UNL A   1      34.668  17.448  24.262  1.00  0.00     0.004 A 
ATOM     26  C   UNL A   1      32.487  16.386  25.635  1.00  0.00     0.000 A 
ATOM     27  C   UNL A   1      34.524  16.060  24.393  1.00  0.00     0.000 A 
ATOM     28  C   UNL A   1      33.423  15.531  25.063  1.00  0.00     0.000 A 
ENDBRANCH  22  23
ENDBRANCH  21  22
ENDBRANCH  19  21
ENDBRANCH  17  19
ENDBRANCH  14  15
ENDBRANCH   4   7
ENDBRANCH   2   3
ENDBRANCH   1   2
BRANCH   1  29
ATOM     29  C   UNL A   1      31.439  28.976  24.052  1.00  0.00     0.002 C 
BRANCH  29  30
ATOM     30  C   UNL A   1      32.673  29.106  24.951  1.00  0.00     0.002 C 
BRANCH  30  31
ATOM     31  C   UNL A   1      32.783  28.106  26.111  1.00  0.00     0.021 C 
BRANCH  31  32
ATOM     32  C   UNL A   1      33.732  28.499  27.245  1.00  0.00     0.116 C 
BRANCH  32  33
ATOM     33  N   UNL A   1      33.624  29.904  27.597  1.00  0.00    -0.352 N 
ATOM     34  C   UNL A   1      34.496  30.728  28.263  1.00  0.00     0.251 C 
ATOM     35  H   UNL A   1      32.786  30.336  27.310  1.00  0.00     0.163 HD
ATOM     36  O   UNL A   1      34.107  31.828  28.646  1.00  0.00    -0.269 OA
BRANCH  34  37
ATOM     37  C   UNL A   1      35.891  30.309  28.541  1.00  0.00     0.039 A 
ATOM     38  C   UNL A   1      36.832  30.385  27.509  1.00  0.00     0.014 A 
ATOM     39  C   UNL A   1      36.264  29.778  29.780  1.00  0.00     0.014 A 
ATOM     40  C   UNL A   1      38.154  29.985  27.734  1.00  0.00     0.010 A 
ATOM     41  C   UNL A   1      37.597  29.434  30.020  1.00  0.00     0.010 A 
ATOM     42  C   UNL A   1      38.555  29.531  29.000  1.00  0.00    -0.014 A 
BRANCH  42  43
ATOM     43  C   UNL A   1      39.973  29.164  29.270  1.00  0.00     0.031 A 
ATOM     44  C   UNL A   1      40.924  30.167  29.868  1.00  0.00     0.074 A 
ATOM     45  C   UNL A   1      40.421  27.939  28.931  1.00  0.00     0.049 A 
ATOM     46  N   UNL A   1      42.200  30.036  30.134  1.00  0.00    -0.248 NA
ATOM     47  C   UNL A   1      40.377  31.493  30.192  1.00  0.00     0.031 C 
ATOM     48  C   UNL A   1      39.614  26.884  28.313  1.00  0.00     0.029 A 
ATOM     49  N   UNL A   1      41.667  27.376  29.051  1.00  0.00    -0.354 N 
ATOM     50  C   UNL A   1      42.612  31.265  30.638  1.00  0.00     0.074 A 
ATOM     51  C   UNL A   1      41.459  32.139  30.604  1.00  0.00     0.031 C 
ATOM     52  C   UNL A   1      40.379  25.796  28.130  1.00  0.00     0.029 A 
ATOM     53  C   UNL A   1      41.736  26.085  28.583  1.00  0.00     0.049 A 
ATOM     54  H   UNL A   1      42.438  27.851  29.435  1.00  0.00     0.167 HD
ATOM     55  C   UNL A   1      43.832  31.629  31.103  1.00  0.00     0.031 A 
ATOM     56  C   UNL A   1      42.773  25.227  28.518  1.00  0.00     0.031 A 
ATOM     57  C   UNL A   1      44.977  30.759  31.147  1.00  0.00     0.049 A 
ATOM     58  C   UNL A   1      44.119  25.654  29.035  1.00  0.00     0.074 A 
ATOM     59  C   UNL A   1      46.241  31.022  31.651  1.00  0.00     0.029 A 
ATOM     60  N   UNL A   1      45.003  29.456  30.670  1.00  0.00    -0.354 N 
ATOM     61  N   UNL A   1      44.471  26.802  29.563  1.00  0.00    -0.248 NA
ATOM     62  C   UNL A   1      45.203  24.665  28.960  1.00  0.00     0.031 C 
ATOM     63  C   UNL A   1      47.042  29.894  31.437  1.00  0.00     0.029 A 
ATOM     64  C   UNL A   1      46.264  28.912  30.846  1.00  0.00     0.049 A 
ATOM     65  H   UNL A   1      44.237  28.989  30.265  1.00  0.00     0.167 HD
ATOM     66  C   UNL A   1      45.813  26.666  29.901  1.00  0.00     0.074 A 
ATOM     67  C   UNL A   1      46.203  25.320  29.534  1.00  0.00     0.031 C 
ATOM     68  C   UNL A   1      46.644  27.574  30.468  1.00  0.00     0.031 A 
BRANCH  55  69
ATOM     69  C   UNL A   1      43.992  33.044  31.595  1.00  0.00    -0.014 A 
ATOM     70  C   UNL A   1      43.797  33.367  32.951  1.00  0.00     0.010 A 
ATOM     71  C   UNL A   1      44.370  34.060  30.698  1.00  0.00     0.010 A 
ATOM     72  C   UNL A   1      43.927  34.687  33.390  1.00  0.00     0.020 A 
ATOM     73  C   UNL A   1      44.527  35.377  31.139  1.00  0.00     0.020 A 
ATOM     74  C   UNL A   1      44.284  35.686  32.479  1.00  0.00     0.054 A 
BRANCH  74  75
ATOM     75  S   UNL A   1      44.451  37.391  33.076  1.00  0.00     0.124 S 
ATOM     76  O   UNL A   1      44.811  38.102  31.851  1.00  0.00    -0.237 OA
ATOM     77  O   UNL A   1      43.120  37.680  33.602  1.00  0.00    -0.237 OA
ATOM     78  O   UNL A   1      45.509  37.305  34.079  1.00  0.00    -0.744 OA
ENDBRANCH  74  75
ENDBRANCH  55  69
BRANCH  56  79
ATOM     79  C   UNL A   1      42.572  23.865  27.955  1.00  0.00    -0.014 A 
ATOM     80  C   UNL A   1      42.201  22.797  28.792  1.00  0.00     0.010 A 
ATOM     81  C   UNL A   1      42.725  23.635  26.576  1.00  0.00     0.010 A 
ATOM     82  C   UNL A   1      41.997  21.521  28.260  1.00  0.00     0.020 A 
ATOM     83  C   UNL A   1      42.498  22.365  26.038  1.00  0.00     0.020 A 
ATOM     84  C   UNL A   1      42.144  21.314  26.886  1.00  0.00     0.054 A 
BRANCH  84  85
ATOM     85  S   UNL A   1      41.807  19.664  26.208  1.00  0.00     0.124 S 
ATOM     86  O   UNL A   1      42.574  19.683  24.967  1.00  0.00    -0.237 OA
ATOM     87  O   UNL A   1      42.317  18.782  27.254  1.00  0.00    -0.237 OA
ATOM     88  O   UNL A   1      40.354  19.653  26.049  1.00  0.00    -0.744 OA
ENDBRANCH  84  85
ENDBRANCH  56  79
BRANCH  68  89
ATOM     89  C   UNL A   1      48.057  27.136  30.749  1.00  0.00    -0.014 A 
ATOM     90  C   UNL A   1      49.087  27.366  29.819  1.00  0.00     0.010 A 
ATOM     91  C   UNL A   1      48.366  26.525  31.977  1.00  0.00     0.010 A 
ATOM     92  C   UNL A   1      50.395  26.963  30.101  1.00  0.00     0.020 A 
ATOM     93  C   UNL A   1      49.677  26.141  32.272  1.00  0.00     0.020 A 
ATOM     94  C   UNL A   1      50.681  26.350  31.325  1.00  0.00     0.054 A 
BRANCH  94  95
ATOM     95  S   UNL A   1      52.393  25.868  31.685  1.00  0.00     0.124 S 
ATOM     96  O   UNL A   1      52.231  24.487  32.130  1.00  0.00    -0.237 OA
ATOM     97  O   UNL A   1      53.054  26.038  30.392  1.00  0.00    -0.237 OA
ATOM     98  O   UNL A   1      52.808  26.813  32.719  1.00  0.00    -0.744 OA
ENDBRANCH  94  95
ENDBRANCH  68  89
ENDBRANCH  42  43
ENDBRANCH  34  37
ENDBRANCH  32  33
ENDBRANCH  31  32
ENDBRANCH  30  31
ENDBRANCH  29  30
ENDBRANCH   1  29
TORSDOF 21
ENDMDL
MODEL 3
REMARK VINA RESULT:     -11.8      5.716      7.841
REMARK SMILES CC1=C(C)C[C@H](C(=O)N[C@@H](C)CCc2ccccc2)[C@@H](C(=O)NCCCCCCNC(=O)c2ccc(-c3c4nc(c(-c5ccc(S(=O)(=O)[O-])cc5)c5ccc([nH]5)c(-c5ccc(S(=O)(=O)[O-])cc5)c5nc(c(-c6ccc(S(=O)(=O)[O-])cc6)c6ccc3[nH]6)C=C5)C=C4)cc2)C1
REMARK SMILES IDX 25 1 24 2 23 3 21 4 22 5 20 7 1 8 2 9 3 10 93 11 4 12 5 13
REMARK SMILES IDX 6 14 7 15 8 16 9 17 10 19 11 20 12 21 13 22 14 23 15 24
REMARK SMILES IDX 19 25 16 26 18 27 17 28 26 29 27 30 28 31 29 32 30 33 31 34
REMARK SMILES IDX 32 36 33 37 34 38 92 39 35 40 91 41 36 42 37 43 38 44 85 45
REMARK SMILES IDX 39 46 90 47 84 48 86 49 40 50 89 51 83 52 82 53 41 55 71 56
REMARK SMILES IDX 52 57 70 58 53 59 56 60 69 61 87 62 54 63 55 64 68 66 88 67
REMARK SMILES IDX 57 68 42 69 43 70 51 71 44 72 50 73 45 74 46 75 47 76 48 77
REMARK SMILES IDX 49 78 72 79 73 80 81 81 74 82 80 83 75 84 76 85 77 86 78 87
REMARK SMILES IDX 79 88 58 89 59 90 67 91 60 92 66 93 61 94 62 95 63 96 64 97
REMARK SMILES IDX 65 98
REMARK H PARENT 23 6 9 18 30 35 86 54 56 65
REMARK Flexibility Score: inf
ROOT
ATOM      1  C   UNL A   1      31.817  28.848  27.244  1.00  0.00     0.021 C 
ENDROOT
BRANCH   1   2
ATOM      2  C   UNL A   1      32.466  27.634  26.574  1.00  0.00     0.116 C 
BRANCH   2   3
ATOM      3  N   UNL A   1      31.698  26.420  26.816  1.00  0.00    -0.356 N 
ATOM      4  C   UNL A   1      31.907  25.118  26.462  1.00  0.00     0.224 C 
ATOM      5  O   UNL A   1      31.046  24.299  26.796  1.00  0.00    -0.275 OA
ATOM      6  H   UNL A   1      30.873  26.565  27.334  1.00  0.00     0.163 HD
BRANCH   4   7
ATOM      7  C   UNL A   1      33.171  24.683  25.710  1.00  0.00     0.095 C 
ATOM      8  C   UNL A   1      33.894  21.123  27.169  1.00  0.00     0.039 C 
ATOM      9  C   UNL A   1      33.481  22.128  26.122  1.00  0.00    -0.074 C 
ATOM     10  C   UNL A   1      32.852  21.827  24.968  1.00  0.00    -0.074 C 
ATOM     11  C   UNL A   1      33.841  23.548  26.492  1.00  0.00     0.045 C 
ATOM     12  C   UNL A   1      32.514  20.434  24.493  1.00  0.00     0.039 C 
ATOM     13  C   UNL A   1      32.379  22.892  24.005  1.00  0.00     0.045 C 
ATOM     14  C   UNL A   1      32.804  24.350  24.255  1.00  0.00     0.095 C 
BRANCH  14  15
ATOM     15  C   UNL A   1      33.803  24.809  23.184  1.00  0.00     0.224 C 
ATOM     16  O   UNL A   1      34.788  24.142  22.864  1.00  0.00    -0.275 OA
ATOM     17  N   UNL A   1      33.554  25.952  22.461  1.00  0.00    -0.353 N 
ATOM     18  H   UNL A   1      33.830  25.941  21.517  1.00  0.00     0.163 HD
BRANCH  17  19
ATOM     19  C   UNL A   1      32.927  27.175  22.940  1.00  0.00     0.079 C 
ATOM     20  C   UNL A   1      33.813  28.338  22.461  1.00  0.00     0.031 C 
BRANCH  19  21
ATOM     21  C   UNL A   1      31.484  27.404  22.453  1.00  0.00     0.029 C 
BRANCH  21  22
ATOM     22  C   UNL A   1      30.383  27.524  23.518  1.00  0.00     0.037 C 
BRANCH  22  23
ATOM     23  C   UNL A   1      29.480  28.729  23.421  1.00  0.00    -0.048 A 
ATOM     24  C   UNL A   1      28.156  28.566  22.999  1.00  0.00     0.004 A 
ATOM     25  C   UNL A   1      29.927  30.020  23.733  1.00  0.00     0.004 A 
ATOM     26  C   UNL A   1      27.274  29.646  22.966  1.00  0.00     0.000 A 
ATOM     27  C   UNL A   1      29.048  31.110  23.676  1.00  0.00     0.000 A 
ATOM     28  C   UNL A   1      27.717  30.918  23.311  1.00  0.00     0.000 A 
ENDBRANCH  22  23
ENDBRANCH  21  22
ENDBRANCH  19  21
ENDBRANCH  17  19
ENDBRANCH  14  15
ENDBRANCH   4   7
ENDBRANCH   2   3
ENDBRANCH   1   2
BRANCH   1  29
ATOM     29  C   UNL A   1      32.137  30.212  26.633  1.00  0.00     0.002 C 
BRANCH  29  30
ATOM     30  C   UNL A   1      33.176  31.042  27.394  1.00  0.00     0.002 C 
BRANCH  30  31
ATOM     31  C   UNL A   1      34.550  30.389  27.607  1.00  0.00     0.021 C 
BRANCH  31  32
ATOM     32  C   UNL A   1      35.569  31.217  28.392  1.00  0.00     0.116 C 
BRANCH  32  33
ATOM     33  N   UNL A   1      35.525  30.943  29.817  1.00  0.00    -0.352 N 
ATOM     34  C   UNL A   1      36.425  30.303  30.632  1.00  0.00     0.251 C 
ATOM     35  H   UNL A   1      34.715  31.269  30.273  1.00  0.00     0.163 HD
ATOM     36  O   UNL A   1      36.085  29.988  31.770  1.00  0.00    -0.269 OA
BRANCH  34  37
ATOM     37  C   UNL A   1      37.792  29.975  30.161  1.00  0.00     0.039 A 
ATOM     38  C   UNL A   1      38.781  29.697  31.111  1.00  0.00     0.014 A 
ATOM     39  C   UNL A   1      38.127  30.008  28.804  1.00  0.00     0.014 A 
ATOM     40  C   UNL A   1      40.084  29.397  30.701  1.00  0.00     0.010 A 
ATOM     41  C   UNL A   1      39.414  29.651  28.393  1.00  0.00     0.010 A 
ATOM     42  C   UNL A   1      40.407  29.345  29.336  1.00  0.00    -0.014 A 
BRANCH  42  43
ATOM     43  C   UNL A   1      41.773  28.962  28.884  1.00  0.00     0.031 A 
ATOM     44  C   UNL A   1      42.879  29.983  28.835  1.00  0.00     0.074 A 
ATOM     45  C   UNL A   1      42.009  27.702  28.468  1.00  0.00     0.049 A 
ATOM     46  N   UNL A   1      44.116  29.839  28.431  1.00  0.00    -0.248 NA
ATOM     47  C   UNL A   1      42.548  31.346  29.279  1.00  0.00     0.031 C 
ATOM     48  C   UNL A   1      41.017  26.624  28.431  1.00  0.00     0.029 A 
ATOM     49  N   UNL A   1      43.154  27.116  27.989  1.00  0.00    -0.354 N 
ATOM     50  C   UNL A   1      44.706  31.092  28.555  1.00  0.00     0.074 A 
ATOM     51  C   UNL A   1      43.680  31.992  29.034  1.00  0.00     0.031 C 
ATOM     52  C   UNL A   1      41.604  25.504  27.978  1.00  0.00     0.029 A 
ATOM     53  C   UNL A   1      42.999  25.790  27.659  1.00  0.00     0.049 A 
ATOM     54  H   UNL A   1      44.006  27.598  27.892  1.00  0.00     0.167 HD
ATOM     55  C   UNL A   1      45.988  31.458  28.309  1.00  0.00     0.031 A 
ATOM     56  C   UNL A   1      43.875  24.901  27.152  1.00  0.00     0.031 A 
ATOM     57  C   UNL A   1      47.014  30.563  27.842  1.00  0.00     0.049 A 
ATOM     58  C   UNL A   1      45.291  25.331  26.883  1.00  0.00     0.074 A 
ATOM     59  C   UNL A   1      48.354  30.830  27.616  1.00  0.00     0.029 A 
ATOM     60  N   UNL A   1      46.816  29.226  27.526  1.00  0.00    -0.354 N 
ATOM     61  N   UNL A   1      45.842  26.508  27.064  1.00  0.00    -0.248 NA
ATOM     62  C   UNL A   1      46.206  24.310  26.353  1.00  0.00     0.031 C 
ATOM     63  C   UNL A   1      48.956  29.668  27.122  1.00  0.00     0.029 A 
ATOM     64  C   UNL A   1      48.003  28.663  27.087  1.00  0.00     0.049 A 
ATOM     65  H   UNL A   1      45.958  28.750  27.603  1.00  0.00     0.167 HD
ATOM     66  C   UNL A   1      47.173  26.362  26.689  1.00  0.00     0.074 A 
ATOM     67  C   UNL A   1      47.347  24.981  26.288  1.00  0.00     0.031 C 
ATOM     68  C   UNL A   1      48.162  27.289  26.682  1.00  0.00     0.031 A 
BRANCH  55  69
ATOM     69  C   UNL A   1      46.351  32.903  28.534  1.00  0.00    -0.014 A 
ATOM     70  C   UNL A   1      46.818  33.348  29.785  1.00  0.00     0.010 A 
ATOM     71  C   UNL A   1      46.252  33.823  27.475  1.00  0.00     0.010 A 
ATOM     72  C   UNL A   1      47.130  34.695  29.986  1.00  0.00     0.020 A 
ATOM     73  C   UNL A   1      46.589  35.167  27.665  1.00  0.00     0.020 A 
ATOM     74  C   UNL A   1      47.007  35.598  28.926  1.00  0.00     0.054 A 
BRANCH  74  75
ATOM     75  S   UNL A   1      47.423  37.340  29.213  1.00  0.00     0.124 S 
ATOM     76  O   UNL A   1      46.185  38.011  28.822  1.00  0.00    -0.237 OA
ATOM     77  O   UNL A   1      47.729  37.368  30.640  1.00  0.00    -0.237 OA
ATOM     78  O   UNL A   1      48.563  37.574  28.329  1.00  0.00    -0.744 OA
ENDBRANCH  74  75
ENDBRANCH  55  69
BRANCH  56  79
ATOM     79  C   UNL A   1      43.440  23.505  26.883  1.00  0.00    -0.014 A 
ATOM     80  C   UNL A   1      43.322  23.039  25.562  1.00  0.00     0.010 A 
ATOM     81  C   UNL A   1      43.166  22.627  27.948  1.00  0.00     0.010 A 
ATOM     82  C   UNL A   1      42.927  21.722  25.310  1.00  0.00     0.020 A 
ATOM     83  C   UNL A   1      42.795  21.303  27.699  1.00  0.00     0.020 A 
ATOM     84  C   UNL A   1      42.669  20.861  26.381  1.00  0.00     0.054 A 
BRANCH  84  85
ATOM     85  S   UNL A   1      42.225  19.137  26.030  1.00  0.00     0.124 S 
ATOM     86  O   UNL A   1      40.777  19.222  25.872  1.00  0.00    -0.237 OA
ATOM     87  O   UNL A   1      42.979  18.856  24.813  1.00  0.00    -0.237 OA
ATOM     88  O   UNL A   1      42.685  18.420  27.218  1.00  0.00    -0.744 OA
ENDBRANCH  84  85
ENDBRANCH  56  79
BRANCH  68  89
ATOM     89  C   UNL A   1      49.531  26.836  26.247  1.00  0.00    -0.014 A 
ATOM     90  C   UNL A   1      50.347  26.070  27.098  1.00  0.00     0.010 A 
ATOM     91  C   UNL A   1      49.988  27.145  24.954  1.00  0.00     0.010 A 
ATOM     92  C   UNL A   1      51.610  25.649  26.674  1.00  0.00     0.020 A 
ATOM     93  C   UNL A   1      51.240  26.705  24.517  1.00  0.00     0.020 A 
ATOM     94  C   UNL A   1      52.050  25.972  25.386  1.00  0.00     0.054 A 
BRANCH  94  95
ATOM     95  S   UNL A   1      53.678  25.383  24.843  1.00  0.00     0.124 S 
ATOM     96  O   UNL A   1      53.823  24.147  25.608  1.00  0.00    -0.237 OA
ATOM     97  O   UNL A   1      53.495  25.212  23.402  1.00  0.00    -0.237 OA
ATOM     98  O   UNL A   1      54.582  26.465  25.225  1.00  0.00    -0.744 OA
ENDBRANCH  94  95
ENDBRANCH  68  89
ENDBRANCH  42  43
ENDBRANCH  34  37
ENDBRANCH  32  33
ENDBRANCH  31  32
ENDBRANCH  30  31
ENDBRANCH  29  30
ENDBRANCH   1  29
TORSDOF 21
ENDMDL
