MODEL 1
REMARK VINA RESULT:      -9.1      0.000      0.000
REMARK SMILES CC1(C)CC[C@@]2(C(=O)NCCCCCCNC(=O)c3ccc(-c4c5nc(c(-c6ccc(S(=O)(=O)[O-])cc6)c6ccc([nH]6)c(-c6ccc(S(=O)(=O)[O-])cc6)c6nc(c(-c7ccc(S(=O)(=O)[O-])cc7)c7ccc4[nH]7)C=C6)C=C5)cc3)CC[C@@]3(C)C(=CC[C@H]4[C@@]5(C)CC[C@H](O)C(C)(C)[C@@H]5CC[C@]43C)[C@@H]2C1
REMARK SMILES IDX 13 1 12 2 11 3 10 4 9 5 7 6 8 7 6 9 1 10 2 11 3 12 4 13
REMARK SMILES IDX 102 14 5 15 101 16 83 17 79 18 81 19 84 20 80 21 82 22 99 23
REMARK SMILES IDX 85 24 86 25 98 26 100 27 87 28 97 29 88 30 89 31 96 32 90 33
REMARK SMILES IDX 93 34 91 35 94 36 95 37 92 38 14 40 15 41 16 42 17 43 18 45
REMARK SMILES IDX 19 46 20 47 78 48 21 49 77 50 22 51 23 52 24 53 71 54 25 55
REMARK SMILES IDX 76 56 70 57 72 58 26 59 75 60 69 61 68 62 27 64 57 65 38 66
REMARK SMILES IDX 56 67 39 68 42 69 55 70 73 71 40 72 41 73 54 75 74 76 43 77
REMARK SMILES IDX 28 78 29 79 37 80 30 81 36 82 31 83 32 84 33 85 34 86 35 87
REMARK SMILES IDX 58 88 59 89 67 90 60 91 66 92 61 93 62 94 63 95 64 96 65 97
REMARK SMILES IDX 44 98 45 99 53 100 46 101 52 102 47 103 48 104 49 105 50 106
REMARK SMILES IDX 51 107
REMARK H PARENT 9 8 92 39 16 44 72 63 42 74
REMARK Flexibility Score: inf
ROOT
ATOM      1  C   UNL A   1      41.297  28.764  26.296  1.00  0.00     0.002 C 
ENDROOT
BRANCH   1   2
ATOM      2  C   UNL A   1      42.190  29.870  26.840  1.00  0.00     0.002 C 
BRANCH   2   3
ATOM      3  C   UNL A   1      43.637  29.552  27.262  1.00  0.00     0.021 C 
BRANCH   3   4
ATOM      4  C   UNL A   1      44.193  30.065  28.590  1.00  0.00     0.116 C 
BRANCH   4   5
ATOM      5  N   UNL A   1      45.478  29.609  29.066  1.00  0.00    -0.356 N 
ATOM      6  C   UNL A   1      46.710  30.198  28.830  1.00  0.00     0.226 C 
ATOM      7  O   UNL A   1      47.035  30.597  27.713  1.00  0.00    -0.274 OA
ATOM      8  H   UNL A   1      45.478  28.792  29.615  1.00  0.00     0.163 HD
BRANCH   6   9
ATOM      9  C   UNL A   1      47.602  30.490  30.099  1.00  0.00     0.056 C 
ATOM     10  C   UNL A   1      45.435  32.190  33.058  1.00  0.00     0.011 C 
ATOM     11  C   UNL A   1      45.242  31.425  31.736  1.00  0.00    -0.035 C 
ATOM     12  C   UNL A   1      43.704  31.414  31.489  1.00  0.00     0.011 C 
ATOM     13  C   UNL A   1      45.879  32.266  30.612  1.00  0.00     0.007 C 
ATOM     14  C   UNL A   1      45.824  29.945  31.882  1.00  0.00     0.015 C 
ATOM     15  C   UNL A   1      47.355  31.978  30.437  1.00  0.00     0.018 C 
ATOM     16  C   UNL A   1      47.277  29.600  31.323  1.00  0.00     0.031 C 
ATOM     17  C   UNL A   1      47.657  28.107  30.913  1.00  0.00    -0.064 C 
ATOM     18  C   UNL A   1      49.116  30.378  29.832  1.00  0.00     0.018 C 
ATOM     19  C   UNL A   1      49.093  27.815  30.335  1.00  0.00    -0.006 C 
ATOM     20  C   UNL A   1      46.741  27.124  30.934  1.00  0.00    -0.027 C 
ATOM     21  C   UNL A   1      49.555  28.982  29.428  1.00  0.00     0.013 C 
ATOM     22  C   UNL A   1      50.023  27.818  31.594  1.00  0.00     0.017 C 
ATOM     23  C   UNL A   1      49.255  26.364  29.515  1.00  0.00    -0.020 C 
ATOM     24  C   UNL A   1      46.810  25.878  30.108  1.00  0.00     0.032 C 
ATOM     25  C   UNL A   1      47.879  25.842  28.980  1.00  0.00     0.006 C 
ATOM     26  C   UNL A   1      50.340  26.314  28.360  1.00  0.00     0.008 C 
ATOM     27  C   UNL A   1      49.739  25.242  30.517  1.00  0.00     0.012 C 
ATOM     28  C   UNL A   1      47.430  26.115  27.445  1.00  0.00    -0.025 C 
ATOM     29  C   UNL A   1      49.877  25.746  26.989  1.00  0.00     0.005 C 
ATOM     30  C   UNL A   1      46.693  24.799  27.049  1.00  0.00     0.012 C 
ATOM     31  C   UNL A   1      46.483  27.278  27.192  1.00  0.00     0.010 C 
ATOM     32  C   UNL A   1      48.637  26.502  26.530  1.00  0.00     0.003 C 
ATOM     33  C   UNL A   1      46.010  27.487  25.750  1.00  0.00     0.033 C 
ATOM     34  C   UNL A   1      48.316  26.654  24.980  1.00  0.00    -0.006 C 
ATOM     35  C   UNL A   1      47.181  27.716  24.810  1.00  0.00     0.120 C 
ATOM     36  C   UNL A   1      47.935  25.345  24.263  1.00  0.00     0.014 C 
ATOM     37  C   UNL A   1      49.542  27.221  24.226  1.00  0.00     0.014 C 
BRANCH  35  38
ATOM     38  O   UNL A   1      46.694  27.755  23.468  1.00  0.00    -0.393 OA
ATOM     39  H   UNL A   1      46.312  28.628  23.289  1.00  0.00     0.210 HD
ENDBRANCH  35  38
ENDBRANCH   6   9
ENDBRANCH   4   5
ENDBRANCH   3   4
ENDBRANCH   2   3
ENDBRANCH   1   2
BRANCH   1  40
ATOM     40  C   UNL A   1      42.005  27.649  25.549  1.00  0.00     0.021 C 
BRANCH  40  41
ATOM     41  C   UNL A   1      41.276  26.317  25.528  1.00  0.00     0.116 C 
BRANCH  41  42
ATOM     42  N   UNL A   1      42.131  25.142  25.535  1.00  0.00    -0.352 N 
ATOM     43  C   UNL A   1      42.699  24.568  26.661  1.00  0.00     0.251 C 
ATOM     44  H   UNL A   1      42.324  24.718  24.667  1.00  0.00     0.163 HD
ATOM     45  O   UNL A   1      43.391  23.583  26.612  1.00  0.00    -0.269 OA
BRANCH  43  46
ATOM     46  C   UNL A   1      42.438  25.276  27.936  1.00  0.00     0.039 A 
ATOM     47  C   UNL A   1      43.492  25.968  28.530  1.00  0.00     0.014 A 
ATOM     48  C   UNL A   1      41.121  25.432  28.376  1.00  0.00     0.014 A 
ATOM     49  C   UNL A   1      43.214  26.870  29.553  1.00  0.00     0.010 A 
ATOM     50  C   UNL A   1      40.842  26.389  29.344  1.00  0.00     0.010 A 
ATOM     51  C   UNL A   1      41.886  27.112  29.945  1.00  0.00    -0.014 A 
BRANCH  51  52
ATOM     52  C   UNL A   1      41.583  28.098  31.009  1.00  0.00     0.031 A 
ATOM     53  C   UNL A   1      42.393  28.087  32.276  1.00  0.00     0.074 A 
ATOM     54  C   UNL A   1      40.571  28.975  30.851  1.00  0.00     0.049 A 
ATOM     55  N   UNL A   1      42.298  28.867  33.320  1.00  0.00    -0.248 NA
ATOM     56  C   UNL A   1      43.428  27.046  32.396  1.00  0.00     0.031 C 
ATOM     57  C   UNL A   1      39.683  29.046  29.688  1.00  0.00     0.029 A 
ATOM     58  N   UNL A   1      40.122  29.980  31.670  1.00  0.00    -0.354 N 
ATOM     59  C   UNL A   1      43.246  28.401  34.223  1.00  0.00     0.074 A 
ATOM     60  C   UNL A   1      43.866  27.239  33.630  1.00  0.00     0.031 C 
ATOM     61  C   UNL A   1      38.816  30.059  29.857  1.00  0.00     0.029 A 
ATOM     62  C   UNL A   1      39.067  30.692  31.149  1.00  0.00     0.049 A 
ATOM     63  H   UNL A   1      40.518  30.174  32.550  1.00  0.00     0.167 HD
ATOM     64  C   UNL A   1      43.587  28.911  35.429  1.00  0.00     0.031 A 
ATOM     65  C   UNL A   1      38.383  31.737  31.653  1.00  0.00     0.031 A 
ATOM     66  C   UNL A   1      42.983  30.081  36.002  1.00  0.00     0.049 A 
ATOM     67  C   UNL A   1      38.794  32.298  32.989  1.00  0.00     0.074 A 
ATOM     68  C   UNL A   1      43.304  30.724  37.184  1.00  0.00     0.029 A 
ATOM     69  N   UNL A   1      41.930  30.784  35.435  1.00  0.00    -0.354 N 
ATOM     70  N   UNL A   1      39.754  31.899  33.788  1.00  0.00    -0.248 NA
ATOM     71  C   UNL A   1      38.042  33.460  33.482  1.00  0.00     0.031 C 
ATOM     72  C   UNL A   1      42.409  31.785  37.357  1.00  0.00     0.029 A 
ATOM     73  C   UNL A   1      41.570  31.838  36.255  1.00  0.00     0.049 A 
ATOM     74  H   UNL A   1      41.502  30.564  34.576  1.00  0.00     0.167 HD
ATOM     75  C   UNL A   1      39.735  32.773  34.869  1.00  0.00     0.074 A 
ATOM     76  C   UNL A   1      38.681  33.734  34.611  1.00  0.00     0.031 C 
ATOM     77  C   UNL A   1      40.518  32.781  35.977  1.00  0.00     0.031 A 
BRANCH  64  78
ATOM     78  C   UNL A   1      44.665  28.201  36.204  1.00  0.00    -0.014 A 
ATOM     79  C   UNL A   1      46.022  28.528  36.033  1.00  0.00     0.010 A 
ATOM     80  C   UNL A   1      44.311  27.214  37.142  1.00  0.00     0.010 A 
ATOM     81  C   UNL A   1      47.009  27.855  36.756  1.00  0.00     0.020 A 
ATOM     82  C   UNL A   1      45.294  26.559  37.889  1.00  0.00     0.020 A 
ATOM     83  C   UNL A   1      46.639  26.874  37.680  1.00  0.00     0.054 A 
BRANCH  83  84
ATOM     84  S   UNL A   1      47.939  26.040  38.629  1.00  0.00     0.124 S 
ATOM     85  O   UNL A   1      48.739  25.429  37.570  1.00  0.00    -0.237 OA
ATOM     86  O   UNL A   1      48.576  27.145  39.339  1.00  0.00    -0.237 OA
ATOM     87  O   UNL A   1      47.204  25.101  39.474  1.00  0.00    -0.744 OA
ENDBRANCH  83  84
ENDBRANCH  64  78
BRANCH  65  88
ATOM     88  C   UNL A   1      37.252  32.331  30.887  1.00  0.00    -0.014 A 
ATOM     89  C   UNL A   1      35.926  31.936  31.138  1.00  0.00     0.010 A 
ATOM     90  C   UNL A   1      37.498  33.304  29.902  1.00  0.00     0.010 A 
ATOM     91  C   UNL A   1      34.869  32.488  30.405  1.00  0.00     0.020 A 
ATOM     92  C   UNL A   1      36.443  33.878  29.185  1.00  0.00     0.020 A 
ATOM     93  C   UNL A   1      35.135  33.457  29.434  1.00  0.00     0.054 A 
BRANCH  93  94
ATOM     94  S   UNL A   1      33.746  34.198  28.530  1.00  0.00     0.124 S 
ATOM     95  O   UNL A   1      34.405  35.264  27.783  1.00  0.00    -0.237 OA
ATOM     96  O   UNL A   1      33.254  33.077  27.733  1.00  0.00    -0.237 OA
ATOM     97  O   UNL A   1      32.844  34.640  29.592  1.00  0.00    -0.744 OA
ENDBRANCH  93  94
ENDBRANCH  65  88
BRANCH  77  98
ATOM     98  C   UNL A   1      40.284  33.876  36.982  1.00  0.00    -0.014 A 
ATOM     99  C   UNL A   1      40.926  35.121  36.863  1.00  0.00     0.010 A 
ATOM    100  C   UNL A   1      39.357  33.676  38.022  1.00  0.00     0.010 A 
ATOM    101  C   UNL A   1      40.667  36.137  37.787  1.00  0.00     0.020 A 
ATOM    102  C   UNL A   1      39.074  34.699  38.929  1.00  0.00     0.020 A 
ATOM    103  C   UNL A   1      39.743  35.919  38.814  1.00  0.00     0.054 A 
BRANCH 103 104
ATOM    104  S   UNL A   1      39.390  37.270  39.971  1.00  0.00     0.124 S 
ATOM    105  O   UNL A   1      40.720  37.830  40.196  1.00  0.00    -0.237 OA
ATOM    106  O   UNL A   1      38.474  38.115  39.209  1.00  0.00    -0.237 OA
ATOM    107  O   UNL A   1      38.795  36.595  41.121  1.00  0.00    -0.744 OA
ENDBRANCH 103 104
ENDBRANCH  77  98
ENDBRANCH  51  52
ENDBRANCH  43  46
ENDBRANCH  41  42
ENDBRANCH  40  41
ENDBRANCH   1  40
TORSDOF 17
ENDMDL
MODEL 2
REMARK VINA RESULT:      -8.6      3.867     12.005
REMARK SMILES CC1(C)CC[C@@]2(C(=O)NCCCCCCNC(=O)c3ccc(-c4c5nc(c(-c6ccc(S(=O)(=O)[O-])cc6)c6ccc([nH]6)c(-c6ccc(S(=O)(=O)[O-])cc6)c6nc(c(-c7ccc(S(=O)(=O)[O-])cc7)c7ccc4[nH]7)C=C6)C=C5)cc3)CC[C@@]3(C)C(=CC[C@H]4[C@@]5(C)CC[C@H](O)C(C)(C)[C@@H]5CC[C@]43C)[C@@H]2C1
REMARK SMILES IDX 13 1 12 2 11 3 10 4 9 5 7 6 8 7 6 9 1 10 2 11 3 12 4 13
REMARK SMILES IDX 102 14 5 15 101 16 83 17 79 18 81 19 84 20 80 21 82 22 99 23
REMARK SMILES IDX 85 24 86 25 98 26 100 27 87 28 97 29 88 30 89 31 96 32 90 33
REMARK SMILES IDX 93 34 91 35 94 36 95 37 92 38 14 40 15 41 16 42 17 43 18 45
REMARK SMILES IDX 19 46 20 47 78 48 21 49 77 50 22 51 23 52 24 53 71 54 25 55
REMARK SMILES IDX 76 56 70 57 72 58 26 59 75 60 69 61 68 62 27 64 57 65 38 66
REMARK SMILES IDX 56 67 39 68 42 69 55 70 73 71 40 72 41 73 54 75 74 76 43 77
REMARK SMILES IDX 28 78 29 79 37 80 30 81 36 82 31 83 32 84 33 85 34 86 35 87
REMARK SMILES IDX 58 88 59 89 67 90 60 91 66 92 61 93 62 94 63 95 64 96 65 97
REMARK SMILES IDX 44 98 45 99 53 100 46 101 52 102 47 103 48 104 49 105 50 106
REMARK SMILES IDX 51 107
REMARK H PARENT 9 8 92 39 16 44 72 63 42 74
REMARK Flexibility Score: inf
ROOT
ATOM      1  C   UNL A   1      37.124  33.839  35.361  1.00  0.00     0.002 C 
ENDROOT
BRANCH   1   2
ATOM      2  C   UNL A   1      38.051  32.750  34.842  1.00  0.00     0.002 C 
BRANCH   2   3
ATOM      3  C   UNL A   1      38.049  31.358  35.503  1.00  0.00     0.021 C 
BRANCH   3   4
ATOM      4  C   UNL A   1      39.355  30.593  35.714  1.00  0.00     0.116 C 
BRANCH   4   5
ATOM      5  N   UNL A   1      40.624  31.266  35.572  1.00  0.00    -0.356 N 
ATOM      6  C   UNL A   1      41.831  30.898  36.147  1.00  0.00     0.226 C 
ATOM      7  O   UNL A   1      41.910  30.556  37.327  1.00  0.00    -0.274 OA
ATOM      8  H   UNL A   1      40.633  32.073  35.008  1.00  0.00     0.163 HD
BRANCH   6   9
ATOM      9  C   UNL A   1      43.063  30.769  35.170  1.00  0.00     0.056 C 
ATOM     10  C   UNL A   1      42.288  28.183  32.161  1.00  0.00     0.011 C 
ATOM     11  C   UNL A   1      41.558  28.982  33.257  1.00  0.00    -0.035 C 
ATOM     12  C   UNL A   1      40.068  28.537  33.163  1.00  0.00     0.011 C 
ATOM     13  C   UNL A   1      42.092  28.502  34.620  1.00  0.00     0.007 C 
ATOM     14  C   UNL A   1      41.724  30.546  32.980  1.00  0.00     0.015 C 
ATOM     15  C   UNL A   1      43.334  29.252  35.053  1.00  0.00     0.018 C 
ATOM     16  C   UNL A   1      42.829  31.383  33.768  1.00  0.00     0.031 C 
ATOM     17  C   UNL A   1      42.661  32.954  33.982  1.00  0.00    -0.064 C 
ATOM     18  C   UNL A   1      44.365  31.374  35.731  1.00  0.00     0.018 C 
ATOM     19  C   UNL A   1      43.761  33.736  34.793  1.00  0.00    -0.006 C 
ATOM     20  C   UNL A   1      41.545  33.594  33.593  1.00  0.00    -0.027 C 
ATOM     21  C   UNL A   1      44.280  32.872  35.967  1.00  0.00     0.013 C 
ATOM     22  C   UNL A   1      44.945  33.894  33.782  1.00  0.00     0.017 C 
ATOM     23  C   UNL A   1      43.298  35.242  35.361  1.00  0.00    -0.020 C 
ATOM     24  C   UNL A   1      41.051  34.877  34.183  1.00  0.00     0.032 C 
ATOM     25  C   UNL A   1      41.742  35.361  35.489  1.00  0.00     0.006 C 
ATOM     26  C   UNL A   1      43.991  35.746  36.694  1.00  0.00     0.008 C 
ATOM     27  C   UNL A   1      43.691  36.350  34.305  1.00  0.00     0.012 C 
ATOM     28  C   UNL A   1      41.008  35.121  36.917  1.00  0.00    -0.025 C 
ATOM     29  C   UNL A   1      43.053  36.280  37.813  1.00  0.00     0.005 C 
ATOM     30  C   UNL A   1      39.859  36.175  36.909  1.00  0.00     0.012 C 
ATOM     31  C   UNL A   1      40.389  33.754  37.161  1.00  0.00     0.010 C 
ATOM     32  C   UNL A   1      41.998  35.226  38.122  1.00  0.00     0.003 C 
ATOM     33  C   UNL A   1      39.640  33.557  38.482  1.00  0.00     0.033 C 
ATOM     34  C   UNL A   1      41.344  35.142  39.570  1.00  0.00    -0.006 C 
ATOM     35  C   UNL A   1      40.546  33.803  39.676  1.00  0.00     0.120 C 
ATOM     36  C   UNL A   1      40.445  36.333  39.948  1.00  0.00     0.014 C 
ATOM     37  C   UNL A   1      42.444  35.067  40.656  1.00  0.00     0.014 C 
BRANCH  35  38
ATOM     38  O   UNL A   1      39.762  33.752  40.868  1.00  0.00    -0.393 OA
ATOM     39  H   UNL A   1      38.873  34.097  40.686  1.00  0.00     0.210 HD
ENDBRANCH  35  38
ENDBRANCH   6   9
ENDBRANCH   4   5
ENDBRANCH   3   4
ENDBRANCH   2   3
ENDBRANCH   1   2
BRANCH   1  40
ATOM     40  C   UNL A   1      35.774  33.942  34.675  1.00  0.00     0.021 C 
BRANCH  40  41
ATOM     41  C   UNL A   1      35.807  34.489  33.259  1.00  0.00     0.116 C 
BRANCH  41  42
ATOM     42  N   UNL A   1      34.867  33.875  32.336  1.00  0.00    -0.352 N 
ATOM     43  C   UNL A   1      35.207  33.066  31.262  1.00  0.00     0.251 C 
ATOM     44  H   UNL A   1      33.909  34.048  32.484  1.00  0.00     0.163 HD
ATOM     45  O   UNL A   1      34.384  32.570  30.534  1.00  0.00    -0.269 OA
BRANCH  43  46
ATOM     46  C   UNL A   1      36.659  32.887  31.036  1.00  0.00     0.039 A 
ATOM     47  C   UNL A   1      37.343  31.982  31.846  1.00  0.00     0.014 A 
ATOM     48  C   UNL A   1      37.246  33.431  29.890  1.00  0.00     0.014 A 
ATOM     49  C   UNL A   1      38.624  31.579  31.474  1.00  0.00     0.010 A 
ATOM     50  C   UNL A   1      38.492  32.967  29.484  1.00  0.00     0.010 A 
ATOM     51  C   UNL A   1      39.193  32.042  30.275  1.00  0.00    -0.014 A 
BRANCH  51  52
ATOM     52  C   UNL A   1      40.541  31.588  29.858  1.00  0.00     0.031 A 
ATOM     53  C   UNL A   1      41.693  32.554  29.909  1.00  0.00     0.074 A 
ATOM     54  C   UNL A   1      40.722  30.329  29.409  1.00  0.00     0.049 A 
ATOM     55  N   UNL A   1      42.947  32.355  29.599  1.00  0.00    -0.248 NA
ATOM     56  C   UNL A   1      41.390  33.929  30.339  1.00  0.00     0.031 C 
ATOM     57  C   UNL A   1      39.669  29.320  29.264  1.00  0.00     0.029 A 
ATOM     58  N   UNL A   1      41.858  29.681  28.996  1.00  0.00    -0.354 N 
ATOM     59  C   UNL A   1      43.575  33.581  29.782  1.00  0.00     0.074 A 
ATOM     60  C   UNL A   1      42.558  34.529  30.173  1.00  0.00     0.031 C 
ATOM     61  C   UNL A   1      40.216  28.173  28.824  1.00  0.00     0.029 A 
ATOM     62  C   UNL A   1      41.649  28.373  28.628  1.00  0.00     0.049 A 
ATOM     63  H   UNL A   1      42.742  30.114  28.964  1.00  0.00     0.167 HD
ATOM     64  C   UNL A   1      44.888  33.884  29.659  1.00  0.00     0.031 A 
ATOM     65  C   UNL A   1      42.515  27.440  28.187  1.00  0.00     0.031 A 
ATOM     66  C   UNL A   1      45.898  32.931  29.292  1.00  0.00     0.049 A 
ATOM     67  C   UNL A   1      43.974  27.796  28.077  1.00  0.00     0.074 A 
ATOM     68  C   UNL A   1      47.266  33.116  29.209  1.00  0.00     0.029 A 
ATOM     69  N   UNL A   1      45.648  31.611  28.946  1.00  0.00    -0.354 N 
ATOM     70  N   UNL A   1      44.564  28.937  28.340  1.00  0.00    -0.248 NA
ATOM     71  C   UNL A   1      44.885  26.735  27.625  1.00  0.00     0.031 C 
ATOM     72  C   UNL A   1      47.838  31.922  28.760  1.00  0.00     0.029 A 
ATOM     73  C   UNL A   1      46.833  30.977  28.621  1.00  0.00     0.049 A 
ATOM     74  H   UNL A   1      44.759  31.189  28.932  1.00  0.00     0.167 HD
ATOM     75  C   UNL A   1      45.918  28.727  28.107  1.00  0.00     0.074 A 
ATOM     76  C   UNL A   1      46.062  27.343  27.701  1.00  0.00     0.031 C 
ATOM     77  C   UNL A   1      46.952  29.598  28.218  1.00  0.00     0.031 A 
BRANCH  64  78
ATOM     78  C   UNL A   1      45.301  35.307  29.924  1.00  0.00    -0.014 A 
ATOM     79  C   UNL A   1      45.691  35.726  31.209  1.00  0.00     0.010 A 
ATOM     80  C   UNL A   1      45.329  36.232  28.864  1.00  0.00     0.010 A 
ATOM     81  C   UNL A   1      46.065  37.051  31.439  1.00  0.00     0.020 A 
ATOM     82  C   UNL A   1      45.731  37.552  29.084  1.00  0.00     0.020 A 
ATOM     83  C   UNL A   1      46.082  37.957  30.374  1.00  0.00     0.054 A 
BRANCH  83  84
ATOM     84  S   UNL A   1      46.604  39.664  30.694  1.00  0.00     0.124 S 
ATOM     85  O   UNL A   1      46.101  40.358  29.512  1.00  0.00    -0.237 OA
ATOM     86  O   UNL A   1      45.920  39.978  31.946  1.00  0.00    -0.237 OA
ATOM     87  O   UNL A   1      48.059  39.570  30.790  1.00  0.00    -0.744 OA
ENDBRANCH  83  84
ENDBRANCH  64  78
BRANCH  65  88
ATOM     88  C   UNL A   1      42.030  26.076  27.835  1.00  0.00    -0.014 A 
ATOM     89  C   UNL A   1      41.390  25.834  26.607  1.00  0.00     0.010 A 
ATOM     90  C   UNL A   1      42.213  25.006  28.730  1.00  0.00     0.010 A 
ATOM     91  C   UNL A   1      40.925  24.554  26.288  1.00  0.00     0.020 A 
ATOM     92  C   UNL A   1      41.774  23.719  28.404  1.00  0.00     0.020 A 
ATOM     93  C   UNL A   1      41.121  23.503  27.188  1.00  0.00     0.054 A 
BRANCH  93  94
ATOM     94  S   UNL A   1      40.555  21.840  26.735  1.00  0.00     0.124 S 
ATOM     95  O   UNL A   1      41.526  21.456  25.715  1.00  0.00    -0.237 OA
ATOM     96  O   UNL A   1      40.648  21.118  28.001  1.00  0.00    -0.237 OA
ATOM     97  O   UNL A   1      39.194  22.062  26.252  1.00  0.00    -0.744 OA
ENDBRANCH  93  94
ENDBRANCH  65  88
BRANCH  77  98
ATOM     98  C   UNL A   1      48.332  29.078  27.922  1.00  0.00    -0.014 A 
ATOM     99  C   UNL A   1      49.127  28.509  28.932  1.00  0.00     0.010 A 
ATOM    100  C   UNL A   1      48.811  29.099  26.599  1.00  0.00     0.010 A 
ATOM    101  C   UNL A   1      50.392  27.999  28.629  1.00  0.00     0.020 A 
ATOM    102  C   UNL A   1      50.062  28.563  26.287  1.00  0.00     0.020 A 
ATOM    103  C   UNL A   1      50.851  28.029  27.309  1.00  0.00     0.054 A 
BRANCH 103 104
ATOM    104  S   UNL A   1      52.476  27.317  26.933  1.00  0.00     0.124 S 
ATOM    105  O   UNL A   1      53.267  28.509  26.641  1.00  0.00    -0.237 OA
ATOM    106  O   UNL A   1      52.818  26.625  28.173  1.00  0.00    -0.237 OA
ATOM    107  O   UNL A   1      52.217  26.444  25.791  1.00  0.00    -0.744 OA
ENDBRANCH 103 104
ENDBRANCH  77  98
ENDBRANCH  51  52
ENDBRANCH  43  46
ENDBRANCH  41  42
ENDBRANCH  40  41
ENDBRANCH   1  40
TORSDOF 17
ENDMDL
MODEL 3
REMARK VINA RESULT:      -8.6      0.595      7.531
REMARK SMILES CC1(C)CC[C@@]2(C(=O)NCCCCCCNC(=O)c3ccc(-c4c5nc(c(-c6ccc(S(=O)(=O)[O-])cc6)c6ccc([nH]6)c(-c6ccc(S(=O)(=O)[O-])cc6)c6nc(c(-c7ccc(S(=O)(=O)[O-])cc7)c7ccc4[nH]7)C=C6)C=C5)cc3)CC[C@@]3(C)C(=CC[C@H]4[C@@]5(C)CC[C@H](O)C(C)(C)[C@@H]5CC[C@]43C)[C@@H]2C1
REMARK SMILES IDX 13 1 12 2 11 3 10 4 9 5 7 6 8 7 6 9 1 10 2 11 3 12 4 13
REMARK SMILES IDX 102 14 5 15 101 16 83 17 79 18 81 19 84 20 80 21 82 22 99 23
REMARK SMILES IDX 85 24 86 25 98 26 100 27 87 28 97 29 88 30 89 31 96 32 90 33
REMARK SMILES IDX 93 34 91 35 94 36 95 37 92 38 14 40 15 41 16 42 17 43 18 45
REMARK SMILES IDX 19 46 20 47 78 48 21 49 77 50 22 51 23 52 24 53 71 54 25 55
REMARK SMILES IDX 76 56 70 57 72 58 26 59 75 60 69 61 68 62 27 64 57 65 38 66
REMARK SMILES IDX 56 67 39 68 42 69 55 70 73 71 40 72 41 73 54 75 74 76 43 77
REMARK SMILES IDX 28 78 29 79 37 80 30 81 36 82 31 83 32 84 33 85 34 86 35 87
REMARK SMILES IDX 58 88 59 89 67 90 60 91 66 92 61 93 62 94 63 95 64 96 65 97
REMARK SMILES IDX 44 98 45 99 53 100 46 101 52 102 47 103 48 104 49 105 50 106
REMARK SMILES IDX 51 107
REMARK H PARENT 9 8 92 39 16 44 72 63 42 74
REMARK Flexibility Score: inf
ROOT
ATOM      1  C   UNL A   1      41.353  28.927  26.560  1.00  0.00     0.002 C 
ENDROOT
BRANCH   1   2
ATOM      2  C   UNL A   1      42.347  29.939  27.112  1.00  0.00     0.002 C 
BRANCH   2   3
ATOM      3  C   UNL A   1      43.764  29.487  27.512  1.00  0.00     0.021 C 
BRANCH   3   4
ATOM      4  C   UNL A   1      44.453  30.075  28.743  1.00  0.00     0.116 C 
BRANCH   4   5
ATOM      5  N   UNL A   1      45.756  29.601  29.144  1.00  0.00    -0.356 N 
ATOM      6  C   UNL A   1      46.981  30.169  28.831  1.00  0.00     0.226 C 
ATOM      7  O   UNL A   1      47.245  30.557  27.693  1.00  0.00    -0.274 OA
ATOM      8  H   UNL A   1      45.777  28.787  29.697  1.00  0.00     0.163 HD
BRANCH   6   9
ATOM      9  C   UNL A   1      47.952  30.454  30.041  1.00  0.00     0.056 C 
ATOM     10  C   UNL A   1      46.020  32.307  33.071  1.00  0.00     0.011 C 
ATOM     11  C   UNL A   1      45.725  31.520  31.780  1.00  0.00    -0.035 C 
ATOM     12  C   UNL A   1      44.176  31.566  31.618  1.00  0.00     0.011 C 
ATOM     13  C   UNL A   1      46.330  32.309  30.603  1.00  0.00     0.007 C 
ATOM     14  C   UNL A   1      46.256  30.022  31.932  1.00  0.00     0.015 C 
ATOM     15  C   UNL A   1      47.782  31.958  30.355  1.00  0.00     0.018 C 
ATOM     16  C   UNL A   1      47.662  29.606  31.303  1.00  0.00     0.031 C 
ATOM     17  C   UNL A   1      47.960  28.090  30.910  1.00  0.00    -0.064 C 
ATOM     18  C   UNL A   1      49.445  30.276  29.695  1.00  0.00     0.018 C 
ATOM     19  C   UNL A   1      49.349  27.728  30.262  1.00  0.00    -0.006 C 
ATOM     20  C   UNL A   1      47.009  27.145  31.005  1.00  0.00    -0.027 C 
ATOM     21  C   UNL A   1      49.805  28.854  29.303  1.00  0.00     0.013 C 
ATOM     22  C   UNL A   1      50.347  27.721  31.469  1.00  0.00     0.017 C 
ATOM     23  C   UNL A   1      49.409  26.253  29.471  1.00  0.00    -0.020 C 
ATOM     24  C   UNL A   1      46.984  25.879  30.208  1.00  0.00     0.032 C 
ATOM     25  C   UNL A   1      47.987  25.775  29.025  1.00  0.00     0.006 C 
ATOM     26  C   UNL A   1      50.426  26.133  28.261  1.00  0.00     0.008 C 
ATOM     27  C   UNL A   1      49.904  25.135  30.473  1.00  0.00     0.012 C 
ATOM     28  C   UNL A   1      47.464  26.031  27.510  1.00  0.00    -0.025 C 
ATOM     29  C   UNL A   1      49.866  25.553  26.932  1.00  0.00     0.005 C 
ATOM     30  C   UNL A   1      46.656  24.737  27.187  1.00  0.00     0.012 C 
ATOM     31  C   UNL A   1      46.551  27.225  27.280  1.00  0.00     0.010 C 
ATOM     32  C   UNL A   1      48.633  26.348  26.521  1.00  0.00     0.003 C 
ATOM     33  C   UNL A   1      46.008  27.420  25.862  1.00  0.00     0.033 C 
ATOM     34  C   UNL A   1      48.233  26.477  24.987  1.00  0.00    -0.006 C 
ATOM     35  C   UNL A   1      47.132  27.580  24.854  1.00  0.00     0.120 C 
ATOM     36  C   UNL A   1      47.762  25.170  24.325  1.00  0.00     0.014 C 
ATOM     37  C   UNL A   1      49.437  26.978  24.155  1.00  0.00     0.014 C 
BRANCH  35  38
ATOM     38  O   UNL A   1      46.574  27.609  23.540  1.00  0.00    -0.393 OA
ATOM     39  H   UNL A   1      46.168  26.750  23.342  1.00  0.00     0.210 HD
ENDBRANCH  35  38
ENDBRANCH   6   9
ENDBRANCH   4   5
ENDBRANCH   3   4
ENDBRANCH   2   3
ENDBRANCH   1   2
BRANCH   1  40
ATOM     40  C   UNL A   1      41.944  27.819  25.708  1.00  0.00     0.021 C 
BRANCH  40  41
ATOM     41  C   UNL A   1      41.136  26.534  25.665  1.00  0.00     0.116 C 
BRANCH  41  42
ATOM     42  N   UNL A   1      41.920  25.310  25.644  1.00  0.00    -0.352 N 
ATOM     43  C   UNL A   1      42.471  24.690  26.754  1.00  0.00     0.251 C 
ATOM     44  H   UNL A   1      42.073  24.886  24.768  1.00  0.00     0.163 HD
ATOM     45  O   UNL A   1      43.103  23.666  26.681  1.00  0.00    -0.269 OA
BRANCH  43  46
ATOM     46  C   UNL A   1      42.275  25.396  28.040  1.00  0.00     0.039 A 
ATOM     47  C   UNL A   1      43.381  26.009  28.629  1.00  0.00     0.014 A 
ATOM     48  C   UNL A   1      40.977  25.634  28.500  1.00  0.00     0.014 A 
ATOM     49  C   UNL A   1      43.176  26.913  29.667  1.00  0.00     0.010 A 
ATOM     50  C   UNL A   1      40.775  26.594  29.484  1.00  0.00     0.010 A 
ATOM     51  C   UNL A   1      41.873  27.237  30.080  1.00  0.00    -0.014 A 
BRANCH  51  52
ATOM     52  C   UNL A   1      41.649  28.227  31.161  1.00  0.00     0.031 A 
ATOM     53  C   UNL A   1      40.506  29.197  31.046  1.00  0.00     0.074 A 
ATOM     54  C   UNL A   1      42.483  28.272  32.220  1.00  0.00     0.049 A 
ATOM     55  N   UNL A   1      40.133  30.131  31.881  1.00  0.00    -0.248 NA
ATOM     56  C   UNL A   1      39.693  29.127  29.820  1.00  0.00     0.031 C 
ATOM     57  C   UNL A   1      43.657  27.417  32.414  1.00  0.00     0.029 A 
ATOM     58  N   UNL A   1      42.467  29.069  33.337  1.00  0.00    -0.354 N 
ATOM     59  C   UNL A   1      39.055  30.766  31.274  1.00  0.00     0.074 A 
ATOM     60  C   UNL A   1      38.870  30.151  29.980  1.00  0.00     0.031 C 
ATOM     61  C   UNL A   1      44.229  27.717  33.593  1.00  0.00     0.029 A 
ATOM     62  C   UNL A   1      43.483  28.801  34.224  1.00  0.00     0.049 A 
ATOM     63  H   UNL A   1      41.792  29.770  33.488  1.00  0.00     0.167 HD
ATOM     64  C   UNL A   1      38.273  31.755  31.763  1.00  0.00     0.031 A 
ATOM     65  C   UNL A   1      43.776  29.363  35.413  1.00  0.00     0.031 A 
ATOM     66  C   UNL A   1      38.448  32.346  33.061  1.00  0.00     0.049 A 
ATOM     67  C   UNL A   1      42.880  30.450  35.944  1.00  0.00     0.074 A 
ATOM     68  C   UNL A   1      37.668  33.304  33.683  1.00  0.00     0.029 A 
ATOM     69  N   UNL A   1      39.477  32.034  33.938  1.00  0.00    -0.354 N 
ATOM     70  N   UNL A   1      41.811  30.976  35.395  1.00  0.00    -0.248 NA
ATOM     71  C   UNL A   1      43.219  31.008  37.261  1.00  0.00     0.031 C 
ATOM     72  C   UNL A   1      38.257  33.610  34.913  1.00  0.00     0.029 A 
ATOM     73  C   UNL A   1      39.369  32.800  35.083  1.00  0.00     0.049 A 
ATOM     74  H   UNL A   1      40.181  31.366  33.768  1.00  0.00     0.167 HD
ATOM     75  C   UNL A   1      41.337  31.911  36.308  1.00  0.00     0.074 A 
ATOM     76  C   UNL A   1      42.225  31.865  37.453  1.00  0.00     0.031 C 
ATOM     77  C   UNL A   1      40.265  32.737  36.210  1.00  0.00     0.031 A 
BRANCH  64  78
ATOM     78  C   UNL A   1      37.159  32.259  30.885  1.00  0.00    -0.014 A 
ATOM     79  C   UNL A   1      35.845  31.776  31.026  1.00  0.00     0.010 A 
ATOM     80  C   UNL A   1      37.424  33.253  29.926  1.00  0.00     0.010 A 
ATOM     81  C   UNL A   1      34.825  32.250  30.199  1.00  0.00     0.020 A 
ATOM     82  C   UNL A   1      36.400  33.751  29.117  1.00  0.00     0.020 A 
ATOM     83  C   UNL A   1      35.108  33.234  29.248  1.00  0.00     0.054 A 
BRANCH  83  84
ATOM     84  S   UNL A   1      33.757  33.855  28.211  1.00  0.00     0.124 S 
ATOM     85  O   UNL A   1      32.875  34.466  29.201  1.00  0.00    -0.237 OA
ATOM     86  O   UNL A   1      34.441  34.788  27.319  1.00  0.00    -0.237 OA
ATOM     87  O   UNL A   1      33.233  32.653  27.567  1.00  0.00    -0.744 OA
ENDBRANCH  83  84
ENDBRANCH  64  78
BRANCH  65  88
ATOM     88  C   UNL A   1      44.959  28.897  36.190  1.00  0.00    -0.014 A 
ATOM     89  C   UNL A   1      44.839  27.862  37.135  1.00  0.00     0.010 A 
ATOM     90  C   UNL A   1      46.219  29.486  35.982  1.00  0.00     0.010 A 
ATOM     91  C   UNL A   1      45.950  27.439  37.871  1.00  0.00     0.020 A 
ATOM     92  C   UNL A   1      47.339  29.048  36.696  1.00  0.00     0.020 A 
ATOM     93  C   UNL A   1      47.195  28.034  37.645  1.00  0.00     0.054 A 
BRANCH  93  94
ATOM     94  S   UNL A   1      48.635  27.437  38.574  1.00  0.00     0.124 S 
ATOM     95  O   UNL A   1      48.879  26.139  37.954  1.00  0.00    -0.237 OA
ATOM     96  O   UNL A   1      49.635  28.466  38.303  1.00  0.00    -0.237 OA
ATOM     97  O   UNL A   1      48.157  27.393  39.954  1.00  0.00    -0.744 OA
ENDBRANCH  93  94
ENDBRANCH  65  88
BRANCH  77  98
ATOM     98  C   UNL A   1      39.975  33.638  37.379  1.00  0.00    -0.014 A 
ATOM     99  C   UNL A   1      40.336  34.996  37.357  1.00  0.00     0.010 A 
ATOM    100  C   UNL A   1      39.272  33.130  38.487  1.00  0.00     0.010 A 
ATOM    101  C   UNL A   1      40.026  35.824  38.439  1.00  0.00     0.020 A 
ATOM    102  C   UNL A   1      38.934  33.962  39.557  1.00  0.00     0.020 A 
ATOM    103  C   UNL A   1      39.327  35.302  39.531  1.00  0.00     0.054 A 
BRANCH 103 104
ATOM    104  S   UNL A   1      38.894  36.408  40.901  1.00  0.00     0.124 S 
ATOM    105  O   UNL A   1      38.494  37.622  40.194  1.00  0.00    -0.237 OA
ATOM    106  O   UNL A   1      37.815  35.686  41.570  1.00  0.00    -0.237 OA
ATOM    107  O   UNL A   1      40.133  36.513  41.667  1.00  0.00    -0.744 OA
ENDBRANCH 103 104
ENDBRANCH  77  98
ENDBRANCH  51  52
ENDBRANCH  43  46
ENDBRANCH  41  42
ENDBRANCH  40  41
ENDBRANCH   1  40
TORSDOF 17
ENDMDL
