MODEL 1
REMARK VINA RESULT:     -13.3      0.000      0.000
REMARK SMILES Cc1ccc([C@H](C)NC(=O)[C@H]2[C@@H]3CC[C@@H](C3)[C@@H]2C(=O)NCCCCCCNC(=O)c2ccc(-c3c4nc(c(-c5ccc(S(=O)(=O)[O-])cc5)c5ccc([nH]5)c(-c5ccc(S(=O)(=O)[O-])cc5)c5nc(c(-c6ccc(S(=O)(=O)[O-])cc6)c6ccc3[nH]6)C=C5)C=C4)cc2)cc1
REMARK SMILES IDX 23 1 22 2 21 3 20 4 18 5 19 6 17 8 11 9 12 10 13 11 16 12
REMARK SMILES IDX 15 13 14 14 9 15 8 16 10 18 6 19 7 20 5 21 1 22 2 23 3 24
REMARK SMILES IDX 91 25 4 26 90 27 24 28 25 29 26 30 27 31 28 32 29 34 30 35
REMARK SMILES IDX 31 36 89 37 32 38 88 39 33 40 34 41 35 42 82 43 36 44 87 45
REMARK SMILES IDX 81 46 83 47 37 48 86 49 80 50 79 51 38 53 68 54 49 55 67 56
REMARK SMILES IDX 50 57 53 58 66 59 84 60 51 61 52 62 65 64 85 65 54 66 39 67
REMARK SMILES IDX 40 68 48 69 41 70 47 71 42 72 43 73 44 74 45 75 46 76 69 77
REMARK SMILES IDX 70 78 78 79 71 80 77 81 72 82 73 83 74 84 75 85 76 86 55 87
REMARK SMILES IDX 56 88 64 89 57 90 63 91 58 92 59 93 60 94 61 95 62 96
REMARK H PARENT 20 7 8 17 27 33 83 52 53 63
REMARK Flexibility Score: inf
ROOT
ATOM      1  C   UNL A   1      31.246  29.326  24.593  1.00  0.00     0.002 C 
ENDROOT
BRANCH   1   2
ATOM      2  C   UNL A   1      32.263  28.950  23.501  1.00  0.00     0.021 C 
BRANCH   2   3
ATOM      3  C   UNL A   1      33.512  28.231  24.014  1.00  0.00     0.116 C 
BRANCH   3   4
ATOM      4  N   UNL A   1      33.829  27.069  23.206  1.00  0.00    -0.356 N 
ATOM      5  C   UNL A   1      33.624  25.741  23.384  1.00  0.00     0.224 C 
ATOM      6  O   UNL A   1      33.933  25.011  22.434  1.00  0.00    -0.275 OA
ATOM      7  H   UNL A   1      34.282  27.288  22.360  1.00  0.00     0.163 HD
BRANCH   5   8
ATOM      8  C   UNL A   1      32.905  25.157  24.603  1.00  0.00     0.094 C 
ATOM      9  C   UNL A   1      32.840  23.637  24.795  1.00  0.00     0.094 C 
ATOM     10  C   UNL A   1      31.325  23.339  24.963  1.00  0.00     0.002 C 
ATOM     11  C   UNL A   1      30.662  23.443  23.576  1.00  0.00     0.005 C 
ATOM     12  C   UNL A   1      30.778  24.598  25.626  1.00  0.00     0.009 C 
ATOM     13  C   UNL A   1      31.382  25.525  24.572  1.00  0.00     0.002 C 
ATOM     14  C   UNL A   1      30.701  24.956  23.303  1.00  0.00     0.005 C 
BRANCH   9  15
ATOM     15  C   UNL A   1      33.662  22.973  25.901  1.00  0.00     0.224 C 
ATOM     16  N   UNL A   1      34.557  21.972  25.773  1.00  0.00    -0.349 N 
ATOM     17  H   UNL A   1      34.998  21.763  26.628  1.00  0.00     0.164 HD
ATOM     18  O   UNL A   1      33.547  23.415  27.054  1.00  0.00    -0.275 OA
BRANCH  16  19
ATOM     19  C   UNL A   1      35.038  21.120  24.693  1.00  0.00     0.109 C 
ATOM     20  C   UNL A   1      36.569  21.066  24.716  1.00  0.00     0.036 C 
BRANCH  19  21
ATOM     21  C   UNL A   1      34.445  19.723  24.775  1.00  0.00    -0.026 A 
ATOM     22  C   UNL A   1      32.873  15.704  25.085  1.00  0.00     0.044 C 
ATOM     23  C   UNL A   1      33.409  17.101  24.985  1.00  0.00    -0.051 A 
ATOM     24  C   UNL A   1      34.755  17.308  24.675  1.00  0.00     0.004 A 
ATOM     25  C   UNL A   1      32.580  18.210  25.178  1.00  0.00     0.004 A 
ATOM     26  C   UNL A   1      35.268  18.603  24.578  1.00  0.00     0.006 A 
ATOM     27  C   UNL A   1      33.092  19.507  25.074  1.00  0.00     0.006 A 
ENDBRANCH  19  21
ENDBRANCH  16  19
ENDBRANCH   9  15
ENDBRANCH   5   8
ENDBRANCH   3   4
ENDBRANCH   2   3
ENDBRANCH   1   2
BRANCH   1  28
ATOM     28  C   UNL A   1      31.716  29.173  26.050  1.00  0.00     0.002 C 
BRANCH  28  29
ATOM     29  C   UNL A   1      32.409  30.393  26.668  1.00  0.00     0.021 C 
BRANCH  29  30
ATOM     30  C   UNL A   1      33.789  30.096  27.247  1.00  0.00     0.116 C 
BRANCH  30  31
ATOM     31  N   UNL A   1      34.580  31.281  27.524  1.00  0.00    -0.352 N 
ATOM     32  C   UNL A   1      35.592  31.304  28.470  1.00  0.00     0.251 C 
ATOM     33  H   UNL A   1      34.389  32.104  27.020  1.00  0.00     0.163 HD
ATOM     34  O   UNL A   1      35.750  32.209  29.276  1.00  0.00    -0.269 OA
BRANCH  32  35
ATOM     35  C   UNL A   1      36.559  30.188  28.384  1.00  0.00     0.039 A 
ATOM     36  C   UNL A   1      36.788  29.414  29.525  1.00  0.00     0.014 A 
ATOM     37  C   UNL A   1      37.370  30.059  27.258  1.00  0.00     0.014 A 
ATOM     38  C   UNL A   1      37.908  28.577  29.574  1.00  0.00     0.010 A 
ATOM     39  C   UNL A   1      38.518  29.280  27.340  1.00  0.00     0.010 A 
ATOM     40  C   UNL A   1      38.819  28.562  28.509  1.00  0.00    -0.014 A 
BRANCH  40  41
ATOM     41  C   UNL A   1      40.163  27.976  28.617  1.00  0.00     0.031 A 
ATOM     42  C   UNL A   1      40.470  26.565  28.236  1.00  0.00     0.074 A 
ATOM     43  C   UNL A   1      41.209  28.697  29.090  1.00  0.00     0.049 A 
ATOM     44  N   UNL A   1      41.376  25.843  28.828  1.00  0.00    -0.248 NA
ATOM     45  C   UNL A   1      39.772  25.848  27.173  1.00  0.00     0.031 C 
ATOM     46  C   UNL A   1      42.621  28.339  28.960  1.00  0.00     0.029 A 
ATOM     47  N   UNL A   1      41.221  29.768  29.983  1.00  0.00    -0.354 N 
ATOM     48  C   UNL A   1      41.572  24.716  28.063  1.00  0.00     0.074 A 
ATOM     49  C   UNL A   1      40.497  24.725  27.093  1.00  0.00     0.031 C 
ATOM     50  C   UNL A   1      43.303  28.913  29.958  1.00  0.00     0.029 A 
ATOM     51  C   UNL A   1      42.344  29.597  30.808  1.00  0.00     0.049 A 
ATOM     52  H   UNL A   1      40.567  30.502  30.028  1.00  0.00     0.167 HD
ATOM     53  C   UNL A   1      42.692  23.947  28.188  1.00  0.00     0.031 A 
ATOM     54  C   UNL A   1      42.353  29.619  32.170  1.00  0.00     0.031 A 
ATOM     55  C   UNL A   1      43.670  24.469  29.133  1.00  0.00     0.049 A 
ATOM     56  C   UNL A   1      43.081  28.465  32.813  1.00  0.00     0.074 A 
ATOM     57  C   UNL A   1      44.860  25.157  28.958  1.00  0.00     0.029 A 
ATOM     58  N   UNL A   1      43.415  24.460  30.495  1.00  0.00    -0.354 N 
ATOM     59  N   UNL A   1      43.491  27.417  32.161  1.00  0.00    -0.248 NA
ATOM     60  C   UNL A   1      43.319  28.351  34.252  1.00  0.00     0.031 C 
ATOM     61  C   UNL A   1      45.341  25.544  30.229  1.00  0.00     0.029 A 
ATOM     62  C   UNL A   1      44.426  25.114  31.172  1.00  0.00     0.049 A 
ATOM     63  H   UNL A   1      42.627  24.047  30.918  1.00  0.00     0.167 HD
ATOM     64  C   UNL A   1      43.975  26.487  33.044  1.00  0.00     0.074 A 
ATOM     65  C   UNL A   1      43.884  27.133  34.339  1.00  0.00     0.031 C 
ATOM     66  C   UNL A   1      44.376  25.255  32.618  1.00  0.00     0.031 A 
BRANCH  53  67
ATOM     67  C   UNL A   1      43.035  22.861  27.195  1.00  0.00    -0.014 A 
ATOM     68  C   UNL A   1      42.375  21.616  27.260  1.00  0.00     0.010 A 
ATOM     69  C   UNL A   1      44.023  22.999  26.203  1.00  0.00     0.010 A 
ATOM     70  C   UNL A   1      42.774  20.522  26.485  1.00  0.00     0.020 A 
ATOM     71  C   UNL A   1      44.458  21.901  25.443  1.00  0.00     0.020 A 
ATOM     72  C   UNL A   1      43.845  20.661  25.609  1.00  0.00     0.054 A 
BRANCH  72  73
ATOM     73  S   UNL A   1      44.468  19.186  24.760  1.00  0.00     0.124 S 
ATOM     74  O   UNL A   1      44.517  19.616  23.365  1.00  0.00    -0.237 OA
ATOM     75  O   UNL A   1      45.764  18.980  25.400  1.00  0.00    -0.237 OA
ATOM     76  O   UNL A   1      43.458  18.171  25.052  1.00  0.00    -0.744 OA
ENDBRANCH  72  73
ENDBRANCH  53  67
BRANCH  54  77
ATOM     77  C   UNL A   1      41.220  30.341  32.793  1.00  0.00    -0.014 A 
ATOM     78  C   UNL A   1      40.047  29.607  33.061  1.00  0.00     0.010 A 
ATOM     79  C   UNL A   1      41.434  31.565  33.447  1.00  0.00     0.010 A 
ATOM     80  C   UNL A   1      39.183  30.009  34.078  1.00  0.00     0.020 A 
ATOM     81  C   UNL A   1      40.565  31.972  34.466  1.00  0.00     0.020 A 
ATOM     82  C   UNL A   1      39.484  31.155  34.815  1.00  0.00     0.054 A 
BRANCH  82  83
ATOM     83  S   UNL A   1      38.553  31.453  36.346  1.00  0.00     0.124 S 
ATOM     84  O   UNL A   1      37.478  32.332  35.892  1.00  0.00    -0.237 OA
ATOM     85  O   UNL A   1      38.145  30.098  36.720  1.00  0.00    -0.237 OA
ATOM     86  O   UNL A   1      39.539  32.065  37.228  1.00  0.00    -0.744 OA
ENDBRANCH  82  83
ENDBRANCH  54  77
BRANCH  66  87
ATOM     87  C   UNL A   1      44.821  24.097  33.477  1.00  0.00    -0.014 A 
ATOM     88  C   UNL A   1      44.002  23.017  33.837  1.00  0.00     0.010 A 
ATOM     89  C   UNL A   1      46.183  24.022  33.862  1.00  0.00     0.010 A 
ATOM     90  C   UNL A   1      44.500  21.939  34.586  1.00  0.00     0.020 A 
ATOM     91  C   UNL A   1      46.698  22.937  34.580  1.00  0.00     0.020 A 
ATOM     92  C   UNL A   1      45.844  21.906  34.955  1.00  0.00     0.054 A 
BRANCH  92  93
ATOM     93  S   UNL A   1      46.515  20.481  35.853  1.00  0.00     0.124 S 
ATOM     94  O   UNL A   1      45.931  20.656  37.181  1.00  0.00    -0.237 OA
ATOM     95  O   UNL A   1      46.009  19.338  35.096  1.00  0.00    -0.237 OA
ATOM     96  O   UNL A   1      47.959  20.682  35.768  1.00  0.00    -0.744 OA
ENDBRANCH  92  93
ENDBRANCH  66  87
ENDBRANCH  40  41
ENDBRANCH  32  35
ENDBRANCH  30  31
ENDBRANCH  29  30
ENDBRANCH  28  29
ENDBRANCH   1  28
TORSDOF 19
ENDMDL
MODEL 2
REMARK VINA RESULT:     -13.2      1.572      3.224
REMARK SMILES Cc1ccc([C@H](C)NC(=O)[C@H]2[C@@H]3CC[C@@H](C3)[C@@H]2C(=O)NCCCCCCNC(=O)c2ccc(-c3c4nc(c(-c5ccc(S(=O)(=O)[O-])cc5)c5ccc([nH]5)c(-c5ccc(S(=O)(=O)[O-])cc5)c5nc(c(-c6ccc(S(=O)(=O)[O-])cc6)c6ccc3[nH]6)C=C5)C=C4)cc2)cc1
REMARK SMILES IDX 23 1 22 2 21 3 20 4 18 5 19 6 17 8 11 9 12 10 13 11 16 12
REMARK SMILES IDX 15 13 14 14 9 15 8 16 10 18 6 19 7 20 5 21 1 22 2 23 3 24
REMARK SMILES IDX 91 25 4 26 90 27 24 28 25 29 26 30 27 31 28 32 29 34 30 35
REMARK SMILES IDX 31 36 89 37 32 38 88 39 33 40 34 41 35 42 82 43 36 44 87 45
REMARK SMILES IDX 81 46 83 47 37 48 86 49 80 50 79 51 38 53 68 54 49 55 67 56
REMARK SMILES IDX 50 57 53 58 66 59 84 60 51 61 52 62 65 64 85 65 54 66 39 67
REMARK SMILES IDX 40 68 48 69 41 70 47 71 42 72 43 73 44 74 45 75 46 76 69 77
REMARK SMILES IDX 70 78 78 79 71 80 77 81 72 82 73 83 74 84 75 85 76 86 55 87
REMARK SMILES IDX 56 88 64 89 57 90 63 91 58 92 59 93 60 94 61 95 62 96
REMARK H PARENT 20 7 8 17 27 33 83 52 53 63
REMARK Flexibility Score: inf
ROOT
ATOM      1  C   UNL A   1      33.626  27.964  25.437  1.00  0.00     0.002 C 
ENDROOT
BRANCH   1   2
ATOM      2  C   UNL A   1      33.344  26.651  26.186  1.00  0.00     0.021 C 
BRANCH   2   3
ATOM      3  C   UNL A   1      34.048  25.423  25.607  1.00  0.00     0.116 C 
BRANCH   3   4
ATOM      4  N   UNL A   1      34.037  25.436  24.156  1.00  0.00    -0.356 N 
ATOM      5  C   UNL A   1      34.294  24.484  23.225  1.00  0.00     0.224 C 
ATOM      6  O   UNL A   1      34.089  24.805  22.049  1.00  0.00    -0.275 OA
ATOM      7  H   UNL A   1      33.793  26.309  23.771  1.00  0.00     0.163 HD
BRANCH   5   8
ATOM      8  C   UNL A   1      34.655  23.039  23.579  1.00  0.00     0.094 C 
ATOM      9  C   UNL A   1      34.227  22.455  24.932  1.00  0.00     0.094 C 
ATOM     10  C   UNL A   1      35.549  21.921  25.549  1.00  0.00     0.002 C 
ATOM     11  C   UNL A   1      36.365  23.129  26.047  1.00  0.00     0.005 C 
ATOM     12  C   UNL A   1      36.376  21.507  24.338  1.00  0.00     0.009 C 
ATOM     13  C   UNL A   1      36.210  22.862  23.649  1.00  0.00     0.002 C 
ATOM     14  C   UNL A   1      36.824  23.782  24.733  1.00  0.00     0.005 C 
BRANCH   9  15
ATOM     15  C   UNL A   1      33.121  21.401  24.990  1.00  0.00     0.224 C 
ATOM     16  N   UNL A   1      31.922  21.499  25.600  1.00  0.00    -0.349 N 
ATOM     17  H   UNL A   1      31.363  20.705  25.440  1.00  0.00     0.164 HD
ATOM     18  O   UNL A   1      33.300  20.337  24.378  1.00  0.00    -0.275 OA
BRANCH  16  19
ATOM     19  C   UNL A   1      31.241  22.482  26.434  1.00  0.00     0.109 C 
ATOM     20  C   UNL A   1      32.137  22.874  27.613  1.00  0.00     0.036 C 
BRANCH  19  21
ATOM     21  C   UNL A   1      30.830  23.707  25.634  1.00  0.00    -0.026 A 
ATOM     22  C   UNL A   1      29.589  27.108  23.265  1.00  0.00     0.044 C 
ATOM     23  C   UNL A   1      30.012  25.933  24.095  1.00  0.00    -0.051 A 
ATOM     24  C   UNL A   1      30.506  24.784  23.472  1.00  0.00     0.004 A 
ATOM     25  C   UNL A   1      29.938  25.969  25.491  1.00  0.00     0.004 A 
ATOM     26  C   UNL A   1      30.904  23.683  24.233  1.00  0.00     0.006 A 
ATOM     27  C   UNL A   1      30.343  24.868  26.253  1.00  0.00     0.006 A 
ENDBRANCH  19  21
ENDBRANCH  16  19
ENDBRANCH   9  15
ENDBRANCH   5   8
ENDBRANCH   3   4
ENDBRANCH   2   3
ENDBRANCH   1   2
BRANCH   1  28
ATOM     28  C   UNL A   1      32.502  29.016  25.446  1.00  0.00     0.002 C 
BRANCH  28  29
ATOM     29  C   UNL A   1      32.767  30.279  26.272  1.00  0.00     0.021 C 
BRANCH  29  30
ATOM     30  C   UNL A   1      33.800  30.093  27.380  1.00  0.00     0.116 C 
BRANCH  30  31
ATOM     31  N   UNL A   1      34.600  31.274  27.645  1.00  0.00    -0.352 N 
ATOM     32  C   UNL A   1      35.627  31.292  28.576  1.00  0.00     0.251 C 
ATOM     33  H   UNL A   1      34.406  32.099  27.144  1.00  0.00     0.163 HD
ATOM     34  O   UNL A   1      35.800  32.196  29.380  1.00  0.00    -0.269 OA
BRANCH  32  35
ATOM     35  C   UNL A   1      36.586  30.171  28.476  1.00  0.00     0.039 A 
ATOM     36  C   UNL A   1      36.814  29.384  29.607  1.00  0.00     0.014 A 
ATOM     37  C   UNL A   1      37.394  30.050  27.346  1.00  0.00     0.014 A 
ATOM     38  C   UNL A   1      37.929  28.540  29.644  1.00  0.00     0.010 A 
ATOM     39  C   UNL A   1      38.538  29.264  27.417  1.00  0.00     0.010 A 
ATOM     40  C   UNL A   1      38.838  28.532  28.577  1.00  0.00    -0.014 A 
BRANCH  40  41
ATOM     41  C   UNL A   1      40.179  27.937  28.675  1.00  0.00     0.031 A 
ATOM     42  C   UNL A   1      40.474  26.526  28.286  1.00  0.00     0.074 A 
ATOM     43  C   UNL A   1      41.231  28.649  29.146  1.00  0.00     0.049 A 
ATOM     44  N   UNL A   1      41.380  25.796  28.870  1.00  0.00    -0.248 NA
ATOM     45  C   UNL A   1      39.766  25.817  27.225  1.00  0.00     0.031 C 
ATOM     46  C   UNL A   1      42.640  28.283  29.006  1.00  0.00     0.029 A 
ATOM     47  N   UNL A   1      41.255  29.717  30.043  1.00  0.00    -0.354 N 
ATOM     48  C   UNL A   1      41.564  24.671  28.100  1.00  0.00     0.074 A 
ATOM     49  C   UNL A   1      40.484  24.690  27.136  1.00  0.00     0.031 C 
ATOM     50  C   UNL A   1      43.332  28.849  30.003  1.00  0.00     0.029 A 
ATOM     51  C   UNL A   1      42.382  29.535  30.861  1.00  0.00     0.049 A 
ATOM     52  H   UNL A   1      40.606  30.454  30.094  1.00  0.00     0.167 HD
ATOM     53  C   UNL A   1      42.680  23.894  28.215  1.00  0.00     0.031 A 
ATOM     54  C   UNL A   1      42.398  29.551  32.223  1.00  0.00     0.031 A 
ATOM     55  C   UNL A   1      43.666  24.406  29.157  1.00  0.00     0.049 A 
ATOM     56  C   UNL A   1      43.122  28.390  32.857  1.00  0.00     0.074 A 
ATOM     57  C   UNL A   1      44.860  25.088  28.979  1.00  0.00     0.029 A 
ATOM     58  N   UNL A   1      43.419  24.393  30.520  1.00  0.00    -0.354 N 
ATOM     59  N   UNL A   1      43.522  27.343  32.198  1.00  0.00    -0.248 NA
ATOM     60  C   UNL A   1      43.367  28.268  34.294  1.00  0.00     0.031 C 
ATOM     61  C   UNL A   1      45.350  25.466  30.249  1.00  0.00     0.029 A 
ATOM     62  C   UNL A   1      44.438  25.038  31.195  1.00  0.00     0.049 A 
ATOM     63  H   UNL A   1      42.630  23.983  30.946  1.00  0.00     0.167 HD
ATOM     64  C   UNL A   1      44.006  26.406  33.075  1.00  0.00     0.074 A 
ATOM     65  C   UNL A   1      43.925  27.046  34.373  1.00  0.00     0.031 C 
ATOM     66  C   UNL A   1      44.396  25.173  32.642  1.00  0.00     0.031 A 
BRANCH  53  67
ATOM     67  C   UNL A   1      43.011  22.810  27.216  1.00  0.00    -0.014 A 
ATOM     68  C   UNL A   1      42.287  21.600  27.227  1.00  0.00     0.010 A 
ATOM     69  C   UNL A   1      44.047  22.916  26.270  1.00  0.00     0.010 A 
ATOM     70  C   UNL A   1      42.664  20.501  26.448  1.00  0.00     0.020 A 
ATOM     71  C   UNL A   1      44.459  21.810  25.507  1.00  0.00     0.020 A 
ATOM     72  C   UNL A   1      43.778  20.601  25.621  1.00  0.00     0.054 A 
BRANCH  72  73
ATOM     73  S   UNL A   1      44.361  19.112  24.770  1.00  0.00     0.124 S 
ATOM     74  O   UNL A   1      45.669  18.887  25.380  1.00  0.00    -0.237 OA
ATOM     75  O   UNL A   1      43.333  18.132  25.111  1.00  0.00    -0.237 OA
ATOM     76  O   UNL A   1      44.402  19.513  23.366  1.00  0.00    -0.744 OA
ENDBRANCH  72  73
ENDBRANCH  53  67
BRANCH  54  77
ATOM     77  C   UNL A   1      41.273  30.278  32.855  1.00  0.00    -0.014 A 
ATOM     78  C   UNL A   1      41.402  31.673  33.008  1.00  0.00     0.010 A 
ATOM     79  C   UNL A   1      40.000  29.689  32.926  1.00  0.00     0.010 A 
ATOM     80  C   UNL A   1      40.268  32.481  33.072  1.00  0.00     0.020 A 
ATOM     81  C   UNL A   1      38.860  30.499  32.994  1.00  0.00     0.020 A 
ATOM     82  C   UNL A   1      39.005  31.890  33.000  1.00  0.00     0.054 A 
BRANCH  82  83
ATOM     83  S   UNL A   1      37.573  32.972  32.725  1.00  0.00     0.124 S 
ATOM     84  O   UNL A   1      36.460  32.026  32.730  1.00  0.00    -0.237 OA
ATOM     85  O   UNL A   1      37.645  33.868  33.881  1.00  0.00    -0.237 OA
ATOM     86  O   UNL A   1      37.863  33.599  31.442  1.00  0.00    -0.744 OA
ENDBRANCH  82  83
ENDBRANCH  54  77
BRANCH  66  87
ATOM     87  C   UNL A   1      44.838  24.009  33.493  1.00  0.00    -0.014 A 
ATOM     88  C   UNL A   1      44.049  22.882  33.767  1.00  0.00     0.010 A 
ATOM     89  C   UNL A   1      46.175  23.982  33.964  1.00  0.00     0.010 A 
ATOM     90  C   UNL A   1      44.548  21.803  34.515  1.00  0.00     0.020 A 
ATOM     91  C   UNL A   1      46.693  22.898  34.682  1.00  0.00     0.020 A 
ATOM     92  C   UNL A   1      45.866  21.818  34.970  1.00  0.00     0.054 A 
BRANCH  92  93
ATOM     93  S   UNL A   1      46.543  20.396  35.868  1.00  0.00     0.124 S 
ATOM     94  O   UNL A   1      45.655  19.317  35.443  1.00  0.00    -0.237 OA
ATOM     95  O   UNL A   1      47.914  20.307  35.371  1.00  0.00    -0.237 OA
ATOM     96  O   UNL A   1      46.423  20.797  37.267  1.00  0.00    -0.744 OA
ENDBRANCH  92  93
ENDBRANCH  66  87
ENDBRANCH  40  41
ENDBRANCH  32  35
ENDBRANCH  30  31
ENDBRANCH  29  30
ENDBRANCH  28  29
ENDBRANCH   1  28
TORSDOF 19
ENDMDL
MODEL 3
REMARK VINA RESULT:     -13.2      4.638     10.932
REMARK SMILES Cc1ccc([C@H](C)NC(=O)[C@H]2[C@@H]3CC[C@@H](C3)[C@@H]2C(=O)NCCCCCCNC(=O)c2ccc(-c3c4nc(c(-c5ccc(S(=O)(=O)[O-])cc5)c5ccc([nH]5)c(-c5ccc(S(=O)(=O)[O-])cc5)c5nc(c(-c6ccc(S(=O)(=O)[O-])cc6)c6ccc3[nH]6)C=C5)C=C4)cc2)cc1
REMARK SMILES IDX 23 1 22 2 21 3 20 4 18 5 19 6 17 8 11 9 12 10 13 11 16 12
REMARK SMILES IDX 15 13 14 14 9 15 8 16 10 18 6 19 7 20 5 21 1 22 2 23 3 24
REMARK SMILES IDX 91 25 4 26 90 27 24 28 25 29 26 30 27 31 28 32 29 34 30 35
REMARK SMILES IDX 31 36 89 37 32 38 88 39 33 40 34 41 35 42 82 43 36 44 87 45
REMARK SMILES IDX 81 46 83 47 37 48 86 49 80 50 79 51 38 53 68 54 49 55 67 56
REMARK SMILES IDX 50 57 53 58 66 59 84 60 51 61 52 62 65 64 85 65 54 66 39 67
REMARK SMILES IDX 40 68 48 69 41 70 47 71 42 72 43 73 44 74 45 75 46 76 69 77
REMARK SMILES IDX 70 78 78 79 71 80 77 81 72 82 73 83 74 84 75 85 76 86 55 87
REMARK SMILES IDX 56 88 64 89 57 90 63 91 58 92 59 93 60 94 61 95 62 96
REMARK H PARENT 20 7 8 17 27 33 83 52 53 63
REMARK Flexibility Score: inf
ROOT
ATOM      1  C   UNL A   1      35.322  23.469  26.100  1.00  0.00     0.002 C 
ENDROOT
BRANCH   1   2
ATOM      2  C   UNL A   1      35.168  24.501  24.970  1.00  0.00     0.021 C 
BRANCH   2   3
ATOM      3  C   UNL A   1      34.128  25.591  25.240  1.00  0.00     0.116 C 
BRANCH   3   4
ATOM      4  N   UNL A   1      33.078  25.120  26.122  1.00  0.00    -0.356 N 
ATOM      5  C   UNL A   1      31.905  25.664  26.529  1.00  0.00     0.224 C 
ATOM      6  O   UNL A   1      31.179  24.939  27.220  1.00  0.00    -0.275 OA
ATOM      7  H   UNL A   1      33.250  24.227  26.500  1.00  0.00     0.163 HD
BRANCH   5   8
ATOM      8  C   UNL A   1      31.399  27.027  26.048  1.00  0.00     0.094 C 
ATOM      9  C   UNL A   1      31.904  27.601  24.718  1.00  0.00     0.094 C 
ATOM     10  C   UNL A   1      32.441  29.011  25.092  1.00  0.00     0.002 C 
ATOM     11  C   UNL A   1      33.790  28.830  25.814  1.00  0.00     0.005 C 
ATOM     12  C   UNL A   1      31.558  29.438  26.259  1.00  0.00     0.009 C 
ATOM     13  C   UNL A   1      31.823  28.156  27.048  1.00  0.00     0.002 C 
ATOM     14  C   UNL A   1      33.365  28.240  27.168  1.00  0.00     0.005 C 
BRANCH   9  15
ATOM     15  C   UNL A   1      30.967  27.667  23.512  1.00  0.00     0.224 C 
ATOM     16  N   UNL A   1      31.118  27.059  22.318  1.00  0.00    -0.349 N 
ATOM     17  H   UNL A   1      30.344  27.210  21.728  1.00  0.00     0.164 HD
ATOM     18  O   UNL A   1      29.913  28.311  23.630  1.00  0.00    -0.275 OA
BRANCH  16  19
ATOM     19  C   UNL A   1      32.135  26.235  21.676  1.00  0.00     0.109 C 
ATOM     20  C   UNL A   1      33.494  26.937  21.747  1.00  0.00     0.036 C 
BRANCH  19  21
ATOM     21  C   UNL A   1      32.206  24.849  22.296  1.00  0.00    -0.026 A 
ATOM     22  C   UNL A   1      32.267  20.887  24.034  1.00  0.00     0.044 C 
ATOM     23  C   UNL A   1      32.253  22.256  23.423  1.00  0.00    -0.051 A 
ATOM     24  C   UNL A   1      31.222  23.146  23.734  1.00  0.00     0.004 A 
ATOM     25  C   UNL A   1      33.267  22.672  22.554  1.00  0.00     0.004 A 
ATOM     26  C   UNL A   1      31.196  24.424  23.172  1.00  0.00     0.006 A 
ATOM     27  C   UNL A   1      33.245  23.954  21.997  1.00  0.00     0.006 A 
ENDBRANCH  19  21
ENDBRANCH  16  19
ENDBRANCH   9  15
ENDBRANCH   5   8
ENDBRANCH   3   4
ENDBRANCH   2   3
ENDBRANCH   1   2
BRANCH   1  28
ATOM     28  C   UNL A   1      35.594  22.016  25.671  1.00  0.00     0.002 C 
BRANCH  28  29
ATOM     29  C   UNL A   1      37.065  21.637  25.468  1.00  0.00     0.021 C 
BRANCH  29  30
ATOM     30  C   UNL A   1      38.044  22.773  25.746  1.00  0.00     0.116 C 
BRANCH  30  31
ATOM     31  N   UNL A   1      39.123  22.416  26.648  1.00  0.00    -0.352 N 
ATOM     32  C   UNL A   1      40.156  23.284  26.964  1.00  0.00     0.251 C 
ATOM     33  H   UNL A   1      39.123  21.519  27.052  1.00  0.00     0.163 HD
ATOM     34  O   UNL A   1      41.333  22.956  27.001  1.00  0.00    -0.269 OA
BRANCH  32  35
ATOM     35  C   UNL A   1      39.735  24.644  27.362  1.00  0.00     0.039 A 
ATOM     36  C   UNL A   1      40.241  25.735  26.650  1.00  0.00     0.014 A 
ATOM     37  C   UNL A   1      39.028  24.831  28.549  1.00  0.00     0.014 A 
ATOM     38  C   UNL A   1      40.126  27.021  27.189  1.00  0.00     0.010 A 
ATOM     39  C   UNL A   1      38.981  26.101  29.112  1.00  0.00     0.010 A 
ATOM     40  C   UNL A   1      39.561  27.201  28.458  1.00  0.00    -0.014 A 
BRANCH  40  41
ATOM     41  C   UNL A   1      39.699  28.449  29.224  1.00  0.00     0.031 A 
ATOM     42  C   UNL A   1      38.682  29.541  29.192  1.00  0.00     0.074 A 
ATOM     43  C   UNL A   1      40.785  28.680  30.000  1.00  0.00     0.049 A 
ATOM     44  N   UNL A   1      38.979  30.802  29.311  1.00  0.00    -0.248 NA
ATOM     45  C   UNL A   1      37.253  29.306  29.008  1.00  0.00     0.031 C 
ATOM     46  C   UNL A   1      40.895  29.716  31.027  1.00  0.00     0.029 A 
ATOM     47  N   UNL A   1      42.089  28.198  29.877  1.00  0.00    -0.354 N 
ATOM     48  C   UNL A   1      37.803  31.489  29.504  1.00  0.00     0.074 A 
ATOM     49  C   UNL A   1      36.754  30.530  29.225  1.00  0.00     0.031 C 
ATOM     50  C   UNL A   1      42.188  30.026  31.187  1.00  0.00     0.029 A 
ATOM     51  C   UNL A   1      42.947  29.256  30.217  1.00  0.00     0.049 A 
ATOM     52  H   UNL A   1      42.355  27.292  29.602  1.00  0.00     0.167 HD
ATOM     53  C   UNL A   1      37.782  32.748  30.027  1.00  0.00     0.031 A 
ATOM     54  C   UNL A   1      43.996  29.711  29.476  1.00  0.00     0.031 A 
ATOM     55  C   UNL A   1      39.091  33.250  30.424  1.00  0.00     0.049 A 
ATOM     56  C   UNL A   1      44.029  31.206  29.285  1.00  0.00     0.074 A 
ATOM     57  C   UNL A   1      39.709  33.367  31.659  1.00  0.00     0.029 A 
ATOM     58  N   UNL A   1      40.044  33.575  29.473  1.00  0.00    -0.354 N 
ATOM     59  N   UNL A   1      43.047  31.997  29.605  1.00  0.00    -0.248 NA
ATOM     60  C   UNL A   1      45.125  31.922  28.631  1.00  0.00     0.031 C 
ATOM     61  C   UNL A   1      41.040  33.793  31.452  1.00  0.00     0.029 A 
ATOM     62  C   UNL A   1      41.236  33.906  30.088  1.00  0.00     0.049 A 
ATOM     63  H   UNL A   1      39.893  33.571  28.499  1.00  0.00     0.167 HD
ATOM     64  C   UNL A   1      43.321  33.269  29.171  1.00  0.00     0.074 A 
ATOM     65  C   UNL A   1      44.651  33.180  28.602  1.00  0.00     0.031 C 
ATOM     66  C   UNL A   1      42.401  34.267  29.297  1.00  0.00     0.031 A 
BRANCH  53  67
ATOM     67  C   UNL A   1      36.499  33.412  30.472  1.00  0.00    -0.014 A 
ATOM     68  C   UNL A   1      35.540  33.799  29.514  1.00  0.00     0.010 A 
ATOM     69  C   UNL A   1      36.204  33.710  31.815  1.00  0.00     0.010 A 
ATOM     70  C   UNL A   1      34.423  34.571  29.850  1.00  0.00     0.020 A 
ATOM     71  C   UNL A   1      35.105  34.513  32.164  1.00  0.00     0.020 A 
ATOM     72  C   UNL A   1      34.235  34.960  31.172  1.00  0.00     0.054 A 
BRANCH  72  73
ATOM     73  S   UNL A   1      32.893  36.116  31.554  1.00  0.00     0.124 S 
ATOM     74  O   UNL A   1      32.434  36.521  30.228  1.00  0.00    -0.237 OA
ATOM     75  O   UNL A   1      31.965  35.280  32.311  1.00  0.00    -0.237 OA
ATOM     76  O   UNL A   1      33.555  37.169  32.320  1.00  0.00    -0.744 OA
ENDBRANCH  72  73
ENDBRANCH  53  67
BRANCH  54  77
ATOM     77  C   UNL A   1      44.553  28.735  28.513  1.00  0.00    -0.014 A 
ATOM     78  C   UNL A   1      43.965  28.672  27.234  1.00  0.00     0.010 A 
ATOM     79  C   UNL A   1      45.836  28.197  28.711  1.00  0.00     0.010 A 
ATOM     80  C   UNL A   1      44.705  28.226  26.141  1.00  0.00     0.020 A 
ATOM     81  C   UNL A   1      46.578  27.744  27.614  1.00  0.00     0.020 A 
ATOM     82  C   UNL A   1      46.028  27.825  26.331  1.00  0.00     0.054 A 
BRANCH  82  83
ATOM     83  S   UNL A   1      47.069  27.593  24.861  1.00  0.00     0.124 S 
ATOM     84  O   UNL A   1      48.417  27.690  25.412  1.00  0.00    -0.237 OA
ATOM     85  O   UNL A   1      46.665  26.259  24.412  1.00  0.00    -0.237 OA
ATOM     86  O   UNL A   1      46.666  28.685  23.985  1.00  0.00    -0.744 OA
ENDBRANCH  82  83
ENDBRANCH  54  77
BRANCH  66  87
ATOM     87  C   UNL A   1      42.511  35.676  28.769  1.00  0.00    -0.014 A 
ATOM     88  C   UNL A   1      41.795  36.169  27.668  1.00  0.00     0.010 A 
ATOM     89  C   UNL A   1      43.301  36.609  29.486  1.00  0.00     0.010 A 
ATOM     90  C   UNL A   1      41.898  37.512  27.269  1.00  0.00     0.020 A 
ATOM     91  C   UNL A   1      43.385  37.956  29.119  1.00  0.00     0.020 A 
ATOM     92  C   UNL A   1      42.694  38.397  27.995  1.00  0.00     0.054 A 
BRANCH  92  93
ATOM     93  S   UNL A   1      42.771  40.150  27.537  1.00  0.00     0.124 S 
ATOM     94  O   UNL A   1      43.532  40.721  28.644  1.00  0.00    -0.237 OA
ATOM     95  O   UNL A   1      43.463  40.130  26.250  1.00  0.00    -0.237 OA
ATOM     96  O   UNL A   1      41.365  40.539  27.471  1.00  0.00    -0.744 OA
ENDBRANCH  92  93
ENDBRANCH  66  87
ENDBRANCH  40  41
ENDBRANCH  32  35
ENDBRANCH  30  31
ENDBRANCH  29  30
ENDBRANCH  28  29
ENDBRANCH   1  28
TORSDOF 19
ENDMDL
