MODEL 1
REMARK VINA RESULT:     -10.9      0.000      0.000
REMARK SMILES Cc1ccc([C@@H](C)[NH2+][C@@H](C)CCC(=O)NCCCCCCNC(=O)c2ccc(-c3c4nc(c(-c5ccc(S(=O)(=O)[O-])cc5)c5ccc([nH]5)c(-c5ccc(S(=O)(=O)[O-])cc5)c5nc(c(-c6ccc(S(=O)(=O)[O-])cc6)c6ccc3[nH]6)C=C5)C=C4)cc2)cc1F
REMARK SMILES IDX 17 1 16 2 15 3 13 4 14 5 12 7 11 8 9 9 10 10 8 11 6 14 7 15
REMARK SMILES IDX 5 16 1 17 2 18 3 19 86 20 4 21 85 22 87 23 18 24 19 25 20 26
REMARK SMILES IDX 21 27 22 28 23 29 24 31 25 32 26 33 84 34 27 35 83 36 28 37
REMARK SMILES IDX 29 38 30 39 77 40 31 41 82 42 76 43 78 44 32 45 81 46 75 47
REMARK SMILES IDX 74 48 33 50 63 51 44 52 62 53 45 54 48 55 61 56 79 57 46 58
REMARK SMILES IDX 47 59 60 61 80 62 49 63 34 64 35 65 43 66 36 67 42 68 37 69
REMARK SMILES IDX 38 70 39 71 40 72 41 73 64 74 65 75 73 76 66 77 72 78 67 79
REMARK SMILES IDX 68 80 69 81 70 82 71 83 50 84 51 85 59 86 52 87 58 88 53 89
REMARK SMILES IDX 54 90 55 91 56 92 57 93
REMARK H PARENT 15 6 8 12 8 13 22 30 78 49 48 60
REMARK Flexibility Score: inf
ROOT
ATOM      1  C   UNL A   1      35.449  21.820  26.151  1.00  0.00     0.021 C 
ENDROOT
BRANCH   1   2
ATOM      2  C   UNL A   1      35.222  20.889  24.953  1.00  0.00     0.116 C 
BRANCH   2   3
ATOM      3  N   UNL A   1      34.376  19.773  25.331  1.00  0.00    -0.356 N 
ATOM      4  C   UNL A   1      33.022  19.649  25.293  1.00  0.00     0.220 C 
ATOM      5  O   UNL A   1      32.521  18.621  25.754  1.00  0.00    -0.275 OA
ATOM      6  H   UNL A   1      34.856  18.981  25.667  1.00  0.00     0.163 HD
BRANCH   4   7
ATOM      7  C   UNL A   1      32.154  20.743  24.705  1.00  0.00     0.106 C 
BRANCH   7   8
ATOM      8  C   UNL A   1      31.783  21.816  25.733  1.00  0.00     0.074 C 
BRANCH   8   9
ATOM      9  C   UNL A   1      31.916  23.275  25.239  1.00  0.00     0.180 C 
ATOM     10  C   UNL A   1      31.937  24.206  26.458  1.00  0.00     0.075 C 
BRANCH   9  11
ATOM     11  N   UNL A   1      30.802  23.573  24.333  1.00  0.00    -0.338 N 
ATOM     12  H   UNL A   1      30.377  22.687  24.060  1.00  0.00     0.347 HD
ATOM     13  H   UNL A   1      30.186  24.195  24.857  1.00  0.00     0.347 HD
BRANCH  11  14
ATOM     14  C   UNL A   1      31.135  24.304  23.104  1.00  0.00     0.210 C 
ATOM     15  C   UNL A   1      32.616  24.257  22.717  1.00  0.00     0.081 C 
BRANCH  14  16
ATOM     16  C   UNL A   1      30.678  25.756  23.191  1.00  0.00     0.012 A 
ATOM     17  C   UNL A   1      29.175  29.815  23.070  1.00  0.00     0.047 C 
ATOM     18  C   UNL A   1      29.695  28.412  23.150  1.00  0.00    -0.015 A 
ATOM     19  C   UNL A   1      28.888  27.367  23.605  1.00  0.00     0.007 A 
ATOM     20  C   UNL A   1      31.001  28.120  22.756  1.00  0.00     0.126 A 
ATOM     21  C   UNL A   1      29.377  26.057  23.631  1.00  0.00     0.010 A 
ATOM     22  C   UNL A   1      31.493  26.816  22.768  1.00  0.00     0.049 A 
ATOM     23  F   UNL A   1      31.807  29.106  22.337  1.00  0.00    -0.207 F 
ENDBRANCH  14  16
ENDBRANCH  11  14
ENDBRANCH   9  11
ENDBRANCH   8   9
ENDBRANCH   7   8
ENDBRANCH   4   7
ENDBRANCH   2   3
ENDBRANCH   1   2
BRANCH   1  24
ATOM     24  C   UNL A   1      35.581  23.297  25.782  1.00  0.00     0.002 C 
BRANCH  24  25
ATOM     25  C   UNL A   1      36.875  23.974  26.250  1.00  0.00     0.002 C 
BRANCH  25  26
ATOM     26  C   UNL A   1      38.157  23.148  26.104  1.00  0.00     0.021 C 
BRANCH  26  27
ATOM     27  C   UNL A   1      39.364  23.649  26.895  1.00  0.00     0.116 C 
BRANCH  27  28
ATOM     28  N   UNL A   1      40.398  24.190  26.031  1.00  0.00    -0.352 N 
ATOM     29  C   UNL A   1      41.031  25.405  26.056  1.00  0.00     0.251 C 
ATOM     30  H   UNL A   1      40.690  23.587  25.310  1.00  0.00     0.163 HD
ATOM     31  O   UNL A   1      41.717  25.743  25.087  1.00  0.00    -0.269 OA
BRANCH  29  32
ATOM     32  C   UNL A   1      40.902  26.318  27.213  1.00  0.00     0.039 A 
ATOM     33  C   UNL A   1      41.762  27.418  27.301  1.00  0.00     0.014 A 
ATOM     34  C   UNL A   1      39.992  26.068  28.246  1.00  0.00     0.014 A 
ATOM     35  C   UNL A   1      41.679  28.289  28.391  1.00  0.00     0.010 A 
ATOM     36  C   UNL A   1      39.869  26.970  29.304  1.00  0.00     0.010 A 
ATOM     37  C   UNL A   1      40.715  28.086  29.392  1.00  0.00    -0.014 A 
BRANCH  37  38
ATOM     38  C   UNL A   1      40.583  29.029  30.534  1.00  0.00     0.031 A 
ATOM     39  C   UNL A   1      41.431  28.858  31.767  1.00  0.00     0.074 A 
ATOM     40  C   UNL A   1      39.650  30.002  30.491  1.00  0.00     0.049 A 
ATOM     41  N   UNL A   1      41.405  29.537  32.886  1.00  0.00    -0.248 NA
ATOM     42  C   UNL A   1      42.421  27.769  31.751  1.00  0.00     0.031 C 
ATOM     43  C   UNL A   1      38.732  30.247  29.376  1.00  0.00     0.029 A 
ATOM     44  N   UNL A   1      39.310  30.959  31.415  1.00  0.00    -0.354 N 
ATOM     45  C   UNL A   1      42.350  28.942  33.714  1.00  0.00     0.074 A 
ATOM     46  C   UNL A   1      42.913  27.829  32.981  1.00  0.00     0.031 C 
ATOM     47  C   UNL A   1      37.939  31.289  29.679  1.00  0.00     0.029 A 
ATOM     48  C   UNL A   1      38.268  31.765  31.019  1.00  0.00     0.049 A 
ATOM     49  H   UNL A   1      39.768  31.058  32.281  1.00  0.00     0.167 HD
ATOM     50  C   UNL A   1      42.724  29.297  34.967  1.00  0.00     0.031 A 
ATOM     51  C   UNL A   1      37.637  32.766  31.663  1.00  0.00     0.031 A 
ATOM     52  C   UNL A   1      42.189  30.424  35.684  1.00  0.00     0.049 A 
ATOM     53  C   UNL A   1      38.094  33.158  33.042  1.00  0.00     0.074 A 
ATOM     54  C   UNL A   1      42.565  30.908  36.925  1.00  0.00     0.029 A 
ATOM     55  N   UNL A   1      41.167  31.241  35.228  1.00  0.00    -0.354 N 
ATOM     56  N   UNL A   1      39.044  32.632  33.775  1.00  0.00    -0.248 NA
ATOM     57  C   UNL A   1      37.399  34.290  33.676  1.00  0.00     0.031 C 
ATOM     58  C   UNL A   1      41.740  31.993  37.239  1.00  0.00     0.029 A 
ATOM     59  C   UNL A   1      40.884  32.214  36.173  1.00  0.00     0.049 A 
ATOM     60  H   UNL A   1      40.710  31.145  34.361  1.00  0.00     0.167 HD
ATOM     61  C   UNL A   1      39.078  33.382  34.945  1.00  0.00     0.074 A 
ATOM     62  C   UNL A   1      38.065  34.409  34.816  1.00  0.00     0.031 C 
ATOM     63  C   UNL A   1      39.878  33.233  36.029  1.00  0.00     0.031 A 
BRANCH  50  64
ATOM     64  C   UNL A   1      43.766  28.457  35.656  1.00  0.00    -0.014 A 
ATOM     65  C   UNL A   1      43.404  27.348  36.442  1.00  0.00     0.010 A 
ATOM     66  C   UNL A   1      45.130  28.734  35.451  1.00  0.00     0.010 A 
ATOM     67  C   UNL A   1      44.387  26.549  37.031  1.00  0.00     0.020 A 
ATOM     68  C   UNL A   1      46.116  27.924  36.021  1.00  0.00     0.020 A 
ATOM     69  C   UNL A   1      45.737  26.842  36.818  1.00  0.00     0.054 A 
BRANCH  69  70
ATOM     70  S   UNL A   1      46.991  25.759  37.557  1.00  0.00     0.124 S 
ATOM     71  O   UNL A   1      46.176  24.650  38.049  1.00  0.00    -0.237 OA
ATOM     72  O   UNL A   1      47.856  25.446  36.422  1.00  0.00    -0.237 OA
ATOM     73  O   UNL A   1      47.601  26.590  38.592  1.00  0.00    -0.744 OA
ENDBRANCH  69  70
ENDBRANCH  50  64
BRANCH  51  74
ATOM     74  C   UNL A   1      36.500  33.470  31.012  1.00  0.00    -0.014 A 
ATOM     75  C   UNL A   1      36.626  33.987  29.711  1.00  0.00     0.010 A 
ATOM     76  C   UNL A   1      35.282  33.632  31.698  1.00  0.00     0.010 A 
ATOM     77  C   UNL A   1      35.564  34.676  29.117  1.00  0.00     0.020 A 
ATOM     78  C   UNL A   1      34.210  34.296  31.098  1.00  0.00     0.020 A 
ATOM     79  C   UNL A   1      34.363  34.829  29.815  1.00  0.00     0.054 A 
BRANCH  79  80
ATOM     80  S   UNL A   1      32.982  35.691  29.015  1.00  0.00     0.124 S 
ATOM     81  O   UNL A   1      33.659  36.804  28.359  1.00  0.00    -0.237 OA
ATOM     82  O   UNL A   1      32.439  34.666  28.126  1.00  0.00    -0.237 OA
ATOM     83  O   UNL A   1      32.114  36.053  30.134  1.00  0.00    -0.744 OA
ENDBRANCH  79  80
ENDBRANCH  51  74
BRANCH  63  84
ATOM     84  C   UNL A   1      39.715  34.222  37.152  1.00  0.00    -0.014 A 
ATOM     85  C   UNL A   1      38.881  33.945  38.249  1.00  0.00     0.010 A 
ATOM     86  C   UNL A   1      40.453  35.420  37.134  1.00  0.00     0.010 A 
ATOM     87  C   UNL A   1      38.765  34.864  39.296  1.00  0.00     0.020 A 
ATOM     88  C   UNL A   1      40.359  36.329  38.190  1.00  0.00     0.020 A 
ATOM     89  C   UNL A   1      39.504  36.051  39.258  1.00  0.00     0.054 A 
BRANCH  89  90
ATOM     90  S   UNL A   1      39.373  37.208  40.650  1.00  0.00     0.124 S 
ATOM     91  O   UNL A   1      38.940  36.330  41.734  1.00  0.00    -0.237 OA
ATOM     92  O   UNL A   1      40.733  37.728  40.767  1.00  0.00    -0.237 OA
ATOM     93  O   UNL A   1      38.378  38.178  40.198  1.00  0.00    -0.744 OA
ENDBRANCH  89  90
ENDBRANCH  63  84
ENDBRANCH  37  38
ENDBRANCH  29  32
ENDBRANCH  27  28
ENDBRANCH  26  27
ENDBRANCH  25  26
ENDBRANCH  24  25
ENDBRANCH   1  24
TORSDOF 21
ENDMDL
MODEL 2
REMARK VINA RESULT:     -10.8      3.558      5.253
REMARK SMILES Cc1ccc([C@@H](C)[NH2+][C@@H](C)CCC(=O)NCCCCCCNC(=O)c2ccc(-c3c4nc(c(-c5ccc(S(=O)(=O)[O-])cc5)c5ccc([nH]5)c(-c5ccc(S(=O)(=O)[O-])cc5)c5nc(c(-c6ccc(S(=O)(=O)[O-])cc6)c6ccc3[nH]6)C=C5)C=C4)cc2)cc1F
REMARK SMILES IDX 17 1 16 2 15 3 13 4 14 5 12 7 11 8 9 9 10 10 8 11 6 14 7 15
REMARK SMILES IDX 5 16 1 17 2 18 3 19 86 20 4 21 85 22 87 23 18 24 19 25 20 26
REMARK SMILES IDX 21 27 22 28 23 29 24 31 25 32 26 33 84 34 27 35 83 36 28 37
REMARK SMILES IDX 29 38 30 39 77 40 31 41 82 42 76 43 78 44 32 45 81 46 75 47
REMARK SMILES IDX 74 48 33 50 63 51 44 52 62 53 45 54 48 55 61 56 79 57 46 58
REMARK SMILES IDX 47 59 60 61 80 62 49 63 34 64 35 65 43 66 36 67 42 68 37 69
REMARK SMILES IDX 38 70 39 71 40 72 41 73 64 74 65 75 73 76 66 77 72 78 67 79
REMARK SMILES IDX 68 80 69 81 70 82 71 83 50 84 51 85 59 86 52 87 58 88 53 89
REMARK SMILES IDX 54 90 55 91 56 92 57 93
REMARK H PARENT 15 6 8 12 8 13 22 30 78 49 48 60
REMARK Flexibility Score: inf
ROOT
ATOM      1  C   UNL A   1      33.792  24.962  22.906  1.00  0.00     0.021 C 
ENDROOT
BRANCH   1   2
ATOM      2  C   UNL A   1      32.439  25.494  22.416  1.00  0.00     0.116 C 
BRANCH   2   3
ATOM      3  N   UNL A   1      32.045  26.660  23.183  1.00  0.00    -0.356 N 
ATOM      4  C   UNL A   1      31.034  26.817  24.080  1.00  0.00     0.220 C 
ATOM      5  O   UNL A   1      30.840  27.943  24.544  1.00  0.00    -0.275 OA
ATOM      6  H   UNL A   1      32.594  27.463  23.031  1.00  0.00     0.163 HD
BRANCH   4   7
ATOM      7  C   UNL A   1      30.168  25.644  24.493  1.00  0.00     0.106 C 
BRANCH   7   8
ATOM      8  C   UNL A   1      30.668  24.966  25.772  1.00  0.00     0.074 C 
BRANCH   8   9
ATOM      9  C   UNL A   1      30.849  23.434  25.677  1.00  0.00     0.180 C 
ATOM     10  C   UNL A   1      30.183  22.784  26.895  1.00  0.00     0.075 C 
BRANCH   9  11
ATOM     11  N   UNL A   1      32.283  23.129  25.600  1.00  0.00    -0.338 N 
ATOM     12  H   UNL A   1      32.502  22.907  24.630  1.00  0.00     0.347 HD
ATOM     13  H   UNL A   1      32.755  23.958  25.962  1.00  0.00     0.347 HD
BRANCH  11  14
ATOM     14  C   UNL A   1      32.761  22.017  26.431  1.00  0.00     0.210 C 
ATOM     15  C   UNL A   1      33.912  22.375  27.375  1.00  0.00     0.081 C 
BRANCH  14  16
ATOM     16  C   UNL A   1      33.163  20.826  25.568  1.00  0.00     0.012 A 
ATOM     17  C   UNL A   1      34.176  17.193  23.439  1.00  0.00     0.047 C 
ATOM     18  C   UNL A   1      33.818  18.467  24.142  1.00  0.00    -0.015 A 
ATOM     19  C   UNL A   1      32.501  18.931  24.173  1.00  0.00     0.007 A 
ATOM     20  C   UNL A   1      34.801  19.213  24.794  1.00  0.00     0.126 A 
ATOM     21  C   UNL A   1      32.180  20.099  24.872  1.00  0.00     0.010 A 
ATOM     22  C   UNL A   1      34.489  20.372  25.502  1.00  0.00     0.049 A 
ATOM     23  F   UNL A   1      36.078  18.806  24.762  1.00  0.00    -0.207 F 
ENDBRANCH  14  16
ENDBRANCH  11  14
ENDBRANCH   9  11
ENDBRANCH   8   9
ENDBRANCH   7   8
ENDBRANCH   4   7
ENDBRANCH   2   3
ENDBRANCH   1   2
BRANCH   1  24
ATOM     24  C   UNL A   1      33.941  23.444  22.811  1.00  0.00     0.002 C 
BRANCH  24  25
ATOM     25  C   UNL A   1      35.256  22.882  23.365  1.00  0.00     0.002 C 
BRANCH  25  26
ATOM     26  C   UNL A   1      36.247  23.910  23.921  1.00  0.00     0.021 C 
BRANCH  26  27
ATOM     27  C   UNL A   1      36.559  23.793  25.412  1.00  0.00     0.116 C 
BRANCH  27  28
ATOM     28  N   UNL A   1      37.568  22.783  25.681  1.00  0.00    -0.352 N 
ATOM     29  C   UNL A   1      38.827  22.903  26.208  1.00  0.00     0.251 C 
ATOM     30  H   UNL A   1      37.304  21.864  25.446  1.00  0.00     0.163 HD
ATOM     31  O   UNL A   1      39.599  21.944  26.138  1.00  0.00    -0.269 OA
BRANCH  29  32
ATOM     32  C   UNL A   1      39.278  24.158  26.849  1.00  0.00     0.039 A 
ATOM     33  C   UNL A   1      38.923  24.397  28.181  1.00  0.00     0.014 A 
ATOM     34  C   UNL A   1      39.987  25.131  26.137  1.00  0.00     0.014 A 
ATOM     35  C   UNL A   1      39.316  25.582  28.811  1.00  0.00     0.010 A 
ATOM     36  C   UNL A   1      40.431  26.286  26.784  1.00  0.00     0.010 A 
ATOM     37  C   UNL A   1      40.095  26.528  28.124  1.00  0.00    -0.014 A 
BRANCH  37  38
ATOM     38  C   UNL A   1      40.562  27.770  28.794  1.00  0.00     0.031 A 
ATOM     39  C   UNL A   1      41.925  27.825  29.434  1.00  0.00     0.074 A 
ATOM     40  C   UNL A   1      39.734  28.830  28.886  1.00  0.00     0.049 A 
ATOM     41  N   UNL A   1      42.473  28.794  30.122  1.00  0.00    -0.248 NA
ATOM     42  C   UNL A   1      42.772  26.629  29.305  1.00  0.00     0.031 C 
ATOM     43  C   UNL A   1      38.371  28.890  28.351  1.00  0.00     0.029 A 
ATOM     44  N   UNL A   1      39.910  30.057  29.477  1.00  0.00    -0.354 N 
ATOM     45  C   UNL A   1      43.713  28.317  30.531  1.00  0.00     0.074 A 
ATOM     46  C   UNL A   1      43.826  26.961  30.038  1.00  0.00     0.031 C 
ATOM     47  C   UNL A   1      37.840  30.092  28.632  1.00  0.00     0.029 A 
ATOM     48  C   UNL A   1      38.808  30.875  29.394  1.00  0.00     0.049 A 
ATOM     49  H   UNL A   1      40.748  30.325  29.920  1.00  0.00     0.167 HD
ATOM     50  C   UNL A   1      44.675  28.953  31.241  1.00  0.00     0.031 A 
ATOM     51  C   UNL A   1      38.592  32.111  29.885  1.00  0.00     0.031 A 
ATOM     52  C   UNL A   1      44.577  30.312  31.703  1.00  0.00     0.049 A 
ATOM     53  C   UNL A   1      39.689  32.805  30.645  1.00  0.00     0.074 A 
ATOM     54  C   UNL A   1      45.535  31.067  32.359  1.00  0.00     0.029 A 
ATOM     55  N   UNL A   1      43.461  31.121  31.558  1.00  0.00    -0.354 N 
ATOM     56  N   UNL A   1      40.885  32.363  30.950  1.00  0.00    -0.248 NA
ATOM     57  C   UNL A   1      39.412  34.171  31.115  1.00  0.00     0.031 C 
ATOM     58  C   UNL A   1      44.982  32.318  32.650  1.00  0.00     0.029 A 
ATOM     59  C   UNL A   1      43.698  32.359  32.131  1.00  0.00     0.049 A 
ATOM     60  H   UNL A   1      42.624  30.854  31.113  1.00  0.00     0.167 HD
ATOM     61  C   UNL A   1      41.510  33.404  31.627  1.00  0.00     0.074 A 
ATOM     62  C   UNL A   1      40.568  34.503  31.672  1.00  0.00     0.031 C 
ATOM     63  C   UNL A   1      42.755  33.445  32.163  1.00  0.00     0.031 A 
BRANCH  50  64
ATOM     64  C   UNL A   1      45.929  28.187  31.572  1.00  0.00    -0.014 A 
ATOM     65  C   UNL A   1      47.074  28.281  30.761  1.00  0.00     0.010 A 
ATOM     66  C   UNL A   1      45.987  27.424  32.753  1.00  0.00     0.010 A 
ATOM     67  C   UNL A   1      48.245  27.605  31.112  1.00  0.00     0.020 A 
ATOM     68  C   UNL A   1      47.164  26.764  33.118  1.00  0.00     0.020 A 
ATOM     69  C   UNL A   1      48.283  26.849  32.288  1.00  0.00     0.054 A 
BRANCH  69  70
ATOM     70  S   UNL A   1      49.831  26.021  32.742  1.00  0.00     0.124 S 
ATOM     71  O   UNL A   1      49.944  25.005  31.698  1.00  0.00    -0.237 OA
ATOM     72  O   UNL A   1      50.809  27.104  32.672  1.00  0.00    -0.237 OA
ATOM     73  O   UNL A   1      49.569  25.507  34.084  1.00  0.00    -0.744 OA
ENDBRANCH  69  70
ENDBRANCH  50  64
BRANCH  51  74
ATOM     74  C   UNL A   1      37.277  32.775  29.677  1.00  0.00    -0.014 A 
ATOM     75  C   UNL A   1      36.955  33.357  28.438  1.00  0.00     0.010 A 
ATOM     76  C   UNL A   1      36.339  32.834  30.725  1.00  0.00     0.010 A 
ATOM     77  C   UNL A   1      35.731  34.009  28.258  1.00  0.00     0.020 A 
ATOM     78  C   UNL A   1      35.105  33.460  30.541  1.00  0.00     0.020 A 
ATOM     79  C   UNL A   1      34.814  34.058  29.312  1.00  0.00     0.054 A 
BRANCH  79  80
ATOM     80  S   UNL A   1      33.214  34.872  29.050  1.00  0.00     0.124 S 
ATOM     81  O   UNL A   1      33.620  36.200  28.604  1.00  0.00    -0.237 OA
ATOM     82  O   UNL A   1      32.589  34.026  28.037  1.00  0.00    -0.237 OA
ATOM     83  O   UNL A   1      32.585  34.816  30.368  1.00  0.00    -0.744 OA
ENDBRANCH  79  80
ENDBRANCH  51  74
BRANCH  63  84
ATOM     84  C   UNL A   1      43.186  34.730  32.817  1.00  0.00    -0.014 A 
ATOM     85  C   UNL A   1      43.849  35.732  32.087  1.00  0.00     0.010 A 
ATOM     86  C   UNL A   1      42.870  34.960  34.169  1.00  0.00     0.010 A 
ATOM     87  C   UNL A   1      44.216  36.930  32.706  1.00  0.00     0.020 A 
ATOM     88  C   UNL A   1      43.213  36.166  34.784  1.00  0.00     0.020 A 
ATOM     89  C   UNL A   1      43.897  37.138  34.052  1.00  0.00     0.054 A 
BRANCH  89  90
ATOM     90  S   UNL A   1      44.343  38.720  34.821  1.00  0.00     0.124 S 
ATOM     91  O   UNL A   1      43.430  39.647  34.158  1.00  0.00    -0.237 OA
ATOM     92  O   UNL A   1      44.074  38.477  36.236  1.00  0.00    -0.237 OA
ATOM     93  O   UNL A   1      45.754  38.883  34.480  1.00  0.00    -0.744 OA
ENDBRANCH  89  90
ENDBRANCH  63  84
ENDBRANCH  37  38
ENDBRANCH  29  32
ENDBRANCH  27  28
ENDBRANCH  26  27
ENDBRANCH  25  26
ENDBRANCH  24  25
ENDBRANCH   1  24
TORSDOF 21
ENDMDL
MODEL 3
REMARK VINA RESULT:     -10.6      3.233      9.575
REMARK SMILES Cc1ccc([C@@H](C)[NH2+][C@@H](C)CCC(=O)NCCCCCCNC(=O)c2ccc(-c3c4nc(c(-c5ccc(S(=O)(=O)[O-])cc5)c5ccc([nH]5)c(-c5ccc(S(=O)(=O)[O-])cc5)c5nc(c(-c6ccc(S(=O)(=O)[O-])cc6)c6ccc3[nH]6)C=C5)C=C4)cc2)cc1F
REMARK SMILES IDX 17 1 16 2 15 3 13 4 14 5 12 7 11 8 9 9 10 10 8 11 6 14 7 15
REMARK SMILES IDX 5 16 1 17 2 18 3 19 86 20 4 21 85 22 87 23 18 24 19 25 20 26
REMARK SMILES IDX 21 27 22 28 23 29 24 31 25 32 26 33 84 34 27 35 83 36 28 37
REMARK SMILES IDX 29 38 30 39 77 40 31 41 82 42 76 43 78 44 32 45 81 46 75 47
REMARK SMILES IDX 74 48 33 50 63 51 44 52 62 53 45 54 48 55 61 56 79 57 46 58
REMARK SMILES IDX 47 59 60 61 80 62 49 63 34 64 35 65 43 66 36 67 42 68 37 69
REMARK SMILES IDX 38 70 39 71 40 72 41 73 64 74 65 75 73 76 66 77 72 78 67 79
REMARK SMILES IDX 68 80 69 81 70 82 71 83 50 84 51 85 59 86 52 87 58 88 53 89
REMARK SMILES IDX 54 90 55 91 56 92 57 93
REMARK H PARENT 15 6 8 12 8 13 22 30 78 49 48 60
REMARK Flexibility Score: inf
ROOT
ATOM      1  C   UNL A   1      32.335  27.791  22.407  1.00  0.00     0.021 C 
ENDROOT
BRANCH   1   2
ATOM      2  C   UNL A   1      30.887  27.289  22.347  1.00  0.00     0.116 C 
BRANCH   2   3
ATOM      3  N   UNL A   1      30.418  26.932  23.672  1.00  0.00    -0.356 N 
ATOM      4  C   UNL A   1      30.185  25.708  24.218  1.00  0.00     0.220 C 
ATOM      5  O   UNL A   1      29.699  25.661  25.350  1.00  0.00    -0.275 OA
ATOM      6  H   UNL A   1      30.240  27.694  24.270  1.00  0.00     0.163 HD
BRANCH   4   7
ATOM      7  C   UNL A   1      30.509  24.438  23.456  1.00  0.00     0.106 C 
BRANCH   7   8
ATOM      8  C   UNL A   1      31.284  23.424  24.304  1.00  0.00     0.074 C 
BRANCH   8   9
ATOM      9  C   UNL A   1      32.787  23.300  23.970  1.00  0.00     0.180 C 
ATOM     10  C   UNL A   1      32.930  22.702  22.565  1.00  0.00     0.075 C 
BRANCH   9  11
ATOM     11  N   UNL A   1      33.435  22.471  24.994  1.00  0.00    -0.338 N 
ATOM     12  H   UNL A   1      33.754  23.090  25.739  1.00  0.00     0.347 HD
ATOM     13  H   UNL A   1      32.728  21.794  25.280  1.00  0.00     0.347 HD
BRANCH  11  14
ATOM     14  C   UNL A   1      34.585  21.670  24.557  1.00  0.00     0.210 C 
ATOM     15  C   UNL A   1      34.446  20.166  24.807  1.00  0.00     0.081 C 
BRANCH  14  16
ATOM     16  C   UNL A   1      35.875  22.174  25.194  1.00  0.00     0.012 A 
ATOM     17  C   UNL A   1      39.615  23.813  26.638  1.00  0.00     0.047 C 
ATOM     18  C   UNL A   1      38.307  23.246  26.174  1.00  0.00    -0.015 A 
ATOM     19  C   UNL A   1      37.141  24.014  26.186  1.00  0.00     0.007 A 
ATOM     20  C   UNL A   1      38.234  21.933  25.707  1.00  0.00     0.126 A 
ATOM     21  C   UNL A   1      35.940  23.482  25.708  1.00  0.00     0.010 A 
ATOM     22  C   UNL A   1      37.043  21.398  25.218  1.00  0.00     0.049 A 
ATOM     23  F   UNL A   1      39.331  21.163  25.705  1.00  0.00    -0.207 F 
ENDBRANCH  14  16
ENDBRANCH  11  14
ENDBRANCH   9  11
ENDBRANCH   8   9
ENDBRANCH   7   8
ENDBRANCH   4   7
ENDBRANCH   2   3
ENDBRANCH   1   2
BRANCH   1  24
ATOM     24  C   UNL A   1      33.321  26.793  23.015  1.00  0.00     0.002 C 
BRANCH  24  25
ATOM     25  C   UNL A   1      33.771  27.111  24.446  1.00  0.00     0.002 C 
BRANCH  25  26
ATOM     26  C   UNL A   1      33.514  28.541  24.931  1.00  0.00     0.021 C 
BRANCH  26  27
ATOM     27  C   UNL A   1      34.192  28.930  26.244  1.00  0.00     0.116 C 
BRANCH  27  28
ATOM     28  N   UNL A   1      33.923  30.309  26.610  1.00  0.00    -0.352 N 
ATOM     29  C   UNL A   1      34.488  31.098  27.578  1.00  0.00     0.251 C 
ATOM     30  H   UNL A   1      33.222  30.748  26.076  1.00  0.00     0.163 HD
ATOM     31  O   UNL A   1      33.949  32.170  27.866  1.00  0.00    -0.269 OA
BRANCH  29  32
ATOM     32  C   UNL A   1      35.720  30.686  28.285  1.00  0.00     0.039 A 
ATOM     33  C   UNL A   1      35.623  29.735  29.307  1.00  0.00     0.014 A 
ATOM     34  C   UNL A   1      36.958  31.273  28.002  1.00  0.00     0.014 A 
ATOM     35  C   UNL A   1      36.766  29.339  30.008  1.00  0.00     0.010 A 
ATOM     36  C   UNL A   1      38.108  30.833  28.661  1.00  0.00     0.010 A 
ATOM     37  C   UNL A   1      38.024  29.868  29.675  1.00  0.00    -0.014 A 
BRANCH  37  38
ATOM     38  C   UNL A   1      39.255  29.422  30.379  1.00  0.00     0.031 A 
ATOM     39  C   UNL A   1      39.719  30.129  31.627  1.00  0.00     0.074 A 
ATOM     40  C   UNL A   1      39.996  28.422  29.860  1.00  0.00     0.049 A 
ATOM     41  N   UNL A   1      40.802  29.927  32.333  1.00  0.00    -0.248 NA
ATOM     42  C   UNL A   1      38.869  31.218  32.132  1.00  0.00     0.031 C 
ATOM     43  C   UNL A   1      39.684  27.686  28.632  1.00  0.00     0.029 A 
ATOM     44  N   UNL A   1      41.173  27.861  30.290  1.00  0.00    -0.354 N 
ATOM     45  C   UNL A   1      40.779  30.879  33.346  1.00  0.00     0.074 A 
ATOM     46  C   UNL A   1      39.588  31.677  33.147  1.00  0.00     0.031 C 
ATOM     47  C   UNL A   1      40.641  26.768  28.413  1.00  0.00     0.029 A 
ATOM     48  C   UNL A   1      41.649  26.870  29.463  1.00  0.00     0.049 A 
ATOM     49  H   UNL A   1      41.634  28.143  31.114  1.00  0.00     0.167 HD
ATOM     50  C   UNL A   1      41.661  31.064  34.357  1.00  0.00     0.031 A 
ATOM     51  C   UNL A   1      42.776  26.135  29.531  1.00  0.00     0.031 A 
ATOM     52  C   UNL A   1      42.827  30.250  34.575  1.00  0.00     0.049 A 
ATOM     53  C   UNL A   1      43.723  26.342  30.682  1.00  0.00     0.074 A 
ATOM     54  C   UNL A   1      43.734  30.312  35.619  1.00  0.00     0.029 A 
ATOM     55  N   UNL A   1      43.248  29.228  33.739  1.00  0.00    -0.354 N 
ATOM     56  N   UNL A   1      43.639  27.195  31.674  1.00  0.00    -0.248 NA
ATOM     57  C   UNL A   1      44.911  25.476  30.729  1.00  0.00     0.031 C 
ATOM     58  C   UNL A   1      44.729  29.355  35.392  1.00  0.00     0.029 A 
ATOM     59  C   UNL A   1      44.414  28.665  34.232  1.00  0.00     0.049 A 
ATOM     60  H   UNL A   1      42.787  28.944  32.917  1.00  0.00     0.167 HD
ATOM     61  C   UNL A   1      44.749  26.953  32.475  1.00  0.00     0.074 A 
ATOM     62  C   UNL A   1      45.481  25.864  31.862  1.00  0.00     0.031 C 
ATOM     63  C   UNL A   1      45.128  27.578  33.616  1.00  0.00     0.031 A 
BRANCH  50  64
ATOM     64  C   UNL A   1      41.407  32.198  35.315  1.00  0.00    -0.014 A 
ATOM     65  C   UNL A   1      41.953  33.475  35.092  1.00  0.00     0.010 A 
ATOM     66  C   UNL A   1      40.547  32.002  36.412  1.00  0.00     0.010 A 
ATOM     67  C   UNL A   1      41.664  34.528  35.963  1.00  0.00     0.020 A 
ATOM     68  C   UNL A   1      40.238  33.059  37.273  1.00  0.00     0.020 A 
ATOM     69  C   UNL A   1      40.809  34.314  37.049  1.00  0.00     0.054 A 
BRANCH  69  70
ATOM     70  S   UNL A   1      40.415  35.712  38.136  1.00  0.00     0.124 S 
ATOM     71  O   UNL A   1      39.294  35.182  38.910  1.00  0.00    -0.237 OA
ATOM     72  O   UNL A   1      41.657  35.902  38.880  1.00  0.00    -0.237 OA
ATOM     73  O   UNL A   1      40.076  36.788  37.208  1.00  0.00    -0.744 OA
ENDBRANCH  69  70
ENDBRANCH  50  64
BRANCH  51  74
ATOM     74  C   UNL A   1      43.076  25.132  28.474  1.00  0.00    -0.014 A 
ATOM     75  C   UNL A   1      43.682  25.522  27.267  1.00  0.00     0.010 A 
ATOM     76  C   UNL A   1      42.749  23.778  28.670  1.00  0.00     0.010 A 
ATOM     77  C   UNL A   1      43.932  24.581  26.263  1.00  0.00     0.020 A 
ATOM     78  C   UNL A   1      43.021  22.830  27.681  1.00  0.00     0.020 A 
ATOM     79  C   UNL A   1      43.598  23.240  26.476  1.00  0.00     0.054 A 
BRANCH  79  80
ATOM     80  S   UNL A   1      43.965  22.025  25.181  1.00  0.00     0.124 S 
ATOM     81  O   UNL A   1      42.892  21.054  25.363  1.00  0.00    -0.237 OA
ATOM     82  O   UNL A   1      43.894  22.828  23.962  1.00  0.00    -0.237 OA
ATOM     83  O   UNL A   1      45.305  21.555  25.527  1.00  0.00    -0.744 OA
ENDBRANCH  79  80
ENDBRANCH  51  74
BRANCH  63  84
ATOM     84  C   UNL A   1      46.373  27.080  34.299  1.00  0.00    -0.014 A 
ATOM     85  C   UNL A   1      47.631  27.642  34.017  1.00  0.00     0.010 A 
ATOM     86  C   UNL A   1      46.273  26.075  35.278  1.00  0.00     0.010 A 
ATOM     87  C   UNL A   1      48.772  27.185  34.683  1.00  0.00     0.020 A 
ATOM     88  C   UNL A   1      47.407  25.634  35.963  1.00  0.00     0.020 A 
ATOM     89  C   UNL A   1      48.652  26.182  35.650  1.00  0.00     0.054 A 
BRANCH  89  90
ATOM     90  S   UNL A   1      50.141  25.637  36.534  1.00  0.00     0.124 S 
ATOM     91  O   UNL A   1      51.102  26.677  36.179  1.00  0.00    -0.237 OA
ATOM     92  O   UNL A   1      49.705  25.633  37.928  1.00  0.00    -0.237 OA
ATOM     93  O   UNL A   1      50.413  24.317  35.969  1.00  0.00    -0.744 OA
ENDBRANCH  89  90
ENDBRANCH  63  84
ENDBRANCH  37  38
ENDBRANCH  29  32
ENDBRANCH  27  28
ENDBRANCH  26  27
ENDBRANCH  25  26
ENDBRANCH  24  25
ENDBRANCH   1  24
TORSDOF 21
ENDMDL
