MODEL 1
REMARK VINA RESULT:     -12.1      0.000      0.000
REMARK SMILES C[C@@H](C(=O)NCCCCCCNC(=O)c1ccc(-c2c3nc(c(-c4ccc(S(=O)(=O)[O-])cc4)c4ccc([nH]4)c(-c4ccc(S(=O)(=O)[O-])cc4)c4nc(c(-c5ccc(S(=O)(=O)[O-])cc5)c5ccc2[nH]5)C=C4)C=C3)cc1)c1ccc(C[C@H]2CCCC2=O)c(-c2ccccc2)c1
REMARK SMILES IDX 8 1 7 2 6 3 5 4 3 5 4 6 2 8 1 9 75 10 76 11 93 12 77 13
REMARK SMILES IDX 86 14 78 15 87 16 88 17 92 18 89 19 91 20 90 21 79 22 80 23
REMARK SMILES IDX 81 24 84 25 82 26 83 27 85 28 9 29 10 30 11 31 12 32 13 33
REMARK SMILES IDX 14 35 15 36 16 37 74 38 17 39 73 40 18 41 19 42 20 43 67 44
REMARK SMILES IDX 21 45 72 46 66 47 68 48 22 49 71 50 65 51 64 52 23 54 53 55
REMARK SMILES IDX 34 56 52 57 35 58 38 59 51 60 69 61 36 62 37 63 50 65 70 66
REMARK SMILES IDX 39 67 24 68 25 69 33 70 26 71 32 72 27 73 28 74 29 75 30 76
REMARK SMILES IDX 31 77 54 78 55 79 63 80 56 81 62 82 57 83 58 84 59 85 60 86
REMARK SMILES IDX 61 87 40 88 41 89 49 90 42 91 48 92 43 93 44 94 45 95 46 96
REMARK SMILES IDX 47 97
REMARK H PARENT 5 7 12 34 68 53 38 64
REMARK Flexibility Score: inf
ROOT
ATOM      1  C   UNL A   1      32.868  30.038  27.410  1.00  0.00     0.002 C 
ENDROOT
BRANCH   1   2
ATOM      2  C   UNL A   1      31.517  29.950  26.686  1.00  0.00     0.021 C 
BRANCH   2   3
ATOM      3  C   UNL A   1      31.480  30.721  25.364  1.00  0.00     0.116 C 
BRANCH   3   4
ATOM      4  N   UNL A   1      30.811  29.932  24.353  1.00  0.00    -0.356 N 
ATOM      5  C   UNL A   1      31.329  29.034  23.466  1.00  0.00     0.227 C 
ATOM      6  O   UNL A   1      30.587  28.663  22.554  1.00  0.00    -0.274 OA
ATOM      7  H   UNL A   1      29.837  30.062  24.295  1.00  0.00     0.163 HD
BRANCH   5   8
ATOM      8  C   UNL A   1      32.752  28.497  23.671  1.00  0.00     0.105 C 
ATOM      9  C   UNL A   1      33.554  28.399  22.364  1.00  0.00     0.023 C 
BRANCH   8  10
ATOM     10  C   UNL A   1      32.737  27.155  24.394  1.00  0.00    -0.035 A 
ATOM     11  C   UNL A   1      31.674  26.810  25.225  1.00  0.00     0.005 A 
ATOM     12  C   UNL A   1      33.774  26.226  24.219  1.00  0.00     0.013 A 
ATOM     13  C   UNL A   1      31.687  25.595  25.909  1.00  0.00     0.004 A 
ATOM     14  C   UNL A   1      33.837  25.012  24.932  1.00  0.00    -0.015 A 
ATOM     15  C   UNL A   1      32.778  24.706  25.816  1.00  0.00    -0.039 A 
BRANCH  14  16
ATOM     16  C   UNL A   1      35.030  24.168  24.726  1.00  0.00    -0.018 A 
ATOM     17  C   UNL A   1      35.303  23.559  23.492  1.00  0.00     0.009 A 
ATOM     18  C   UNL A   1      35.960  23.994  25.767  1.00  0.00     0.009 A 
ATOM     19  C   UNL A   1      36.439  22.763  23.320  1.00  0.00     0.001 A 
ATOM     20  C   UNL A   1      37.105  23.215  25.592  1.00  0.00     0.001 A 
ATOM     21  C   UNL A   1      37.338  22.589  24.371  1.00  0.00     0.000 A 
ENDBRANCH  14  16
BRANCH  15  22
ATOM     22  C   UNL A   1      32.767  23.482  26.710  1.00  0.00     0.047 C 
BRANCH  22  23
ATOM     23  C   UNL A   1      32.072  22.230  26.155  1.00  0.00     0.060 C 
ATOM     24  C   UNL A   1      31.256  22.398  24.872  1.00  0.00     0.012 C 
ATOM     25  C   UNL A   1      33.052  21.149  25.767  1.00  0.00     0.136 C 
ATOM     26  C   UNL A   1      32.159  21.952  23.727  1.00  0.00     0.009 C 
ATOM     27  C   UNL A   1      33.017  20.831  24.296  1.00  0.00     0.076 C 
ATOM     28  O   UNL A   1      33.784  20.574  26.566  1.00  0.00    -0.299 OA
ENDBRANCH  22  23
ENDBRANCH  15  22
ENDBRANCH   8  10
ENDBRANCH   5   8
ENDBRANCH   3   4
ENDBRANCH   2   3
ENDBRANCH   1   2
BRANCH   1  29
ATOM     29  C   UNL A   1      33.994  29.229  26.758  1.00  0.00     0.002 C 
BRANCH  29  30
ATOM     30  C   UNL A   1      35.292  29.178  27.567  1.00  0.00     0.021 C 
BRANCH  30  31
ATOM     31  C   UNL A   1      35.725  30.521  28.141  1.00  0.00     0.116 C 
BRANCH  31  32
ATOM     32  N   UNL A   1      35.664  30.531  29.593  1.00  0.00    -0.352 N 
ATOM     33  C   UNL A   1      36.564  30.030  30.498  1.00  0.00     0.251 C 
ATOM     34  H   UNL A   1      34.866  30.956  29.981  1.00  0.00     0.163 HD
ATOM     35  O   UNL A   1      36.248  29.924  31.683  1.00  0.00    -0.269 OA
BRANCH  33  36
ATOM     36  C   UNL A   1      37.904  29.605  30.044  1.00  0.00     0.039 A 
ATOM     37  C   UNL A   1      38.293  29.876  28.731  1.00  0.00     0.014 A 
ATOM     38  C   UNL A   1      38.771  28.931  30.911  1.00  0.00     0.014 A 
ATOM     39  C   UNL A   1      39.570  29.512  28.300  1.00  0.00     0.010 A 
ATOM     40  C   UNL A   1      40.069  28.639  30.503  1.00  0.00     0.010 A 
ATOM     41  C   UNL A   1      40.479  28.914  29.190  1.00  0.00    -0.014 A 
BRANCH  41  42
ATOM     42  C   UNL A   1      41.854  28.557  28.759  1.00  0.00     0.031 A 
ATOM     43  C   UNL A   1      42.935  29.604  28.736  1.00  0.00     0.074 A 
ATOM     44  C   UNL A   1      42.118  27.303  28.342  1.00  0.00     0.049 A 
ATOM     45  N   UNL A   1      44.185  29.490  28.365  1.00  0.00    -0.248 NA
ATOM     46  C   UNL A   1      42.559  30.962  29.164  1.00  0.00     0.031 C 
ATOM     47  C   UNL A   1      41.146  26.208  28.283  1.00  0.00     0.029 A 
ATOM     48  N   UNL A   1      43.283  26.736  27.891  1.00  0.00    -0.354 N 
ATOM     49  C   UNL A   1      44.737  30.759  28.499  1.00  0.00     0.074 A 
ATOM     50  C   UNL A   1      43.673  31.639  28.931  1.00  0.00     0.031 C 
ATOM     51  C   UNL A   1      41.764  25.094  27.857  1.00  0.00     0.029 A 
ATOM     52  C   UNL A   1      43.162  25.404  27.573  1.00  0.00     0.049 A 
ATOM     53  H   UNL A   1      44.126  27.237  27.802  1.00  0.00     0.167 HD
ATOM     54  C   UNL A   1      46.018  31.155  28.301  1.00  0.00     0.031 A 
ATOM     55  C   UNL A   1      44.073  24.529  27.103  1.00  0.00     0.031 A 
ATOM     56  C   UNL A   1      47.075  30.274  27.878  1.00  0.00     0.049 A 
ATOM     57  C   UNL A   1      45.485  24.996  26.874  1.00  0.00     0.074 A 
ATOM     58  C   UNL A   1      48.416  30.564  27.698  1.00  0.00     0.029 A 
ATOM     59  N   UNL A   1      46.910  28.933  27.562  1.00  0.00    -0.354 N 
ATOM     60  N   UNL A   1      46.002  26.185  27.070  1.00  0.00    -0.248 NA
ATOM     61  C   UNL A   1      46.437  23.997  26.371  1.00  0.00     0.031 C 
ATOM     62  C   UNL A   1      49.051  29.414  27.219  1.00  0.00     0.029 A 
ATOM     63  C   UNL A   1      48.119  28.390  27.163  1.00  0.00     0.049 A 
ATOM     64  H   UNL A   1      46.058  28.442  27.613  1.00  0.00     0.167 HD
ATOM     65  C   UNL A   1      47.350  26.068  26.747  1.00  0.00     0.074 A 
ATOM     66  C   UNL A   1      47.568  24.690  26.356  1.00  0.00     0.031 C 
ATOM     67  C   UNL A   1      48.321  27.016  26.774  1.00  0.00     0.031 A 
BRANCH  54  68
ATOM     68  C   UNL A   1      46.341  32.609  28.532  1.00  0.00    -0.014 A 
ATOM     69  C   UNL A   1      46.317  33.539  27.475  1.00  0.00     0.010 A 
ATOM     70  C   UNL A   1      46.646  33.060  29.829  1.00  0.00     0.010 A 
ATOM     71  C   UNL A   1      46.641  34.879  27.703  1.00  0.00     0.020 A 
ATOM     72  C   UNL A   1      46.940  34.405  30.067  1.00  0.00     0.020 A 
ATOM     73  C   UNL A   1      46.954  35.303  28.997  1.00  0.00     0.054 A 
BRANCH  73  74
ATOM     74  S   UNL A   1      47.361  37.051  29.264  1.00  0.00     0.124 S 
ATOM     75  O   UNL A   1      46.812  37.675  28.063  1.00  0.00    -0.237 OA
ATOM     76  O   UNL A   1      46.657  37.356  30.508  1.00  0.00    -0.237 OA
ATOM     77  O   UNL A   1      48.819  37.058  29.358  1.00  0.00    -0.744 OA
ENDBRANCH  73  74
ENDBRANCH  54  68
BRANCH  55  78
ATOM     78  C   UNL A   1      43.683  23.116  26.843  1.00  0.00    -0.014 A 
ATOM     79  C   UNL A   1      42.765  22.463  27.684  1.00  0.00     0.010 A 
ATOM     80  C   UNL A   1      44.220  22.417  25.746  1.00  0.00     0.010 A 
ATOM     81  C   UNL A   1      42.406  21.133  27.448  1.00  0.00     0.020 A 
ATOM     82  C   UNL A   1      43.841  21.096  25.488  1.00  0.00     0.020 A 
ATOM     83  C   UNL A   1      42.945  20.458  26.348  1.00  0.00     0.054 A 
BRANCH  83  84
ATOM     84  S   UNL A   1      42.430  18.748  26.033  1.00  0.00     0.124 S 
ATOM     85  O   UNL A   1      42.725  18.102  27.308  1.00  0.00    -0.237 OA
ATOM     86  O   UNL A   1      41.013  18.901  25.713  1.00  0.00    -0.237 OA
ATOM     87  O   UNL A   1      43.273  18.338  24.913  1.00  0.00    -0.744 OA
ENDBRANCH  83  84
ENDBRANCH  55  78
BRANCH  67  88
ATOM     88  C   UNL A   1      49.718  26.587  26.411  1.00  0.00    -0.014 A 
ATOM     89  C   UNL A   1      50.590  26.039  27.369  1.00  0.00     0.010 A 
ATOM     90  C   UNL A   1      50.148  26.693  25.074  1.00  0.00     0.010 A 
ATOM     91  C   UNL A   1      51.879  25.642  27.004  1.00  0.00     0.020 A 
ATOM     92  C   UNL A   1      51.423  26.267  24.700  1.00  0.00     0.020 A 
ATOM     93  C   UNL A   1      52.288  25.759  25.671  1.00  0.00     0.054 A 
BRANCH  93  94
ATOM     94  S   UNL A   1      53.953  25.203  25.217  1.00  0.00     0.124 S 
ATOM     95  O   UNL A   1      53.721  23.805  24.862  1.00  0.00    -0.237 OA
ATOM     96  O   UNL A   1      54.293  26.086  24.104  1.00  0.00    -0.237 OA
ATOM     97  O   UNL A   1      54.735  25.415  26.434  1.00  0.00    -0.744 OA
ENDBRANCH  93  94
ENDBRANCH  67  88
ENDBRANCH  41  42
ENDBRANCH  33  36
ENDBRANCH  31  32
ENDBRANCH  30  31
ENDBRANCH  29  30
ENDBRANCH   1  29
TORSDOF 20
ENDMDL
MODEL 2
REMARK VINA RESULT:     -12.0      0.570      7.917
REMARK SMILES C[C@@H](C(=O)NCCCCCCNC(=O)c1ccc(-c2c3nc(c(-c4ccc(S(=O)(=O)[O-])cc4)c4ccc([nH]4)c(-c4ccc(S(=O)(=O)[O-])cc4)c4nc(c(-c5ccc(S(=O)(=O)[O-])cc5)c5ccc2[nH]5)C=C4)C=C3)cc1)c1ccc(C[C@H]2CCCC2=O)c(-c2ccccc2)c1
REMARK SMILES IDX 8 1 7 2 6 3 5 4 3 5 4 6 2 8 1 9 75 10 76 11 93 12 77 13
REMARK SMILES IDX 86 14 78 15 87 16 88 17 92 18 89 19 91 20 90 21 79 22 80 23
REMARK SMILES IDX 81 24 84 25 82 26 83 27 85 28 9 29 10 30 11 31 12 32 13 33
REMARK SMILES IDX 14 35 15 36 16 37 74 38 17 39 73 40 18 41 19 42 20 43 67 44
REMARK SMILES IDX 21 45 72 46 66 47 68 48 22 49 71 50 65 51 64 52 23 54 53 55
REMARK SMILES IDX 34 56 52 57 35 58 38 59 51 60 69 61 36 62 37 63 50 65 70 66
REMARK SMILES IDX 39 67 24 68 25 69 33 70 26 71 32 72 27 73 28 74 29 75 30 76
REMARK SMILES IDX 31 77 54 78 55 79 63 80 56 81 62 82 57 83 58 84 59 85 60 86
REMARK SMILES IDX 61 87 40 88 41 89 49 90 42 91 48 92 43 93 44 94 45 95 46 96
REMARK SMILES IDX 47 97
REMARK H PARENT 5 7 12 34 68 53 38 64
REMARK Flexibility Score: inf
ROOT
ATOM      1  C   UNL A   1      33.032  30.589  27.303  1.00  0.00     0.002 C 
ENDROOT
BRANCH   1   2
ATOM      2  C   UNL A   1      31.625  30.279  26.772  1.00  0.00     0.021 C 
BRANCH   2   3
ATOM      3  C   UNL A   1      31.310  30.965  25.439  1.00  0.00     0.116 C 
BRANCH   3   4
ATOM      4  N   UNL A   1      30.704  30.018  24.529  1.00  0.00    -0.356 N 
ATOM      5  C   UNL A   1      31.284  29.041  23.776  1.00  0.00     0.227 C 
ATOM      6  O   UNL A   1      30.582  28.517  22.908  1.00  0.00    -0.274 OA
ATOM      7  H   UNL A   1      29.725  30.090  24.440  1.00  0.00     0.163 HD
BRANCH   5   8
ATOM      8  C   UNL A   1      32.727  28.609  24.071  1.00  0.00     0.105 C 
ATOM      9  C   UNL A   1      33.624  28.610  22.824  1.00  0.00     0.023 C 
BRANCH   8  10
ATOM     10  C   UNL A   1      32.767  27.249  24.760  1.00  0.00    -0.035 A 
ATOM     11  C   UNL A   1      31.777  26.889  25.671  1.00  0.00     0.005 A 
ATOM     12  C   UNL A   1      33.779  26.321  24.475  1.00  0.00     0.013 A 
ATOM     13  C   UNL A   1      31.841  25.657  26.322  1.00  0.00     0.004 A 
ATOM     14  C   UNL A   1      33.896  25.090  25.151  1.00  0.00    -0.015 A 
ATOM     15  C   UNL A   1      32.915  24.767  26.114  1.00  0.00    -0.039 A 
BRANCH  14  16
ATOM     16  C   UNL A   1      35.062  24.247  24.823  1.00  0.00    -0.018 A 
ATOM     17  C   UNL A   1      36.035  23.923  25.779  1.00  0.00     0.009 A 
ATOM     18  C   UNL A   1      35.197  23.700  23.533  1.00  0.00     0.009 A 
ATOM     19  C   UNL A   1      37.131  23.123  25.446  1.00  0.00     0.001 A 
ATOM     20  C   UNL A   1      36.281  22.885  23.203  1.00  0.00     0.001 A 
ATOM     21  C   UNL A   1      37.256  22.606  24.157  1.00  0.00     0.000 A 
ENDBRANCH  14  16
BRANCH  15  22
ATOM     22  C   UNL A   1      32.973  23.521  26.977  1.00  0.00     0.047 C 
BRANCH  22  23
ATOM     23  C   UNL A   1      32.276  22.269  26.426  1.00  0.00     0.060 C 
ATOM     24  C   UNL A   1      31.135  22.488  25.430  1.00  0.00     0.012 C 
ATOM     25  C   UNL A   1      33.214  21.383  25.641  1.00  0.00     0.136 C 
ATOM     26  C   UNL A   1      31.738  22.312  24.041  1.00  0.00     0.009 C 
ATOM     27  C   UNL A   1      32.817  21.250  24.195  1.00  0.00     0.076 C 
ATOM     28  O   UNL A   1      34.183  20.813  26.132  1.00  0.00    -0.299 OA
ENDBRANCH  22  23
ENDBRANCH  15  22
ENDBRANCH   8  10
ENDBRANCH   5   8
ENDBRANCH   3   4
ENDBRANCH   2   3
ENDBRANCH   1   2
BRANCH   1  29
ATOM     29  C   UNL A   1      34.131  29.659  26.780  1.00  0.00     0.002 C 
BRANCH  29  30
ATOM     30  C   UNL A   1      35.198  29.290  27.812  1.00  0.00     0.021 C 
BRANCH  30  31
ATOM     31  C   UNL A   1      35.797  30.483  28.547  1.00  0.00     0.116 C 
BRANCH  31  32
ATOM     32  N   UNL A   1      35.774  30.294  29.988  1.00  0.00    -0.352 N 
ATOM     33  C   UNL A   1      36.709  29.700  30.795  1.00  0.00     0.251 C 
ATOM     34  H   UNL A   1      34.977  30.642  30.449  1.00  0.00     0.163 HD
ATOM     35  O   UNL A   1      36.427  29.426  31.962  1.00  0.00    -0.269 OA
BRANCH  33  36
ATOM     36  C   UNL A   1      38.046  29.377  30.257  1.00  0.00     0.039 A 
ATOM     37  C   UNL A   1      38.372  29.782  28.961  1.00  0.00     0.014 A 
ATOM     38  C   UNL A   1      38.973  28.666  31.027  1.00  0.00     0.014 A 
ATOM     39  C   UNL A   1      39.645  29.513  28.454  1.00  0.00     0.010 A 
ATOM     40  C   UNL A   1      40.265  28.468  30.548  1.00  0.00     0.010 A 
ATOM     41  C   UNL A   1      40.611  28.878  29.253  1.00  0.00    -0.014 A 
BRANCH  41  42
ATOM     42  C   UNL A   1      41.982  28.622  28.741  1.00  0.00     0.031 A 
ATOM     43  C   UNL A   1      42.361  27.252  28.248  1.00  0.00     0.074 A 
ATOM     44  C   UNL A   1      42.897  29.610  28.765  1.00  0.00     0.049 A 
ATOM     45  N   UNL A   1      43.513  26.829  27.792  1.00  0.00    -0.248 NA
ATOM     46  C   UNL A   1      41.318  26.213  28.294  1.00  0.00     0.031 C 
ATOM     47  C   UNL A   1      42.663  30.972  29.253  1.00  0.00     0.029 A 
ATOM     48  N   UNL A   1      44.211  29.623  28.369  1.00  0.00    -0.354 N 
ATOM     49  C   UNL A   1      43.338  25.479  27.513  1.00  0.00     0.074 A 
ATOM     50  C   UNL A   1      41.987  25.139  27.904  1.00  0.00     0.031 C 
ATOM     51  C   UNL A   1      43.783  31.696  29.093  1.00  0.00     0.029 A 
ATOM     52  C   UNL A   1      44.826  30.842  28.532  1.00  0.00     0.049 A 
ATOM     53  H   UNL A   1      44.670  28.833  28.002  1.00  0.00     0.167 HD
ATOM     54  C   UNL A   1      44.214  24.603  26.963  1.00  0.00     0.031 A 
ATOM     55  C   UNL A   1      46.088  31.230  28.262  1.00  0.00     0.031 A 
ATOM     56  C   UNL A   1      45.554  24.948  26.570  1.00  0.00     0.049 A 
ATOM     57  C   UNL A   1      47.047  30.236  27.668  1.00  0.00     0.074 A 
ATOM     58  C   UNL A   1      46.503  24.149  25.956  1.00  0.00     0.029 A 
ATOM     59  N   UNL A   1      46.139  26.192  26.756  1.00  0.00    -0.354 N 
ATOM     60  N   UNL A   1      46.842  28.980  27.351  1.00  0.00    -0.248 NA
ATOM     61  C   UNL A   1      48.406  30.717  27.384  1.00  0.00     0.031 C 
ATOM     62  C   UNL A   1      47.680  24.892  25.823  1.00  0.00     0.029 A 
ATOM     63  C   UNL A   1      47.445  26.174  26.294  1.00  0.00     0.049 A 
ATOM     64  H   UNL A   1      45.693  26.972  27.158  1.00  0.00     0.167 HD
ATOM     65  C   UNL A   1      48.037  28.530  26.798  1.00  0.00     0.074 A 
ATOM     66  C   UNL A   1      48.953  29.652  26.813  1.00  0.00     0.031 C 
ATOM     67  C   UNL A   1      48.346  27.299  26.317  1.00  0.00     0.031 A 
BRANCH  54  68
ATOM     68  C   UNL A   1      43.747  23.183  26.764  1.00  0.00    -0.014 A 
ATOM     69  C   UNL A   1      42.958  22.532  27.732  1.00  0.00     0.010 A 
ATOM     70  C   UNL A   1      44.077  22.498  25.581  1.00  0.00     0.010 A 
ATOM     71  C   UNL A   1      42.553  21.209  27.542  1.00  0.00     0.020 A 
ATOM     72  C   UNL A   1      43.647  21.184  25.374  1.00  0.00     0.020 A 
ATOM     73  C   UNL A   1      42.903  20.542  26.366  1.00  0.00     0.054 A 
BRANCH  73  74
ATOM     74  S   UNL A   1      42.355  18.827  26.142  1.00  0.00     0.124 S 
ATOM     75  O   UNL A   1      43.235  18.367  25.071  1.00  0.00    -0.237 OA
ATOM     76  O   UNL A   1      42.605  18.238  27.456  1.00  0.00    -0.237 OA
ATOM     77  O   UNL A   1      40.947  18.956  25.778  1.00  0.00    -0.744 OA
ENDBRANCH  73  74
ENDBRANCH  54  68
BRANCH  55  78
ATOM     78  C   UNL A   1      46.507  32.633  28.528  1.00  0.00    -0.014 A 
ATOM     79  C   UNL A   1      46.347  33.625  27.544  1.00  0.00     0.010 A 
ATOM     80  C   UNL A   1      47.062  32.989  29.772  1.00  0.00     0.010 A 
ATOM     81  C   UNL A   1      46.752  34.940  27.789  1.00  0.00     0.020 A 
ATOM     82  C   UNL A   1      47.440  34.310  30.032  1.00  0.00     0.020 A 
ATOM     83  C   UNL A   1      47.294  35.275  29.034  1.00  0.00     0.054 A 
BRANCH  83  84
ATOM     84  S   UNL A   1      47.768  36.997  29.346  1.00  0.00     0.124 S 
ATOM     85  O   UNL A   1      46.515  37.707  29.107  1.00  0.00    -0.237 OA
ATOM     86  O   UNL A   1      48.217  36.953  30.736  1.00  0.00    -0.237 OA
ATOM     87  O   UNL A   1      48.825  37.243  28.367  1.00  0.00    -0.744 OA
ENDBRANCH  83  84
ENDBRANCH  55  78
BRANCH  67  88
ATOM     88  C   UNL A   1      49.720  27.111  25.730  1.00  0.00    -0.014 A 
ATOM     89  C   UNL A   1      50.764  26.535  26.477  1.00  0.00     0.010 A 
ATOM     90  C   UNL A   1      49.956  27.476  24.391  1.00  0.00     0.010 A 
ATOM     91  C   UNL A   1      52.028  26.364  25.906  1.00  0.00     0.020 A 
ATOM     92  C   UNL A   1      51.209  27.276  23.808  1.00  0.00     0.020 A 
ATOM     93  C   UNL A   1      52.243  26.736  24.575  1.00  0.00     0.054 A 
BRANCH  93  94
ATOM     94  S   UNL A   1      53.882  26.470  23.848  1.00  0.00     0.124 S 
ATOM     95  O   UNL A   1      53.551  26.117  22.470  1.00  0.00    -0.237 OA
ATOM     96  O   UNL A   1      54.526  27.769  24.026  1.00  0.00    -0.237 OA
ATOM     97  O   UNL A   1      54.447  25.387  24.650  1.00  0.00    -0.744 OA
ENDBRANCH  93  94
ENDBRANCH  67  88
ENDBRANCH  41  42
ENDBRANCH  33  36
ENDBRANCH  31  32
ENDBRANCH  30  31
ENDBRANCH  29  30
ENDBRANCH   1  29
TORSDOF 20
ENDMDL
MODEL 3
REMARK VINA RESULT:     -12.0      6.141     11.942
REMARK SMILES C[C@@H](C(=O)NCCCCCCNC(=O)c1ccc(-c2c3nc(c(-c4ccc(S(=O)(=O)[O-])cc4)c4ccc([nH]4)c(-c4ccc(S(=O)(=O)[O-])cc4)c4nc(c(-c5ccc(S(=O)(=O)[O-])cc5)c5ccc2[nH]5)C=C4)C=C3)cc1)c1ccc(C[C@H]2CCCC2=O)c(-c2ccccc2)c1
REMARK SMILES IDX 8 1 7 2 6 3 5 4 3 5 4 6 2 8 1 9 75 10 76 11 93 12 77 13
REMARK SMILES IDX 86 14 78 15 87 16 88 17 92 18 89 19 91 20 90 21 79 22 80 23
REMARK SMILES IDX 81 24 84 25 82 26 83 27 85 28 9 29 10 30 11 31 12 32 13 33
REMARK SMILES IDX 14 35 15 36 16 37 74 38 17 39 73 40 18 41 19 42 20 43 67 44
REMARK SMILES IDX 21 45 72 46 66 47 68 48 22 49 71 50 65 51 64 52 23 54 53 55
REMARK SMILES IDX 34 56 52 57 35 58 38 59 51 60 69 61 36 62 37 63 50 65 70 66
REMARK SMILES IDX 39 67 24 68 25 69 33 70 26 71 32 72 27 73 28 74 29 75 30 76
REMARK SMILES IDX 31 77 54 78 55 79 63 80 56 81 62 82 57 83 58 84 59 85 60 86
REMARK SMILES IDX 61 87 40 88 41 89 49 90 42 91 48 92 43 93 44 94 45 95 46 96
REMARK SMILES IDX 47 97
REMARK H PARENT 5 7 12 34 68 53 38 64
REMARK Flexibility Score: inf
ROOT
ATOM      1  C   UNL A   1      37.206  22.910  24.177  1.00  0.00     0.002 C 
ENDROOT
BRANCH   1   2
ATOM      2  C   UNL A   1      35.796  22.978  23.574  1.00  0.00     0.021 C 
BRANCH   2   3
ATOM      3  C   UNL A   1      34.831  21.939  24.153  1.00  0.00     0.116 C 
BRANCH   3   4
ATOM      4  N   UNL A   1      33.558  22.015  23.472  1.00  0.00    -0.356 N 
ATOM      5  C   UNL A   1      32.321  22.301  23.968  1.00  0.00     0.227 C 
ATOM      6  O   UNL A   1      31.359  22.079  23.228  1.00  0.00    -0.274 OA
ATOM      7  H   UNL A   1      33.589  21.833  22.504  1.00  0.00     0.163 HD
BRANCH   5   8
ATOM      8  C   UNL A   1      32.186  22.923  25.365  1.00  0.00     0.105 C 
ATOM      9  C   UNL A   1      30.807  22.689  26.000  1.00  0.00     0.023 C 
BRANCH   8  10
ATOM     10  C   UNL A   1      32.522  24.411  25.342  1.00  0.00    -0.035 A 
ATOM     11  C   UNL A   1      33.716  24.876  25.888  1.00  0.00     0.005 A 
ATOM     12  C   UNL A   1      31.655  25.340  24.748  1.00  0.00     0.013 A 
ATOM     13  C   UNL A   1      33.997  26.242  25.893  1.00  0.00     0.004 A 
ATOM     14  C   UNL A   1      31.889  26.729  24.780  1.00  0.00    -0.015 A 
ATOM     15  C   UNL A   1      33.078  27.187  25.390  1.00  0.00    -0.039 A 
BRANCH  14  16
ATOM     16  C   UNL A   1      30.850  27.604  24.202  1.00  0.00    -0.018 A 
ATOM     17  C   UNL A   1      31.053  28.981  24.028  1.00  0.00     0.009 A 
ATOM     18  C   UNL A   1      29.633  27.056  23.759  1.00  0.00     0.009 A 
ATOM     19  C   UNL A   1      30.055  29.790  23.479  1.00  0.00     0.001 A 
ATOM     20  C   UNL A   1      28.642  27.859  23.193  1.00  0.00     0.001 A 
ATOM     21  C   UNL A   1      28.849  29.229  23.064  1.00  0.00     0.000 A 
ENDBRANCH  14  16
BRANCH  15  22
ATOM     22  C   UNL A   1      33.408  28.655  25.574  1.00  0.00     0.047 C 
BRANCH  22  23
ATOM     23  C   UNL A   1      33.445  29.178  27.017  1.00  0.00     0.060 C 
ATOM     24  C   UNL A   1      34.812  29.231  27.703  1.00  0.00     0.012 C 
ATOM     25  C   UNL A   1      32.981  30.611  27.125  1.00  0.00     0.136 C 
ATOM     26  C   UNL A   1      35.307  30.667  27.563  1.00  0.00     0.009 C 
ATOM     27  C   UNL A   1      34.059  31.537  27.621  1.00  0.00     0.076 C 
ATOM     28  O   UNL A   1      31.842  30.979  26.861  1.00  0.00    -0.299 OA
ENDBRANCH  22  23
ENDBRANCH  15  22
ENDBRANCH   8  10
ENDBRANCH   5   8
ENDBRANCH   3   4
ENDBRANCH   2   3
ENDBRANCH   1   2
BRANCH   1  29
ATOM     29  C   UNL A   1      37.241  22.777  25.703  1.00  0.00     0.002 C 
BRANCH  29  30
ATOM     30  C   UNL A   1      38.629  22.517  26.289  1.00  0.00     0.021 C 
BRANCH  30  31
ATOM     31  C   UNL A   1      39.320  23.759  26.839  1.00  0.00     0.116 C 
BRANCH  31  32
ATOM     32  N   UNL A   1      40.435  24.170  26.001  1.00  0.00    -0.352 N 
ATOM     33  C   UNL A   1      41.190  25.312  26.069  1.00  0.00     0.251 C 
ATOM     34  H   UNL A   1      40.683  23.541  25.286  1.00  0.00     0.163 HD
ATOM     35  O   UNL A   1      41.948  25.603  25.143  1.00  0.00    -0.269 OA
BRANCH  33  36
ATOM     36  C   UNL A   1      41.080  26.198  27.246  1.00  0.00     0.039 A 
ATOM     37  C   UNL A   1      41.962  27.274  27.370  1.00  0.00     0.014 A 
ATOM     38  C   UNL A   1      40.115  25.960  28.231  1.00  0.00     0.014 A 
ATOM     39  C   UNL A   1      41.845  28.139  28.459  1.00  0.00     0.010 A 
ATOM     40  C   UNL A   1      39.951  26.868  29.274  1.00  0.00     0.010 A 
ATOM     41  C   UNL A   1      40.822  27.959  29.406  1.00  0.00    -0.014 A 
BRANCH  41  42
ATOM     42  C   UNL A   1      40.660  28.895  30.548  1.00  0.00     0.031 A 
ATOM     43  C   UNL A   1      41.540  28.765  31.762  1.00  0.00     0.074 A 
ATOM     44  C   UNL A   1      39.690  29.829  30.512  1.00  0.00     0.049 A 
ATOM     45  N   UNL A   1      41.530  29.469  32.866  1.00  0.00    -0.248 NA
ATOM     46  C   UNL A   1      42.548  27.691  31.745  1.00  0.00     0.031 C 
ATOM     47  C   UNL A   1      38.749  30.032  29.408  1.00  0.00     0.029 A 
ATOM     48  N   UNL A   1      39.334  30.786  31.429  1.00  0.00    -0.354 N 
ATOM     49  C   UNL A   1      42.515  28.914  33.677  1.00  0.00     0.074 A 
ATOM     50  C   UNL A   1      43.062  27.782  32.962  1.00  0.00     0.031 C 
ATOM     51  C   UNL A   1      37.949  31.071  29.696  1.00  0.00     0.029 A 
ATOM     52  C   UNL A   1      38.291  31.582  31.021  1.00  0.00     0.049 A 
ATOM     53  H   UNL A   1      39.785  30.893  32.298  1.00  0.00     0.167 HD
ATOM     54  C   UNL A   1      42.940  29.321  34.898  1.00  0.00     0.031 A 
ATOM     55  C   UNL A   1      37.675  32.607  31.642  1.00  0.00     0.031 A 
ATOM     56  C   UNL A   1      42.396  30.452  35.602  1.00  0.00     0.049 A 
ATOM     57  C   UNL A   1      38.152  33.029  33.004  1.00  0.00     0.074 A 
ATOM     58  C   UNL A   1      42.791  30.979  36.819  1.00  0.00     0.029 A 
ATOM     59  N   UNL A   1      41.337  31.229  35.156  1.00  0.00    -0.354 N 
ATOM     60  N   UNL A   1      39.129  32.533  33.726  1.00  0.00    -0.248 NA
ATOM     61  C   UNL A   1      37.451  34.159  33.629  1.00  0.00     0.031 C 
ATOM     62  C   UNL A   1      41.934  32.037  37.136  1.00  0.00     0.029 A 
ATOM     63  C   UNL A   1      41.047  32.213  36.086  1.00  0.00     0.049 A 
ATOM     64  H   UNL A   1      40.860  31.099  34.304  1.00  0.00     0.167 HD
ATOM     65  C   UNL A   1      39.181  33.313  34.877  1.00  0.00     0.074 A 
ATOM     66  C   UNL A   1      38.147  34.320  34.747  1.00  0.00     0.031 C 
ATOM     67  C   UNL A   1      40.013  33.208  35.944  1.00  0.00     0.031 A 
BRANCH  54  68
ATOM     68  C   UNL A   1      44.042  28.528  35.551  1.00  0.00    -0.014 A 
ATOM     69  C   UNL A   1      45.397  28.845  35.336  1.00  0.00     0.010 A 
ATOM     70  C   UNL A   1      43.721  27.465  36.416  1.00  0.00     0.010 A 
ATOM     71  C   UNL A   1      46.407  28.085  35.932  1.00  0.00     0.020 A 
ATOM     72  C   UNL A   1      44.728  26.723  37.039  1.00  0.00     0.020 A 
ATOM     73  C   UNL A   1      46.065  27.026  36.777  1.00  0.00     0.054 A 
BRANCH  73  74
ATOM     74  S   UNL A   1      47.397  26.062  37.544  1.00  0.00     0.124 S 
ATOM     75  O   UNL A   1      47.765  26.907  38.678  1.00  0.00    -0.237 OA
ATOM     76  O   UNL A   1      46.729  24.809  37.886  1.00  0.00    -0.237 OA
ATOM     77  O   UNL A   1      48.405  25.962  36.492  1.00  0.00    -0.744 OA
ENDBRANCH  73  74
ENDBRANCH  54  68
BRANCH  55  78
ATOM     78  C   UNL A   1      36.555  33.320  30.969  1.00  0.00    -0.014 A 
ATOM     79  C   UNL A   1      35.238  33.188  31.443  1.00  0.00     0.010 A 
ATOM     80  C   UNL A   1      36.800  34.144  29.854  1.00  0.00     0.010 A 
ATOM     81  C   UNL A   1      34.184  33.848  30.804  1.00  0.00     0.020 A 
ATOM     82  C   UNL A   1      35.752  34.829  29.231  1.00  0.00     0.020 A 
ATOM     83  C   UNL A   1      34.449  34.668  29.703  1.00  0.00     0.054 A 
BRANCH  83  84
ATOM     84  S   UNL A   1      33.073  35.551  28.919  1.00  0.00     0.124 S 
ATOM     85  O   UNL A   1      32.475  34.509  28.090  1.00  0.00    -0.237 OA
ATOM     86  O   UNL A   1      32.279  35.980  30.068  1.00  0.00    -0.237 OA
ATOM     87  O   UNL A   1      33.732  36.632  28.189  1.00  0.00    -0.744 OA
ENDBRANCH  83  84
ENDBRANCH  55  78
BRANCH  67  88
ATOM     88  C   UNL A   1      39.868  34.231  37.039  1.00  0.00    -0.014 A 
ATOM     89  C   UNL A   1      40.481  35.494  36.949  1.00  0.00     0.010 A 
ATOM     90  C   UNL A   1      39.065  33.938  38.157  1.00  0.00     0.010 A 
ATOM     91  C   UNL A   1      40.326  36.429  37.976  1.00  0.00     0.020 A 
ATOM     92  C   UNL A   1      38.880  34.882  39.169  1.00  0.00     0.020 A 
ATOM     93  C   UNL A   1      39.526  36.116  39.081  1.00  0.00     0.054 A 
BRANCH  93  94
ATOM     94  S   UNL A   1      39.310  37.361  40.382  1.00  0.00     0.124 S 
ATOM     95  O   UNL A   1      40.691  37.653  40.755  1.00  0.00    -0.237 OA
ATOM     96  O   UNL A   1      38.607  38.434  39.684  1.00  0.00    -0.237 OA
ATOM     97  O   UNL A   1      38.523  36.667  41.399  1.00  0.00    -0.744 OA
ENDBRANCH  93  94
ENDBRANCH  67  88
ENDBRANCH  41  42
ENDBRANCH  33  36
ENDBRANCH  31  32
ENDBRANCH  30  31
ENDBRANCH  29  30
ENDBRANCH   1  29
TORSDOF 20
ENDMDL
