MODEL 1
REMARK VINA RESULT:      -9.6      0.000      0.000
REMARK SMILES C[C@@H](C(=O)[C@H](C)[C@@H](C)C(=O)NCCCCCCNC(=O)c1ccc(-c2c3nc(c(-c4ccc(S(=O)(=O)[O-])cc4)c4ccc([nH]4)c(-c4ccc(S(=O)(=O)[O-])cc4)c4nc(c(-c5ccc(S(=O)(=O)[O-])cc5)c5ccc2[nH]5)C=C4)C=C3)cc1)c1ccccc1
REMARK SMILES IDX 14 1 13 2 12 3 11 4 9 5 10 6 7 8 8 9 5 10 6 11 3 12 4 13
REMARK SMILES IDX 2 14 1 15 81 16 82 17 86 18 83 19 85 20 84 21 15 22 16 23
REMARK SMILES IDX 17 24 18 25 19 26 20 28 21 29 22 30 80 31 23 32 79 33 24 34
REMARK SMILES IDX 25 35 26 36 73 37 27 38 78 39 72 40 74 41 28 42 77 43 71 44
REMARK SMILES IDX 70 45 29 47 59 48 40 49 58 50 41 51 44 52 57 53 75 54 42 55
REMARK SMILES IDX 43 56 56 58 76 59 45 60 30 61 31 62 39 63 32 64 38 65 33 66
REMARK SMILES IDX 34 67 35 68 36 69 37 70 60 71 61 72 69 73 62 74 68 75 63 76
REMARK SMILES IDX 64 77 65 78 66 79 67 80 46 81 47 82 55 83 48 84 54 85 49 86
REMARK SMILES IDX 50 87 51 88 52 89 53 90
REMARK H PARENT 11 7 18 27 74 46 44 57
REMARK Flexibility Score: inf
ROOT
ATOM      1  C   UNL A   1      33.561  23.375  26.913  1.00  0.00     0.002 C 
ENDROOT
BRANCH   1   2
ATOM      2  C   UNL A   1      32.393  22.395  26.755  1.00  0.00     0.021 C 
BRANCH   2   3
ATOM      3  C   UNL A   1      31.028  23.060  26.552  1.00  0.00     0.116 C 
BRANCH   3   4
ATOM      4  N   UNL A   1      30.668  23.144  25.147  1.00  0.00    -0.356 N 
ATOM      5  C   UNL A   1      30.660  24.184  24.273  1.00  0.00     0.223 C 
ATOM      6  O   UNL A   1      30.230  23.967  23.136  1.00  0.00    -0.275 OA
ATOM      7  H   UNL A   1      30.375  22.290  24.757  1.00  0.00     0.163 HD
BRANCH   5   8
ATOM      8  C   UNL A   1      31.175  25.569  24.645  1.00  0.00     0.085 C 
ATOM      9  C   UNL A   1      30.017  26.556  24.455  1.00  0.00     0.019 C 
BRANCH   8  10
ATOM     10  C   UNL A   1      32.524  25.933  23.977  1.00  0.00     0.066 C 
ATOM     11  C   UNL A   1      33.223  24.716  23.353  1.00  0.00     0.017 C 
BRANCH  10  12
ATOM     12  C   UNL A   1      32.306  26.981  22.865  1.00  0.00     0.143 C 
ATOM     13  O   UNL A   1      31.788  26.616  21.807  1.00  0.00    -0.299 OA
BRANCH  12  14
ATOM     14  C   UNL A   1      32.788  28.434  23.128  1.00  0.00     0.083 C 
ATOM     15  C   UNL A   1      34.155  28.717  22.507  1.00  0.00     0.021 C 
BRANCH  14  16
ATOM     16  C   UNL A   1      32.885  28.883  24.586  1.00  0.00    -0.038 A 
ATOM     17  C   UNL A   1      33.945  28.391  25.373  1.00  0.00     0.004 A 
ATOM     18  C   UNL A   1      31.881  29.623  25.224  1.00  0.00     0.004 A 
ATOM     19  C   UNL A   1      33.997  28.639  26.746  1.00  0.00     0.000 A 
ATOM     20  C   UNL A   1      31.949  29.896  26.592  1.00  0.00     0.000 A 
ATOM     21  C   UNL A   1      33.002  29.399  27.354  1.00  0.00     0.000 A 
ENDBRANCH  14  16
ENDBRANCH  12  14
ENDBRANCH  10  12
ENDBRANCH   8  10
ENDBRANCH   5   8
ENDBRANCH   3   4
ENDBRANCH   2   3
ENDBRANCH   1   2
BRANCH   1  22
ATOM     22  C   UNL A   1      34.817  22.998  26.126  1.00  0.00     0.002 C 
BRANCH  22  23
ATOM     23  C   UNL A   1      35.792  24.153  25.891  1.00  0.00     0.021 C 
BRANCH  23  24
ATOM     24  C   UNL A   1      36.879  23.857  24.863  1.00  0.00     0.116 C 
BRANCH  24  25
ATOM     25  N   UNL A   1      37.729  22.755  25.284  1.00  0.00    -0.352 N 
ATOM     26  C   UNL A   1      38.892  22.800  26.010  1.00  0.00     0.251 C 
ATOM     27  H   UNL A   1      37.430  21.858  25.011  1.00  0.00     0.163 HD
ATOM     28  O   UNL A   1      39.614  21.806  26.081  1.00  0.00    -0.269 OA
BRANCH  26  29
ATOM     29  C   UNL A   1      39.279  24.053  26.691  1.00  0.00     0.039 A 
ATOM     30  C   UNL A   1      38.862  24.271  28.005  1.00  0.00     0.014 A 
ATOM     31  C   UNL A   1      40.059  25.007  26.030  1.00  0.00     0.014 A 
ATOM     32  C   UNL A   1      39.272  25.425  28.676  1.00  0.00     0.010 A 
ATOM     33  C   UNL A   1      40.531  26.116  26.725  1.00  0.00     0.010 A 
ATOM     34  C   UNL A   1      40.136  26.343  28.053  1.00  0.00    -0.014 A 
BRANCH  34  35
ATOM     35  C   UNL A   1      40.628  27.549  28.766  1.00  0.00     0.031 A 
ATOM     36  C   UNL A   1      42.000  27.548  29.388  1.00  0.00     0.074 A 
ATOM     37  C   UNL A   1      39.823  28.621  28.905  1.00  0.00     0.049 A 
ATOM     38  N   UNL A   1      42.578  28.474  30.108  1.00  0.00    -0.248 NA
ATOM     39  C   UNL A   1      42.821  26.339  29.196  1.00  0.00     0.031 C 
ATOM     40  C   UNL A   1      38.460  28.734  28.377  1.00  0.00     0.029 A 
ATOM     41  N   UNL A   1      40.028  29.820  29.542  1.00  0.00    -0.354 N 
ATOM     42  C   UNL A   1      43.817  27.954  30.470  1.00  0.00     0.074 A 
ATOM     43  C   UNL A   1      43.888  26.615  29.931  1.00  0.00     0.031 C 
ATOM     44  C   UNL A   1      37.965  29.943  28.689  1.00  0.00     0.029 A 
ATOM     45  C   UNL A   1      38.951  30.673  29.478  1.00  0.00     0.049 A 
ATOM     46  H   UNL A   1      40.869  30.048  30.001  1.00  0.00     0.167 HD
ATOM     47  C   UNL A   1      44.811  28.546  31.172  1.00  0.00     0.031 A 
ATOM     48  C   UNL A   1      38.771  31.900  30.007  1.00  0.00     0.031 A 
ATOM     49  C   UNL A   1      44.744  29.887  31.690  1.00  0.00     0.049 A 
ATOM     50  C   UNL A   1      39.888  32.527  30.800  1.00  0.00     0.074 A 
ATOM     51  C   UNL A   1      45.724  30.596  32.362  1.00  0.00     0.029 A 
ATOM     52  N   UNL A   1      43.639  30.719  31.596  1.00  0.00    -0.354 N 
ATOM     53  N   UNL A   1      41.077  32.044  31.073  1.00  0.00    -0.248 NA
ATOM     54  C   UNL A   1      39.642  33.869  31.347  1.00  0.00     0.031 C 
ATOM     55  C   UNL A   1      45.190  31.835  32.730  1.00  0.00     0.029 A 
ATOM     56  C   UNL A   1      43.903  31.925  32.223  1.00  0.00     0.049 A 
ATOM     57  H   UNL A   1      42.793  30.488  31.150  1.00  0.00     0.167 HD
ATOM     58  C   UNL A   1      41.733  33.038  31.790  1.00  0.00     0.074 A 
ATOM     59  C   UNL A   1      40.815  34.153  31.897  1.00  0.00     0.031 C 
ATOM     60  C   UNL A   1      42.984  33.031  32.310  1.00  0.00     0.031 A 
BRANCH  47  61
ATOM     61  C   UNL A   1      46.065  27.751  31.428  1.00  0.00    -0.014 A 
ATOM     62  C   UNL A   1      47.148  27.788  30.531  1.00  0.00     0.010 A 
ATOM     63  C   UNL A   1      46.193  27.019  32.623  1.00  0.00     0.010 A 
ATOM     64  C   UNL A   1      48.323  27.086  30.810  1.00  0.00     0.020 A 
ATOM     65  C   UNL A   1      47.377  26.340  32.921  1.00  0.00     0.020 A 
ATOM     66  C   UNL A   1      48.432  26.370  32.007  1.00  0.00     0.054 A 
BRANCH  66  67
ATOM     67  S   UNL A   1      49.991  25.516  32.367  1.00  0.00     0.124 S 
ATOM     68  O   UNL A   1      49.571  24.529  33.360  1.00  0.00    -0.237 OA
ATOM     69  O   UNL A   1      50.366  24.975  31.064  1.00  0.00    -0.237 OA
ATOM     70  O   UNL A   1      50.859  26.576  32.874  1.00  0.00    -0.744 OA
ENDBRANCH  66  67
ENDBRANCH  47  61
BRANCH  48  71
ATOM     71  C   UNL A   1      37.483  32.624  29.809  1.00  0.00    -0.014 A 
ATOM     72  C   UNL A   1      36.443  32.507  30.747  1.00  0.00     0.010 A 
ATOM     73  C   UNL A   1      37.282  33.418  28.664  1.00  0.00     0.010 A 
ATOM     74  C   UNL A   1      35.213  33.137  30.527  1.00  0.00     0.020 A 
ATOM     75  C   UNL A   1      36.067  34.076  28.457  1.00  0.00     0.020 A 
ATOM     76  C   UNL A   1      35.034  33.916  29.381  1.00  0.00     0.054 A 
BRANCH  76  77
ATOM     77  S   UNL A   1      33.436  34.738  29.124  1.00  0.00     0.124 S 
ATOM     78  O   UNL A   1      32.790  33.850  28.163  1.00  0.00    -0.237 OA
ATOM     79  O   UNL A   1      32.865  34.743  30.468  1.00  0.00    -0.237 OA
ATOM     80  O   UNL A   1      33.810  36.053  28.608  1.00  0.00    -0.744 OA
ENDBRANCH  76  77
ENDBRANCH  48  71
BRANCH  60  81
ATOM     81  C   UNL A   1      43.464  34.282  32.998  1.00  0.00    -0.014 A 
ATOM     82  C   UNL A   1      43.241  34.498  34.369  1.00  0.00     0.010 A 
ATOM     83  C   UNL A   1      44.208  35.227  32.267  1.00  0.00     0.010 A 
ATOM     84  C   UNL A   1      43.729  35.652  34.989  1.00  0.00     0.020 A 
ATOM     85  C   UNL A   1      44.725  36.365  32.890  1.00  0.00     0.020 A 
ATOM     86  C   UNL A   1      44.470  36.577  34.246  1.00  0.00     0.054 A 
BRANCH  86  87
ATOM     87  S   UNL A   1      45.137  38.038  35.087  1.00  0.00     0.124 S 
ATOM     88  O   UNL A   1      45.605  37.474  36.351  1.00  0.00    -0.237 OA
ATOM     89  O   UNL A   1      46.183  38.486  34.171  1.00  0.00    -0.237 OA
ATOM     90  O   UNL A   1      43.986  38.933  35.194  1.00  0.00    -0.744 OA
ENDBRANCH  86  87
ENDBRANCH  60  81
ENDBRANCH  34  35
ENDBRANCH  26  29
ENDBRANCH  24  25
ENDBRANCH  23  24
ENDBRANCH  22  23
ENDBRANCH   1  22
TORSDOF 20
ENDMDL
MODEL 2
REMARK VINA RESULT:      -9.4      3.144      8.835
REMARK SMILES C[C@@H](C(=O)[C@H](C)[C@@H](C)C(=O)NCCCCCCNC(=O)c1ccc(-c2c3nc(c(-c4ccc(S(=O)(=O)[O-])cc4)c4ccc([nH]4)c(-c4ccc(S(=O)(=O)[O-])cc4)c4nc(c(-c5ccc(S(=O)(=O)[O-])cc5)c5ccc2[nH]5)C=C4)C=C3)cc1)c1ccccc1
REMARK SMILES IDX 14 1 13 2 12 3 11 4 9 5 10 6 7 8 8 9 5 10 6 11 3 12 4 13
REMARK SMILES IDX 2 14 1 15 81 16 82 17 86 18 83 19 85 20 84 21 15 22 16 23
REMARK SMILES IDX 17 24 18 25 19 26 20 28 21 29 22 30 80 31 23 32 79 33 24 34
REMARK SMILES IDX 25 35 26 36 73 37 27 38 78 39 72 40 74 41 28 42 77 43 71 44
REMARK SMILES IDX 70 45 29 47 59 48 40 49 58 50 41 51 44 52 57 53 75 54 42 55
REMARK SMILES IDX 43 56 56 58 76 59 45 60 30 61 31 62 39 63 32 64 38 65 33 66
REMARK SMILES IDX 34 67 35 68 36 69 37 70 60 71 61 72 69 73 62 74 68 75 63 76
REMARK SMILES IDX 64 77 65 78 66 79 67 80 46 81 47 82 55 83 48 84 54 85 49 86
REMARK SMILES IDX 50 87 51 88 52 89 53 90
REMARK H PARENT 11 7 18 27 74 46 44 57
REMARK Flexibility Score: inf
ROOT
ATOM      1  C   UNL A   1      34.104  26.428  25.947  1.00  0.00     0.002 C 
ENDROOT
BRANCH   1   2
ATOM      2  C   UNL A   1      34.271  25.030  25.342  1.00  0.00     0.021 C 
BRANCH   2   3
ATOM      3  C   UNL A   1      34.106  23.881  26.342  1.00  0.00     0.116 C 
BRANCH   3   4
ATOM      4  N   UNL A   1      34.794  22.679  25.905  1.00  0.00    -0.356 N 
ATOM      5  C   UNL A   1      34.354  21.560  25.273  1.00  0.00     0.223 C 
ATOM      6  O   UNL A   1      35.172  20.654  25.088  1.00  0.00    -0.275 OA
ATOM      7  H   UNL A   1      35.757  22.673  26.106  1.00  0.00     0.163 HD
BRANCH   5   8
ATOM      8  C   UNL A   1      32.920  21.410  24.781  1.00  0.00     0.085 C 
ATOM      9  C   UNL A   1      32.545  19.928  24.903  1.00  0.00     0.019 C 
BRANCH   8  10
ATOM     10  C   UNL A   1      32.655  22.089  23.414  1.00  0.00     0.066 C 
ATOM     11  C   UNL A   1      31.955  21.154  22.415  1.00  0.00     0.017 C 
BRANCH  10  12
ATOM     12  C   UNL A   1      31.768  23.339  23.600  1.00  0.00     0.143 C 
ATOM     13  O   UNL A   1      31.071  23.420  24.614  1.00  0.00    -0.299 OA
BRANCH  12  14
ATOM     14  C   UNL A   1      31.774  24.410  22.476  1.00  0.00     0.083 C 
ATOM     15  C   UNL A   1      33.181  24.711  21.964  1.00  0.00     0.021 C 
BRANCH  14  16
ATOM     16  C   UNL A   1      31.145  25.765  22.803  1.00  0.00    -0.038 A 
ATOM     17  C   UNL A   1      31.830  26.935  22.420  1.00  0.00     0.004 A 
ATOM     18  C   UNL A   1      30.009  25.903  23.610  1.00  0.00     0.004 A 
ATOM     19  C   UNL A   1      31.386  28.195  22.827  1.00  0.00     0.000 A 
ATOM     20  C   UNL A   1      29.548  27.165  23.992  1.00  0.00     0.000 A 
ATOM     21  C   UNL A   1      30.240  28.310  23.608  1.00  0.00     0.000 A 
ENDBRANCH  14  16
ENDBRANCH  12  14
ENDBRANCH  10  12
ENDBRANCH   8  10
ENDBRANCH   5   8
ENDBRANCH   3   4
ENDBRANCH   2   3
ENDBRANCH   1   2
BRANCH   1  22
ATOM     22  C   UNL A   1      32.652  26.857  26.164  1.00  0.00     0.002 C 
BRANCH  22  23
ATOM     23  C   UNL A   1      32.465  28.347  26.457  1.00  0.00     0.021 C 
BRANCH  23  24
ATOM     24  C   UNL A   1      33.723  29.186  26.269  1.00  0.00     0.116 C 
BRANCH  24  25
ATOM     25  N   UNL A   1      33.494  30.581  26.609  1.00  0.00    -0.352 N 
ATOM     26  C   UNL A   1      34.138  31.352  27.543  1.00  0.00     0.251 C 
ATOM     27  H   UNL A   1      32.780  31.031  26.102  1.00  0.00     0.163 HD
ATOM     28  O   UNL A   1      33.669  32.440  27.874  1.00  0.00    -0.269 OA
BRANCH  26  29
ATOM     29  C   UNL A   1      35.386  30.858  28.160  1.00  0.00     0.039 A 
ATOM     30  C   UNL A   1      36.570  31.574  27.969  1.00  0.00     0.014 A 
ATOM     31  C   UNL A   1      35.383  29.693  28.933  1.00  0.00     0.014 A 
ATOM     32  C   UNL A   1      37.742  31.147  28.597  1.00  0.00     0.010 A 
ATOM     33  C   UNL A   1      36.532  29.315  29.619  1.00  0.00     0.010 A 
ATOM     34  C   UNL A   1      37.727  30.033  29.452  1.00  0.00    -0.014 A 
BRANCH  34  35
ATOM     35  C   UNL A   1      38.950  29.594  30.173  1.00  0.00     0.031 A 
ATOM     36  C   UNL A   1      39.373  30.298  31.436  1.00  0.00     0.074 A 
ATOM     37  C   UNL A   1      39.710  28.604  29.662  1.00  0.00     0.049 A 
ATOM     38  N   UNL A   1      40.441  30.108  32.165  1.00  0.00    -0.248 NA
ATOM     39  C   UNL A   1      38.492  31.371  31.930  1.00  0.00     0.031 C 
ATOM     40  C   UNL A   1      39.426  27.865  28.429  1.00  0.00     0.029 A 
ATOM     41  N   UNL A   1      40.885  28.054  30.111  1.00  0.00    -0.354 N 
ATOM     42  C   UNL A   1      40.372  31.047  33.190  1.00  0.00     0.074 A 
ATOM     43  C   UNL A   1      39.182  31.836  32.961  1.00  0.00     0.031 C 
ATOM     44  C   UNL A   1      40.384  26.944  28.237  1.00  0.00     0.029 A 
ATOM     45  C   UNL A   1      41.375  27.056  29.301  1.00  0.00     0.049 A 
ATOM     46  H   UNL A   1      41.334  28.346  30.937  1.00  0.00     0.167 HD
ATOM     47  C   UNL A   1      41.212  31.223  34.235  1.00  0.00     0.031 A 
ATOM     48  C   UNL A   1      42.501  26.321  29.398  1.00  0.00     0.031 A 
ATOM     49  C   UNL A   1      42.385  30.422  34.470  1.00  0.00     0.049 A 
ATOM     50  C   UNL A   1      43.429  26.552  30.562  1.00  0.00     0.074 A 
ATOM     51  C   UNL A   1      43.267  30.485  35.534  1.00  0.00     0.029 A 
ATOM     52  N   UNL A   1      42.841  29.418  33.631  1.00  0.00    -0.354 N 
ATOM     53  N   UNL A   1      43.309  27.400  31.556  1.00  0.00    -0.248 NA
ATOM     54  C   UNL A   1      44.639  25.720  30.622  1.00  0.00     0.031 C 
ATOM     55  C   UNL A   1      44.290  29.561  35.308  1.00  0.00     0.029 A 
ATOM     56  C   UNL A   1      44.007  28.872  34.139  1.00  0.00     0.049 A 
ATOM     57  H   UNL A   1      42.400  29.134  32.798  1.00  0.00     0.167 HD
ATOM     58  C   UNL A   1      44.407  27.175  32.379  1.00  0.00     0.074 A 
ATOM     59  C   UNL A   1      45.172  26.105  31.774  1.00  0.00     0.031 C 
ATOM     60  C   UNL A   1      44.750  27.797  33.533  1.00  0.00     0.031 A 
BRANCH  47  61
ATOM     61  C   UNL A   1      40.903  32.326  35.213  1.00  0.00    -0.014 A 
ATOM     62  C   UNL A   1      40.159  32.079  36.380  1.00  0.00     0.010 A 
ATOM     63  C   UNL A   1      41.430  33.614  34.999  1.00  0.00     0.010 A 
ATOM     64  C   UNL A   1      39.926  33.103  37.302  1.00  0.00     0.020 A 
ATOM     65  C   UNL A   1      41.226  34.633  35.933  1.00  0.00     0.020 A 
ATOM     66  C   UNL A   1      40.465  34.373  37.075  1.00  0.00     0.054 A 
BRANCH  66  67
ATOM     67  S   UNL A   1      40.192  35.666  38.318  1.00  0.00     0.124 S 
ATOM     68  O   UNL A   1      39.860  36.819  37.484  1.00  0.00    -0.237 OA
ATOM     69  O   UNL A   1      39.090  35.122  39.106  1.00  0.00    -0.237 OA
ATOM     70  O   UNL A   1      41.473  35.752  39.015  1.00  0.00    -0.744 OA
ENDBRANCH  66  67
ENDBRANCH  47  61
BRANCH  48  71
ATOM     71  C   UNL A   1      42.823  25.297  28.363  1.00  0.00    -0.014 A 
ATOM     72  C   UNL A   1      42.491  23.946  28.563  1.00  0.00     0.010 A 
ATOM     73  C   UNL A   1      43.489  25.667  27.179  1.00  0.00     0.010 A 
ATOM     74  C   UNL A   1      42.851  22.979  27.619  1.00  0.00     0.020 A 
ATOM     75  C   UNL A   1      43.819  24.709  26.218  1.00  0.00     0.020 A 
ATOM     76  C   UNL A   1      43.515  23.368  26.453  1.00  0.00     0.054 A 
BRANCH  76  77
ATOM     77  S   UNL A   1      43.957  22.098  25.233  1.00  0.00     0.124 S 
ATOM     78  O   UNL A   1      43.873  22.842  23.980  1.00  0.00    -0.237 OA
ATOM     79  O   UNL A   1      45.301  21.712  25.654  1.00  0.00    -0.237 OA
ATOM     80  O   UNL A   1      42.933  21.073  25.423  1.00  0.00    -0.744 OA
ENDBRANCH  76  77
ENDBRANCH  48  71
BRANCH  60  81
ATOM     81  C   UNL A   1      45.977  27.305  34.255  1.00  0.00    -0.014 A 
ATOM     82  C   UNL A   1      47.238  27.888  34.042  1.00  0.00     0.010 A 
ATOM     83  C   UNL A   1      45.848  26.282  35.213  1.00  0.00     0.010 A 
ATOM     84  C   UNL A   1      48.354  27.436  34.753  1.00  0.00     0.020 A 
ATOM     85  C   UNL A   1      46.954  25.849  35.948  1.00  0.00     0.020 A 
ATOM     86  C   UNL A   1      48.204  26.420  35.703  1.00  0.00     0.054 A 
BRANCH  86  87
ATOM     87  S   UNL A   1      49.657  25.889  36.649  1.00  0.00     0.124 S 
ATOM     88  O   UNL A   1      49.843  27.006  37.572  1.00  0.00    -0.237 OA
ATOM     89  O   UNL A   1      49.204  24.640  37.255  1.00  0.00    -0.237 OA
ATOM     90  O   UNL A   1      50.697  25.742  35.634  1.00  0.00    -0.744 OA
ENDBRANCH  86  87
ENDBRANCH  60  81
ENDBRANCH  34  35
ENDBRANCH  26  29
ENDBRANCH  24  25
ENDBRANCH  23  24
ENDBRANCH  22  23
ENDBRANCH   1  22
TORSDOF 20
ENDMDL
MODEL 3
REMARK VINA RESULT:      -9.3      3.182      7.048
REMARK SMILES C[C@@H](C(=O)[C@H](C)[C@@H](C)C(=O)NCCCCCCNC(=O)c1ccc(-c2c3nc(c(-c4ccc(S(=O)(=O)[O-])cc4)c4ccc([nH]4)c(-c4ccc(S(=O)(=O)[O-])cc4)c4nc(c(-c5ccc(S(=O)(=O)[O-])cc5)c5ccc2[nH]5)C=C4)C=C3)cc1)c1ccccc1
REMARK SMILES IDX 14 1 13 2 12 3 11 4 9 5 10 6 7 8 8 9 5 10 6 11 3 12 4 13
REMARK SMILES IDX 2 14 1 15 81 16 82 17 86 18 83 19 85 20 84 21 15 22 16 23
REMARK SMILES IDX 17 24 18 25 19 26 20 28 21 29 22 30 80 31 23 32 79 33 24 34
REMARK SMILES IDX 25 35 26 36 73 37 27 38 78 39 72 40 74 41 28 42 77 43 71 44
REMARK SMILES IDX 70 45 29 47 59 48 40 49 58 50 41 51 44 52 57 53 75 54 42 55
REMARK SMILES IDX 43 56 56 58 76 59 45 60 30 61 31 62 39 63 32 64 38 65 33 66
REMARK SMILES IDX 34 67 35 68 36 69 37 70 60 71 61 72 69 73 62 74 68 75 63 76
REMARK SMILES IDX 64 77 65 78 66 79 67 80 46 81 47 82 55 83 48 84 54 85 49 86
REMARK SMILES IDX 50 87 51 88 52 89 53 90
REMARK H PARENT 11 7 18 27 74 46 44 57
REMARK Flexibility Score: inf
ROOT
ATOM      1  C   UNL A   1      34.343  26.151  25.830  1.00  0.00     0.002 C 
ENDROOT
BRANCH   1   2
ATOM      2  C   UNL A   1      34.587  24.759  25.238  1.00  0.00     0.021 C 
BRANCH   2   3
ATOM      3  C   UNL A   1      34.549  23.618  26.260  1.00  0.00     0.116 C 
BRANCH   3   4
ATOM      4  N   UNL A   1      35.090  22.384  25.717  1.00  0.00    -0.356 N 
ATOM      5  C   UNL A   1      34.503  21.339  25.077  1.00  0.00     0.223 C 
ATOM      6  O   UNL A   1      35.219  20.377  24.786  1.00  0.00    -0.275 OA
ATOM      7  H   UNL A   1      36.062  22.287  25.834  1.00  0.00     0.163 HD
BRANCH   5   8
ATOM      8  C   UNL A   1      33.027  21.336  24.702  1.00  0.00     0.085 C 
ATOM      9  C   UNL A   1      32.524  19.892  24.826  1.00  0.00     0.019 C 
BRANCH   8  10
ATOM     10  C   UNL A   1      32.717  22.075  23.376  1.00  0.00     0.066 C 
ATOM     11  C   UNL A   1      32.002  21.179  22.353  1.00  0.00     0.017 C 
BRANCH  10  12
ATOM     12  C   UNL A   1      31.823  23.303  23.642  1.00  0.00     0.143 C 
ATOM     13  O   UNL A   1      31.197  23.357  24.704  1.00  0.00    -0.299 OA
BRANCH  12  14
ATOM     14  C   UNL A   1      31.730  24.391  22.538  1.00  0.00     0.083 C 
ATOM     15  C   UNL A   1      33.071  24.639  21.849  1.00  0.00     0.021 C 
BRANCH  14  16
ATOM     16  C   UNL A   1      31.210  25.766  22.957  1.00  0.00    -0.038 A 
ATOM     17  C   UNL A   1      29.982  25.841  23.644  1.00  0.00     0.004 A 
ATOM     18  C   UNL A   1      31.807  26.965  22.546  1.00  0.00     0.004 A 
ATOM     19  C   UNL A   1      29.381  27.073  23.912  1.00  0.00     0.000 A 
ATOM     20  C   UNL A   1      31.220  28.197  22.840  1.00  0.00     0.000 A 
ATOM     21  C   UNL A   1      30.005  28.252  23.516  1.00  0.00     0.000 A 
ENDBRANCH  14  16
ENDBRANCH  12  14
ENDBRANCH  10  12
ENDBRANCH   8  10
ENDBRANCH   5   8
ENDBRANCH   3   4
ENDBRANCH   2   3
ENDBRANCH   1   2
BRANCH   1  22
ATOM     22  C   UNL A   1      32.870  26.500  26.046  1.00  0.00     0.002 C 
BRANCH  22  23
ATOM     23  C   UNL A   1      32.608  27.964  26.406  1.00  0.00     0.021 C 
BRANCH  23  24
ATOM     24  C   UNL A   1      33.850  28.847  26.381  1.00  0.00     0.116 C 
BRANCH  24  25
ATOM     25  N   UNL A   1      33.517  30.245  26.600  1.00  0.00    -0.352 N 
ATOM     26  C   UNL A   1      34.103  31.140  27.460  1.00  0.00     0.251 C 
ATOM     27  H   UNL A   1      32.772  30.596  26.060  1.00  0.00     0.163 HD
ATOM     28  O   UNL A   1      33.555  32.216  27.697  1.00  0.00    -0.269 OA
BRANCH  26  29
ATOM     29  C   UNL A   1      35.384  30.797  28.109  1.00  0.00     0.039 A 
ATOM     30  C   UNL A   1      36.481  31.645  27.945  1.00  0.00     0.014 A 
ATOM     31  C   UNL A   1      35.498  29.639  28.885  1.00  0.00     0.014 A 
ATOM     32  C   UNL A   1      37.678  31.359  28.603  1.00  0.00     0.010 A 
ATOM     33  C   UNL A   1      36.666  29.398  29.601  1.00  0.00     0.010 A 
ATOM     34  C   UNL A   1      37.773  30.250  29.461  1.00  0.00    -0.014 A 
BRANCH  34  35
ATOM     35  C   UNL A   1      39.020  29.957  30.213  1.00  0.00     0.031 A 
ATOM     36  C   UNL A   1      39.937  28.855  29.750  1.00  0.00     0.074 A 
ATOM     37  C   UNL A   1      39.298  30.639  31.342  1.00  0.00     0.049 A 
ATOM     38  N   UNL A   1      41.030  28.404  30.309  1.00  0.00    -0.248 NA
ATOM     39  C   UNL A   1      39.565  28.153  28.509  1.00  0.00     0.031 C 
ATOM     40  C   UNL A   1      38.473  31.708  31.913  1.00  0.00     0.029 A 
ATOM     41  N   UNL A   1      40.348  30.531  32.220  1.00  0.00    -0.354 N 
ATOM     42  C   UNL A   1      41.463  27.357  29.503  1.00  0.00     0.074 A 
ATOM     43  C   UNL A   1      40.491  27.208  28.443  1.00  0.00     0.031 C 
ATOM     44  C   UNL A   1      39.063  32.171  33.028  1.00  0.00     0.029 A 
ATOM     45  C   UNL A   1      40.278  31.405  33.279  1.00  0.00     0.049 A 
ATOM     46  H   UNL A   1      41.084  29.887  32.100  1.00  0.00     0.167 HD
ATOM     47  C   UNL A   1      42.579  26.601  29.624  1.00  0.00     0.031 A 
ATOM     48  C   UNL A   1      41.094  31.565  34.340  1.00  0.00     0.031 A 
ATOM     49  C   UNL A   1      43.554  26.765  30.669  1.00  0.00     0.049 A 
ATOM     50  C   UNL A   1      42.318  30.695  34.460  1.00  0.00     0.074 A 
ATOM     51  C   UNL A   1      44.748  26.087  30.843  1.00  0.00     0.029 A 
ATOM     52  N   UNL A   1      43.449  27.667  31.717  1.00  0.00    -0.354 N 
ATOM     53  N   UNL A   1      42.745  29.756  33.649  1.00  0.00    -0.248 NA
ATOM     54  C   UNL A   1      43.177  30.916  35.632  1.00  0.00     0.031 C 
ATOM     55  C   UNL A   1      45.335  26.535  32.029  1.00  0.00     0.029 A 
ATOM     56  C   UNL A   1      44.543  27.543  32.556  1.00  0.00     0.049 A 
ATOM     57  H   UNL A   1      42.708  28.302  31.845  1.00  0.00     0.167 HD
ATOM     58  C   UNL A   1      43.941  29.301  34.194  1.00  0.00     0.074 A 
ATOM     59  C   UNL A   1      44.176  30.076  35.394  1.00  0.00     0.031 C 
ATOM     60  C   UNL A   1      44.771  28.332  33.740  1.00  0.00     0.031 A 
BRANCH  47  61
ATOM     61  C   UNL A   1      42.814  25.519  28.602  1.00  0.00    -0.014 A 
ATOM     62  C   UNL A   1      42.404  24.194  28.836  1.00  0.00     0.010 A 
ATOM     63  C   UNL A   1      43.384  25.848  27.358  1.00  0.00     0.010 A 
ATOM     64  C   UNL A   1      42.582  23.214  27.856  1.00  0.00     0.020 A 
ATOM     65  C   UNL A   1      43.536  24.878  26.364  1.00  0.00     0.020 A 
ATOM     66  C   UNL A   1      43.144  23.564  26.624  1.00  0.00     0.054 A 
BRANCH  66  67
ATOM     67  S   UNL A   1      43.311  22.281  25.352  1.00  0.00     0.124 S 
ATOM     68  O   UNL A   1      42.048  21.559  25.485  1.00  0.00    -0.237 OA
ATOM     69  O   UNL A   1      43.462  23.063  24.129  1.00  0.00    -0.237 OA
ATOM     70  O   UNL A   1      44.498  21.536  25.765  1.00  0.00    -0.744 OA
ENDBRANCH  66  67
ENDBRANCH  47  61
BRANCH  48  71
ATOM     71  C   UNL A   1      40.785  32.586  35.381  1.00  0.00    -0.014 A 
ATOM     72  C   UNL A   1      41.336  33.877  35.306  1.00  0.00     0.010 A 
ATOM     73  C   UNL A   1      39.953  32.262  36.470  1.00  0.00     0.010 A 
ATOM     74  C   UNL A   1      41.094  34.812  36.318  1.00  0.00     0.020 A 
ATOM     75  C   UNL A   1      39.682  33.205  37.465  1.00  0.00     0.020 A 
ATOM     76  C   UNL A   1      40.269  34.468  37.392  1.00  0.00     0.054 A 
BRANCH  76  77
ATOM     77  S   UNL A   1      39.955  35.703  38.684  1.00  0.00     0.124 S 
ATOM     78  O   UNL A   1      39.576  36.873  37.898  1.00  0.00    -0.237 OA
ATOM     79  O   UNL A   1      38.882  35.083  39.458  1.00  0.00    -0.237 OA
ATOM     80  O   UNL A   1      41.237  35.803  39.378  1.00  0.00    -0.744 OA
ENDBRANCH  76  77
ENDBRANCH  48  71
BRANCH  60  81
ATOM     81  C   UNL A   1      46.043  28.083  34.508  1.00  0.00    -0.014 A 
ATOM     82  C   UNL A   1      46.109  27.117  35.527  1.00  0.00     0.010 A 
ATOM     83  C   UNL A   1      47.209  28.787  34.154  1.00  0.00     0.010 A 
ATOM     84  C   UNL A   1      47.312  26.882  36.199  1.00  0.00     0.020 A 
ATOM     85  C   UNL A   1      48.421  28.532  34.801  1.00  0.00     0.020 A 
ATOM     86  C   UNL A   1      48.461  27.589  35.830  1.00  0.00     0.054 A 
BRANCH  86  87
ATOM     87  S   UNL A   1      50.020  27.227  36.681  1.00  0.00     0.124 S 
ATOM     88  O   UNL A   1      49.930  25.782  36.876  1.00  0.00    -0.237 OA
ATOM     89  O   UNL A   1      51.022  27.670  35.715  1.00  0.00    -0.237 OA
ATOM     90  O   UNL A   1      49.943  28.025  37.902  1.00  0.00    -0.744 OA
ENDBRANCH  86  87
ENDBRANCH  60  81
ENDBRANCH  34  35
ENDBRANCH  26  29
ENDBRANCH  24  25
ENDBRANCH  23  24
ENDBRANCH  22  23
ENDBRANCH   1  22
TORSDOF 20
ENDMDL
