MODEL 1
REMARK VINA RESULT:      -9.5      0.000      0.000
REMARK SMILES C[C@H](C[N@H+](C)[C@H]1CC[C@H]([NH3+])CC1)C(=O)NCCCCCCNC(=O)c1ccc(-c2c3nc(c(-c4ccc(S(=O)(=O)[O-])cc4)c4ccc([nH]4)c(-c4ccc(S(=O)(=O)[O-])cc4)c4nc(c(-c5ccc(S(=O)(=O)[O-])cc5)c5ccc2[nH]5)C=C4)C=C3)cc1
REMARK SMILES IDX 18 1 17 2 16 3 15 4 13 5 14 6 2 8 1 9 3 10 4 11 5 12 6 14
REMARK SMILES IDX 7 15 12 16 8 17 11 18 9 19 10 20 19 24 20 25 21 26 22 27
REMARK SMILES IDX 23 28 24 30 25 31 26 32 84 33 27 34 83 35 28 36 29 37 30 38
REMARK SMILES IDX 77 39 31 40 82 41 76 42 78 43 32 44 81 45 75 46 74 47 33 49
REMARK SMILES IDX 63 50 44 51 62 52 45 53 48 54 61 55 79 56 46 57 47 58 60 60
REMARK SMILES IDX 80 61 49 62 34 63 35 64 43 65 36 66 42 67 37 68 38 69 39 70
REMARK SMILES IDX 40 71 41 72 64 73 65 74 73 75 66 76 72 77 67 78 68 79 69 80
REMARK SMILES IDX 70 81 71 82 50 83 51 84 59 85 52 86 58 87 53 88 54 89 55 90
REMARK SMILES IDX 56 91 57 92
REMARK H PARENT 15 7 4 13 10 21 10 22 10 23 22 29 78 48 48 59
REMARK Flexibility Score: inf
ROOT
ATOM      1  C   UNL A   1      30.878  26.401  26.259  1.00  0.00     0.002 C 
ENDROOT
BRANCH   1   2
ATOM      2  C   UNL A   1      29.735  25.841  25.416  1.00  0.00     0.021 C 
BRANCH   2   3
ATOM      3  C   UNL A   1      30.123  24.747  24.417  1.00  0.00     0.116 C 
BRANCH   3   4
ATOM      4  N   UNL A   1      30.342  25.320  23.106  1.00  0.00    -0.356 N 
ATOM      5  C   UNL A   1      31.482  25.657  22.451  1.00  0.00     0.228 C 
ATOM      6  O   UNL A   1      31.344  26.314  21.411  1.00  0.00    -0.275 OA
ATOM      7  H   UNL A   1      29.517  25.498  22.598  1.00  0.00     0.163 HD
BRANCH   5   8
ATOM      8  C   UNL A   1      32.886  25.258  22.906  1.00  0.00     0.130 C 
ATOM      9  C   UNL A   1      33.974  26.290  22.611  1.00  0.00     0.024 C 
BRANCH   8  10
ATOM     10  C   UNL A   1      33.276  23.779  22.666  1.00  0.00     0.275 C 
BRANCH  10  11
ATOM     11  N   UNL A   1      33.706  23.043  23.866  1.00  0.00    -0.334 N 
ATOM     12  C   UNL A   1      33.064  23.549  25.078  1.00  0.00     0.332 C 
ATOM     13  H   UNL A   1      33.377  22.086  23.735  1.00  0.00     0.348 HD
BRANCH  11  14
ATOM     14  C   UNL A   1      35.177  22.905  23.999  1.00  0.00     0.184 C 
ATOM     15  C   UNL A   1      35.536  21.462  24.414  1.00  0.00     0.071 C 
ATOM     16  C   UNL A   1      35.842  23.961  24.912  1.00  0.00     0.071 C 
ATOM     17  C   UNL A   1      37.037  21.268  24.632  1.00  0.00     0.071 C 
ATOM     18  C   UNL A   1      37.331  23.706  25.135  1.00  0.00     0.071 C 
ATOM     19  C   UNL A   1      37.568  22.283  25.646  1.00  0.00     0.181 C 
BRANCH  19  20
ATOM     20  N   UNL A   1      38.992  22.079  25.897  1.00  0.00    -0.355 N 
ATOM     21  H   UNL A   1      39.432  21.691  25.062  1.00  0.00     0.344 HD
ATOM     22  H   UNL A   1      39.110  21.432  26.675  1.00  0.00     0.344 HD
ATOM     23  H   UNL A   1      39.428  22.971  26.127  1.00  0.00     0.344 HD
ENDBRANCH  19  20
ENDBRANCH  11  14
ENDBRANCH  10  11
ENDBRANCH   8  10
ENDBRANCH   5   8
ENDBRANCH   3   4
ENDBRANCH   2   3
ENDBRANCH   1   2
BRANCH   1  24
ATOM     24  C   UNL A   1      31.563  27.643  25.686  1.00  0.00     0.002 C 
BRANCH  24  25
ATOM     25  C   UNL A   1      33.078  27.725  25.894  1.00  0.00     0.021 C 
BRANCH  25  26
ATOM     26  C   UNL A   1      33.531  28.213  27.269  1.00  0.00     0.116 C 
BRANCH  26  27
ATOM     27  N   UNL A   1      33.456  29.658  27.395  1.00  0.00    -0.352 N 
ATOM     28  C   UNL A   1      34.369  30.543  27.909  1.00  0.00     0.251 C 
ATOM     29  H   UNL A   1      32.623  30.062  27.060  1.00  0.00     0.163 HD
ATOM     30  O   UNL A   1      34.042  31.707  28.113  1.00  0.00    -0.269 OA
BRANCH  28  31
ATOM     31  C   UNL A   1      35.740  30.091  28.232  1.00  0.00     0.039 A 
ATOM     32  C   UNL A   1      36.717  30.139  27.234  1.00  0.00     0.014 A 
ATOM     33  C   UNL A   1      36.057  29.597  29.500  1.00  0.00     0.014 A 
ATOM     34  C   UNL A   1      38.024  29.741  27.524  1.00  0.00     0.010 A 
ATOM     35  C   UNL A   1      37.374  29.265  29.807  1.00  0.00     0.010 A 
ATOM     36  C   UNL A   1      38.371  29.327  28.821  1.00  0.00    -0.014 A 
BRANCH  36  37
ATOM     37  C   UNL A   1      39.768  28.954  29.159  1.00  0.00     0.031 A 
ATOM     38  C   UNL A   1      40.677  29.947  29.832  1.00  0.00     0.074 A 
ATOM     39  C   UNL A   1      40.236  27.739  28.811  1.00  0.00     0.049 A 
ATOM     40  N   UNL A   1      41.935  29.818  30.168  1.00  0.00    -0.248 NA
ATOM     41  C   UNL A   1      40.102  31.264  30.151  1.00  0.00     0.031 C 
ATOM     42  C   UNL A   1      39.466  26.698  28.127  1.00  0.00     0.029 A 
ATOM     43  N   UNL A   1      41.475  27.173  28.985  1.00  0.00    -0.354 N 
ATOM     44  C   UNL A   1      42.307  31.039  30.720  1.00  0.00     0.074 A 
ATOM     45  C   UNL A   1      41.156  31.910  30.631  1.00  0.00     0.031 C 
ATOM     46  C   UNL A   1      40.239  25.612  27.966  1.00  0.00     0.029 A 
ATOM     47  C   UNL A   1      41.569  25.891  28.497  1.00  0.00     0.049 A 
ATOM     48  H   UNL A   1      42.225  27.641  29.417  1.00  0.00     0.167 HD
ATOM     49  C   UNL A   1      43.493  31.398  31.269  1.00  0.00     0.031 A 
ATOM     50  C   UNL A   1      42.610  25.035  28.476  1.00  0.00     0.031 A 
ATOM     51  C   UNL A   1      44.635  30.526  31.362  1.00  0.00     0.049 A 
ATOM     52  C   UNL A   1      43.923  25.462  29.073  1.00  0.00     0.074 A 
ATOM     53  C   UNL A   1      45.863  30.776  31.947  1.00  0.00     0.029 A 
ATOM     54  N   UNL A   1      44.690  29.236  30.852  1.00  0.00    -0.354 N 
ATOM     55  N   UNL A   1      44.235  26.600  29.648  1.00  0.00    -0.248 NA
ATOM     56  C   UNL A   1      45.021  24.487  29.026  1.00  0.00     0.031 C 
ATOM     57  C   UNL A   1      46.679  29.657  31.745  1.00  0.00     0.029 A 
ATOM     58  C   UNL A   1      45.940  28.689  31.087  1.00  0.00     0.049 A 
ATOM     59  H   UNL A   1      43.950  28.779  30.393  1.00  0.00     0.167 HD
ATOM     60  C   UNL A   1      45.558  26.465  30.058  1.00  0.00     0.074 A 
ATOM     61  C   UNL A   1      45.980  25.132  29.676  1.00  0.00     0.031 C 
ATOM     62  C   UNL A   1      46.348  27.361  30.697  1.00  0.00     0.031 A 
BRANCH  49  63
ATOM     63  C   UNL A   1      43.617  32.803  31.799  1.00  0.00    -0.014 A 
ATOM     64  C   UNL A   1      44.081  33.851  30.982  1.00  0.00     0.010 A 
ATOM     65  C   UNL A   1      43.241  33.086  33.125  1.00  0.00     0.010 A 
ATOM     66  C   UNL A   1      44.217  35.142  31.496  1.00  0.00     0.020 A 
ATOM     67  C   UNL A   1      43.348  34.383  33.634  1.00  0.00     0.020 A 
ATOM     68  C   UNL A   1      43.856  35.399  32.822  1.00  0.00     0.054 A 
BRANCH  68  69
ATOM     69  S   UNL A   1      44.041  37.086  33.464  1.00  0.00     0.124 S 
ATOM     70  O   UNL A   1      43.813  37.890  32.266  1.00  0.00    -0.237 OA
ATOM     71  O   UNL A   1      42.991  37.160  34.477  1.00  0.00    -0.237 OA
ATOM     72  O   UNL A   1      45.406  37.113  33.982  1.00  0.00    -0.744 OA
ENDBRANCH  68  69
ENDBRANCH  49  63
BRANCH  50  73
ATOM     73  C   UNL A   1      42.444  23.678  27.888  1.00  0.00    -0.014 A 
ATOM     74  C   UNL A   1      42.740  23.450  26.533  1.00  0.00     0.010 A 
ATOM     75  C   UNL A   1      42.002  22.604  28.682  1.00  0.00     0.010 A 
ATOM     76  C   UNL A   1      42.582  22.177  25.977  1.00  0.00     0.020 A 
ATOM     77  C   UNL A   1      41.869  21.324  28.137  1.00  0.00     0.020 A 
ATOM     78  C   UNL A   1      42.149  21.120  26.784  1.00  0.00     0.054 A 
BRANCH  78  79
ATOM     79  S   UNL A   1      42.002  19.466  26.055  1.00  0.00     0.124 S 
ATOM     80  O   UNL A   1      42.888  19.563  24.900  1.00  0.00    -0.237 OA
ATOM     81  O   UNL A   1      42.463  18.601  27.137  1.00  0.00    -0.237 OA
ATOM     82  O   UNL A   1      40.578  19.356  25.745  1.00  0.00    -0.744 OA
ENDBRANCH  78  79
ENDBRANCH  50  73
BRANCH  62  83
ATOM     83  C   UNL A   1      47.743  26.922  31.057  1.00  0.00    -0.014 A 
ATOM     84  C   UNL A   1      48.012  26.270  32.273  1.00  0.00     0.010 A 
ATOM     85  C   UNL A   1      48.789  27.119  30.137  1.00  0.00     0.010 A 
ATOM     86  C   UNL A   1      49.311  25.853  32.577  1.00  0.00     0.020 A 
ATOM     87  C   UNL A   1      50.083  26.677  30.425  1.00  0.00     0.020 A 
ATOM     88  C   UNL A   1      50.338  26.059  31.650  1.00  0.00     0.054 A 
BRANCH  88  89
ATOM     89  S   UNL A   1      52.006  25.466  32.049  1.00  0.00     0.124 S 
ATOM     90  O   UNL A   1      52.268  26.130  33.323  1.00  0.00    -0.237 OA
ATOM     91  O   UNL A   1      51.823  24.019  32.121  1.00  0.00    -0.237 OA
ATOM     92  O   UNL A   1      52.816  25.930  30.925  1.00  0.00    -0.744 OA
ENDBRANCH  88  89
ENDBRANCH  62  83
ENDBRANCH  36  37
ENDBRANCH  28  31
ENDBRANCH  26  27
ENDBRANCH  25  26
ENDBRANCH  24  25
ENDBRANCH   1  24
TORSDOF 20
ENDMDL
MODEL 2
REMARK VINA RESULT:      -9.1      1.404      2.105
REMARK SMILES C[C@H](C[N@H+](C)[C@H]1CC[C@H]([NH3+])CC1)C(=O)NCCCCCCNC(=O)c1ccc(-c2c3nc(c(-c4ccc(S(=O)(=O)[O-])cc4)c4ccc([nH]4)c(-c4ccc(S(=O)(=O)[O-])cc4)c4nc(c(-c5ccc(S(=O)(=O)[O-])cc5)c5ccc2[nH]5)C=C4)C=C3)cc1
REMARK SMILES IDX 18 1 17 2 16 3 15 4 13 5 14 6 2 8 1 9 3 10 4 11 5 12 6 14
REMARK SMILES IDX 7 15 12 16 8 17 11 18 9 19 10 20 19 24 20 25 21 26 22 27
REMARK SMILES IDX 23 28 24 30 25 31 26 32 84 33 27 34 83 35 28 36 29 37 30 38
REMARK SMILES IDX 77 39 31 40 82 41 76 42 78 43 32 44 81 45 75 46 74 47 33 49
REMARK SMILES IDX 63 50 44 51 62 52 45 53 48 54 61 55 79 56 46 57 47 58 60 60
REMARK SMILES IDX 80 61 49 62 34 63 35 64 43 65 36 66 42 67 37 68 38 69 39 70
REMARK SMILES IDX 40 71 41 72 64 73 65 74 73 75 66 76 72 77 67 78 68 79 69 80
REMARK SMILES IDX 70 81 71 82 50 83 51 84 59 85 52 86 58 87 53 88 54 89 55 90
REMARK SMILES IDX 56 91 57 92
REMARK H PARENT 15 7 4 13 10 21 10 22 10 23 22 29 78 48 48 59
REMARK Flexibility Score: inf
ROOT
ATOM      1  C   UNL A   1      30.760  27.424  24.334  1.00  0.00     0.002 C 
ENDROOT
BRANCH   1   2
ATOM      2  C   UNL A   1      30.015  26.094  24.246  1.00  0.00     0.021 C 
BRANCH   2   3
ATOM      3  C   UNL A   1      30.867  24.842  24.476  1.00  0.00     0.116 C 
BRANCH   3   4
ATOM      4  N   UNL A   1      31.685  24.572  23.312  1.00  0.00    -0.356 N 
ATOM      5  C   UNL A   1      32.981  24.188  23.194  1.00  0.00     0.228 C 
ATOM      6  O   UNL A   1      33.463  24.225  22.054  1.00  0.00    -0.275 OA
ATOM      7  H   UNL A   1      31.218  24.687  22.452  1.00  0.00     0.163 HD
BRANCH   5   8
ATOM      8  C   UNL A   1      33.845  23.704  24.359  1.00  0.00     0.130 C 
ATOM      9  C   UNL A   1      34.516  24.814  25.166  1.00  0.00     0.024 C 
BRANCH   8  10
ATOM     10  C   UNL A   1      34.715  22.455  24.076  1.00  0.00     0.275 C 
BRANCH  10  11
ATOM     11  N   UNL A   1      34.649  21.401  25.101  1.00  0.00    -0.334 N 
ATOM     12  C   UNL A   1      35.894  21.294  25.858  1.00  0.00     0.332 C 
ATOM     13  H   UNL A   1      33.928  21.702  25.759  1.00  0.00     0.348 HD
BRANCH  11  14
ATOM     14  C   UNL A   1      34.157  20.095  24.598  1.00  0.00     0.184 C 
ATOM     15  C   UNL A   1      32.823  19.732  25.287  1.00  0.00     0.071 C 
ATOM     16  C   UNL A   1      35.189  18.946  24.678  1.00  0.00     0.071 C 
ATOM     17  C   UNL A   1      32.293  18.363  24.860  1.00  0.00     0.071 C 
ATOM     18  C   UNL A   1      34.606  17.590  24.283  1.00  0.00     0.071 C 
ATOM     19  C   UNL A   1      33.348  17.281  25.097  1.00  0.00     0.181 C 
BRANCH  19  20
ATOM     20  N   UNL A   1      32.837  15.962  24.736  1.00  0.00    -0.355 N 
ATOM     21  H   UNL A   1      31.921  16.061  24.298  1.00  0.00     0.344 HD
ATOM     22  H   UNL A   1      32.754  15.389  25.574  1.00  0.00     0.344 HD
ATOM     23  H   UNL A   1      33.481  15.516  24.082  1.00  0.00     0.344 HD
ENDBRANCH  19  20
ENDBRANCH  11  14
ENDBRANCH  10  11
ENDBRANCH   8  10
ENDBRANCH   5   8
ENDBRANCH   3   4
ENDBRANCH   2   3
ENDBRANCH   1   2
BRANCH   1  24
ATOM     24  C   UNL A   1      31.670  27.582  25.553  1.00  0.00     0.002 C 
BRANCH  24  25
ATOM     25  C   UNL A   1      33.052  28.183  25.279  1.00  0.00     0.021 C 
BRANCH  25  26
ATOM     26  C   UNL A   1      33.905  28.468  26.515  1.00  0.00     0.116 C 
BRANCH  26  27
ATOM     27  N   UNL A   1      33.676  29.799  27.049  1.00  0.00    -0.352 N 
ATOM     28  C   UNL A   1      34.448  30.547  27.902  1.00  0.00     0.251 C 
ATOM     29  H   UNL A   1      32.841  30.229  26.753  1.00  0.00     0.163 HD
ATOM     30  O   UNL A   1      33.990  31.571  28.399  1.00  0.00    -0.269 OA
BRANCH  28  31
ATOM     31  C   UNL A   1      35.821  30.112  28.235  1.00  0.00     0.039 A 
ATOM     32  C   UNL A   1      36.802  30.162  27.241  1.00  0.00     0.014 A 
ATOM     33  C   UNL A   1      36.137  29.631  29.509  1.00  0.00     0.014 A 
ATOM     34  C   UNL A   1      38.112  29.779  27.541  1.00  0.00     0.010 A 
ATOM     35  C   UNL A   1      37.457  29.315  29.824  1.00  0.00     0.010 A 
ATOM     36  C   UNL A   1      38.457  29.379  28.842  1.00  0.00    -0.014 A 
BRANCH  36  37
ATOM     37  C   UNL A   1      39.856  29.023  29.190  1.00  0.00     0.031 A 
ATOM     38  C   UNL A   1      40.742  30.020  29.889  1.00  0.00     0.074 A 
ATOM     39  C   UNL A   1      40.348  27.821  28.828  1.00  0.00     0.049 A 
ATOM     40  N   UNL A   1      41.998  29.906  30.237  1.00  0.00    -0.248 NA
ATOM     41  C   UNL A   1      40.142  31.322  30.223  1.00  0.00     0.031 C 
ATOM     42  C   UNL A   1      39.601  26.780  28.118  1.00  0.00     0.029 A 
ATOM     43  N   UNL A   1      41.593  27.273  29.006  1.00  0.00    -0.354 N 
ATOM     44  C   UNL A   1      42.344  31.123  30.812  1.00  0.00     0.074 A 
ATOM     45  C   UNL A   1      41.180  31.977  30.724  1.00  0.00     0.031 C 
ATOM     46  C   UNL A   1      40.394  25.709  27.949  1.00  0.00     0.029 A 
ATOM     47  C   UNL A   1      41.713  26.000  28.499  1.00  0.00     0.049 A 
ATOM     48  H   UNL A   1      42.331  27.745  29.455  1.00  0.00     0.167 HD
ATOM     49  C   UNL A   1      43.519  31.491  31.380  1.00  0.00     0.031 A 
ATOM     50  C   UNL A   1      42.768  25.162  28.476  1.00  0.00     0.031 A 
ATOM     51  C   UNL A   1      44.673  30.637  31.471  1.00  0.00     0.049 A 
ATOM     52  C   UNL A   1      44.067  25.600  29.094  1.00  0.00     0.074 A 
ATOM     53  C   UNL A   1      45.891  30.897  32.075  1.00  0.00     0.029 A 
ATOM     54  N   UNL A   1      44.755  29.356  30.942  1.00  0.00    -0.354 N 
ATOM     55  N   UNL A   1      44.355  26.733  29.690  1.00  0.00    -0.248 NA
ATOM     56  C   UNL A   1      45.181  24.644  29.044  1.00  0.00     0.031 C 
ATOM     57  C   UNL A   1      46.727  29.795  31.864  1.00  0.00     0.029 A 
ATOM     58  C   UNL A   1      46.010  28.825  31.182  1.00  0.00     0.049 A 
ATOM     59  H   UNL A   1      44.027  28.895  30.467  1.00  0.00     0.167 HD
ATOM     60  C   UNL A   1      45.675  26.612  30.114  1.00  0.00     0.074 A 
ATOM     61  C   UNL A   1      46.123  25.293  29.714  1.00  0.00     0.031 C 
ATOM     62  C   UNL A   1      46.443  27.511  30.775  1.00  0.00     0.031 A 
BRANCH  49  63
ATOM     63  C   UNL A   1      43.614  32.890  31.933  1.00  0.00    -0.014 A 
ATOM     64  C   UNL A   1      44.163  33.939  31.172  1.00  0.00     0.010 A 
ATOM     65  C   UNL A   1      43.126  33.165  33.224  1.00  0.00     0.010 A 
ATOM     66  C   UNL A   1      44.270  35.223  31.710  1.00  0.00     0.020 A 
ATOM     67  C   UNL A   1      43.205  34.457  33.755  1.00  0.00     0.020 A 
ATOM     68  C   UNL A   1      43.796  35.473  33.001  1.00  0.00     0.054 A 
BRANCH  68  69
ATOM     69  S   UNL A   1      43.946  37.151  33.675  1.00  0.00     0.124 S 
ATOM     70  O   UNL A   1      45.318  37.150  34.178  1.00  0.00    -0.237 OA
ATOM     71  O   UNL A   1      43.708  37.989  32.503  1.00  0.00    -0.237 OA
ATOM     72  O   UNL A   1      42.908  37.207  34.700  1.00  0.00    -0.744 OA
ENDBRANCH  68  69
ENDBRANCH  49  63
BRANCH  50  73
ATOM     73  C   UNL A   1      42.631  23.812  27.864  1.00  0.00    -0.014 A 
ATOM     74  C   UNL A   1      42.432  22.681  28.675  1.00  0.00     0.010 A 
ATOM     75  C   UNL A   1      42.684  23.651  26.467  1.00  0.00     0.010 A 
ATOM     76  C   UNL A   1      42.306  21.412  28.104  1.00  0.00     0.020 A 
ATOM     77  C   UNL A   1      42.531  22.388  25.890  1.00  0.00     0.020 A 
ATOM     78  C   UNL A   1      42.354  21.273  26.713  1.00  0.00     0.054 A 
BRANCH  78  79
ATOM     79  S   UNL A   1      42.135  19.624  25.990  1.00  0.00     0.124 S 
ATOM     80  O   UNL A   1      43.116  19.633  24.910  1.00  0.00    -0.237 OA
ATOM     81  O   UNL A   1      42.439  18.743  27.115  1.00  0.00    -0.237 OA
ATOM     82  O   UNL A   1      40.737  19.621  25.566  1.00  0.00    -0.744 OA
ENDBRANCH  78  79
ENDBRANCH  50  73
BRANCH  62  83
ATOM     83  C   UNL A   1      47.841  27.088  31.143  1.00  0.00    -0.014 A 
ATOM     84  C   UNL A   1      48.089  26.287  32.272  1.00  0.00     0.010 A 
ATOM     85  C   UNL A   1      48.917  27.457  30.315  1.00  0.00     0.010 A 
ATOM     86  C   UNL A   1      49.392  25.889  32.583  1.00  0.00     0.020 A 
ATOM     87  C   UNL A   1      50.217  27.036  30.606  1.00  0.00     0.020 A 
ATOM     88  C   UNL A   1      50.448  26.267  31.747  1.00  0.00     0.054 A 
BRANCH  88  89
ATOM     89  S   UNL A   1      52.124  25.699  32.147  1.00  0.00     0.124 S 
ATOM     90  O   UNL A   1      52.778  25.742  30.842  1.00  0.00    -0.237 OA
ATOM     91  O   UNL A   1      52.580  26.697  33.112  1.00  0.00    -0.237 OA
ATOM     92  O   UNL A   1      51.915  24.361  32.696  1.00  0.00    -0.744 OA
ENDBRANCH  88  89
ENDBRANCH  62  83
ENDBRANCH  36  37
ENDBRANCH  28  31
ENDBRANCH  26  27
ENDBRANCH  25  26
ENDBRANCH  24  25
ENDBRANCH   1  24
TORSDOF 20
ENDMDL
MODEL 3
REMARK VINA RESULT:      -9.0      2.772      9.203
REMARK SMILES C[C@H](C[N@H+](C)[C@H]1CC[C@H]([NH3+])CC1)C(=O)NCCCCCCNC(=O)c1ccc(-c2c3nc(c(-c4ccc(S(=O)(=O)[O-])cc4)c4ccc([nH]4)c(-c4ccc(S(=O)(=O)[O-])cc4)c4nc(c(-c5ccc(S(=O)(=O)[O-])cc5)c5ccc2[nH]5)C=C4)C=C3)cc1
REMARK SMILES IDX 18 1 17 2 16 3 15 4 13 5 14 6 2 8 1 9 3 10 4 11 5 12 6 14
REMARK SMILES IDX 7 15 12 16 8 17 11 18 9 19 10 20 19 24 20 25 21 26 22 27
REMARK SMILES IDX 23 28 24 30 25 31 26 32 84 33 27 34 83 35 28 36 29 37 30 38
REMARK SMILES IDX 77 39 31 40 82 41 76 42 78 43 32 44 81 45 75 46 74 47 33 49
REMARK SMILES IDX 63 50 44 51 62 52 45 53 48 54 61 55 79 56 46 57 47 58 60 60
REMARK SMILES IDX 80 61 49 62 34 63 35 64 43 65 36 66 42 67 37 68 38 69 39 70
REMARK SMILES IDX 40 71 41 72 64 73 65 74 73 75 66 76 72 77 67 78 68 79 69 80
REMARK SMILES IDX 70 81 71 82 50 83 51 84 59 85 52 86 58 87 53 88 54 89 55 90
REMARK SMILES IDX 56 91 57 92
REMARK H PARENT 15 7 4 13 10 21 10 22 10 23 22 29 78 48 48 59
REMARK Flexibility Score: inf
ROOT
ATOM      1  C   UNL A   1      33.815  23.419  23.687  1.00  0.00     0.002 C 
ENDROOT
BRANCH   1   2
ATOM      2  C   UNL A   1      32.592  22.562  23.367  1.00  0.00     0.021 C 
BRANCH   2   3
ATOM      3  C   UNL A   1      31.242  23.154  23.785  1.00  0.00     0.116 C 
BRANCH   3   4
ATOM      4  N   UNL A   1      31.175  23.281  25.226  1.00  0.00    -0.356 N 
ATOM      5  C   UNL A   1      31.170  24.372  26.033  1.00  0.00     0.228 C 
ATOM      6  O   UNL A   1      31.303  24.158  27.245  1.00  0.00    -0.275 OA
ATOM      7  H   UNL A   1      31.124  22.422  25.707  1.00  0.00     0.163 HD
BRANCH   5   8
ATOM      8  C   UNL A   1      30.990  25.808  25.538  1.00  0.00     0.130 C 
ATOM      9  C   UNL A   1      29.639  26.097  24.886  1.00  0.00     0.024 C 
BRANCH   8  10
ATOM     10  C   UNL A   1      32.223  26.440  24.848  1.00  0.00     0.275 C 
BRANCH  10  11
ATOM     11  N   UNL A   1      32.004  27.781  24.284  1.00  0.00    -0.334 N 
ATOM     12  C   UNL A   1      32.256  27.818  22.845  1.00  0.00     0.332 C 
ATOM     13  H   UNL A   1      31.011  27.977  24.414  1.00  0.00     0.348 HD
BRANCH  11  14
ATOM     14  C   UNL A   1      32.687  28.870  25.024  1.00  0.00     0.184 C 
ATOM     15  C   UNL A   1      33.725  28.274  26.000  1.00  0.00     0.071 C 
ATOM     16  C   UNL A   1      31.736  29.870  25.720  1.00  0.00     0.071 C 
ATOM     17  C   UNL A   1      34.422  29.341  26.844  1.00  0.00     0.071 C 
ATOM     18  C   UNL A   1      32.470  30.893  26.585  1.00  0.00     0.071 C 
ATOM     19  C   UNL A   1      33.392  30.195  27.587  1.00  0.00     0.181 C 
BRANCH  19  20
ATOM     20  N   UNL A   1      34.047  31.190  28.432  1.00  0.00    -0.355 N 
ATOM     21  H   UNL A   1      34.778  31.660  27.898  1.00  0.00     0.344 HD
ATOM     22  H   UNL A   1      34.460  30.729  29.242  1.00  0.00     0.344 HD
ATOM     23  H   UNL A   1      33.359  31.875  28.745  1.00  0.00     0.344 HD
ENDBRANCH  19  20
ENDBRANCH  11  14
ENDBRANCH  10  11
ENDBRANCH   8  10
ENDBRANCH   5   8
ENDBRANCH   3   4
ENDBRANCH   2   3
ENDBRANCH   1   2
BRANCH   1  24
ATOM     24  C   UNL A   1      34.844  22.766  24.611  1.00  0.00     0.002 C 
BRANCH  24  25
ATOM     25  C   UNL A   1      36.255  23.361  24.565  1.00  0.00     0.021 C 
BRANCH  25  26
ATOM     26  C   UNL A   1      36.996  23.407  25.900  1.00  0.00     0.116 C 
BRANCH  26  27
ATOM     27  N   UNL A   1      37.912  22.291  26.062  1.00  0.00    -0.352 N 
ATOM     28  C   UNL A   1      39.251  22.291  26.359  1.00  0.00     0.251 C 
ATOM     29  H   UNL A   1      37.509  21.401  25.942  1.00  0.00     0.163 HD
ATOM     30  O   UNL A   1      39.898  21.253  26.257  1.00  0.00    -0.269 OA
BRANCH  28  31
ATOM     31  C   UNL A   1      39.918  23.540  26.784  1.00  0.00     0.039 A 
ATOM     32  C   UNL A   1      40.009  24.597  25.874  1.00  0.00     0.014 A 
ATOM     33  C   UNL A   1      40.475  23.663  28.060  1.00  0.00     0.014 A 
ATOM     34  C   UNL A   1      40.613  25.796  26.263  1.00  0.00     0.010 A 
ATOM     35  C   UNL A   1      41.015  24.881  28.467  1.00  0.00     0.010 A 
ATOM     36  C   UNL A   1      41.096  25.958  27.571  1.00  0.00    -0.014 A 
BRANCH  36  37
ATOM     37  C   UNL A   1      41.689  27.245  28.016  1.00  0.00     0.031 A 
ATOM     38  C   UNL A   1      43.180  27.450  27.965  1.00  0.00     0.074 A 
ATOM     39  C   UNL A   1      40.892  28.209  28.516  1.00  0.00     0.049 A 
ATOM     40  N   UNL A   1      43.883  28.486  28.346  1.00  0.00    -0.248 NA
ATOM     41  C   UNL A   1      43.987  26.338  27.436  1.00  0.00     0.031 C 
ATOM     42  C   UNL A   1      39.436  28.121  28.647  1.00  0.00     0.029 A 
ATOM     43  N   UNL A   1      41.194  29.455  29.008  1.00  0.00    -0.354 N 
ATOM     44  C   UNL A   1      45.212  28.146  28.121  1.00  0.00     0.074 A 
ATOM     45  C   UNL A   1      45.220  26.791  27.614  1.00  0.00     0.031 C 
ATOM     46  C   UNL A   1      38.969  29.273  29.156  1.00  0.00     0.029 A 
ATOM     47  C   UNL A   1      40.093  30.165  29.425  1.00  0.00     0.049 A 
ATOM     48  H   UNL A   1      42.111  29.806  29.058  1.00  0.00     0.167 HD
ATOM     49  C   UNL A   1      46.325  28.898  28.301  1.00  0.00     0.031 A 
ATOM     50  C   UNL A   1      39.996  31.395  29.966  1.00  0.00     0.031 A 
ATOM     51  C   UNL A   1      46.313  30.249  28.799  1.00  0.00     0.049 A 
ATOM     52  C   UNL A   1      41.246  32.204  30.175  1.00  0.00     0.074 A 
ATOM     53  C   UNL A   1      47.379  31.114  28.966  1.00  0.00     0.029 A 
ATOM     54  N   UNL A   1      45.177  30.930  29.213  1.00  0.00    -0.354 N 
ATOM     55  N   UNL A   1      42.489  31.888  29.896  1.00  0.00    -0.248 NA
ATOM     56  C   UNL A   1      41.081  33.540  30.764  1.00  0.00     0.031 C 
ATOM     57  C   UNL A   1      46.896  32.299  29.531  1.00  0.00     0.029 A 
ATOM     58  C   UNL A   1      45.521  32.194  29.660  1.00  0.00     0.049 A 
ATOM     59  H   UNL A   1      44.262  30.568  29.192  1.00  0.00     0.167 HD
ATOM     60  C   UNL A   1      43.249  32.999  30.248  1.00  0.00     0.074 A 
ATOM     61  C   UNL A   1      42.325  33.996  30.748  1.00  0.00     0.031 C 
ATOM     62  C   UNL A   1      44.590  33.176  30.160  1.00  0.00     0.031 A 
BRANCH  49  63
ATOM     63  C   UNL A   1      47.652  28.267  27.969  1.00  0.00    -0.014 A 
ATOM     64  C   UNL A   1      48.202  28.364  26.677  1.00  0.00     0.010 A 
ATOM     65  C   UNL A   1      48.372  27.586  28.967  1.00  0.00     0.010 A 
ATOM     66  C   UNL A   1      49.419  27.748  26.377  1.00  0.00     0.020 A 
ATOM     67  C   UNL A   1      49.605  26.993  28.678  1.00  0.00     0.020 A 
ATOM     68  C   UNL A   1      50.110  27.060  27.379  1.00  0.00     0.054 A 
BRANCH  68  69
ATOM     69  S   UNL A   1      51.690  26.271  26.963  1.00  0.00     0.124 S 
ATOM     70  O   UNL A   1      52.521  26.643  28.106  1.00  0.00    -0.237 OA
ATOM     71  O   UNL A   1      51.331  24.858  26.882  1.00  0.00    -0.237 OA
ATOM     72  O   UNL A   1      52.064  26.891  25.694  1.00  0.00    -0.744 OA
ENDBRANCH  68  69
ENDBRANCH  49  63
BRANCH  50  73
ATOM     73  C   UNL A   1      38.661  31.945  30.327  1.00  0.00    -0.014 A 
ATOM     74  C   UNL A   1      38.156  31.788  31.629  1.00  0.00     0.010 A 
ATOM     75  C   UNL A   1      37.893  32.641  29.375  1.00  0.00     0.010 A 
ATOM     76  C   UNL A   1      36.901  32.301  31.970  1.00  0.00     0.020 A 
ATOM     77  C   UNL A   1      36.651  33.179  29.719  1.00  0.00     0.020 A 
ATOM     78  C   UNL A   1      36.156  32.996  31.012  1.00  0.00     0.054 A 
BRANCH  78  79
ATOM     79  S   UNL A   1      34.554  33.699  31.491  1.00  0.00     0.124 S 
ATOM     80  O   UNL A   1      34.952  34.919  32.184  1.00  0.00    -0.237 OA
ATOM     81  O   UNL A   1      33.894  33.888  30.202  1.00  0.00    -0.237 OA
ATOM     82  O   UNL A   1      33.966  32.661  32.336  1.00  0.00    -0.744 OA
ENDBRANCH  78  79
ENDBRANCH  50  73
BRANCH  62  83
ATOM     83  C   UNL A   1      45.141  34.513  30.582  1.00  0.00    -0.014 A 
ATOM     84  C   UNL A   1      45.242  35.581  29.673  1.00  0.00     0.010 A 
ATOM     85  C   UNL A   1      45.512  34.716  31.924  1.00  0.00     0.010 A 
ATOM     86  C   UNL A   1      45.737  36.820  30.092  1.00  0.00     0.020 A 
ATOM     87  C   UNL A   1      45.979  35.961  32.353  1.00  0.00     0.020 A 
ATOM     88  C   UNL A   1      46.102  37.001  31.431  1.00  0.00     0.054 A 
BRANCH  88  89
ATOM     89  S   UNL A   1      46.697  38.631  31.960  1.00  0.00     0.124 S 
ATOM     90  O   UNL A   1      48.126  38.390  32.135  1.00  0.00    -0.237 OA
ATOM     91  O   UNL A   1      46.338  39.486  30.831  1.00  0.00    -0.237 OA
ATOM     92  O   UNL A   1      45.952  38.889  33.190  1.00  0.00    -0.744 OA
ENDBRANCH  88  89
ENDBRANCH  62  83
ENDBRANCH  36  37
ENDBRANCH  28  31
ENDBRANCH  26  27
ENDBRANCH  25  26
ENDBRANCH  24  25
ENDBRANCH   1  24
TORSDOF 20
ENDMDL
