MODEL 1
REMARK VINA RESULT:     -11.1      0.000      0.000
REMARK SMILES CCOc1cc2c(cc1OCC)[C@@H](C(=O)NCCCCCCNC(=O)c1ccc(-c3c4nc(c(-c5ccc(S(=O)(=O)[O-])cc5)c5ccc([nH]5)c(-c5ccc(S(=O)(=O)[O-])cc5)c5nc(c(-c6ccc(S(=O)(=O)[O-])cc6)c6ccc3[nH]6)C=C5)C=C4)cc1)[C@H](c1ccc(F)cc1Cl)N(C)C2=O
REMARK SMILES IDX 20 1 19 2 18 3 17 4 16 5 14 6 15 7 13 9 4 10 5 11 9 12 6 13
REMARK SMILES IDX 8 14 7 15 97 16 95 17 98 18 86 19 96 20 3 21 2 22 1 23 10 24
REMARK SMILES IDX 11 25 12 26 87 27 88 28 93 29 89 30 92 31 94 32 90 33 91 34
REMARK SMILES IDX 21 35 22 36 23 37 24 38 25 40 26 41 27 42 85 43 28 44 84 45
REMARK SMILES IDX 29 46 30 47 31 48 78 49 32 50 83 51 77 52 79 53 33 54 82 55
REMARK SMILES IDX 76 56 75 57 34 59 64 60 45 61 63 62 46 63 49 64 62 65 80 66
REMARK SMILES IDX 47 67 48 68 61 70 81 71 50 72 35 73 36 74 44 75 37 76 43 77
REMARK SMILES IDX 38 78 39 79 40 80 41 81 42 82 65 83 66 84 74 85 67 86 73 87
REMARK SMILES IDX 68 88 69 89 70 90 71 91 72 92 51 93 52 94 60 95 53 96 59 97
REMARK SMILES IDX 54 98 55 99 56 100 57 101 58 102
REMARK H PARENT 16 8 23 39 79 58 49 69
REMARK Flexibility Score: inf
ROOT
ATOM      1  C   UNL A   1      35.701  22.698  22.975  1.00  0.00     0.002 C 
ENDROOT
BRANCH   1   2
ATOM      2  C   UNL A   1      34.248  23.100  23.244  1.00  0.00     0.002 C 
BRANCH   2   3
ATOM      3  C   UNL A   1      33.409  23.325  21.986  1.00  0.00     0.021 C 
BRANCH   3   4
ATOM      4  C   UNL A   1      32.526  24.575  22.042  1.00  0.00     0.116 C 
BRANCH   4   5
ATOM      5  N   UNL A   1      33.252  25.751  21.586  1.00  0.00    -0.355 N 
ATOM      6  C   UNL A   1      33.579  26.945  22.135  1.00  0.00     0.230 C 
ATOM      7  O   UNL A   1      34.127  27.745  21.359  1.00  0.00    -0.274 OA
ATOM      8  H   UNL A   1      33.582  25.656  20.663  1.00  0.00     0.163 HD
BRANCH   6   9
ATOM      9  C   UNL A   1      33.324  27.402  23.569  1.00  0.00     0.136 C 
ATOM     10  C   UNL A   1      31.616  24.742  26.490  1.00  0.00     0.161 A 
ATOM     11  C   UNL A   1      30.825  25.697  25.834  1.00  0.00     0.064 A 
ATOM     12  C   UNL A   1      32.983  24.640  26.195  1.00  0.00     0.161 A 
ATOM     13  C   UNL A   1      31.368  26.514  24.850  1.00  0.00     0.048 A 
ATOM     14  C   UNL A   1      33.517  25.464  25.192  1.00  0.00     0.056 A 
ATOM     15  C   UNL A   1      32.722  26.406  24.525  1.00  0.00    -0.016 A 
ATOM     16  C   UNL A   1      30.497  27.469  24.106  1.00  0.00     0.254 C 
ATOM     17  N   UNL A   1      31.142  28.518  23.452  1.00  0.00    -0.333 N 
ATOM     18  O   UNL A   1      29.287  27.261  24.049  1.00  0.00    -0.269 OA
ATOM     19  C   UNL A   1      32.564  28.764  23.681  1.00  0.00     0.134 C 
ATOM     20  C   UNL A   1      30.400  29.453  22.619  1.00  0.00     0.147 C 
BRANCH  10  21
ATOM     21  O   UNL A   1      31.033  24.021  27.496  1.00  0.00    -0.490 OA
BRANCH  21  22
ATOM     22  C   UNL A   1      30.009  23.124  27.038  1.00  0.00     0.226 C 
ATOM     23  C   UNL A   1      30.524  22.157  25.985  1.00  0.00     0.049 C 
ENDBRANCH  21  22
ENDBRANCH  10  21
BRANCH  12  24
ATOM     24  O   UNL A   1      33.944  23.856  26.772  1.00  0.00    -0.490 OA
BRANCH  24  25
ATOM     25  C   UNL A   1      34.009  22.461  26.498  1.00  0.00     0.226 C 
ATOM     26  C   UNL A   1      33.951  21.628  27.769  1.00  0.00     0.049 C 
ENDBRANCH  24  25
ENDBRANCH  12  24
BRANCH  19  27
ATOM     27  C   UNL A   1      32.889  29.496  25.020  1.00  0.00    -0.005 A 
ATOM     28  C   UNL A   1      34.151  29.195  25.597  1.00  0.00     0.010 A 
ATOM     29  C   UNL A   1      32.067  30.390  25.752  1.00  0.00     0.049 A 
ATOM     30  C   UNL A   1      34.513  29.645  26.870  1.00  0.00     0.040 A 
ATOM     31  C   UNL A   1      32.437  30.833  27.030  1.00  0.00     0.060 A 
ATOM     32  Cl  UNL A   1      30.580  31.088  25.215  1.00  0.00    -0.084 Cl
ATOM     33  C   UNL A   1      33.640  30.442  27.585  1.00  0.00     0.124 A 
ATOM     34  F   UNL A   1      33.970  30.859  28.812  1.00  0.00    -0.207 F 
ENDBRANCH  19  27
ENDBRANCH   6   9
ENDBRANCH   4   5
ENDBRANCH   3   4
ENDBRANCH   2   3
ENDBRANCH   1   2
BRANCH   1  35
ATOM     35  C   UNL A   1      36.766  23.690  23.459  1.00  0.00     0.021 C 
BRANCH  35  36
ATOM     36  C   UNL A   1      36.896  23.820  24.977  1.00  0.00     0.116 C 
BRANCH  36  37
ATOM     37  N   UNL A   1      37.750  22.783  25.537  1.00  0.00    -0.352 N 
ATOM     38  C   UNL A   1      38.918  22.877  26.248  1.00  0.00     0.251 C 
ATOM     39  H   UNL A   1      37.437  21.863  25.379  1.00  0.00     0.163 HD
ATOM     40  O   UNL A   1      39.617  21.875  26.385  1.00  0.00    -0.269 OA
BRANCH  38  41
ATOM     41  C   UNL A   1      39.342  24.160  26.850  1.00  0.00     0.039 A 
ATOM     42  C   UNL A   1      38.958  24.442  28.164  1.00  0.00     0.014 A 
ATOM     43  C   UNL A   1      40.054  25.111  26.114  1.00  0.00     0.014 A 
ATOM     44  C   UNL A   1      39.327  25.654  28.750  1.00  0.00     0.010 A 
ATOM     45  C   UNL A   1      40.488  26.287  26.725  1.00  0.00     0.010 A 
ATOM     46  C   UNL A   1      40.123  26.575  28.047  1.00  0.00    -0.014 A 
BRANCH  46  47
ATOM     47  C   UNL A   1      40.591  27.821  28.707  1.00  0.00     0.031 A 
ATOM     48  C   UNL A   1      41.994  27.938  29.240  1.00  0.00     0.074 A 
ATOM     49  C   UNL A   1      39.728  28.847  28.851  1.00  0.00     0.049 A 
ATOM     50  N   UNL A   1      42.578  28.969  29.799  1.00  0.00    -0.248 NA
ATOM     51  C   UNL A   1      42.846  26.743  29.154  1.00  0.00     0.031 C 
ATOM     52  C   UNL A   1      38.324  28.833  28.432  1.00  0.00     0.029 A 
ATOM     53  N   UNL A   1      39.902  30.101  29.380  1.00  0.00    -0.354 N 
ATOM     54  C   UNL A   1      43.858  28.545  30.138  1.00  0.00     0.074 A 
ATOM     55  C   UNL A   1      43.948  27.149  29.769  1.00  0.00     0.031 C 
ATOM     56  C   UNL A   1      37.778  30.033  28.679  1.00  0.00     0.029 A 
ATOM     57  C   UNL A   1      38.778  30.889  29.310  1.00  0.00     0.049 A 
ATOM     58  H   UNL A   1      40.752  30.407  29.772  1.00  0.00     0.167 HD
ATOM     59  C   UNL A   1      44.871  29.257  30.690  1.00  0.00     0.031 A 
ATOM     60  C   UNL A   1      38.570  32.159  29.707  1.00  0.00     0.031 A 
ATOM     61  C   UNL A   1      44.771  30.646  31.060  1.00  0.00     0.049 A 
ATOM     62  C   UNL A   1      39.709  32.930  30.313  1.00  0.00     0.074 A 
ATOM     63  C   UNL A   1      45.758  31.474  31.566  1.00  0.00     0.029 A 
ATOM     64  N   UNL A   1      43.614  31.408  30.978  1.00  0.00    -0.354 N 
ATOM     65  N   UNL A   1      40.941  32.538  30.539  1.00  0.00    -0.248 NA
ATOM     66  C   UNL A   1      39.435  34.319  30.700  1.00  0.00     0.031 C 
ATOM     67  C   UNL A   1      45.182  32.717  31.852  1.00  0.00     0.029 A 
ATOM     68  C   UNL A   1      43.853  32.687  31.457  1.00  0.00     0.049 A 
ATOM     69  H   UNL A   1      42.751  31.088  30.630  1.00  0.00     0.167 HD
ATOM     70  C   UNL A   1      41.594  33.638  31.082  1.00  0.00     0.074 A 
ATOM     71  C   UNL A   1      40.627  34.718  31.120  1.00  0.00     0.031 C 
ATOM     72  C   UNL A   1      42.876  33.746  31.514  1.00  0.00     0.031 A 
BRANCH  59  73
ATOM     73  C   UNL A   1      46.173  28.539  30.941  1.00  0.00    -0.014 A 
ATOM     74  C   UNL A   1      47.114  28.348  29.913  1.00  0.00     0.010 A 
ATOM     75  C   UNL A   1      46.481  28.082  32.237  1.00  0.00     0.010 A 
ATOM     76  C   UNL A   1      48.315  27.675  30.162  1.00  0.00     0.020 A 
ATOM     77  C   UNL A   1      47.694  27.437  32.499  1.00  0.00     0.020 A 
ATOM     78  C   UNL A   1      48.596  27.221  31.454  1.00  0.00     0.054 A 
BRANCH  78  79
ATOM     79  S   UNL A   1      50.168  26.367  31.752  1.00  0.00     0.124 S 
ATOM     80  O   UNL A   1      50.266  25.498  30.582  1.00  0.00    -0.237 OA
ATOM     81  O   UNL A   1      51.126  27.469  31.799  1.00  0.00    -0.237 OA
ATOM     82  O   UNL A   1      49.954  25.677  33.022  1.00  0.00    -0.744 OA
ENDBRANCH  78  79
ENDBRANCH  59  73
BRANCH  60  83
ATOM     83  C   UNL A   1      37.228  32.780  29.524  1.00  0.00    -0.014 A 
ATOM     84  C   UNL A   1      36.395  33.029  30.628  1.00  0.00     0.010 A 
ATOM     85  C   UNL A   1      36.793  33.156  28.240  1.00  0.00     0.010 A 
ATOM     86  C   UNL A   1      35.145  33.631  30.450  1.00  0.00     0.020 A 
ATOM     87  C   UNL A   1      35.559  33.787  28.063  1.00  0.00     0.020 A 
ATOM     88  C   UNL A   1      34.739  34.013  29.168  1.00  0.00     0.054 A 
BRANCH  88  89
ATOM     89  S   UNL A   1      33.142  34.853  28.970  1.00  0.00     0.124 S 
ATOM     90  O   UNL A   1      32.598  34.797  30.323  1.00  0.00    -0.237 OA
ATOM     91  O   UNL A   1      33.541  36.178  28.502  1.00  0.00    -0.237 OA
ATOM     92  O   UNL A   1      32.446  34.035  27.980  1.00  0.00    -0.744 OA
ENDBRANCH  88  89
ENDBRANCH  60  83
BRANCH  72  93
ATOM     93  C   UNL A   1      43.307  35.085  32.054  1.00  0.00    -0.014 A 
ATOM     94  C   UNL A   1      43.888  36.056  31.218  1.00  0.00     0.010 A 
ATOM     95  C   UNL A   1      43.113  35.383  33.415  1.00  0.00     0.010 A 
ATOM     96  C   UNL A   1      44.317  37.278  31.745  1.00  0.00     0.020 A 
ATOM     97  C   UNL A   1      43.509  36.616  33.939  1.00  0.00     0.020 A 
ATOM     98  C   UNL A   1      44.129  37.548  33.104  1.00  0.00     0.054 A 
BRANCH  98  99
ATOM     99  S   UNL A   1      44.688  39.142  33.762  1.00  0.00     0.124 S 
ATOM    100  O   UNL A   1      45.242  39.784  32.573  1.00  0.00    -0.237 OA
ATOM    101  O   UNL A   1      43.452  39.729  34.275  1.00  0.00    -0.237 OA
ATOM    102  O   UNL A   1      45.666  38.773  34.783  1.00  0.00    -0.744 OA
ENDBRANCH  98  99
ENDBRANCH  72  93
ENDBRANCH  46  47
ENDBRANCH  38  41
ENDBRANCH  36  37
ENDBRANCH  35  36
ENDBRANCH   1  35
TORSDOF 21
ENDMDL
MODEL 2
REMARK VINA RESULT:     -10.4      2.039      2.617
REMARK SMILES CCOc1cc2c(cc1OCC)[C@@H](C(=O)NCCCCCCNC(=O)c1ccc(-c3c4nc(c(-c5ccc(S(=O)(=O)[O-])cc5)c5ccc([nH]5)c(-c5ccc(S(=O)(=O)[O-])cc5)c5nc(c(-c6ccc(S(=O)(=O)[O-])cc6)c6ccc3[nH]6)C=C5)C=C4)cc1)[C@H](c1ccc(F)cc1Cl)N(C)C2=O
REMARK SMILES IDX 20 1 19 2 18 3 17 4 16 5 14 6 15 7 13 9 4 10 5 11 9 12 6 13
REMARK SMILES IDX 8 14 7 15 97 16 95 17 98 18 86 19 96 20 3 21 2 22 1 23 10 24
REMARK SMILES IDX 11 25 12 26 87 27 88 28 93 29 89 30 92 31 94 32 90 33 91 34
REMARK SMILES IDX 21 35 22 36 23 37 24 38 25 40 26 41 27 42 85 43 28 44 84 45
REMARK SMILES IDX 29 46 30 47 31 48 78 49 32 50 83 51 77 52 79 53 33 54 82 55
REMARK SMILES IDX 76 56 75 57 34 59 64 60 45 61 63 62 46 63 49 64 62 65 80 66
REMARK SMILES IDX 47 67 48 68 61 70 81 71 50 72 35 73 36 74 44 75 37 76 43 77
REMARK SMILES IDX 38 78 39 79 40 80 41 81 42 82 65 83 66 84 74 85 67 86 73 87
REMARK SMILES IDX 68 88 69 89 70 90 71 91 72 92 51 93 52 94 60 95 53 96 59 97
REMARK SMILES IDX 54 98 55 99 56 100 57 101 58 102
REMARK H PARENT 16 8 23 39 79 58 49 69
REMARK Flexibility Score: inf
ROOT
ATOM      1  C   UNL A   1      35.592  22.667  23.621  1.00  0.00     0.002 C 
ENDROOT
BRANCH   1   2
ATOM      2  C   UNL A   1      34.849  23.597  22.657  1.00  0.00     0.002 C 
BRANCH   2   3
ATOM      3  C   UNL A   1      33.455  23.113  22.258  1.00  0.00     0.021 C 
BRANCH   3   4
ATOM      4  C   UNL A   1      32.447  24.243  22.025  1.00  0.00     0.116 C 
BRANCH   4   5
ATOM      5  N   UNL A   1      33.106  25.436  21.515  1.00  0.00    -0.355 N 
ATOM      6  C   UNL A   1      33.361  26.671  22.007  1.00  0.00     0.230 C 
ATOM      7  O   UNL A   1      33.866  27.464  21.196  1.00  0.00    -0.274 OA
ATOM      8  H   UNL A   1      33.446  25.317  20.598  1.00  0.00     0.163 HD
BRANCH   6   9
ATOM      9  C   UNL A   1      33.073  27.180  23.418  1.00  0.00     0.136 C 
ATOM     10  C   UNL A   1      31.300  24.625  26.394  1.00  0.00     0.161 A 
ATOM     11  C   UNL A   1      30.524  25.553  25.686  1.00  0.00     0.064 A 
ATOM     12  C   UNL A   1      32.674  24.514  26.134  1.00  0.00     0.161 A 
ATOM     13  C   UNL A   1      31.089  26.336  24.685  1.00  0.00     0.048 A 
ATOM     14  C   UNL A   1      33.230  25.302  25.115  1.00  0.00     0.056 A 
ATOM     15  C   UNL A   1      32.451  26.218  24.395  1.00  0.00    -0.016 A 
ATOM     16  C   UNL A   1      30.234  27.262  23.887  1.00  0.00     0.254 C 
ATOM     17  N   UNL A   1      30.893  28.287  23.210  1.00  0.00    -0.333 N 
ATOM     18  O   UNL A   1      29.026  27.049  23.810  1.00  0.00    -0.269 OA
ATOM     19  C   UNL A   1      32.309  28.543  23.463  1.00  0.00     0.134 C 
ATOM     20  C   UNL A   1      30.170  29.190  22.327  1.00  0.00     0.147 C 
BRANCH  10  21
ATOM     21  O   UNL A   1      30.695  23.940  27.411  1.00  0.00    -0.490 OA
BRANCH  21  22
ATOM     22  C   UNL A   1      30.079  22.714  26.989  1.00  0.00     0.226 C 
ATOM     23  C   UNL A   1      28.686  22.542  27.571  1.00  0.00     0.049 C 
ENDBRANCH  21  22
ENDBRANCH  10  21
BRANCH  12  24
ATOM     24  O   UNL A   1      33.622  23.754  26.761  1.00  0.00    -0.490 OA
BRANCH  24  25
ATOM     25  C   UNL A   1      33.717  22.355  26.513  1.00  0.00     0.226 C 
ATOM     26  C   UNL A   1      33.927  21.563  27.794  1.00  0.00     0.049 C 
ENDBRANCH  24  25
ENDBRANCH  12  24
BRANCH  19  27
ATOM     27  C   UNL A   1      32.603  29.325  24.781  1.00  0.00    -0.005 A 
ATOM     28  C   UNL A   1      33.839  29.026  25.412  1.00  0.00     0.010 A 
ATOM     29  C   UNL A   1      31.773  30.260  25.448  1.00  0.00     0.049 A 
ATOM     30  C   UNL A   1      34.168  29.522  26.677  1.00  0.00     0.040 A 
ATOM     31  C   UNL A   1      32.109  30.749  26.720  1.00  0.00     0.060 A 
ATOM     32  Cl  UNL A   1      30.317  30.960  24.835  1.00  0.00    -0.084 Cl
ATOM     33  C   UNL A   1      33.286  30.362  27.329  1.00  0.00     0.124 A 
ATOM     34  F   UNL A   1      33.583  30.823  28.550  1.00  0.00    -0.207 F 
ENDBRANCH  19  27
ENDBRANCH   6   9
ENDBRANCH   4   5
ENDBRANCH   3   4
ENDBRANCH   2   3
ENDBRANCH   1   2
BRANCH   1  35
ATOM     35  C   UNL A   1      36.928  23.196  24.157  1.00  0.00     0.021 C 
BRANCH  35  36
ATOM     36  C   UNL A   1      37.102  23.116  25.674  1.00  0.00     0.116 C 
BRANCH  36  37
ATOM     37  N   UNL A   1      38.054  22.084  26.055  1.00  0.00    -0.352 N 
ATOM     38  C   UNL A   1      39.363  22.180  26.452  1.00  0.00     0.251 C 
ATOM     39  H   UNL A   1      37.701  21.166  26.023  1.00  0.00     0.163 HD
ATOM     40  O   UNL A   1      40.062  21.169  26.461  1.00  0.00    -0.269 OA
BRANCH  38  41
ATOM     41  C   UNL A   1      39.938  23.478  26.870  1.00  0.00     0.039 A 
ATOM     42  C   UNL A   1      40.704  23.525  28.038  1.00  0.00     0.014 A 
ATOM     43  C   UNL A   1      39.676  24.654  26.162  1.00  0.00     0.014 A 
ATOM     44  C   UNL A   1      41.242  24.740  28.467  1.00  0.00     0.010 A 
ATOM     45  C   UNL A   1      40.277  25.852  26.548  1.00  0.00     0.010 A 
ATOM     46  C   UNL A   1      41.060  25.910  27.708  1.00  0.00    -0.014 A 
BRANCH  46  47
ATOM     47  C   UNL A   1      41.712  27.180  28.119  1.00  0.00     0.031 A 
ATOM     48  C   UNL A   1      43.196  27.378  27.961  1.00  0.00     0.074 A 
ATOM     49  C   UNL A   1      40.957  28.154  28.668  1.00  0.00     0.049 A 
ATOM     50  N   UNL A   1      43.916  28.441  28.223  1.00  0.00    -0.248 NA
ATOM     51  C   UNL A   1      43.976  26.235  27.464  1.00  0.00     0.031 C 
ATOM     52  C   UNL A   1      39.519  28.058  28.931  1.00  0.00     0.029 A 
ATOM     53  N   UNL A   1      41.288  29.414  29.095  1.00  0.00    -0.354 N 
ATOM     54  C   UNL A   1      45.230  28.092  27.933  1.00  0.00     0.074 A 
ATOM     55  C   UNL A   1      45.215  26.703  27.524  1.00  0.00     0.031 C 
ATOM     56  C   UNL A   1      39.084  29.224  29.431  1.00  0.00     0.029 A 
ATOM     57  C   UNL A   1      40.216  30.136  29.565  1.00  0.00     0.049 A 
ATOM     58  H   UNL A   1      42.207  29.769  29.067  1.00  0.00     0.167 HD
ATOM     59  C   UNL A   1      46.345  28.861  27.984  1.00  0.00     0.031 A 
ATOM     60  C   UNL A   1      40.146  31.391  30.048  1.00  0.00     0.031 A 
ATOM     61  C   UNL A   1      46.354  30.241  28.399  1.00  0.00     0.049 A 
ATOM     62  C   UNL A   1      41.395  32.226  30.092  1.00  0.00     0.074 A 
ATOM     63  C   UNL A   1      47.419  31.125  28.425  1.00  0.00     0.029 A 
ATOM     64  N   UNL A   1      45.248  30.934  28.871  1.00  0.00    -0.354 N 
ATOM     65  N   UNL A   1      42.613  31.907  29.724  1.00  0.00    -0.248 NA
ATOM     66  C   UNL A   1      41.255  33.596  30.601  1.00  0.00     0.031 C 
ATOM     67  C   UNL A   1      46.973  32.332  28.976  1.00  0.00     0.029 A 
ATOM     68  C   UNL A   1      45.613  32.224  29.225  1.00  0.00     0.049 A 
ATOM     69  H   UNL A   1      44.339  30.565  28.944  1.00  0.00     0.167 HD
ATOM     70  C   UNL A   1      43.384  33.042  29.943  1.00  0.00     0.074 A 
ATOM     71  C   UNL A   1      42.486  34.064  30.444  1.00  0.00     0.031 C 
ATOM     72  C   UNL A   1      44.715  33.224  29.748  1.00  0.00     0.031 A 
BRANCH  59  73
ATOM     73  C   UNL A   1      47.655  28.220  27.598  1.00  0.00    -0.014 A 
ATOM     74  C   UNL A   1      48.519  27.679  28.568  1.00  0.00     0.010 A 
ATOM     75  C   UNL A   1      48.010  28.118  26.240  1.00  0.00     0.010 A 
ATOM     76  C   UNL A   1      49.732  27.092  28.193  1.00  0.00     0.020 A 
ATOM     77  C   UNL A   1      49.207  27.504  25.857  1.00  0.00     0.020 A 
ATOM     78  C   UNL A   1      50.069  27.011  26.839  1.00  0.00     0.054 A 
BRANCH  78  79
ATOM     79  S   UNL A   1      51.641  26.230  26.380  1.00  0.00     0.124 S 
ATOM     80  O   UNL A   1      51.737  26.557  24.959  1.00  0.00    -0.237 OA
ATOM     81  O   UNL A   1      52.601  26.909  27.247  1.00  0.00    -0.237 OA
ATOM     82  O   UNL A   1      51.428  24.816  26.679  1.00  0.00    -0.744 OA
ENDBRANCH  78  79
ENDBRANCH  59  73
BRANCH  60  83
ATOM     83  C   UNL A   1      38.838  31.933  30.511  1.00  0.00    -0.014 A 
ATOM     84  C   UNL A   1      38.494  31.915  31.873  1.00  0.00     0.010 A 
ATOM     85  C   UNL A   1      37.942  32.502  29.587  1.00  0.00     0.010 A 
ATOM     86  C   UNL A   1      37.273  32.444  32.302  1.00  0.00     0.020 A 
ATOM     87  C   UNL A   1      36.735  33.060  30.016  1.00  0.00     0.020 A 
ATOM     88  C   UNL A   1      36.404  33.020  31.371  1.00  0.00     0.054 A 
BRANCH  88  89
ATOM     89  S   UNL A   1      34.855  33.760  31.959  1.00  0.00     0.124 S 
ATOM     90  O   UNL A   1      34.488  34.624  30.843  1.00  0.00    -0.237 OA
ATOM     91  O   UNL A   1      34.005  32.590  32.163  1.00  0.00    -0.237 OA
ATOM     92  O   UNL A   1      35.251  34.453  33.184  1.00  0.00    -0.744 OA
ENDBRANCH  88  89
ENDBRANCH  60  83
BRANCH  72  93
ATOM     93  C   UNL A   1      45.275  34.586  30.072  1.00  0.00    -0.014 A 
ATOM     94  C   UNL A   1      45.310  35.608  29.106  1.00  0.00     0.010 A 
ATOM     95  C   UNL A   1      45.759  34.851  31.366  1.00  0.00     0.010 A 
ATOM     96  C   UNL A   1      45.868  36.853  29.413  1.00  0.00     0.020 A 
ATOM     97  C   UNL A   1      46.286  36.104  31.687  1.00  0.00     0.020 A 
ATOM     98  C   UNL A   1      46.358  37.090  30.701  1.00  0.00     0.054 A 
BRANCH  98  99
ATOM     99  S   UNL A   1      47.072  38.715  31.076  1.00  0.00     0.124 S 
ATOM    100  O   UNL A   1      46.000  39.348  31.838  1.00  0.00    -0.237 OA
ATOM    101  O   UNL A   1      48.269  38.370  31.840  1.00  0.00    -0.237 OA
ATOM    102  O   UNL A   1      47.327  39.295  29.759  1.00  0.00    -0.744 OA
ENDBRANCH  98  99
ENDBRANCH  72  93
ENDBRANCH  46  47
ENDBRANCH  38  41
ENDBRANCH  36  37
ENDBRANCH  35  36
ENDBRANCH   1  35
TORSDOF 21
ENDMDL
MODEL 3
REMARK VINA RESULT:      -9.5      3.524      8.525
REMARK SMILES CCOc1cc2c(cc1OCC)[C@@H](C(=O)NCCCCCCNC(=O)c1ccc(-c3c4nc(c(-c5ccc(S(=O)(=O)[O-])cc5)c5ccc([nH]5)c(-c5ccc(S(=O)(=O)[O-])cc5)c5nc(c(-c6ccc(S(=O)(=O)[O-])cc6)c6ccc3[nH]6)C=C5)C=C4)cc1)[C@H](c1ccc(F)cc1Cl)N(C)C2=O
REMARK SMILES IDX 20 1 19 2 18 3 17 4 16 5 14 6 15 7 13 9 4 10 5 11 9 12 6 13
REMARK SMILES IDX 8 14 7 15 97 16 95 17 98 18 86 19 96 20 3 21 2 22 1 23 10 24
REMARK SMILES IDX 11 25 12 26 87 27 88 28 93 29 89 30 92 31 94 32 90 33 91 34
REMARK SMILES IDX 21 35 22 36 23 37 24 38 25 40 26 41 27 42 85 43 28 44 84 45
REMARK SMILES IDX 29 46 30 47 31 48 78 49 32 50 83 51 77 52 79 53 33 54 82 55
REMARK SMILES IDX 76 56 75 57 34 59 64 60 45 61 63 62 46 63 49 64 62 65 80 66
REMARK SMILES IDX 47 67 48 68 61 70 81 71 50 72 35 73 36 74 44 75 37 76 43 77
REMARK SMILES IDX 38 78 39 79 40 80 41 81 42 82 65 83 66 84 74 85 67 86 73 87
REMARK SMILES IDX 68 88 69 89 70 90 71 91 72 92 51 93 52 94 60 95 53 96 59 97
REMARK SMILES IDX 54 98 55 99 56 100 57 101 58 102
REMARK H PARENT 16 8 23 39 79 58 49 69
REMARK Flexibility Score: inf
ROOT
ATOM      1  C   UNL A   1      38.054  23.260  25.881  1.00  0.00     0.002 C 
ENDROOT
BRANCH   1   2
ATOM      2  C   UNL A   1      36.691  23.735  25.366  1.00  0.00     0.002 C 
BRANCH   2   3
ATOM      3  C   UNL A   1      36.323  23.215  23.976  1.00  0.00     0.021 C 
BRANCH   3   4
ATOM      4  C   UNL A   1      34.815  23.144  23.718  1.00  0.00     0.116 C 
BRANCH   4   5
ATOM      5  N   UNL A   1      34.405  24.132  22.730  1.00  0.00    -0.355 N 
ATOM      6  C   UNL A   1      33.703  25.288  22.770  1.00  0.00     0.230 C 
ATOM      7  O   UNL A   1      33.468  25.797  21.662  1.00  0.00    -0.274 OA
ATOM      8  H   UNL A   1      34.711  23.907  21.822  1.00  0.00     0.163 HD
BRANCH   6   9
ATOM      9  C   UNL A   1      33.161  25.996  24.010  1.00  0.00     0.136 C 
ATOM     10  C   UNL A   1      30.359  24.059  26.642  1.00  0.00     0.161 A 
ATOM     11  C   UNL A   1      29.925  24.983  25.680  1.00  0.00     0.064 A 
ATOM     12  C   UNL A   1      31.722  23.750  26.754  1.00  0.00     0.161 A 
ATOM     13  C   UNL A   1      30.826  25.562  24.794  1.00  0.00     0.048 A 
ATOM     14  C   UNL A   1      32.620  24.334  25.847  1.00  0.00     0.056 A 
ATOM     15  C   UNL A   1      32.183  25.244  24.875  1.00  0.00    -0.016 A 
ATOM     16  C   UNL A   1      30.337  26.482  23.726  1.00  0.00     0.254 C 
ATOM     17  N   UNL A   1      31.286  27.329  23.154  1.00  0.00    -0.333 N 
ATOM     18  O   UNL A   1      29.166  26.411  23.360  1.00  0.00    -0.269 OA
ATOM     19  C   UNL A   1      32.621  27.438  23.738  1.00  0.00     0.134 C 
ATOM     20  C   UNL A   1      30.941  28.199  22.039  1.00  0.00     0.147 C 
BRANCH  10  21
ATOM     21  O   UNL A   1      29.430  23.583  27.526  1.00  0.00    -0.490 OA
BRANCH  21  22
ATOM     22  C   UNL A   1      29.081  22.208  27.303  1.00  0.00     0.226 C 
ATOM     23  C   UNL A   1      27.623  21.927  27.627  1.00  0.00     0.049 C 
ENDBRANCH  21  22
ENDBRANCH  10  21
BRANCH  12  24
ATOM     24  O   UNL A   1      32.366  22.962  27.667  1.00  0.00    -0.490 OA
BRANCH  24  25
ATOM     25  C   UNL A   1      33.736  22.617  27.496  1.00  0.00     0.226 C 
ATOM     26  C   UNL A   1      33.903  21.221  26.916  1.00  0.00     0.049 C 
ENDBRANCH  24  25
ENDBRANCH  12  24
BRANCH  19  27
ATOM     27  C   UNL A   1      32.699  28.333  25.014  1.00  0.00    -0.005 A 
ATOM     28  C   UNL A   1      31.735  29.372  25.099  1.00  0.00     0.010 A 
ATOM     29  C   UNL A   1      33.637  28.265  26.075  1.00  0.00     0.049 A 
ATOM     30  C   UNL A   1      31.780  30.350  26.097  1.00  0.00     0.040 A 
ATOM     31  C   UNL A   1      33.678  29.254  27.070  1.00  0.00     0.060 A 
ATOM     32  Cl  UNL A   1      34.792  27.008  26.345  1.00  0.00    -0.084 Cl
ATOM     33  C   UNL A   1      32.769  30.293  27.060  1.00  0.00     0.124 A 
ATOM     34  F   UNL A   1      32.833  31.238  28.006  1.00  0.00    -0.207 F 
ENDBRANCH  19  27
ENDBRANCH   6   9
ENDBRANCH   4   5
ENDBRANCH   3   4
ENDBRANCH   2   3
ENDBRANCH   1   2
BRANCH   1  35
ATOM     35  C   UNL A   1      38.173  21.757  26.158  1.00  0.00     0.021 C 
BRANCH  35  36
ATOM     36  C   UNL A   1      39.244  21.026  25.348  1.00  0.00     0.116 C 
BRANCH  36  37
ATOM     37  N   UNL A   1      39.979  20.070  26.163  1.00  0.00    -0.352 N 
ATOM     38  C   UNL A   1      41.199  20.174  26.778  1.00  0.00     0.251 C 
ATOM     39  H   UNL A   1      39.525  19.206  26.294  1.00  0.00     0.163 HD
ATOM     40  O   UNL A   1      41.754  19.154  27.184  1.00  0.00    -0.269 OA
BRANCH  38  41
ATOM     41  C   UNL A   1      41.850  21.490  26.961  1.00  0.00     0.039 A 
ATOM     42  C   UNL A   1      42.061  22.294  25.838  1.00  0.00     0.014 A 
ATOM     43  C   UNL A   1      42.311  21.908  28.213  1.00  0.00     0.014 A 
ATOM     44  C   UNL A   1      42.691  23.533  25.979  1.00  0.00     0.010 A 
ATOM     45  C   UNL A   1      42.870  23.176  28.364  1.00  0.00     0.010 A 
ATOM     46  C   UNL A   1      43.073  24.000  27.249  1.00  0.00    -0.014 A 
BRANCH  46  47
ATOM     47  C   UNL A   1      43.659  25.356  27.405  1.00  0.00     0.031 A 
ATOM     48  C   UNL A   1      42.835  26.502  27.929  1.00  0.00     0.074 A 
ATOM     49  C   UNL A   1      44.941  25.560  27.041  1.00  0.00     0.049 A 
ATOM     50  N   UNL A   1      43.203  27.735  28.173  1.00  0.00    -0.248 NA
ATOM     51  C   UNL A   1      41.413  26.238  28.198  1.00  0.00     0.031 C 
ATOM     52  C   UNL A   1      45.824  24.544  26.461  1.00  0.00     0.029 A 
ATOM     53  N   UNL A   1      45.727  26.681  27.110  1.00  0.00    -0.354 N 
ATOM     54  C   UNL A   1      42.060  28.394  28.612  1.00  0.00     0.074 A 
ATOM     55  C   UNL A   1      40.976  27.438  28.553  1.00  0.00     0.031 C 
ATOM     56  C   UNL A   1      47.040  25.076  26.269  1.00  0.00     0.029 A 
ATOM     57  C   UNL A   1      47.015  26.479  26.672  1.00  0.00     0.049 A 
ATOM     58  H   UNL A   1      45.401  27.549  27.442  1.00  0.00     0.167 HD
ATOM     59  C   UNL A   1      41.929  29.673  29.043  1.00  0.00     0.031 A 
ATOM     60  C   UNL A   1      48.062  27.323  26.603  1.00  0.00     0.031 A 
ATOM     61  C   UNL A   1      43.013  30.622  29.093  1.00  0.00     0.049 A 
ATOM     62  C   UNL A   1      47.894  28.735  27.089  1.00  0.00     0.074 A 
ATOM     63  C   UNL A   1      42.997  31.920  29.572  1.00  0.00     0.029 A 
ATOM     64  N   UNL A   1      44.301  30.379  28.637  1.00  0.00    -0.354 N 
ATOM     65  N   UNL A   1      46.827  29.312  27.590  1.00  0.00    -0.248 NA
ATOM     66  C   UNL A   1      49.075  29.603  27.017  1.00  0.00     0.031 C 
ATOM     67  C   UNL A   1      44.258  32.485  29.345  1.00  0.00     0.029 A 
ATOM     68  C   UNL A   1      45.080  31.516  28.790  1.00  0.00     0.049 A 
ATOM     69  H   UNL A   1      44.615  29.526  28.260  1.00  0.00     0.167 HD
ATOM     70  C   UNL A   1      47.213  30.609  27.907  1.00  0.00     0.074 A 
ATOM     71  C   UNL A   1      48.619  30.719  27.571  1.00  0.00     0.031 C 
ATOM     72  C   UNL A   1      46.472  31.620  28.427  1.00  0.00     0.031 A 
BRANCH  59  73
ATOM     73  C   UNL A   1      40.558  30.126  29.479  1.00  0.00    -0.014 A 
ATOM     74  C   UNL A   1      39.466  30.115  28.591  1.00  0.00     0.010 A 
ATOM     75  C   UNL A   1      40.346  30.530  30.810  1.00  0.00     0.010 A 
ATOM     76  C   UNL A   1      38.203  30.544  29.010  1.00  0.00     0.020 A 
ATOM     77  C   UNL A   1      39.077  30.929  31.244  1.00  0.00     0.020 A 
ATOM     78  C   UNL A   1      38.017  30.951  30.334  1.00  0.00     0.054 A 
BRANCH  78  79
ATOM     79  S   UNL A   1      36.363  31.485  30.855  1.00  0.00     0.124 S 
ATOM     80  O   UNL A   1      36.043  30.507  31.891  1.00  0.00    -0.237 OA
ATOM     81  O   UNL A   1      36.602  32.846  31.328  1.00  0.00    -0.237 OA
ATOM     82  O   UNL A   1      35.564  31.383  29.636  1.00  0.00    -0.744 OA
ENDBRANCH  78  79
ENDBRANCH  59  73
BRANCH  60  83
ATOM     83  C   UNL A   1      49.365  26.841  26.065  1.00  0.00    -0.014 A 
ATOM     84  C   UNL A   1      49.730  27.095  24.732  1.00  0.00     0.010 A 
ATOM     85  C   UNL A   1      50.263  26.153  26.901  1.00  0.00     0.010 A 
ATOM     86  C   UNL A   1      50.964  26.657  24.241  1.00  0.00     0.020 A 
ATOM     87  C   UNL A   1      51.510  25.743  26.422  1.00  0.00     0.020 A 
ATOM     88  C   UNL A   1      51.849  25.990  25.092  1.00  0.00     0.054 A 
BRANCH  88  89
ATOM     89  S   UNL A   1      53.472  25.491  24.450  1.00  0.00     0.124 S 
ATOM     90  O   UNL A   1      54.376  26.352  25.205  1.00  0.00    -0.237 OA
ATOM     91  O   UNL A   1      53.520  24.070  24.788  1.00  0.00    -0.237 OA
ATOM     92  O   UNL A   1      53.378  25.780  23.021  1.00  0.00    -0.744 OA
ENDBRANCH  88  89
ENDBRANCH  60  83
BRANCH  72  93
ATOM     93  C   UNL A   1      47.176  32.930  28.674  1.00  0.00    -0.014 A 
ATOM     94  C   UNL A   1      47.586  33.306  29.966  1.00  0.00     0.010 A 
ATOM     95  C   UNL A   1      47.445  33.791  27.594  1.00  0.00     0.010 A 
ATOM     96  C   UNL A   1      48.204  34.542  30.180  1.00  0.00     0.020 A 
ATOM     97  C   UNL A   1      48.092  35.011  27.798  1.00  0.00     0.020 A 
ATOM     98  C   UNL A   1      48.448  35.389  29.095  1.00  0.00     0.054 A 
BRANCH  98  99
ATOM     99  S   UNL A   1      49.256  36.984  29.398  1.00  0.00     0.124 S 
ATOM    100  O   UNL A   1      48.359  37.912  28.716  1.00  0.00    -0.237 OA
ATOM    101  O   UNL A   1      49.259  37.069  30.857  1.00  0.00    -0.237 OA
ATOM    102  O   UNL A   1      50.574  36.828  28.786  1.00  0.00    -0.744 OA
ENDBRANCH  98  99
ENDBRANCH  72  93
ENDBRANCH  46  47
ENDBRANCH  38  41
ENDBRANCH  36  37
ENDBRANCH  35  36
ENDBRANCH   1  35
TORSDOF 21
ENDMDL
