MODEL 1
REMARK VINA RESULT:     -12.1      0.000      0.000
REMARK SMILES Cc1ccc(C)c(S(=O)(=O)N[C@H](CC2=c3ccccc3=NC2)C(=O)NCCCCCCNC(=O)c2ccc(-c3c4nc(c(-c5ccc(S(=O)(=O)[O-])cc5)c5ccc([nH]5)c(-c5ccc(S(=O)(=O)[O-])cc5)c5nc(c(-c6ccc(S(=O)(=O)[O-])cc6)c6ccc3[nH]6)C=C5)C=C4)cc2)c1
REMARK SMILES IDX 28 1 27 2 26 3 25 4 23 5 24 6 12 8 11 9 8 11 9 12 10 13 7 14
REMARK SMILES IDX 1 15 2 16 3 17 95 18 4 19 5 20 6 21 13 22 14 23 15 24 22 25
REMARK SMILES IDX 16 26 20 27 21 28 17 29 19 30 18 31 29 32 30 33 31 34 32 35
REMARK SMILES IDX 33 36 34 38 35 39 36 40 94 41 37 42 93 43 38 44 39 45 40 46
REMARK SMILES IDX 87 47 41 48 92 49 86 50 88 51 42 52 91 53 85 54 84 55 43 57
REMARK SMILES IDX 73 58 54 59 72 60 55 61 58 62 71 63 89 64 56 65 57 66 70 68
REMARK SMILES IDX 90 69 59 70 44 71 45 72 53 73 46 74 52 75 47 76 48 77 49 78
REMARK SMILES IDX 50 79 51 80 74 81 75 82 83 83 76 84 82 85 77 86 78 87 79 88
REMARK SMILES IDX 80 89 81 90 60 91 61 92 69 93 62 94 68 95 63 96 64 97 65 98
REMARK SMILES IDX 66 99 67 100
REMARK H PARENT 25 7 11 10 32 37 88 56 58 67
REMARK Flexibility Score: inf
ROOT
ATOM      1  C   UNL A   1      38.278  21.590  25.591  1.00  0.00     0.002 C 
ENDROOT
BRANCH   1   2
ATOM      2  C   UNL A   1      38.209  23.076  25.949  1.00  0.00     0.021 C 
BRANCH   2   3
ATOM      3  C   UNL A   1      37.011  23.884  25.413  1.00  0.00     0.116 C 
BRANCH   3   4
ATOM      4  N   UNL A   1      36.379  23.370  24.203  1.00  0.00    -0.355 N 
ATOM      5  C   UNL A   1      35.160  23.537  23.601  1.00  0.00     0.238 C 
ATOM      6  O   UNL A   1      34.966  22.850  22.590  1.00  0.00    -0.273 OA
ATOM      7  H   UNL A   1      36.966  22.760  23.703  1.00  0.00     0.163 HD
BRANCH   5   8
ATOM      8  C   UNL A   1      34.068  24.500  24.107  1.00  0.00     0.163 C 
BRANCH   8   9
ATOM      9  N   UNL A   1      34.097  25.744  23.292  1.00  0.00    -0.198 NA
ATOM     10  H   UNL A   1      34.026  26.524  23.946  1.00  0.00     0.142 HD
BRANCH   9  11
ATOM     11  S   UNL A   1      32.946  26.009  22.103  1.00  0.00     0.241 S 
ATOM     12  O   UNL A   1      32.300  24.759  21.808  1.00  0.00    -0.207 OA
ATOM     13  O   UNL A   1      33.645  26.768  21.078  1.00  0.00    -0.207 OA
BRANCH  11  14
ATOM     14  C   UNL A   1      31.772  27.112  22.850  1.00  0.00     0.085 A 
ATOM     15  C   UNL A   1      28.085  26.946  23.792  1.00  0.00     0.044 C 
ATOM     16  C   UNL A   1      29.475  27.475  23.580  1.00  0.00    -0.050 A 
ATOM     17  C   UNL A   1      29.771  28.822  23.783  1.00  0.00     0.004 A 
ATOM     18  C   UNL A   1      30.491  26.623  23.148  1.00  0.00     0.025 A 
ATOM     19  C   UNL A   1      31.065  29.304  23.557  1.00  0.00     0.005 A 
ATOM     20  C   UNL A   1      32.088  28.460  23.087  1.00  0.00    -0.031 A 
ATOM     21  C   UNL A   1      33.450  29.062  22.890  1.00  0.00     0.046 C 
ENDBRANCH  11  14
ENDBRANCH   9  11
ENDBRANCH   8   9
BRANCH   8  22
ATOM     22  C   UNL A   1      34.031  24.838  25.632  1.00  0.00     0.063 C 
BRANCH  22  23
ATOM     23  C   UNL A   1      33.035  25.846  26.127  1.00  0.00    -0.037 C 
ATOM     24  C   UNL A   1      33.145  27.131  26.463  1.00  0.00     0.001 A 
ATOM     25  C   UNL A   1      31.662  25.379  26.468  1.00  0.00     0.174 C 
ATOM     26  C   UNL A   1      34.189  28.095  26.614  1.00  0.00     0.010 A 
ATOM     27  C   UNL A   1      31.750  27.495  26.782  1.00  0.00     0.065 A 
ATOM     28  N   UNL A   1      30.866  26.549  26.844  1.00  0.00    -0.280 NA
ATOM     29  C   UNL A   1      33.861  29.346  26.986  1.00  0.00     0.001 A 
ATOM     30  C   UNL A   1      31.454  28.921  26.982  1.00  0.00     0.028 A 
ATOM     31  C   UNL A   1      32.478  29.774  27.110  1.00  0.00     0.002 A 
ENDBRANCH  22  23
ENDBRANCH   8  22
ENDBRANCH   5   8
ENDBRANCH   3   4
ENDBRANCH   2   3
ENDBRANCH   1   2
BRANCH   1  32
ATOM     32  C   UNL A   1      39.613  20.901  25.872  1.00  0.00     0.002 C 
BRANCH  32  33
ATOM     33  C   UNL A   1      40.471  21.462  27.019  1.00  0.00     0.021 C 
BRANCH  33  34
ATOM     34  C   UNL A   1      41.952  21.076  27.037  1.00  0.00     0.116 C 
BRANCH  34  35
ATOM     35  N   UNL A   1      42.711  21.681  25.939  1.00  0.00    -0.352 N 
ATOM     36  C   UNL A   1      42.769  22.966  25.431  1.00  0.00     0.251 C 
ATOM     37  H   UNL A   1      43.297  21.045  25.468  1.00  0.00     0.163 HD
ATOM     38  O   UNL A   1      43.134  23.115  24.265  1.00  0.00    -0.269 OA
BRANCH  36  39
ATOM     39  C   UNL A   1      42.436  24.158  26.247  1.00  0.00     0.039 A 
ATOM     40  C   UNL A   1      41.584  25.170  25.776  1.00  0.00     0.014 A 
ATOM     41  C   UNL A   1      43.054  24.332  27.474  1.00  0.00     0.014 A 
ATOM     42  C   UNL A   1      41.397  26.331  26.541  1.00  0.00     0.010 A 
ATOM     43  C   UNL A   1      42.713  25.352  28.315  1.00  0.00     0.010 A 
ATOM     44  C   UNL A   1      41.988  26.413  27.804  1.00  0.00    -0.014 A 
BRANCH  44  45
ATOM     45  C   UNL A   1      41.891  27.558  28.693  1.00  0.00     0.031 A 
ATOM     46  C   UNL A   1      42.904  28.602  28.492  1.00  0.00     0.074 A 
ATOM     47  C   UNL A   1      40.760  27.841  29.375  1.00  0.00     0.049 A 
ATOM     48  N   UNL A   1      43.818  28.951  29.332  1.00  0.00    -0.248 NA
ATOM     49  C   UNL A   1      42.996  29.255  27.178  1.00  0.00     0.031 C 
ATOM     50  C   UNL A   1      39.535  27.041  29.431  1.00  0.00     0.029 A 
ATOM     51  N   UNL A   1      40.417  28.981  30.046  1.00  0.00    -0.354 N 
ATOM     52  C   UNL A   1      44.460  30.022  28.739  1.00  0.00     0.074 A 
ATOM     53  C   UNL A   1      44.097  29.987  27.344  1.00  0.00     0.031 C 
ATOM     54  C   UNL A   1      38.537  27.805  29.921  1.00  0.00     0.029 A 
ATOM     55  C   UNL A   1      39.055  29.101  30.294  1.00  0.00     0.049 A 
ATOM     56  H   UNL A   1      41.075  29.656  30.328  1.00  0.00     0.167 HD
ATOM     57  C   UNL A   1      45.004  31.025  29.482  1.00  0.00     0.031 A 
ATOM     58  C   UNL A   1      38.379  30.185  30.753  1.00  0.00     0.031 A 
ATOM     59  C   UNL A   1      45.056  30.689  30.885  1.00  0.00     0.049 A 
ATOM     60  C   UNL A   1      39.354  31.006  31.499  1.00  0.00     0.074 A 
ATOM     61  C   UNL A   1      45.586  29.633  31.605  1.00  0.00     0.029 A 
ATOM     62  N   UNL A   1      44.136  31.286  31.718  1.00  0.00    -0.354 N 
ATOM     63  N   UNL A   1      39.917  30.611  32.605  1.00  0.00    -0.248 NA
ATOM     64  C   UNL A   1      40.038  32.076  30.792  1.00  0.00     0.031 C 
ATOM     65  C   UNL A   1      44.634  29.365  32.631  1.00  0.00     0.029 A 
ATOM     66  C   UNL A   1      43.615  30.313  32.537  1.00  0.00     0.049 A 
ATOM     67  H   UNL A   1      43.894  32.240  31.724  1.00  0.00     0.167 HD
ATOM     68  C   UNL A   1      41.234  31.019  32.477  1.00  0.00     0.074 A 
ATOM     69  C   UNL A   1      41.219  32.020  31.411  1.00  0.00     0.031 C 
ATOM     70  C   UNL A   1      42.252  30.298  33.032  1.00  0.00     0.031 A 
BRANCH  57  71
ATOM     71  C   UNL A   1      45.166  32.431  28.971  1.00  0.00    -0.014 A 
ATOM     72  C   UNL A   1      46.383  32.940  28.470  1.00  0.00     0.010 A 
ATOM     73  C   UNL A   1      44.025  33.238  28.807  1.00  0.00     0.010 A 
ATOM     74  C   UNL A   1      46.488  34.212  27.914  1.00  0.00     0.020 A 
ATOM     75  C   UNL A   1      44.105  34.496  28.192  1.00  0.00     0.020 A 
ATOM     76  C   UNL A   1      45.342  34.982  27.771  1.00  0.00     0.054 A 
BRANCH  76  77
ATOM     77  S   UNL A   1      45.504  36.588  26.960  1.00  0.00     0.124 S 
ATOM     78  O   UNL A   1      46.336  36.257  25.806  1.00  0.00    -0.237 OA
ATOM     79  O   UNL A   1      44.115  36.926  26.658  1.00  0.00    -0.237 OA
ATOM     80  O   UNL A   1      46.140  37.420  27.976  1.00  0.00    -0.744 OA
ENDBRANCH  76  77
ENDBRANCH  57  71
BRANCH  58  81
ATOM     81  C   UNL A   1      37.176  30.799  30.127  1.00  0.00    -0.014 A 
ATOM     82  C   UNL A   1      37.225  31.205  28.779  1.00  0.00     0.010 A 
ATOM     83  C   UNL A   1      36.112  31.277  30.916  1.00  0.00     0.010 A 
ATOM     84  C   UNL A   1      36.279  32.089  28.248  1.00  0.00     0.020 A 
ATOM     85  C   UNL A   1      35.152  32.161  30.386  1.00  0.00     0.020 A 
ATOM     86  C   UNL A   1      35.249  32.568  29.055  1.00  0.00     0.054 A 
BRANCH  86  87
ATOM     87  S   UNL A   1      34.101  33.790  28.358  1.00  0.00     0.124 S 
ATOM     88  O   UNL A   1      33.717  34.581  29.525  1.00  0.00    -0.237 OA
ATOM     89  O   UNL A   1      34.950  34.488  27.395  1.00  0.00    -0.237 OA
ATOM     90  O   UNL A   1      33.035  32.978  27.780  1.00  0.00    -0.744 OA
ENDBRANCH  86  87
ENDBRANCH  58  81
BRANCH  70  91
ATOM     91  C   UNL A   1      41.918  29.215  34.042  1.00  0.00    -0.014 A 
ATOM     92  C   UNL A   1      42.191  29.488  35.395  1.00  0.00     0.010 A 
ATOM     93  C   UNL A   1      41.533  27.904  33.693  1.00  0.00     0.010 A 
ATOM     94  C   UNL A   1      42.121  28.483  36.363  1.00  0.00     0.020 A 
ATOM     95  C   UNL A   1      41.436  26.894  34.665  1.00  0.00     0.020 A 
ATOM     96  C   UNL A   1      41.758  27.188  35.992  1.00  0.00     0.054 A 
BRANCH  96  97
ATOM     97  S   UNL A   1      41.744  25.903  37.275  1.00  0.00     0.124 S 
ATOM     98  O   UNL A   1      40.367  25.965  37.761  1.00  0.00    -0.237 OA
ATOM     99  O   UNL A   1      42.084  24.696  36.525  1.00  0.00    -0.237 OA
ATOM    100  O   UNL A   1      42.759  26.344  38.229  1.00  0.00    -0.744 OA
ENDBRANCH  96  97
ENDBRANCH  70  91
ENDBRANCH  44  45
ENDBRANCH  36  39
ENDBRANCH  34  35
ENDBRANCH  33  34
ENDBRANCH  32  33
ENDBRANCH   1  32
TORSDOF 21
ENDMDL
MODEL 2
REMARK VINA RESULT:     -11.6      2.240      3.671
REMARK SMILES Cc1ccc(C)c(S(=O)(=O)N[C@H](CC2=c3ccccc3=NC2)C(=O)NCCCCCCNC(=O)c2ccc(-c3c4nc(c(-c5ccc(S(=O)(=O)[O-])cc5)c5ccc([nH]5)c(-c5ccc(S(=O)(=O)[O-])cc5)c5nc(c(-c6ccc(S(=O)(=O)[O-])cc6)c6ccc3[nH]6)C=C5)C=C4)cc2)c1
REMARK SMILES IDX 28 1 27 2 26 3 25 4 23 5 24 6 12 8 11 9 8 11 9 12 10 13 7 14
REMARK SMILES IDX 1 15 2 16 3 17 95 18 4 19 5 20 6 21 13 22 14 23 15 24 22 25
REMARK SMILES IDX 16 26 20 27 21 28 17 29 19 30 18 31 29 32 30 33 31 34 32 35
REMARK SMILES IDX 33 36 34 38 35 39 36 40 94 41 37 42 93 43 38 44 39 45 40 46
REMARK SMILES IDX 87 47 41 48 92 49 86 50 88 51 42 52 91 53 85 54 84 55 43 57
REMARK SMILES IDX 73 58 54 59 72 60 55 61 58 62 71 63 89 64 56 65 57 66 70 68
REMARK SMILES IDX 90 69 59 70 44 71 45 72 53 73 46 74 52 75 47 76 48 77 49 78
REMARK SMILES IDX 50 79 51 80 74 81 75 82 83 83 76 84 82 85 77 86 78 87 79 88
REMARK SMILES IDX 80 89 81 90 60 91 61 92 69 93 62 94 68 95 63 96 64 97 65 98
REMARK SMILES IDX 66 99 67 100
REMARK H PARENT 25 7 11 10 32 37 88 56 58 67
REMARK Flexibility Score: inf
ROOT
ATOM      1  C   UNL A   1      38.521  23.714  25.878  1.00  0.00     0.002 C 
ENDROOT
BRANCH   1   2
ATOM      2  C   UNL A   1      37.003  23.845  26.017  1.00  0.00     0.021 C 
BRANCH   2   3
ATOM      3  C   UNL A   1      36.137  22.676  25.510  1.00  0.00     0.116 C 
BRANCH   3   4
ATOM      4  N   UNL A   1      35.364  21.964  26.521  1.00  0.00    -0.355 N 
ATOM      5  C   UNL A   1      34.031  21.837  26.810  1.00  0.00     0.238 C 
ATOM      6  O   UNL A   1      33.765  21.185  27.827  1.00  0.00    -0.273 OA
ATOM      7  H   UNL A   1      35.933  21.455  27.141  1.00  0.00     0.163 HD
BRANCH   5   8
ATOM      8  C   UNL A   1      32.898  22.449  25.961  1.00  0.00     0.163 C 
BRANCH   8   9
ATOM      9  N   UNL A   1      32.318  23.612  26.685  1.00  0.00    -0.198 NA
ATOM     10  H   UNL A   1      31.771  23.234  27.458  1.00  0.00     0.142 HD
BRANCH   9  11
ATOM     11  S   UNL A   1      31.326  24.702  25.886  1.00  0.00     0.241 S 
ATOM     12  O   UNL A   1      30.152  24.920  26.686  1.00  0.00    -0.207 OA
ATOM     13  O   UNL A   1      31.241  24.191  24.526  1.00  0.00    -0.207 OA
BRANCH  11  14
ATOM     14  C   UNL A   1      32.273  26.203  25.814  1.00  0.00     0.085 A 
ATOM     15  C   UNL A   1      31.966  29.698  27.298  1.00  0.00     0.044 C 
ATOM     16  C   UNL A   1      32.475  28.534  26.494  1.00  0.00    -0.050 A 
ATOM     17  C   UNL A   1      33.525  28.688  25.590  1.00  0.00     0.004 A 
ATOM     18  C   UNL A   1      31.880  27.280  26.622  1.00  0.00     0.025 A 
ATOM     19  C   UNL A   1      33.970  27.601  24.830  1.00  0.00     0.005 A 
ATOM     20  C   UNL A   1      33.354  26.340  24.928  1.00  0.00    -0.031 A 
ATOM     21  C   UNL A   1      33.911  25.228  24.086  1.00  0.00     0.046 C 
ENDBRANCH  11  14
ENDBRANCH   9  11
ENDBRANCH   8   9
BRANCH   8  22
ATOM     22  C   UNL A   1      31.770  21.500  25.443  1.00  0.00     0.063 C 
BRANCH  22  23
ATOM     23  C   UNL A   1      32.135  20.377  24.517  1.00  0.00    -0.037 C 
ATOM     24  C   UNL A   1      32.559  19.132  24.733  1.00  0.00     0.001 A 
ATOM     25  C   UNL A   1      32.193  20.654  23.054  1.00  0.00     0.174 C 
ATOM     26  C   UNL A   1      32.954  18.333  25.850  1.00  0.00     0.010 A 
ATOM     27  C   UNL A   1      32.641  18.584  23.364  1.00  0.00     0.065 A 
ATOM     28  N   UNL A   1      32.486  19.396  22.366  1.00  0.00    -0.280 NA
ATOM     29  C   UNL A   1      33.333  17.060  25.629  1.00  0.00     0.001 A 
ATOM     30  C   UNL A   1      32.867  17.138  23.230  1.00  0.00     0.028 A 
ATOM     31  C   UNL A   1      33.229  16.444  24.317  1.00  0.00     0.002 A 
ENDBRANCH  22  23
ENDBRANCH   8  22
ENDBRANCH   5   8
ENDBRANCH   3   4
ENDBRANCH   2   3
ENDBRANCH   1   2
BRANCH   1  32
ATOM     32  C   UNL A   1      39.187  22.693  26.800  1.00  0.00     0.002 C 
BRANCH  32  33
ATOM     33  C   UNL A   1      39.937  21.525  26.138  1.00  0.00     0.021 C 
BRANCH  33  34
ATOM     34  C   UNL A   1      41.364  21.249  26.619  1.00  0.00     0.116 C 
BRANCH  34  35
ATOM     35  N   UNL A   1      42.383  21.778  25.708  1.00  0.00    -0.352 N 
ATOM     36  C   UNL A   1      42.691  23.056  25.280  1.00  0.00     0.251 C 
ATOM     37  H   UNL A   1      42.965  21.083  25.322  1.00  0.00     0.163 HD
ATOM     38  O   UNL A   1      43.284  23.185  24.209  1.00  0.00    -0.269 OA
BRANCH  36  39
ATOM     39  C   UNL A   1      42.360  24.262  26.077  1.00  0.00     0.039 A 
ATOM     40  C   UNL A   1      41.614  25.326  25.545  1.00  0.00     0.014 A 
ATOM     41  C   UNL A   1      42.877  24.391  27.354  1.00  0.00     0.014 A 
ATOM     42  C   UNL A   1      41.431  26.492  26.303  1.00  0.00     0.010 A 
ATOM     43  C   UNL A   1      42.526  25.425  28.174  1.00  0.00     0.010 A 
ATOM     44  C   UNL A   1      41.913  26.531  27.613  1.00  0.00    -0.014 A 
BRANCH  44  45
ATOM     45  C   UNL A   1      41.807  27.674  28.503  1.00  0.00     0.031 A 
ATOM     46  C   UNL A   1      42.783  28.747  28.272  1.00  0.00     0.074 A 
ATOM     47  C   UNL A   1      40.687  27.926  29.215  1.00  0.00     0.049 A 
ATOM     48  N   UNL A   1      43.708  29.125  29.085  1.00  0.00    -0.248 NA
ATOM     49  C   UNL A   1      42.818  29.399  26.955  1.00  0.00     0.031 C 
ATOM     50  C   UNL A   1      39.489  27.090  29.307  1.00  0.00     0.029 A 
ATOM     51  N   UNL A   1      40.330  29.057  29.894  1.00  0.00    -0.354 N 
ATOM     52  C   UNL A   1      44.302  30.214  28.473  1.00  0.00     0.074 A 
ATOM     53  C   UNL A   1      43.902  30.164  27.089  1.00  0.00     0.031 C 
ATOM     54  C   UNL A   1      38.483  27.826  29.823  1.00  0.00     0.029 A 
ATOM     55  C   UNL A   1      38.972  29.137  30.180  1.00  0.00     0.049 A 
ATOM     56  H   UNL A   1      40.975  29.752  30.156  1.00  0.00     0.167 HD
ATOM     57  C   UNL A   1      44.836  31.234  29.199  1.00  0.00     0.031 A 
ATOM     58  C   UNL A   1      38.278  30.202  30.656  1.00  0.00     0.031 A 
ATOM     59  C   UNL A   1      44.938  30.903  30.601  1.00  0.00     0.049 A 
ATOM     60  C   UNL A   1      39.249  31.053  31.373  1.00  0.00     0.074 A 
ATOM     61  C   UNL A   1      45.518  29.865  31.307  1.00  0.00     0.029 A 
ATOM     62  N   UNL A   1      44.023  31.474  31.457  1.00  0.00    -0.354 N 
ATOM     63  N   UNL A   1      39.853  30.678  32.464  1.00  0.00    -0.248 NA
ATOM     64  C   UNL A   1      39.880  32.141  30.645  1.00  0.00     0.031 C 
ATOM     65  C   UNL A   1      44.604  29.572  32.360  1.00  0.00     0.029 A 
ATOM     66  C   UNL A   1      43.555  30.489  32.292  1.00  0.00     0.049 A 
ATOM     67  H   UNL A   1      43.754  32.421  31.469  1.00  0.00     0.167 HD
ATOM     68  C   UNL A   1      41.153  31.124  32.298  1.00  0.00     0.074 A 
ATOM     69  C   UNL A   1      41.079  32.122  31.231  1.00  0.00     0.031 C 
ATOM     70  C   UNL A   1      42.207  30.435  32.826  1.00  0.00     0.031 A 
BRANCH  57  71
ATOM     71  C   UNL A   1      44.943  32.643  28.681  1.00  0.00    -0.014 A 
ATOM     72  C   UNL A   1      43.859  33.546  28.659  1.00  0.00     0.010 A 
ATOM     73  C   UNL A   1      46.211  33.163  28.363  1.00  0.00     0.010 A 
ATOM     74  C   UNL A   1      44.003  34.874  28.265  1.00  0.00     0.020 A 
ATOM     75  C   UNL A   1      46.379  34.514  28.025  1.00  0.00     0.020 A 
ATOM     76  C   UNL A   1      45.268  35.353  27.956  1.00  0.00     0.054 A 
BRANCH  76  77
ATOM     77  S   UNL A   1      45.426  37.103  27.539  1.00  0.00     0.124 S 
ATOM     78  O   UNL A   1      45.741  37.692  28.838  1.00  0.00    -0.237 OA
ATOM     79  O   UNL A   1      46.519  37.096  26.570  1.00  0.00    -0.237 OA
ATOM     80  O   UNL A   1      44.115  37.445  26.996  1.00  0.00    -0.744 OA
ENDBRANCH  76  77
ENDBRANCH  57  71
BRANCH  58  81
ATOM     81  C   UNL A   1      37.039  30.779  30.062  1.00  0.00    -0.014 A 
ATOM     82  C   UNL A   1      37.010  31.095  28.690  1.00  0.00     0.010 A 
ATOM     83  C   UNL A   1      36.024  31.312  30.879  1.00  0.00     0.010 A 
ATOM     84  C   UNL A   1      36.034  31.947  28.158  1.00  0.00     0.020 A 
ATOM     85  C   UNL A   1      35.035  32.163  30.350  1.00  0.00     0.020 A 
ATOM     86  C   UNL A   1      35.054  32.481  28.991  1.00  0.00     0.054 A 
BRANCH  86  87
ATOM     87  S   UNL A   1      33.867  33.660  28.284  1.00  0.00     0.124 S 
ATOM     88  O   UNL A   1      33.313  34.316  29.466  1.00  0.00    -0.237 OA
ATOM     89  O   UNL A   1      34.732  34.504  27.462  1.00  0.00    -0.237 OA
ATOM     90  O   UNL A   1      32.932  32.815  27.547  1.00  0.00    -0.744 OA
ENDBRANCH  86  87
ENDBRANCH  58  81
BRANCH  70  91
ATOM     91  C   UNL A   1      41.934  29.345  33.847  1.00  0.00    -0.014 A 
ATOM     92  C   UNL A   1      42.139  29.663  35.201  1.00  0.00     0.010 A 
ATOM     93  C   UNL A   1      41.673  28.000  33.512  1.00  0.00     0.010 A 
ATOM     94  C   UNL A   1      42.123  28.673  36.186  1.00  0.00     0.020 A 
ATOM     95  C   UNL A   1      41.630  27.002  34.501  1.00  0.00     0.020 A 
ATOM     96  C   UNL A   1      41.882  27.345  35.830  1.00  0.00     0.054 A 
BRANCH  96  97
ATOM     97  S   UNL A   1      41.936  26.087  37.138  1.00  0.00     0.124 S 
ATOM     98  O   UNL A   1      42.945  26.627  38.047  1.00  0.00    -0.237 OA
ATOM     99  O   UNL A   1      40.568  26.097  37.651  1.00  0.00    -0.237 OA
ATOM    100  O   UNL A   1      42.323  24.864  36.437  1.00  0.00    -0.744 OA
ENDBRANCH  96  97
ENDBRANCH  70  91
ENDBRANCH  44  45
ENDBRANCH  36  39
ENDBRANCH  34  35
ENDBRANCH  33  34
ENDBRANCH  32  33
ENDBRANCH   1  32
TORSDOF 21
ENDMDL
MODEL 3
REMARK VINA RESULT:     -11.5      1.874      3.231
REMARK SMILES Cc1ccc(C)c(S(=O)(=O)N[C@H](CC2=c3ccccc3=NC2)C(=O)NCCCCCCNC(=O)c2ccc(-c3c4nc(c(-c5ccc(S(=O)(=O)[O-])cc5)c5ccc([nH]5)c(-c5ccc(S(=O)(=O)[O-])cc5)c5nc(c(-c6ccc(S(=O)(=O)[O-])cc6)c6ccc3[nH]6)C=C5)C=C4)cc2)c1
REMARK SMILES IDX 28 1 27 2 26 3 25 4 23 5 24 6 12 8 11 9 8 11 9 12 10 13 7 14
REMARK SMILES IDX 1 15 2 16 3 17 95 18 4 19 5 20 6 21 13 22 14 23 15 24 22 25
REMARK SMILES IDX 16 26 20 27 21 28 17 29 19 30 18 31 29 32 30 33 31 34 32 35
REMARK SMILES IDX 33 36 34 38 35 39 36 40 94 41 37 42 93 43 38 44 39 45 40 46
REMARK SMILES IDX 87 47 41 48 92 49 86 50 88 51 42 52 91 53 85 54 84 55 43 57
REMARK SMILES IDX 73 58 54 59 72 60 55 61 58 62 71 63 89 64 56 65 57 66 70 68
REMARK SMILES IDX 90 69 59 70 44 71 45 72 53 73 46 74 52 75 47 76 48 77 49 78
REMARK SMILES IDX 50 79 51 80 74 81 75 82 83 83 76 84 82 85 77 86 78 87 79 88
REMARK SMILES IDX 80 89 81 90 60 91 61 92 69 93 62 94 68 95 63 96 64 97 65 98
REMARK SMILES IDX 66 99 67 100
REMARK H PARENT 25 7 11 10 32 37 88 56 58 67
REMARK Flexibility Score: inf
ROOT
ATOM      1  C   UNL A   1      37.770  23.643  25.386  1.00  0.00     0.002 C 
ENDROOT
BRANCH   1   2
ATOM      2  C   UNL A   1      36.338  23.936  25.840  1.00  0.00     0.021 C 
BRANCH   2   3
ATOM      3  C   UNL A   1      35.214  23.781  24.797  1.00  0.00     0.116 C 
BRANCH   3   4
ATOM      4  N   UNL A   1      33.860  24.053  25.267  1.00  0.00    -0.355 N 
ATOM      5  C   UNL A   1      32.609  23.980  24.714  1.00  0.00     0.238 C 
ATOM      6  O   UNL A   1      31.684  24.380  25.430  1.00  0.00    -0.273 OA
ATOM      7  H   UNL A   1      33.841  24.363  26.200  1.00  0.00     0.163 HD
BRANCH   5   8
ATOM      8  C   UNL A   1      32.319  23.446  23.297  1.00  0.00     0.163 C 
BRANCH   8   9
ATOM      9  N   UNL A   1      31.517  24.452  22.549  1.00  0.00    -0.198 NA
ATOM     10  H   UNL A   1      31.050  23.952  21.793  1.00  0.00     0.142 HD
BRANCH   9  11
ATOM     11  S   UNL A   1      32.259  25.785  21.855  1.00  0.00     0.241 S 
ATOM     12  O   UNL A   1      31.807  25.901  20.495  1.00  0.00    -0.207 OA
ATOM     13  O   UNL A   1      33.668  25.632  22.182  1.00  0.00    -0.207 OA
BRANCH  11  14
ATOM     14  C   UNL A   1      31.661  27.171  22.791  1.00  0.00     0.085 A 
ATOM     15  C   UNL A   1      28.552  29.372  22.729  1.00  0.00     0.044 C 
ATOM     16  C   UNL A   1      29.901  28.827  23.107  1.00  0.00    -0.050 A 
ATOM     17  C   UNL A   1      30.720  29.498  24.014  1.00  0.00     0.004 A 
ATOM     18  C   UNL A   1      30.368  27.647  22.528  1.00  0.00     0.025 A 
ATOM     19  C   UNL A   1      31.983  28.991  24.336  1.00  0.00     0.005 A 
ATOM     20  C   UNL A   1      32.477  27.821  23.732  1.00  0.00    -0.031 A 
ATOM     21  C   UNL A   1      33.838  27.342  24.153  1.00  0.00     0.046 C 
ENDBRANCH  11  14
ENDBRANCH   9  11
ENDBRANCH   8   9
BRANCH   8  22
ATOM     22  C   UNL A   1      31.689  22.023  23.159  1.00  0.00     0.063 C 
BRANCH  22  23
ATOM     23  C   UNL A   1      32.330  20.873  23.879  1.00  0.00    -0.037 C 
ATOM     24  C   UNL A   1      32.636  19.631  23.502  1.00  0.00     0.001 A 
ATOM     25  C   UNL A   1      32.589  21.006  25.341  1.00  0.00     0.174 C 
ATOM     26  C   UNL A   1      32.431  18.797  22.361  1.00  0.00     0.010 A 
ATOM     27  C   UNL A   1      33.309  19.094  24.701  1.00  0.00     0.065 A 
ATOM     28  N   UNL A   1      33.286  19.799  25.788  1.00  0.00    -0.280 NA
ATOM     29  C   UNL A   1      32.924  17.544  22.382  1.00  0.00     0.001 A 
ATOM     30  C   UNL A   1      33.990  17.798  24.567  1.00  0.00     0.028 A 
ATOM     31  C   UNL A   1      33.761  17.066  23.469  1.00  0.00     0.002 A 
ENDBRANCH  22  23
ENDBRANCH   8  22
ENDBRANCH   5   8
ENDBRANCH   3   4
ENDBRANCH   2   3
ENDBRANCH   1   2
BRANCH   1  32
ATOM     32  C   UNL A   1      38.638  22.876  26.383  1.00  0.00     0.002 C 
BRANCH  32  33
ATOM     33  C   UNL A   1      39.342  21.605  25.878  1.00  0.00     0.021 C 
BRANCH  33  34
ATOM     34  C   UNL A   1      40.632  21.191  26.590  1.00  0.00     0.116 C 
BRANCH  34  35
ATOM     35  N   UNL A   1      41.838  21.578  25.853  1.00  0.00    -0.352 N 
ATOM     36  C   UNL A   1      42.376  22.803  25.505  1.00  0.00     0.251 C 
ATOM     37  H   UNL A   1      42.372  20.811  25.541  1.00  0.00     0.163 HD
ATOM     38  O   UNL A   1      43.135  22.853  24.536  1.00  0.00    -0.269 OA
BRANCH  36  39
ATOM     39  C   UNL A   1      42.095  24.041  26.272  1.00  0.00     0.039 A 
ATOM     40  C   UNL A   1      41.414  25.130  25.705  1.00  0.00     0.014 A 
ATOM     41  C   UNL A   1      42.597  24.170  27.555  1.00  0.00     0.014 A 
ATOM     42  C   UNL A   1      41.279  26.320  26.436  1.00  0.00     0.010 A 
ATOM     43  C   UNL A   1      42.287  25.237  28.348  1.00  0.00     0.010 A 
ATOM     44  C   UNL A   1      41.741  26.361  27.754  1.00  0.00    -0.014 A 
BRANCH  44  45
ATOM     45  C   UNL A   1      41.679  27.527  28.619  1.00  0.00     0.031 A 
ATOM     46  C   UNL A   1      42.675  28.571  28.343  1.00  0.00     0.074 A 
ATOM     47  C   UNL A   1      40.581  27.822  29.347  1.00  0.00     0.049 A 
ATOM     48  N   UNL A   1      43.626  28.945  29.129  1.00  0.00    -0.248 NA
ATOM     49  C   UNL A   1      42.699  29.191  27.011  1.00  0.00     0.031 C 
ATOM     50  C   UNL A   1      39.365  27.017  29.481  1.00  0.00     0.029 A 
ATOM     51  N   UNL A   1      40.264  28.976  30.005  1.00  0.00    -0.354 N 
ATOM     52  C   UNL A   1      44.232  30.005  28.480  1.00  0.00     0.074 A 
ATOM     53  C   UNL A   1      43.803  29.933  27.105  1.00  0.00     0.031 C 
ATOM     54  C   UNL A   1      38.387  27.788  30.000  1.00  0.00     0.029 A 
ATOM     55  C   UNL A   1      38.914  29.095  30.316  1.00  0.00     0.049 A 
ATOM     56  H   UNL A   1      40.930  29.661  30.239  1.00  0.00     0.167 HD
ATOM     57  C   UNL A   1      44.805  31.029  29.171  1.00  0.00     0.031 A 
ATOM     58  C   UNL A   1      38.254  30.187  30.781  1.00  0.00     0.031 A 
ATOM     59  C   UNL A   1      44.927  30.727  30.578  1.00  0.00     0.049 A 
ATOM     60  C   UNL A   1      39.259  31.031  31.458  1.00  0.00     0.074 A 
ATOM     61  C   UNL A   1      45.497  29.693  31.297  1.00  0.00     0.029 A 
ATOM     62  N   UNL A   1      44.044  31.340  31.439  1.00  0.00    -0.354 N 
ATOM     63  N   UNL A   1      39.877  30.667  32.545  1.00  0.00    -0.248 NA
ATOM     64  C   UNL A   1      39.901  32.086  30.693  1.00  0.00     0.031 C 
ATOM     65  C   UNL A   1      44.597  29.445  32.374  1.00  0.00     0.029 A 
ATOM     66  C   UNL A   1      43.569  30.386  32.306  1.00  0.00     0.049 A 
ATOM     67  H   UNL A   1      43.796  32.293  31.434  1.00  0.00     0.167 HD
ATOM     68  C   UNL A   1      41.184  31.078  32.344  1.00  0.00     0.074 A 
ATOM     69  C   UNL A   1      41.111  32.052  31.255  1.00  0.00     0.031 C 
ATOM     70  C   UNL A   1      42.231  30.376  32.867  1.00  0.00     0.031 A 
BRANCH  57  71
ATOM     71  C   UNL A   1      44.933  32.422  28.618  1.00  0.00    -0.014 A 
ATOM     72  C   UNL A   1      43.841  33.167  28.125  1.00  0.00     0.010 A 
ATOM     73  C   UNL A   1      46.157  33.103  28.752  1.00  0.00     0.010 A 
ATOM     74  C   UNL A   1      43.966  34.488  27.707  1.00  0.00     0.020 A 
ATOM     75  C   UNL A   1      46.282  34.454  28.392  1.00  0.00     0.020 A 
ATOM     76  C   UNL A   1      45.189  35.128  27.851  1.00  0.00     0.054 A 
BRANCH  76  77
ATOM     77  S   UNL A   1      45.288  36.870  27.383  1.00  0.00     0.124 S 
ATOM     78  O   UNL A   1      46.234  36.827  26.270  1.00  0.00    -0.237 OA
ATOM     79  O   UNL A   1      43.906  37.176  27.022  1.00  0.00    -0.237 OA
ATOM     80  O   UNL A   1      45.774  37.521  28.595  1.00  0.00    -0.744 OA
ENDBRANCH  76  77
ENDBRANCH  57  71
BRANCH  58  81
ATOM     81  C   UNL A   1      37.018  30.779  30.198  1.00  0.00    -0.014 A 
ATOM     82  C   UNL A   1      36.937  30.988  28.807  1.00  0.00     0.010 A 
ATOM     83  C   UNL A   1      36.071  31.427  31.014  1.00  0.00     0.010 A 
ATOM     84  C   UNL A   1      35.980  31.845  28.253  1.00  0.00     0.020 A 
ATOM     85  C   UNL A   1      35.101  32.285  30.462  1.00  0.00     0.020 A 
ATOM     86  C   UNL A   1      35.068  32.494  29.082  1.00  0.00     0.054 A 
BRANCH  86  87
ATOM     87  S   UNL A   1      33.907  33.674  28.336  1.00  0.00     0.124 S 
ATOM     88  O   UNL A   1      34.772  34.495  27.492  1.00  0.00    -0.237 OA
ATOM     89  O   UNL A   1      33.001  32.788  27.608  1.00  0.00    -0.237 OA
ATOM     90  O   UNL A   1      33.323  34.363  29.483  1.00  0.00    -0.744 OA
ENDBRANCH  86  87
ENDBRANCH  58  81
BRANCH  70  91
ATOM     91  C   UNL A   1      41.954  29.317  33.918  1.00  0.00    -0.014 A 
ATOM     92  C   UNL A   1      42.318  29.612  35.244  1.00  0.00     0.010 A 
ATOM     93  C   UNL A   1      41.532  28.004  33.621  1.00  0.00     0.010 A 
ATOM     94  C   UNL A   1      42.301  28.627  36.234  1.00  0.00     0.020 A 
ATOM     95  C   UNL A   1      41.488  27.014  34.618  1.00  0.00     0.020 A 
ATOM     96  C   UNL A   1      41.900  27.329  35.914  1.00  0.00     0.054 A 
BRANCH  96  97
ATOM     97  S   UNL A   1      41.957  26.070  37.220  1.00  0.00     0.124 S 
ATOM     98  O   UNL A   1      40.575  26.053  37.695  1.00  0.00    -0.237 OA
ATOM     99  O   UNL A   1      42.380  24.873  36.496  1.00  0.00    -0.237 OA
ATOM    100  O   UNL A   1      42.934  26.591  38.173  1.00  0.00    -0.744 OA
ENDBRANCH  96  97
ENDBRANCH  70  91
ENDBRANCH  44  45
ENDBRANCH  36  39
ENDBRANCH  34  35
ENDBRANCH  33  34
ENDBRANCH  32  33
ENDBRANCH   1  32
TORSDOF 21
ENDMDL
