MODEL 1
REMARK VINA RESULT:     -10.5      0.000      0.000
REMARK SMILES C[C@@H]1CCC[C@H]1NC(=O)c1csc(/C=C/C(=O)NCCCCCCNC(=O)c2ccc(-c3c4nc(c(-c5ccc(S(=O)(=O)[O-])cc5)c5ccc([nH]5)c(-c5ccc(S(=O)(=O)[O-])cc5)c5nc(c(-c6ccc(S(=O)(=O)[O-])cc6)c6ccc3[nH]6)C=C5)C=C4)cc2)c1
REMARK SMILES IDX 21 1 20 2 19 3 18 4 16 5 17 6 15 8 14 9 13 10 10 11 11 12
REMARK SMILES IDX 88 13 12 14 8 15 7 16 9 18 6 19 1 20 2 21 3 22 4 23 5 24
REMARK SMILES IDX 22 25 23 26 24 27 25 28 26 29 27 31 28 32 29 33 87 34 30 35
REMARK SMILES IDX 86 36 31 37 32 38 33 39 80 40 34 41 85 42 79 43 81 44 35 45
REMARK SMILES IDX 84 46 78 47 77 48 36 50 66 51 47 52 65 53 48 54 51 55 64 56
REMARK SMILES IDX 82 57 49 58 50 59 63 61 83 62 52 63 37 64 38 65 46 66 39 67
REMARK SMILES IDX 45 68 40 69 41 70 42 71 43 72 44 73 67 74 68 75 76 76 69 77
REMARK SMILES IDX 75 78 70 79 71 80 72 81 73 82 74 83 53 84 54 85 62 86 55 87
REMARK SMILES IDX 61 88 56 89 57 90 58 91 59 92 60 93
REMARK H PARENT 18 7 7 17 25 30 81 49 51 60
REMARK Flexibility Score: inf
ROOT
ATOM      1  C   UNL A   1      33.090  22.230  25.513  1.00  0.00     0.002 C 
ENDROOT
BRANCH   1   2
ATOM      2  C   UNL A   1      33.409  21.572  24.165  1.00  0.00     0.021 C 
BRANCH   2   3
ATOM      3  C   UNL A   1      32.308  21.769  23.123  1.00  0.00     0.116 C 
BRANCH   3   4
ATOM      4  N   UNL A   1      32.802  22.575  22.019  1.00  0.00    -0.353 N 
ATOM      5  C   UNL A   1      32.796  23.919  21.814  1.00  0.00     0.244 C 
ATOM      6  O   UNL A   1      33.324  24.382  20.806  1.00  0.00    -0.270 OA
ATOM      7  H   UNL A   1      33.213  22.056  21.290  1.00  0.00     0.163 HD
BRANCH   5   8
ATOM      8  C   UNL A   1      32.266  24.839  22.842  1.00  0.00     0.072 C 
ATOM      9  C   UNL A   1      32.954  25.866  23.359  1.00  0.00     0.024 C 
BRANCH   9  10
ATOM     10  C   UNL A   1      32.383  26.795  24.274  1.00  0.00     0.028 A 
ATOM     11  C   UNL A   1      31.568  28.832  25.149  1.00  0.00     0.051 A 
ATOM     12  C   UNL A   1      31.442  27.986  26.233  1.00  0.00     0.079 A 
ATOM     13  C   UNL A   1      32.057  28.114  24.009  1.00  0.00     0.033 A 
ATOM     14  S   UNL A   1      32.022  26.413  25.911  1.00  0.00    -0.144 S 
BRANCH  11  15
ATOM     15  C   UNL A   1      31.202  30.240  25.130  1.00  0.00     0.252 C 
ATOM     16  N   UNL A   1      30.246  30.668  24.245  1.00  0.00    -0.349 N 
ATOM     17  H   UNL A   1      30.089  31.640  24.234  1.00  0.00     0.164 HD
ATOM     18  O   UNL A   1      31.689  31.042  25.922  1.00  0.00    -0.269 OA
BRANCH  16  19
ATOM     19  C   UNL A   1      29.425  29.897  23.317  1.00  0.00     0.085 C 
ATOM     20  C   UNL A   1      27.075  28.999  23.024  1.00  0.00     0.010 C 
ATOM     21  C   UNL A   1      27.929  30.162  23.536  1.00  0.00     0.008 C 
ATOM     22  C   UNL A   1      27.678  31.443  22.742  1.00  0.00     0.005 C 
ATOM     23  C   UNL A   1      28.598  31.353  21.528  1.00  0.00     0.002 C 
ATOM     24  C   UNL A   1      29.695  30.347  21.880  1.00  0.00     0.025 C 
ENDBRANCH  16  19
ENDBRANCH  11  15
ENDBRANCH   9  10
ENDBRANCH   5   8
ENDBRANCH   3   4
ENDBRANCH   2   3
ENDBRANCH   1   2
BRANCH   1  25
ATOM     25  C   UNL A   1      34.144  23.230  26.004  1.00  0.00     0.002 C 
BRANCH  25  26
ATOM     26  C   UNL A   1      35.261  23.533  25.002  1.00  0.00     0.021 C 
BRANCH  26  27
ATOM     27  C   UNL A   1      36.550  24.040  25.639  1.00  0.00     0.116 C 
BRANCH  27  28
ATOM     28  N   UNL A   1      37.551  22.989  25.727  1.00  0.00    -0.352 N 
ATOM     29  C   UNL A   1      38.852  23.066  26.149  1.00  0.00     0.251 C 
ATOM     30  H   UNL A   1      37.251  22.096  25.443  1.00  0.00     0.163 HD
ATOM     31  O   UNL A   1      39.621  22.136  25.924  1.00  0.00    -0.269 OA
BRANCH  29  32
ATOM     32  C   UNL A   1      39.327  24.265  26.872  1.00  0.00     0.039 A 
ATOM     33  C   UNL A   1      38.960  24.439  28.209  1.00  0.00     0.014 A 
ATOM     34  C   UNL A   1      40.091  25.240  26.223  1.00  0.00     0.014 A 
ATOM     35  C   UNL A   1      39.374  25.582  28.897  1.00  0.00     0.010 A 
ATOM     36  C   UNL A   1      40.571  26.336  26.933  1.00  0.00     0.010 A 
ATOM     37  C   UNL A   1      40.190  26.535  28.267  1.00  0.00    -0.014 A 
BRANCH  37  38
ATOM     38  C   UNL A   1      40.600  27.775  28.971  1.00  0.00     0.031 A 
ATOM     39  C   UNL A   1      41.972  27.870  29.588  1.00  0.00     0.074 A 
ATOM     40  C   UNL A   1      39.735  28.803  29.082  1.00  0.00     0.049 A 
ATOM     41  N   UNL A   1      42.513  28.858  30.254  1.00  0.00    -0.248 NA
ATOM     42  C   UNL A   1      42.843  26.689  29.460  1.00  0.00     0.031 C 
ATOM     43  C   UNL A   1      38.366  28.819  28.562  1.00  0.00     0.029 A 
ATOM     44  N   UNL A   1      39.882  30.036  29.666  1.00  0.00    -0.354 N 
ATOM     45  C   UNL A   1      43.773  28.412  30.636  1.00  0.00     0.074 A 
ATOM     46  C   UNL A   1      43.894  27.045  30.182  1.00  0.00     0.031 C 
ATOM     47  C   UNL A   1      37.812  30.015  28.819  1.00  0.00     0.029 A 
ATOM     48  C   UNL A   1      38.771  30.837  29.552  1.00  0.00     0.049 A 
ATOM     49  H   UNL A   1      40.707  30.320  30.123  1.00  0.00     0.167 HD
ATOM     50  C   UNL A   1      44.755  29.086  31.282  1.00  0.00     0.031 A 
ATOM     51  C   UNL A   1      38.551  32.094  29.984  1.00  0.00     0.031 A 
ATOM     52  C   UNL A   1      44.636  30.452  31.720  1.00  0.00     0.049 A 
ATOM     53  C   UNL A   1      39.657  32.823  30.698  1.00  0.00     0.074 A 
ATOM     54  C   UNL A   1      45.586  31.243  32.342  1.00  0.00     0.029 A 
ATOM     55  N   UNL A   1      43.497  31.231  31.577  1.00  0.00    -0.354 N 
ATOM     56  N   UNL A   1      40.864  32.403  31.000  1.00  0.00    -0.248 NA
ATOM     57  C   UNL A   1      39.378  34.205  31.109  1.00  0.00     0.031 C 
ATOM     58  C   UNL A   1      45.004  32.484  32.620  1.00  0.00     0.029 A 
ATOM     59  C   UNL A   1      43.714  32.488  32.113  1.00  0.00     0.049 A 
ATOM     60  H   UNL A   1      42.659  30.933  31.156  1.00  0.00     0.167 HD
ATOM     61  C   UNL A   1      41.498  33.482  31.607  1.00  0.00     0.074 A 
ATOM     62  C   UNL A   1      40.547  34.576  31.609  1.00  0.00     0.031 C 
ATOM     63  C   UNL A   1      42.755  33.564  32.113  1.00  0.00     0.031 A 
BRANCH  50  64
ATOM     64  C   UNL A   1      46.042  28.349  31.555  1.00  0.00    -0.014 A 
ATOM     65  C   UNL A   1      47.089  28.338  30.614  1.00  0.00     0.010 A 
ATOM     66  C   UNL A   1      46.220  27.681  32.780  1.00  0.00     0.010 A 
ATOM     67  C   UNL A   1      48.268  27.634  30.872  1.00  0.00     0.020 A 
ATOM     68  C   UNL A   1      47.411  27.002  33.056  1.00  0.00     0.020 A 
ATOM     69  C   UNL A   1      48.420  26.968  32.092  1.00  0.00     0.054 A 
BRANCH  69  70
ATOM     70  S   UNL A   1      49.970  26.080  32.408  1.00  0.00     0.124 S 
ATOM     71  O   UNL A   1      50.791  26.496  31.274  1.00  0.00    -0.237 OA
ATOM     72  O   UNL A   1      50.382  26.606  33.707  1.00  0.00    -0.237 OA
ATOM     73  O   UNL A   1      49.571  24.675  32.406  1.00  0.00    -0.744 OA
ENDBRANCH  69  70
ENDBRANCH  50  64
BRANCH  51  74
ATOM     74  C   UNL A   1      37.242  32.753  29.727  1.00  0.00    -0.014 A 
ATOM     75  C   UNL A   1      36.194  32.651  30.661  1.00  0.00     0.010 A 
ATOM     76  C   UNL A   1      37.033  33.490  28.547  1.00  0.00     0.010 A 
ATOM     77  C   UNL A   1      34.955  33.248  30.406  1.00  0.00     0.020 A 
ATOM     78  C   UNL A   1      35.807  34.114  28.303  1.00  0.00     0.020 A 
ATOM     79  C   UNL A   1      34.771  33.977  29.228  1.00  0.00     0.054 A 
BRANCH  79  80
ATOM     80  S   UNL A   1      33.168  34.776  28.937  1.00  0.00     0.124 S 
ATOM     81  O   UNL A   1      33.568  36.073  28.398  1.00  0.00    -0.237 OA
ATOM     82  O   UNL A   1      32.529  33.867  27.989  1.00  0.00    -0.237 OA
ATOM     83  O   UNL A   1      32.558  34.810  30.264  1.00  0.00    -0.744 OA
ENDBRANCH  79  80
ENDBRANCH  51  74
BRANCH  63  84
ATOM     84  C   UNL A   1      43.186  34.896  32.669  1.00  0.00    -0.014 A 
ATOM     85  C   UNL A   1      43.024  35.213  34.030  1.00  0.00     0.010 A 
ATOM     86  C   UNL A   1      43.780  35.842  31.813  1.00  0.00     0.010 A 
ATOM     87  C   UNL A   1      43.393  36.471  34.511  1.00  0.00     0.020 A 
ATOM     88  C   UNL A   1      44.181  37.089  32.297  1.00  0.00     0.020 A 
ATOM     89  C   UNL A   1      43.964  37.404  33.639  1.00  0.00     0.054 A 
BRANCH  89  90
ATOM     90  S   UNL A   1      44.437  39.030  34.286  1.00  0.00     0.124 S 
ATOM     91  O   UNL A   1      45.765  39.213  33.707  1.00  0.00    -0.237 OA
ATOM     92  O   UNL A   1      43.393  39.904  33.756  1.00  0.00    -0.237 OA
ATOM     93  O   UNL A   1      44.410  38.847  35.736  1.00  0.00    -0.744 OA
ENDBRANCH  89  90
ENDBRANCH  63  84
ENDBRANCH  37  38
ENDBRANCH  29  32
ENDBRANCH  27  28
ENDBRANCH  26  27
ENDBRANCH  25  26
ENDBRANCH   1  25
TORSDOF 19
ENDMDL
MODEL 2
REMARK VINA RESULT:     -10.4      1.553      2.605
REMARK SMILES C[C@@H]1CCC[C@H]1NC(=O)c1csc(/C=C/C(=O)NCCCCCCNC(=O)c2ccc(-c3c4nc(c(-c5ccc(S(=O)(=O)[O-])cc5)c5ccc([nH]5)c(-c5ccc(S(=O)(=O)[O-])cc5)c5nc(c(-c6ccc(S(=O)(=O)[O-])cc6)c6ccc3[nH]6)C=C5)C=C4)cc2)c1
REMARK SMILES IDX 21 1 20 2 19 3 18 4 16 5 17 6 15 8 14 9 13 10 10 11 11 12
REMARK SMILES IDX 88 13 12 14 8 15 7 16 9 18 6 19 1 20 2 21 3 22 4 23 5 24
REMARK SMILES IDX 22 25 23 26 24 27 25 28 26 29 27 31 28 32 29 33 87 34 30 35
REMARK SMILES IDX 86 36 31 37 32 38 33 39 80 40 34 41 85 42 79 43 81 44 35 45
REMARK SMILES IDX 84 46 78 47 77 48 36 50 66 51 47 52 65 53 48 54 51 55 64 56
REMARK SMILES IDX 82 57 49 58 50 59 63 61 83 62 52 63 37 64 38 65 46 66 39 67
REMARK SMILES IDX 45 68 40 69 41 70 42 71 43 72 44 73 67 74 68 75 76 76 69 77
REMARK SMILES IDX 75 78 70 79 71 80 72 81 73 82 74 83 53 84 54 85 62 86 55 87
REMARK SMILES IDX 61 88 56 89 57 90 58 91 59 92 60 93
REMARK H PARENT 18 7 7 17 25 30 81 49 51 60
REMARK Flexibility Score: inf
ROOT
ATOM      1  C   UNL A   1      34.368  22.400  27.158  1.00  0.00     0.002 C 
ENDROOT
BRANCH   1   2
ATOM      2  C   UNL A   1      33.600  21.216  26.557  1.00  0.00     0.021 C 
BRANCH   2   3
ATOM      3  C   UNL A   1      34.382  20.482  25.467  1.00  0.00     0.116 C 
BRANCH   3   4
ATOM      4  N   UNL A   1      33.465  19.843  24.538  1.00  0.00    -0.353 N 
ATOM      5  C   UNL A   1      32.686  20.353  23.549  1.00  0.00     0.244 C 
ATOM      6  O   UNL A   1      32.016  19.596  22.850  1.00  0.00    -0.270 OA
ATOM      7  H   UNL A   1      33.396  18.866  24.645  1.00  0.00     0.163 HD
BRANCH   5   8
ATOM      8  C   UNL A   1      32.720  21.795  23.226  1.00  0.00     0.072 C 
ATOM      9  C   UNL A   1      31.657  22.609  23.304  1.00  0.00     0.024 C 
BRANCH   9  10
ATOM     10  C   UNL A   1      31.743  24.013  23.084  1.00  0.00     0.028 A 
ATOM     11  C   UNL A   1      31.204  26.310  23.180  1.00  0.00     0.051 A 
ATOM     12  C   UNL A   1      32.297  26.309  22.336  1.00  0.00     0.079 A 
ATOM     13  C   UNL A   1      30.934  24.983  23.649  1.00  0.00     0.033 A 
ATOM     14  S   UNL A   1      32.887  24.737  22.025  1.00  0.00    -0.144 S 
BRANCH  11  15
ATOM     15  C   UNL A   1      30.458  27.489  23.595  1.00  0.00     0.252 C 
ATOM     16  N   UNL A   1      30.749  28.070  24.802  1.00  0.00    -0.349 N 
ATOM     17  H   UNL A   1      30.167  28.822  25.057  1.00  0.00     0.164 HD
ATOM     18  O   UNL A   1      29.615  28.005  22.867  1.00  0.00    -0.269 OA
BRANCH  16  19
ATOM     19  C   UNL A   1      31.792  27.738  25.768  1.00  0.00     0.085 C 
ATOM     20  C   UNL A   1      34.310  27.596  25.995  1.00  0.00     0.010 C 
ATOM     21  C   UNL A   1      33.139  28.363  25.377  1.00  0.00     0.008 C 
ATOM     22  C   UNL A   1      33.039  29.785  25.926  1.00  0.00     0.005 C 
ATOM     23  C   UNL A   1      32.231  29.666  27.215  1.00  0.00     0.002 C 
ATOM     24  C   UNL A   1      31.458  28.350  27.130  1.00  0.00     0.025 C 
ENDBRANCH  16  19
ENDBRANCH  11  15
ENDBRANCH   9  10
ENDBRANCH   5   8
ENDBRANCH   3   4
ENDBRANCH   2   3
ENDBRANCH   1   2
BRANCH   1  25
ATOM     25  C   UNL A   1      34.465  23.630  26.248  1.00  0.00     0.002 C 
BRANCH  25  26
ATOM     26  C   UNL A   1      35.315  23.436  24.991  1.00  0.00     0.021 C 
BRANCH  26  27
ATOM     27  C   UNL A   1      36.741  23.962  25.114  1.00  0.00     0.116 C 
BRANCH  27  28
ATOM     28  N   UNL A   1      37.676  22.896  25.436  1.00  0.00    -0.352 N 
ATOM     29  C   UNL A   1      38.888  22.971  26.073  1.00  0.00     0.251 C 
ATOM     30  H   UNL A   1      37.401  21.994  25.158  1.00  0.00     0.163 HD
ATOM     31  O   UNL A   1      39.653  22.011  26.041  1.00  0.00    -0.269 OA
BRANCH  29  32
ATOM     32  C   UNL A   1      39.271  24.204  26.795  1.00  0.00     0.039 A 
ATOM     33  C   UNL A   1      40.048  25.160  26.136  1.00  0.00     0.014 A 
ATOM     34  C   UNL A   1      38.909  24.395  28.132  1.00  0.00     0.014 A 
ATOM     35  C   UNL A   1      40.444  26.315  26.813  1.00  0.00     0.010 A 
ATOM     36  C   UNL A   1      39.234  25.583  28.778  1.00  0.00     0.010 A 
ATOM     37  C   UNL A   1      40.034  26.540  28.137  1.00  0.00    -0.014 A 
BRANCH  37  38
ATOM     38  C   UNL A   1      40.485  27.740  28.884  1.00  0.00     0.031 A 
ATOM     39  C   UNL A   1      41.865  27.773  29.489  1.00  0.00     0.074 A 
ATOM     40  C   UNL A   1      39.650  28.787  29.042  1.00  0.00     0.049 A 
ATOM     41  N   UNL A   1      42.439  28.720  30.187  1.00  0.00    -0.248 NA
ATOM     42  C   UNL A   1      42.702  26.574  29.307  1.00  0.00     0.031 C 
ATOM     43  C   UNL A   1      38.277  28.860  28.538  1.00  0.00     0.029 A 
ATOM     44  N   UNL A   1      39.838  29.991  29.671  1.00  0.00    -0.354 N 
ATOM     45  C   UNL A   1      43.690  28.225  30.538  1.00  0.00     0.074 A 
ATOM     46  C   UNL A   1      43.768  26.873  30.031  1.00  0.00     0.031 C 
ATOM     47  C   UNL A   1      37.759  30.060  28.846  1.00  0.00     0.029 A 
ATOM     48  C   UNL A   1      38.748  30.827  29.599  1.00  0.00     0.049 A 
ATOM     49  H   UNL A   1      40.674  30.235  30.130  1.00  0.00     0.167 HD
ATOM     50  C   UNL A   1      44.697  28.846  31.199  1.00  0.00     0.031 A 
ATOM     51  C   UNL A   1      38.568  32.072  30.082  1.00  0.00     0.031 A 
ATOM     52  C   UNL A   1      44.620  30.197  31.690  1.00  0.00     0.049 A 
ATOM     53  C   UNL A   1      39.700  32.742  30.811  1.00  0.00     0.074 A 
ATOM     54  C   UNL A   1      45.597  30.937  32.331  1.00  0.00     0.029 A 
ATOM     55  N   UNL A   1      43.502  31.012  31.588  1.00  0.00    -0.354 N 
ATOM     56  N   UNL A   1      40.897  32.278  31.084  1.00  0.00    -0.248 NA
ATOM     57  C   UNL A   1      39.464  34.115  31.277  1.00  0.00     0.031 C 
ATOM     58  C   UNL A   1      45.054  32.182  32.663  1.00  0.00     0.029 A 
ATOM     59  C   UNL A   1      43.760  32.241  32.170  1.00  0.00     0.049 A 
ATOM     60  H   UNL A   1      42.652  30.754  31.165  1.00  0.00     0.167 HD
ATOM     61  C   UNL A   1      41.568  33.315  31.725  1.00  0.00     0.074 A 
ATOM     62  C   UNL A   1      40.648  34.434  31.779  1.00  0.00     0.031 C 
ATOM     63  C   UNL A   1      42.831  33.342  32.220  1.00  0.00     0.031 A 
BRANCH  50  64
ATOM     64  C   UNL A   1      45.965  28.064  31.430  1.00  0.00    -0.014 A 
ATOM     65  C   UNL A   1      46.119  27.243  32.563  1.00  0.00     0.010 A 
ATOM     66  C   UNL A   1      47.009  28.128  30.488  1.00  0.00     0.010 A 
ATOM     67  C   UNL A   1      47.307  26.540  32.775  1.00  0.00     0.020 A 
ATOM     68  C   UNL A   1      48.187  27.399  30.680  1.00  0.00     0.020 A 
ATOM     69  C   UNL A   1      48.336  26.625  31.832  1.00  0.00     0.054 A 
BRANCH  69  70
ATOM     70  S   UNL A   1      49.859  25.684  32.122  1.00  0.00     0.124 S 
ATOM     71  O   UNL A   1      50.069  25.045  30.825  1.00  0.00    -0.237 OA
ATOM     72  O   UNL A   1      50.820  26.728  32.470  1.00  0.00    -0.237 OA
ATOM     73  O   UNL A   1      49.505  24.778  33.212  1.00  0.00    -0.744 OA
ENDBRANCH  69  70
ENDBRANCH  50  64
BRANCH  51  74
ATOM     74  C   UNL A   1      37.275  32.777  29.864  1.00  0.00    -0.014 A 
ATOM     75  C   UNL A   1      37.011  33.427  28.644  1.00  0.00     0.010 A 
ATOM     76  C   UNL A   1      36.297  32.801  30.874  1.00  0.00     0.010 A 
ATOM     77  C   UNL A   1      35.808  34.112  28.450  1.00  0.00     0.020 A 
ATOM     78  C   UNL A   1      35.080  33.458  30.673  1.00  0.00     0.020 A 
ATOM     79  C   UNL A   1      34.849  34.122  29.467  1.00  0.00     0.054 A 
BRANCH  79  80
ATOM     80  S   UNL A   1      33.278  34.983  29.178  1.00  0.00     0.124 S 
ATOM     81  O   UNL A   1      32.677  34.973  30.508  1.00  0.00    -0.237 OA
ATOM     82  O   UNL A   1      33.719  36.289  28.693  1.00  0.00    -0.237 OA
ATOM     83  O   UNL A   1      32.610  34.150  28.182  1.00  0.00    -0.744 OA
ENDBRANCH  79  80
ENDBRANCH  51  74
BRANCH  63  84
ATOM     84  C   UNL A   1      43.304  34.640  32.822  1.00  0.00    -0.014 A 
ATOM     85  C   UNL A   1      43.893  35.646  32.034  1.00  0.00     0.010 A 
ATOM     86  C   UNL A   1      43.141  34.860  34.203  1.00  0.00     0.010 A 
ATOM     87  C   UNL A   1      44.362  36.821  32.624  1.00  0.00     0.020 A 
ATOM     88  C   UNL A   1      43.578  36.049  34.791  1.00  0.00     0.020 A 
ATOM     89  C   UNL A   1      44.207  37.012  34.002  1.00  0.00     0.054 A 
BRANCH  89  90
ATOM     90  S   UNL A   1      44.822  38.548  34.745  1.00  0.00     0.124 S 
ATOM     91  O   UNL A   1      44.165  38.537  36.049  1.00  0.00    -0.237 OA
ATOM     92  O   UNL A   1      46.267  38.337  34.768  1.00  0.00    -0.237 OA
ATOM     93  O   UNL A   1      44.364  39.586  33.825  1.00  0.00    -0.744 OA
ENDBRANCH  89  90
ENDBRANCH  63  84
ENDBRANCH  37  38
ENDBRANCH  29  32
ENDBRANCH  27  28
ENDBRANCH  26  27
ENDBRANCH  25  26
ENDBRANCH   1  25
TORSDOF 19
ENDMDL
MODEL 3
REMARK VINA RESULT:     -10.2      4.390     10.028
REMARK SMILES C[C@@H]1CCC[C@H]1NC(=O)c1csc(/C=C/C(=O)NCCCCCCNC(=O)c2ccc(-c3c4nc(c(-c5ccc(S(=O)(=O)[O-])cc5)c5ccc([nH]5)c(-c5ccc(S(=O)(=O)[O-])cc5)c5nc(c(-c6ccc(S(=O)(=O)[O-])cc6)c6ccc3[nH]6)C=C5)C=C4)cc2)c1
REMARK SMILES IDX 21 1 20 2 19 3 18 4 16 5 17 6 15 8 14 9 13 10 10 11 11 12
REMARK SMILES IDX 88 13 12 14 8 15 7 16 9 18 6 19 1 20 2 21 3 22 4 23 5 24
REMARK SMILES IDX 22 25 23 26 24 27 25 28 26 29 27 31 28 32 29 33 87 34 30 35
REMARK SMILES IDX 86 36 31 37 32 38 33 39 80 40 34 41 85 42 79 43 81 44 35 45
REMARK SMILES IDX 84 46 78 47 77 48 36 50 66 51 47 52 65 53 48 54 51 55 64 56
REMARK SMILES IDX 82 57 49 58 50 59 63 61 83 62 52 63 37 64 38 65 46 66 39 67
REMARK SMILES IDX 45 68 40 69 41 70 42 71 43 72 44 73 67 74 68 75 76 76 69 77
REMARK SMILES IDX 75 78 70 79 71 80 72 81 73 82 74 83 53 84 54 85 62 86 55 87
REMARK SMILES IDX 61 88 56 89 57 90 58 91 59 92 60 93
REMARK H PARENT 18 7 7 17 25 30 81 49 51 60
REMARK Flexibility Score: inf
ROOT
ATOM      1  C   UNL A   1      33.872  28.844  26.864  1.00  0.00     0.002 C 
ENDROOT
BRANCH   1   2
ATOM      2  C   UNL A   1      33.281  29.701  25.736  1.00  0.00     0.021 C 
BRANCH   2   3
ATOM      3  C   UNL A   1      31.778  29.940  25.886  1.00  0.00     0.116 C 
BRANCH   3   4
ATOM      4  N   UNL A   1      31.165  30.101  24.578  1.00  0.00    -0.353 N 
ATOM      5  C   UNL A   1      30.646  29.194  23.710  1.00  0.00     0.244 C 
ATOM      6  O   UNL A   1      30.129  29.579  22.664  1.00  0.00    -0.270 OA
ATOM      7  H   UNL A   1      31.118  31.034  24.265  1.00  0.00     0.163 HD
BRANCH   5   8
ATOM      8  C   UNL A   1      30.591  27.758  24.059  1.00  0.00     0.072 C 
ATOM      9  C   UNL A   1      31.623  26.913  23.932  1.00  0.00     0.024 C 
BRANCH   9  10
ATOM     10  C   UNL A   1      31.570  25.559  24.369  1.00  0.00     0.028 A 
ATOM     11  C   UNL A   1      32.068  23.604  25.595  1.00  0.00     0.051 A 
ATOM     12  C   UNL A   1      31.148  23.138  24.678  1.00  0.00     0.079 A 
ATOM     13  C   UNL A   1      32.256  25.016  25.442  1.00  0.00     0.033 A 
ATOM     14  S   UNL A   1      30.635  24.348  23.587  1.00  0.00    -0.144 S 
BRANCH  11  15
ATOM     15  C   UNL A   1      32.717  22.802  26.622  1.00  0.00     0.252 C 
ATOM     16  N   UNL A   1      33.779  22.007  26.274  1.00  0.00    -0.349 N 
ATOM     17  H   UNL A   1      34.132  21.440  26.997  1.00  0.00     0.164 HD
ATOM     18  O   UNL A   1      32.371  22.862  27.798  1.00  0.00    -0.269 OA
BRANCH  16  19
ATOM     19  C   UNL A   1      34.463  21.877  24.991  1.00  0.00     0.085 C 
ATOM     20  C   UNL A   1      35.793  23.221  23.308  1.00  0.00     0.010 C 
ATOM     21  C   UNL A   1      35.502  22.989  24.792  1.00  0.00     0.008 C 
ATOM     22  C   UNL A   1      36.728  22.461  25.535  1.00  0.00     0.005 C 
ATOM     23  C   UNL A   1      36.704  20.949  25.334  1.00  0.00     0.002 C 
ATOM     24  C   UNL A   1      35.269  20.577  24.958  1.00  0.00     0.025 C 
ENDBRANCH  16  19
ENDBRANCH  11  15
ENDBRANCH   9  10
ENDBRANCH   5   8
ENDBRANCH   3   4
ENDBRANCH   2   3
ENDBRANCH   1   2
BRANCH   1  25
ATOM     25  C   UNL A   1      35.026  29.501  27.630  1.00  0.00     0.002 C 
BRANCH  25  26
ATOM     26  C   UNL A   1      34.896  31.015  27.818  1.00  0.00     0.021 C 
BRANCH  26  27
ATOM     27  C   UNL A   1      35.943  31.621  28.745  1.00  0.00     0.116 C 
BRANCH  27  28
ATOM     28  N   UNL A   1      35.810  31.117  30.102  1.00  0.00    -0.352 N 
ATOM     29  C   UNL A   1      36.649  30.292  30.805  1.00  0.00     0.251 C 
ATOM     30  H   UNL A   1      35.003  31.409  30.584  1.00  0.00     0.163 HD
ATOM     31  O   UNL A   1      36.259  29.771  31.847  1.00  0.00    -0.269 OA
BRANCH  29  32
ATOM     32  C   UNL A   1      38.018  30.031  30.311  1.00  0.00     0.039 A 
ATOM     33  C   UNL A   1      38.234  29.942  28.934  1.00  0.00     0.014 A 
ATOM     34  C   UNL A   1      39.077  29.826  31.201  1.00  0.00     0.014 A 
ATOM     35  C   UNL A   1      39.514  29.665  28.451  1.00  0.00     0.010 A 
ATOM     36  C   UNL A   1      40.366  29.633  30.716  1.00  0.00     0.010 A 
ATOM     37  C   UNL A   1      40.593  29.516  29.338  1.00  0.00    -0.014 A 
BRANCH  37  38
ATOM     38  C   UNL A   1      41.950  29.177  28.842  1.00  0.00     0.031 A 
ATOM     39  C   UNL A   1      42.245  27.780  28.358  1.00  0.00     0.074 A 
ATOM     40  C   UNL A   1      42.922  30.111  28.851  1.00  0.00     0.049 A 
ATOM     41  N   UNL A   1      43.366  27.283  27.901  1.00  0.00    -0.248 NA
ATOM     42  C   UNL A   1      41.141  26.807  28.419  1.00  0.00     0.031 C 
ATOM     43  C   UNL A   1      42.772  31.486  29.331  1.00  0.00     0.029 A 
ATOM     44  N   UNL A   1      44.229  30.043  28.440  1.00  0.00    -0.354 N 
ATOM     45  C   UNL A   1      43.106  25.943  27.637  1.00  0.00     0.074 A 
ATOM     46  C   UNL A   1      41.742  25.689  28.043  1.00  0.00     0.031 C 
ATOM     47  C   UNL A   1      43.931  32.142  29.154  1.00  0.00     0.029 A 
ATOM     48  C   UNL A   1      44.914  31.226  28.583  1.00  0.00     0.049 A 
ATOM     49  H   UNL A   1      44.638  29.224  28.078  1.00  0.00     0.167 HD
ATOM     50  C   UNL A   1      43.918  25.011  27.083  1.00  0.00     0.031 A 
ATOM     51  C   UNL A   1      46.190  31.539  28.283  1.00  0.00     0.031 A 
ATOM     52  C   UNL A   1      45.271  25.272  26.667  1.00  0.00     0.049 A 
ATOM     53  C   UNL A   1      47.072  30.489  27.665  1.00  0.00     0.074 A 
ATOM     54  C   UNL A   1      46.164  24.413  26.053  1.00  0.00     0.029 A 
ATOM     55  N   UNL A   1      45.924  26.486  26.820  1.00  0.00    -0.354 N 
ATOM     56  N   UNL A   1      46.791  29.241  27.372  1.00  0.00    -0.248 NA
ATOM     57  C   UNL A   1      48.440  30.897  27.319  1.00  0.00     0.031 C 
ATOM     58  C   UNL A   1      47.374  25.092  25.880  1.00  0.00     0.029 A 
ATOM     59  C   UNL A   1      47.214  26.394  26.327  1.00  0.00     0.049 A 
ATOM     60  H   UNL A   1      45.528  27.294  27.221  1.00  0.00     0.167 HD
ATOM     61  C   UNL A   1      47.936  28.725  26.774  1.00  0.00     0.074 A 
ATOM     62  C   UNL A   1      48.904  29.803  26.732  1.00  0.00     0.031 C 
ATOM     63  C   UNL A   1      48.167  27.475  26.299  1.00  0.00     0.031 A 
BRANCH  50  64
ATOM     64  C   UNL A   1      43.360  23.622  26.898  1.00  0.00    -0.014 A 
ATOM     65  C   UNL A   1      42.959  23.161  25.630  1.00  0.00     0.010 A 
ATOM     66  C   UNL A   1      43.260  22.755  28.001  1.00  0.00     0.010 A 
ATOM     67  C   UNL A   1      42.425  21.879  25.477  1.00  0.00     0.020 A 
ATOM     68  C   UNL A   1      42.757  21.460  27.847  1.00  0.00     0.020 A 
ATOM     69  C   UNL A   1      42.325  21.037  26.588  1.00  0.00     0.054 A 
BRANCH  69  70
ATOM     70  S   UNL A   1      41.648  19.371  26.356  1.00  0.00     0.124 S 
ATOM     71  O   UNL A   1      40.254  19.656  26.023  1.00  0.00    -0.237 OA
ATOM     72  O   UNL A   1      42.459  18.844  25.261  1.00  0.00    -0.237 OA
ATOM     73  O   UNL A   1      41.859  18.727  27.650  1.00  0.00    -0.744 OA
ENDBRANCH  69  70
ENDBRANCH  50  64
BRANCH  51  74
ATOM     74  C   UNL A   1      46.699  32.916  28.533  1.00  0.00    -0.014 A 
ATOM     75  C   UNL A   1      47.350  33.229  29.740  1.00  0.00     0.010 A 
ATOM     76  C   UNL A   1      46.537  33.923  27.564  1.00  0.00     0.010 A 
ATOM     77  C   UNL A   1      47.804  34.529  29.985  1.00  0.00     0.020 A 
ATOM     78  C   UNL A   1      47.017  35.215  27.792  1.00  0.00     0.020 A 
ATOM     79  C   UNL A   1      47.635  35.514  29.008  1.00  0.00     0.054 A 
BRANCH  79  80
ATOM     80  S   UNL A   1      48.268  37.183  29.332  1.00  0.00     0.124 S 
ATOM     81  O   UNL A   1      47.051  37.905  29.691  1.00  0.00    -0.237 OA
ATOM     82  O   UNL A   1      49.213  36.956  30.423  1.00  0.00    -0.237 OA
ATOM     83  O   UNL A   1      48.875  37.571  28.062  1.00  0.00    -0.744 OA
ENDBRANCH  79  80
ENDBRANCH  51  74
BRANCH  63  84
ATOM     84  C   UNL A   1      49.504  27.223  25.651  1.00  0.00    -0.014 A 
ATOM     85  C   UNL A   1      50.610  26.775  26.397  1.00  0.00     0.010 A 
ATOM     86  C   UNL A   1      49.648  27.423  24.266  1.00  0.00     0.010 A 
ATOM     87  C   UNL A   1      51.849  26.589  25.779  1.00  0.00     0.020 A 
ATOM     88  C   UNL A   1      50.877  27.206  23.639  1.00  0.00     0.020 A 
ATOM     89  C   UNL A   1      51.976  26.813  24.404  1.00  0.00     0.054 A 
BRANCH  89  90
ATOM     90  S   UNL A   1      53.594  26.564  23.624  1.00  0.00     0.124 S 
ATOM     91  O   UNL A   1      54.284  27.807  23.955  1.00  0.00    -0.237 OA
ATOM     92  O   UNL A   1      54.095  25.368  24.298  1.00  0.00    -0.237 OA
ATOM     93  O   UNL A   1      53.273  26.387  22.209  1.00  0.00    -0.744 OA
ENDBRANCH  89  90
ENDBRANCH  63  84
ENDBRANCH  37  38
ENDBRANCH  29  32
ENDBRANCH  27  28
ENDBRANCH  26  27
ENDBRANCH  25  26
ENDBRANCH   1  25
TORSDOF 19
ENDMDL
