MODEL 1
REMARK VINA RESULT:     -11.3      0.000      0.000
REMARK SMILES COc1ccc([C@@H]2[NH2+][C@H](C(=O)NCCCCCCNC(=O)c3ccc(-c4c5nc(c(-c6ccc(S(=O)(=O)[O-])cc6)c6ccc([nH]6)c(-c6ccc(S(=O)(=O)[O-])cc6)c6nc(c(-c7ccc(S(=O)(=O)[O-])cc7)c7ccc4[nH]7)C=C6)C=C5)cc3)CS2)cc1Cn1nc(C)c(Br)c1C
REMARK SMILES IDX 15 1 14 2 13 3 12 4 10 5 11 6 9 8 7 9 8 10 83 11 82 14 6 15
REMARK SMILES IDX 3 16 4 17 85 18 5 19 84 20 2 21 1 22 86 23 87 24 88 25 93 26
REMARK SMILES IDX 89 27 91 28 94 29 90 30 92 31 16 32 17 33 18 34 19 35 20 36
REMARK SMILES IDX 21 38 22 39 23 40 81 41 24 42 80 43 25 44 26 45 27 46 74 47
REMARK SMILES IDX 28 48 79 49 73 50 75 51 29 52 78 53 72 54 71 55 30 57 60 58
REMARK SMILES IDX 41 59 59 60 42 61 45 62 58 63 76 64 43 65 44 66 57 68 77 69
REMARK SMILES IDX 46 70 31 71 32 72 40 73 33 74 39 75 34 76 35 77 36 78 37 79
REMARK SMILES IDX 38 80 61 81 62 82 70 83 63 84 69 85 64 86 65 87 66 88 67 89
REMARK SMILES IDX 68 90 47 91 48 92 56 93 49 94 55 95 50 96 51 97 52 98 53 99
REMARK SMILES IDX 54 100
REMARK H PARENT 12 7 8 12 8 13 19 37 75 56 45 67
REMARK Flexibility Score: inf
ROOT
ATOM      1  C   UNL A   1      32.288  31.085  26.742  1.00  0.00     0.002 C 
ENDROOT
BRANCH   1   2
ATOM      2  C   UNL A   1      31.266  32.127  26.258  1.00  0.00     0.021 C 
BRANCH   2   3
ATOM      3  C   UNL A   1      30.348  31.674  25.122  1.00  0.00     0.116 C 
BRANCH   3   4
ATOM      4  N   UNL A   1      29.843  32.748  24.290  1.00  0.00    -0.351 N 
ATOM      5  C   UNL A   1      29.050  32.724  23.181  1.00  0.00     0.279 C 
ATOM      6  O   UNL A   1      28.568  33.812  22.835  1.00  0.00    -0.268 OA
ATOM      7  H   UNL A   1      30.119  33.649  24.574  1.00  0.00     0.163 HD
BRANCH   5   8
ATOM      8  C   UNL A   1      28.677  31.460  22.370  1.00  0.00     0.283 C 
ATOM      9  C   UNL A   1      29.603  29.229  22.048  1.00  0.00     0.274 C 
ATOM     10  N   UNL A   1      29.827  30.673  21.870  1.00  0.00    -0.321 N 
ATOM     11  S   UNL A   1      27.867  28.959  22.450  1.00  0.00    -0.088 SA
ATOM     12  H   UNL A   1      29.959  30.869  20.878  1.00  0.00     0.348 HD
ATOM     13  H   UNL A   1      30.655  30.939  22.403  1.00  0.00     0.348 HD
ATOM     14  C   UNL A   1      27.682  30.608  23.146  1.00  0.00     0.151 C 
BRANCH   9  15
ATOM     15  C   UNL A   1      30.613  28.670  23.051  1.00  0.00     0.021 A 
ATOM     16  C   UNL A   1      32.178  27.272  24.940  1.00  0.00     0.123 A 
ATOM     17  C   UNL A   1      31.066  28.016  25.351  1.00  0.00     0.047 A 
ATOM     18  C   UNL A   1      32.549  27.211  23.588  1.00  0.00     0.016 A 
ATOM     19  C   UNL A   1      30.289  28.704  24.417  1.00  0.00     0.015 A 
ATOM     20  C   UNL A   1      31.772  27.954  22.672  1.00  0.00     0.020 A 
BRANCH  16  21
ATOM     21  O   UNL A   1      32.765  26.480  25.886  1.00  0.00    -0.496 OA
ATOM     22  C   UNL A   1      32.607  26.980  27.212  1.00  0.00     0.278 C 
ENDBRANCH  16  21
BRANCH  18  23
ATOM     23  C   UNL A   1      33.737  26.402  23.098  1.00  0.00     0.184 C 
BRANCH  23  24
ATOM     24  N   UNL A   1      33.631  24.946  23.274  1.00  0.00    -0.264 N 
ATOM     25  N   UNL A   1      32.574  24.304  22.717  1.00  0.00    -0.177 NA
ATOM     26  C   UNL A   1      34.348  24.114  24.111  1.00  0.00     0.050 A 
ATOM     27  C   UNL A   1      32.740  23.013  23.034  1.00  0.00     0.074 A 
ATOM     28  C   UNL A   1      33.840  22.854  23.891  1.00  0.00     0.061 A 
ATOM     29  C   UNL A   1      35.442  24.524  25.014  1.00  0.00     0.067 C 
ATOM     30  C   UNL A   1      31.819  21.985  22.487  1.00  0.00     0.070 C 
ATOM     31  Br  UNL A   1      34.461  21.235  24.599  1.00  0.00    -0.047 Br
ENDBRANCH  23  24
ENDBRANCH  18  23
ENDBRANCH   9  15
ENDBRANCH   5   8
ENDBRANCH   3   4
ENDBRANCH   2   3
ENDBRANCH   1   2
BRANCH   1  32
ATOM     32  C   UNL A   1      33.353  31.565  27.739  1.00  0.00     0.002 C 
BRANCH  32  33
ATOM     33  C   UNL A   1      34.750  30.979  27.543  1.00  0.00     0.021 C 
BRANCH  33  34
ATOM     34  C   UNL A   1      35.825  31.507  28.477  1.00  0.00     0.116 C 
BRANCH  34  35
ATOM     35  N   UNL A   1      35.688  30.956  29.819  1.00  0.00    -0.352 N 
ATOM     36  C   UNL A   1      36.504  30.118  30.540  1.00  0.00     0.251 C 
ATOM     37  H   UNL A   1      34.870  31.232  30.292  1.00  0.00     0.163 HD
ATOM     38  O   UNL A   1      36.064  29.623  31.579  1.00  0.00    -0.269 OA
BRANCH  36  39
ATOM     39  C   UNL A   1      37.890  29.795  30.109  1.00  0.00     0.039 A 
ATOM     40  C   UNL A   1      38.156  29.671  28.738  1.00  0.00     0.014 A 
ATOM     41  C   UNL A   1      38.915  29.532  31.021  1.00  0.00     0.014 A 
ATOM     42  C   UNL A   1      39.435  29.318  28.292  1.00  0.00     0.010 A 
ATOM     43  C   UNL A   1      40.212  29.280  30.575  1.00  0.00     0.010 A 
ATOM     44  C   UNL A   1      40.484  29.139  29.207  1.00  0.00    -0.014 A 
BRANCH  44  45
ATOM     45  C   UNL A   1      41.851  28.747  28.768  1.00  0.00     0.031 A 
ATOM     46  C   UNL A   1      42.942  29.788  28.691  1.00  0.00     0.074 A 
ATOM     47  C   UNL A   1      42.104  27.479  28.384  1.00  0.00     0.049 A 
ATOM     48  N   UNL A   1      44.165  29.673  28.239  1.00  0.00    -0.248 NA
ATOM     49  C   UNL A   1      42.604  31.146  29.154  1.00  0.00     0.031 C 
ATOM     50  C   UNL A   1      41.134  26.382  28.382  1.00  0.00     0.029 A 
ATOM     51  N   UNL A   1      43.257  26.900  27.915  1.00  0.00    -0.354 N 
ATOM     52  C   UNL A   1      44.728  30.942  28.339  1.00  0.00     0.074 A 
ATOM     53  C   UNL A   1      43.699  31.823  28.843  1.00  0.00     0.031 C 
ATOM     54  C   UNL A   1      41.739  25.260  27.959  1.00  0.00     0.029 A 
ATOM     55  C   UNL A   1      43.126  25.563  27.620  1.00  0.00     0.049 A 
ATOM     56  H   UNL A   1      44.100  27.396  27.800  1.00  0.00     0.167 HD
ATOM     57  C   UNL A   1      45.994  31.336  28.061  1.00  0.00     0.031 A 
ATOM     58  C   UNL A   1      44.018  24.682  27.127  1.00  0.00     0.031 A 
ATOM     59  C   UNL A   1      47.029  30.454  27.596  1.00  0.00     0.049 A 
ATOM     60  C   UNL A   1      45.421  25.143  26.834  1.00  0.00     0.074 A 
ATOM     61  C   UNL A   1      48.358  30.746  27.335  1.00  0.00     0.029 A 
ATOM     62  N   UNL A   1      46.858  29.103  27.335  1.00  0.00    -0.354 N 
ATOM     63  N   UNL A   1      45.942  26.339  26.974  1.00  0.00    -0.248 NA
ATOM     64  C   UNL A   1      46.359  24.132  26.326  1.00  0.00     0.031 C 
ATOM     65  C   UNL A   1      48.979  29.578  26.880  1.00  0.00     0.029 A 
ATOM     66  C   UNL A   1      48.052  28.550  26.906  1.00  0.00     0.049 A 
ATOM     67  H   UNL A   1      46.012  28.611  27.440  1.00  0.00     0.167 HD
ATOM     68  C   UNL A   1      47.277  26.215  26.604  1.00  0.00     0.074 A 
ATOM     69  C   UNL A   1      47.486  24.827  26.246  1.00  0.00     0.031 C 
ATOM     70  C   UNL A   1      48.243  27.164  26.564  1.00  0.00     0.031 A 
BRANCH  57  71
ATOM     71  C   UNL A   1      46.336  32.791  28.265  1.00  0.00    -0.014 A 
ATOM     72  C   UNL A   1      46.572  33.305  29.553  1.00  0.00     0.010 A 
ATOM     73  C   UNL A   1      46.477  33.642  27.154  1.00  0.00     0.010 A 
ATOM     74  C   UNL A   1      46.903  34.651  29.729  1.00  0.00     0.020 A 
ATOM     75  C   UNL A   1      46.838  34.982  27.323  1.00  0.00     0.020 A 
ATOM     76  C   UNL A   1      47.034  35.482  28.612  1.00  0.00     0.054 A 
BRANCH  76  77
ATOM     77  S   UNL A   1      47.502  37.216  28.865  1.00  0.00     0.124 S 
ATOM     78  O   UNL A   1      48.950  37.167  28.673  1.00  0.00    -0.237 OA
ATOM     79  O   UNL A   1      46.755  37.906  27.812  1.00  0.00    -0.237 OA
ATOM     80  O   UNL A   1      47.063  37.502  30.224  1.00  0.00    -0.744 OA
ENDBRANCH  76  77
ENDBRANCH  57  71
BRANCH  58  81
ATOM     81  C   UNL A   1      43.620  23.267  26.891  1.00  0.00    -0.014 A 
ATOM     82  C   UNL A   1      43.841  22.662  25.640  1.00  0.00     0.010 A 
ATOM     83  C   UNL A   1      43.005  22.519  27.911  1.00  0.00     0.010 A 
ATOM     84  C   UNL A   1      43.428  21.348  25.405  1.00  0.00     0.020 A 
ATOM     85  C   UNL A   1      42.618  21.194  27.689  1.00  0.00     0.020 A 
ATOM     86  C   UNL A   1      42.817  20.622  26.431  1.00  0.00     0.054 A 
BRANCH  86  87
ATOM     87  S   UNL A   1      42.315  18.907  26.115  1.00  0.00     0.124 S 
ATOM     88  O   UNL A   1      42.576  18.274  27.404  1.00  0.00    -0.237 OA
ATOM     89  O   UNL A   1      40.908  19.050  25.753  1.00  0.00    -0.237 OA
ATOM     90  O   UNL A   1      43.193  18.492  25.023  1.00  0.00    -0.744 OA
ENDBRANCH  86  87
ENDBRANCH  58  81
BRANCH  70  91
ATOM     91  C   UNL A   1      49.626  26.730  26.163  1.00  0.00    -0.014 A 
ATOM     92  C   UNL A   1      50.467  26.050  27.062  1.00  0.00     0.010 A 
ATOM     93  C   UNL A   1      50.069  26.957  24.847  1.00  0.00     0.010 A 
ATOM     94  C   UNL A   1      51.738  25.633  26.660  1.00  0.00     0.020 A 
ATOM     95  C   UNL A   1      51.328  26.519  24.433  1.00  0.00     0.020 A 
ATOM     96  C   UNL A   1      52.162  25.871  25.348  1.00  0.00     0.054 A 
BRANCH  96  97
ATOM     97  S   UNL A   1      53.799  25.281  24.838  1.00  0.00     0.124 S 
ATOM     98  O   UNL A   1      53.880  25.764  23.462  1.00  0.00    -0.237 OA
ATOM     99  O   UNL A   1      54.690  25.941  25.789  1.00  0.00    -0.237 OA
ATOM    100  O   UNL A   1      53.705  23.831  24.985  1.00  0.00    -0.744 OA
ENDBRANCH  96  97
ENDBRANCH  70  91
ENDBRANCH  44  45
ENDBRANCH  36  39
ENDBRANCH  34  35
ENDBRANCH  33  34
ENDBRANCH  32  33
ENDBRANCH   1  32
TORSDOF 20
ENDMDL
MODEL 2
REMARK VINA RESULT:     -11.2      3.570      9.382
REMARK SMILES COc1ccc([C@@H]2[NH2+][C@H](C(=O)NCCCCCCNC(=O)c3ccc(-c4c5nc(c(-c6ccc(S(=O)(=O)[O-])cc6)c6ccc([nH]6)c(-c6ccc(S(=O)(=O)[O-])cc6)c6nc(c(-c7ccc(S(=O)(=O)[O-])cc7)c7ccc4[nH]7)C=C6)C=C5)cc3)CS2)cc1Cn1nc(C)c(Br)c1C
REMARK SMILES IDX 15 1 14 2 13 3 12 4 10 5 11 6 9 8 7 9 8 10 83 11 82 14 6 15
REMARK SMILES IDX 3 16 4 17 85 18 5 19 84 20 2 21 1 22 86 23 87 24 88 25 93 26
REMARK SMILES IDX 89 27 91 28 94 29 90 30 92 31 16 32 17 33 18 34 19 35 20 36
REMARK SMILES IDX 21 38 22 39 23 40 81 41 24 42 80 43 25 44 26 45 27 46 74 47
REMARK SMILES IDX 28 48 79 49 73 50 75 51 29 52 78 53 72 54 71 55 30 57 60 58
REMARK SMILES IDX 41 59 59 60 42 61 45 62 58 63 76 64 43 65 44 66 57 68 77 69
REMARK SMILES IDX 46 70 31 71 32 72 40 73 33 74 39 75 34 76 35 77 36 78 37 79
REMARK SMILES IDX 38 80 61 81 62 82 70 83 63 84 69 85 64 86 65 87 66 88 67 89
REMARK SMILES IDX 68 90 47 91 48 92 56 93 49 94 55 95 50 96 51 97 52 98 53 99
REMARK SMILES IDX 54 100
REMARK H PARENT 12 7 8 12 8 13 19 37 75 56 45 67
REMARK Flexibility Score: inf
ROOT
ATOM      1  C   UNL A   1      33.710  23.834  23.725  1.00  0.00     0.002 C 
ENDROOT
BRANCH   1   2
ATOM      2  C   UNL A   1      34.182  25.297  23.763  1.00  0.00     0.021 C 
BRANCH   2   3
ATOM      3  C   UNL A   1      34.025  26.008  25.108  1.00  0.00     0.116 C 
BRANCH   3   4
ATOM      4  N   UNL A   1      33.067  25.394  26.006  1.00  0.00    -0.351 N 
ATOM      5  C   UNL A   1      31.830  25.800  26.408  1.00  0.00     0.279 C 
ATOM      6  O   UNL A   1      31.135  24.944  26.976  1.00  0.00    -0.268 OA
ATOM      7  H   UNL A   1      33.361  24.537  26.392  1.00  0.00     0.163 HD
BRANCH   5   8
ATOM      8  C   UNL A   1      31.222  27.203  26.169  1.00  0.00     0.283 C 
ATOM      9  C   UNL A   1      31.751  29.492  26.817  1.00  0.00     0.274 C 
ATOM     10  N   UNL A   1      31.373  28.152  27.295  1.00  0.00    -0.321 N 
ATOM     11  S   UNL A   1      31.513  29.558  25.032  1.00  0.00    -0.088 SA
ATOM     12  H   UNL A   1      30.487  28.216  27.797  1.00  0.00     0.348 HD
ATOM     13  H   UNL A   1      32.111  27.808  27.909  1.00  0.00     0.348 HD
ATOM     14  C   UNL A   1      31.723  27.780  24.852  1.00  0.00     0.151 C 
BRANCH   9  15
ATOM     15  C   UNL A   1      33.156  29.839  27.313  1.00  0.00     0.021 A 
ATOM     16  C   UNL A   1      35.867  30.481  27.768  1.00  0.00     0.123 A 
ATOM     17  C   UNL A   1      35.485  29.161  27.502  1.00  0.00     0.047 A 
ATOM     18  C   UNL A   1      34.917  31.512  27.828  1.00  0.00     0.016 A 
ATOM     19  C   UNL A   1      34.145  28.844  27.272  1.00  0.00     0.015 A 
ATOM     20  C   UNL A   1      33.564  31.154  27.637  1.00  0.00     0.020 A 
BRANCH  16  21
ATOM     21  O   UNL A   1      37.210  30.735  27.791  1.00  0.00    -0.496 OA
ATOM     22  C   UNL A   1      37.790  30.568  29.084  1.00  0.00     0.278 C 
ENDBRANCH  16  21
BRANCH  18  23
ATOM     23  C   UNL A   1      35.291  32.959  28.097  1.00  0.00     0.184 C 
BRANCH  23  24
ATOM     24  N   UNL A   1      34.891  33.486  29.410  1.00  0.00    -0.264 N 
ATOM     25  N   UNL A   1      35.119  32.723  30.508  1.00  0.00    -0.177 NA
ATOM     26  C   UNL A   1      34.112  34.587  29.708  1.00  0.00     0.050 A 
ATOM     27  C   UNL A   1      34.664  33.446  31.539  1.00  0.00     0.074 A 
ATOM     28  C   UNL A   1      34.041  34.617  31.082  1.00  0.00     0.061 A 
ATOM     29  C   UNL A   1      33.524  35.524  28.730  1.00  0.00     0.067 C 
ATOM     30  C   UNL A   1      34.855  32.966  32.931  1.00  0.00     0.070 C 
ATOM     31  Br  UNL A   1      33.253  35.937  32.152  1.00  0.00    -0.047 Br
ENDBRANCH  23  24
ENDBRANCH  18  23
ENDBRANCH   9  15
ENDBRANCH   5   8
ENDBRANCH   3   4
ENDBRANCH   2   3
ENDBRANCH   1   2
BRANCH   1  32
ATOM     32  C   UNL A   1      34.746  22.758  24.084  1.00  0.00     0.002 C 
BRANCH  32  33
ATOM     33  C   UNL A   1      36.169  23.264  24.311  1.00  0.00     0.021 C 
BRANCH  33  34
ATOM     34  C   UNL A   1      36.682  23.177  25.738  1.00  0.00     0.116 C 
BRANCH  34  35
ATOM     35  N   UNL A   1      37.563  22.030  25.923  1.00  0.00    -0.352 N 
ATOM     36  C   UNL A   1      38.904  21.958  26.212  1.00  0.00     0.251 C 
ATOM     37  H   UNL A   1      37.121  21.156  25.824  1.00  0.00     0.163 HD
ATOM     38  O   UNL A   1      39.467  20.867  26.109  1.00  0.00    -0.269 OA
BRANCH  36  39
ATOM     39  C   UNL A   1      39.688  23.145  26.644  1.00  0.00     0.039 A 
ATOM     40  C   UNL A   1      39.319  24.407  26.158  1.00  0.00     0.014 A 
ATOM     41  C   UNL A   1      40.824  23.038  27.450  1.00  0.00     0.014 A 
ATOM     42  C   UNL A   1      40.062  25.544  26.500  1.00  0.00     0.010 A 
ATOM     43  C   UNL A   1      41.503  24.181  27.871  1.00  0.00     0.010 A 
ATOM     44  C   UNL A   1      41.152  25.445  27.378  1.00  0.00    -0.014 A 
BRANCH  44  45
ATOM     45  C   UNL A   1      41.972  26.630  27.749  1.00  0.00     0.031 A 
ATOM     46  C   UNL A   1      43.216  26.959  26.957  1.00  0.00     0.074 A 
ATOM     47  C   UNL A   1      41.641  27.377  28.821  1.00  0.00     0.049 A 
ATOM     48  N   UNL A   1      44.118  27.882  27.178  1.00  0.00    -0.248 NA
ATOM     49  C   UNL A   1      43.501  26.119  25.780  1.00  0.00     0.031 C 
ATOM     50  C   UNL A   1      40.483  27.154  29.689  1.00  0.00     0.029 A 
ATOM     51  N   UNL A   1      42.255  28.477  29.369  1.00  0.00    -0.354 N 
ATOM     52  C   UNL A   1      45.083  27.715  26.190  1.00  0.00     0.074 A 
ATOM     53  C   UNL A   1      44.686  26.572  25.400  1.00  0.00     0.031 C 
ATOM     54  C   UNL A   1      40.456  28.100  30.641  1.00  0.00     0.029 A 
ATOM     55  C   UNL A   1      41.615  28.973  30.480  1.00  0.00     0.049 A 
ATOM     56  H   UNL A   1      43.078  28.874  29.000  1.00  0.00     0.167 HD
ATOM     57  C   UNL A   1      46.187  28.460  25.943  1.00  0.00     0.031 A 
ATOM     58  C   UNL A   1      41.927  30.010  31.283  1.00  0.00     0.031 A 
ATOM     59  C   UNL A   1      46.562  29.621  26.704  1.00  0.00     0.049 A 
ATOM     60  C   UNL A   1      43.155  30.827  30.983  1.00  0.00     0.074 A 
ATOM     61  C   UNL A   1      47.634  30.474  26.502  1.00  0.00     0.029 A 
ATOM     62  N   UNL A   1      45.871  30.101  27.806  1.00  0.00    -0.354 N 
ATOM     63  N   UNL A   1      44.031  30.676  30.018  1.00  0.00    -0.248 NA
ATOM     64  C   UNL A   1      43.430  31.963  31.874  1.00  0.00     0.031 C 
ATOM     65  C   UNL A   1      47.611  31.449  27.505  1.00  0.00     0.029 A 
ATOM     66  C   UNL A   1      46.497  31.232  28.300  1.00  0.00     0.049 A 
ATOM     67  H   UNL A   1      45.055  29.698  28.179  1.00  0.00     0.167 HD
ATOM     68  C   UNL A   1      44.941  31.717  30.167  1.00  0.00     0.074 A 
ATOM     69  C   UNL A   1      44.502  32.497  31.306  1.00  0.00     0.031 C 
ATOM     70  C   UNL A   1      46.041  32.002  29.428  1.00  0.00     0.031 A 
BRANCH  57  71
ATOM     71  C   UNL A   1      47.067  28.049  24.790  1.00  0.00    -0.014 A 
ATOM     72  C   UNL A   1      46.775  28.455  23.475  1.00  0.00     0.010 A 
ATOM     73  C   UNL A   1      48.229  27.293  25.029  1.00  0.00     0.010 A 
ATOM     74  C   UNL A   1      47.607  28.081  22.417  1.00  0.00     0.020 A 
ATOM     75  C   UNL A   1      49.080  26.942  23.976  1.00  0.00     0.020 A 
ATOM     76  C   UNL A   1      48.754  27.325  22.673  1.00  0.00     0.054 A 
BRANCH  76  77
ATOM     77  S   UNL A   1      49.837  26.885  21.286  1.00  0.00     0.124 S 
ATOM     78  O   UNL A   1      49.136  25.737  20.713  1.00  0.00    -0.237 OA
ATOM     79  O   UNL A   1      49.819  28.099  20.469  1.00  0.00    -0.237 OA
ATOM     80  O   UNL A   1      51.113  26.584  21.921  1.00  0.00    -0.744 OA
ENDBRANCH  76  77
ENDBRANCH  57  71
BRANCH  58  81
ATOM     81  C   UNL A   1      41.056  30.346  32.443  1.00  0.00    -0.014 A 
ATOM     82  C   UNL A   1      40.078  31.351  32.334  1.00  0.00     0.010 A 
ATOM     83  C   UNL A   1      41.209  29.673  33.669  1.00  0.00     0.010 A 
ATOM     84  C   UNL A   1      39.290  31.696  33.436  1.00  0.00     0.020 A 
ATOM     85  C   UNL A   1      40.403  29.994  34.764  1.00  0.00     0.020 A 
ATOM     86  C   UNL A   1      39.459  31.017  34.645  1.00  0.00     0.054 A 
BRANCH  86  87
ATOM     87  S   UNL A   1      38.406  31.459  36.055  1.00  0.00     0.124 S 
ATOM     88  O   UNL A   1      37.212  31.972  35.391  1.00  0.00    -0.237 OA
ATOM     89  O   UNL A   1      38.248  30.182  36.746  1.00  0.00    -0.237 OA
ATOM     90  O   UNL A   1      39.200  32.453  36.773  1.00  0.00    -0.744 OA
ENDBRANCH  86  87
ENDBRANCH  58  81
BRANCH  70  91
ATOM     91  C   UNL A   1      46.824  33.232  29.796  1.00  0.00    -0.014 A 
ATOM     92  C   UNL A   1      46.445  34.504  29.329  1.00  0.00     0.010 A 
ATOM     93  C   UNL A   1      47.922  33.119  30.667  1.00  0.00     0.010 A 
ATOM     94  C   UNL A   1      47.172  35.637  29.704  1.00  0.00     0.020 A 
ATOM     95  C   UNL A   1      48.635  34.252  31.064  1.00  0.00     0.020 A 
ATOM     96  C   UNL A   1      48.264  35.503  30.569  1.00  0.00     0.054 A 
BRANCH  96  97
ATOM     97  S   UNL A   1      49.163  36.994  31.075  1.00  0.00     0.124 S 
ATOM     98  O   UNL A   1      48.234  38.054  30.692  1.00  0.00    -0.237 OA
ATOM     99  O   UNL A   1      49.333  36.796  32.512  1.00  0.00    -0.237 OA
ATOM    100  O   UNL A   1      50.397  36.935  30.294  1.00  0.00    -0.744 OA
ENDBRANCH  96  97
ENDBRANCH  70  91
ENDBRANCH  44  45
ENDBRANCH  36  39
ENDBRANCH  34  35
ENDBRANCH  33  34
ENDBRANCH  32  33
ENDBRANCH   1  32
TORSDOF 20
ENDMDL
MODEL 3
REMARK VINA RESULT:     -10.9      0.815      7.896
REMARK SMILES COc1ccc([C@@H]2[NH2+][C@H](C(=O)NCCCCCCNC(=O)c3ccc(-c4c5nc(c(-c6ccc(S(=O)(=O)[O-])cc6)c6ccc([nH]6)c(-c6ccc(S(=O)(=O)[O-])cc6)c6nc(c(-c7ccc(S(=O)(=O)[O-])cc7)c7ccc4[nH]7)C=C6)C=C5)cc3)CS2)cc1Cn1nc(C)c(Br)c1C
REMARK SMILES IDX 15 1 14 2 13 3 12 4 10 5 11 6 9 8 7 9 8 10 83 11 82 14 6 15
REMARK SMILES IDX 3 16 4 17 85 18 5 19 84 20 2 21 1 22 86 23 87 24 88 25 93 26
REMARK SMILES IDX 89 27 91 28 94 29 90 30 92 31 16 32 17 33 18 34 19 35 20 36
REMARK SMILES IDX 21 38 22 39 23 40 81 41 24 42 80 43 25 44 26 45 27 46 74 47
REMARK SMILES IDX 28 48 79 49 73 50 75 51 29 52 78 53 72 54 71 55 30 57 60 58
REMARK SMILES IDX 41 59 59 60 42 61 45 62 58 63 76 64 43 65 44 66 57 68 77 69
REMARK SMILES IDX 46 70 31 71 32 72 40 73 33 74 39 75 34 76 35 77 36 78 37 79
REMARK SMILES IDX 38 80 61 81 62 82 70 83 63 84 69 85 64 86 65 87 66 88 67 89
REMARK SMILES IDX 68 90 47 91 48 92 56 93 49 94 55 95 50 96 51 97 52 98 53 99
REMARK SMILES IDX 54 100
REMARK H PARENT 12 7 8 12 8 13 19 37 75 56 45 67
REMARK Flexibility Score: inf
ROOT
ATOM      1  C   UNL A   1      31.860  31.011  27.131  1.00  0.00     0.002 C 
ENDROOT
BRANCH   1   2
ATOM      2  C   UNL A   1      31.354  32.113  26.186  1.00  0.00     0.021 C 
BRANCH   2   3
ATOM      3  C   UNL A   1      30.280  31.684  25.186  1.00  0.00     0.116 C 
BRANCH   3   4
ATOM      4  N   UNL A   1      29.871  32.719  24.258  1.00  0.00    -0.351 N 
ATOM      5  C   UNL A   1      29.049  32.674  23.172  1.00  0.00     0.279 C 
ATOM      6  O   UNL A   1      28.679  33.770  22.725  1.00  0.00    -0.268 OA
ATOM      7  H   UNL A   1      30.253  33.607  24.444  1.00  0.00     0.163 HD
BRANCH   5   8
ATOM      8  C   UNL A   1      28.517  31.386  22.500  1.00  0.00     0.283 C 
ATOM      9  C   UNL A   1      29.380  29.159  22.013  1.00  0.00     0.274 C 
ATOM     10  N   UNL A   1      29.528  30.601  21.757  1.00  0.00    -0.321 N 
ATOM     11  S   UNL A   1      27.796  28.876  22.825  1.00  0.00    -0.088 SA
ATOM     12  H   UNL A   1      29.415  30.774  20.758  1.00  0.00     0.348 HD
ATOM     13  H   UNL A   1      30.455  30.891  22.070  1.00  0.00     0.348 HD
ATOM     14  C   UNL A   1      27.752  30.540  23.509  1.00  0.00     0.151 C 
BRANCH   9  15
ATOM     15  C   UNL A   1      30.611  28.639  22.758  1.00  0.00     0.021 A 
ATOM     16  C   UNL A   1      32.570  27.443  24.401  1.00  0.00     0.123 A 
ATOM     17  C   UNL A   1      31.863  28.567  24.843  1.00  0.00     0.047 A 
ATOM     18  C   UNL A   1      32.335  26.891  23.132  1.00  0.00     0.016 A 
ATOM     19  C   UNL A   1      30.890  29.156  24.032  1.00  0.00     0.015 A 
ATOM     20  C   UNL A   1      31.378  27.536  22.317  1.00  0.00     0.020 A 
BRANCH  16  21
ATOM     21  O   UNL A   1      33.361  26.818  25.324  1.00  0.00    -0.496 OA
ATOM     22  C   UNL A   1      33.056  27.190  26.667  1.00  0.00     0.278 C 
ENDBRANCH  16  21
BRANCH  18  23
ATOM     23  C   UNL A   1      33.067  25.663  22.622  1.00  0.00     0.184 C 
BRANCH  23  24
ATOM     24  N   UNL A   1      32.875  24.435  23.407  1.00  0.00    -0.264 N 
ATOM     25  N   UNL A   1      31.794  24.354  24.222  1.00  0.00    -0.177 NA
ATOM     26  C   UNL A   1      33.749  23.386  23.614  1.00  0.00     0.050 A 
ATOM     27  C   UNL A   1      31.878  23.147  24.797  1.00  0.00     0.074 A 
ATOM     28  C   UNL A   1      33.074  22.511  24.433  1.00  0.00     0.061 A 
ATOM     29  C   UNL A   1      35.101  23.256  23.034  1.00  0.00     0.067 C 
ATOM     30  C   UNL A   1      30.786  22.661  25.678  1.00  0.00     0.070 C 
ATOM     31  Br  UNL A   1      33.632  20.810  24.987  1.00  0.00    -0.047 Br
ENDBRANCH  23  24
ENDBRANCH  18  23
ENDBRANCH   9  15
ENDBRANCH   5   8
ENDBRANCH   3   4
ENDBRANCH   2   3
ENDBRANCH   1   2
BRANCH   1  32
ATOM     32  C   UNL A   1      33.381  30.819  27.226  1.00  0.00     0.002 C 
BRANCH  32  33
ATOM     33  C   UNL A   1      34.127  31.865  28.051  1.00  0.00     0.021 C 
BRANCH  33  34
ATOM     34  C   UNL A   1      35.512  31.465  28.531  1.00  0.00     0.116 C 
BRANCH  34  35
ATOM     35  N   UNL A   1      35.501  31.072  29.935  1.00  0.00    -0.352 N 
ATOM     36  C   UNL A   1      36.402  30.349  30.678  1.00  0.00     0.251 C 
ATOM     37  H   UNL A   1      34.712  31.378  30.438  1.00  0.00     0.163 HD
ATOM     38  O   UNL A   1      36.063  29.968  31.800  1.00  0.00    -0.269 OA
BRANCH  36  39
ATOM     39  C   UNL A   1      37.762  30.017  30.176  1.00  0.00     0.039 A 
ATOM     40  C   UNL A   1      38.746  29.642  31.102  1.00  0.00     0.014 A 
ATOM     41  C   UNL A   1      38.114  30.143  28.831  1.00  0.00     0.014 A 
ATOM     42  C   UNL A   1      40.052  29.371  30.677  1.00  0.00     0.010 A 
ATOM     43  C   UNL A   1      39.387  29.776  28.395  1.00  0.00     0.010 A 
ATOM     44  C   UNL A   1      40.382  29.415  29.314  1.00  0.00    -0.014 A 
BRANCH  44  45
ATOM     45  C   UNL A   1      41.764  29.148  28.832  1.00  0.00     0.031 A 
ATOM     46  C   UNL A   1      42.131  27.773  28.327  1.00  0.00     0.074 A 
ATOM     47  C   UNL A   1      42.704  30.113  28.897  1.00  0.00     0.049 A 
ATOM     48  N   UNL A   1      43.299  27.310  27.959  1.00  0.00    -0.248 NA
ATOM     49  C   UNL A   1      41.047  26.777  28.254  1.00  0.00     0.031 C 
ATOM     50  C   UNL A   1      42.492  31.475  29.390  1.00  0.00     0.029 A 
ATOM     51  N   UNL A   1      44.033  30.091  28.551  1.00  0.00    -0.354 N 
ATOM     52  C   UNL A   1      43.095  25.971  27.641  1.00  0.00     0.074 A 
ATOM     53  C   UNL A   1      41.705  25.680  27.908  1.00  0.00     0.031 C 
ATOM     54  C   UNL A   1      43.640  32.164  29.290  1.00  0.00     0.029 A 
ATOM     55  C   UNL A   1      44.681  31.285  28.766  1.00  0.00     0.049 A 
ATOM     56  H   UNL A   1      44.480  29.295  28.182  1.00  0.00     0.167 HD
ATOM     57  C   UNL A   1      43.977  25.069  27.146  1.00  0.00     0.031 A 
ATOM     58  C   UNL A   1      45.969  31.632  28.571  1.00  0.00     0.031 A 
ATOM     59  C   UNL A   1      45.351  25.368  26.845  1.00  0.00     0.049 A 
ATOM     60  C   UNL A   1      46.927  30.614  28.013  1.00  0.00     0.074 A 
ATOM     61  C   UNL A   1      46.312  24.537  26.292  1.00  0.00     0.029 A 
ATOM     62  N   UNL A   1      45.957  26.596  27.056  1.00  0.00    -0.354 N 
ATOM     63  N   UNL A   1      46.702  29.365  27.681  1.00  0.00    -0.248 NA
ATOM     64  C   UNL A   1      48.311  31.057  27.793  1.00  0.00     0.031 C 
ATOM     65  C   UNL A   1      47.509  25.255  26.204  1.00  0.00     0.029 A 
ATOM     66  C   UNL A   1      47.281  26.545  26.654  1.00  0.00     0.049 A 
ATOM     67  H   UNL A   1      45.512  27.388  27.434  1.00  0.00     0.167 HD
ATOM     68  C   UNL A   1      47.908  28.884  27.181  1.00  0.00     0.074 A 
ATOM     69  C   UNL A   1      48.854  29.979  27.244  1.00  0.00     0.031 C 
ATOM     70  C   UNL A   1      48.205  27.647  26.714  1.00  0.00     0.031 A 
BRANCH  57  71
ATOM     71  C   UNL A   1      43.478  23.670  26.888  1.00  0.00    -0.014 A 
ATOM     72  C   UNL A   1      43.435  23.146  25.584  1.00  0.00     0.010 A 
ATOM     73  C   UNL A   1      43.100  22.850  27.966  1.00  0.00     0.010 A 
ATOM     74  C   UNL A   1      42.986  21.843  25.358  1.00  0.00     0.020 A 
ATOM     75  C   UNL A   1      42.678  21.534  27.747  1.00  0.00     0.020 A 
ATOM     76  C   UNL A   1      42.609  21.044  26.441  1.00  0.00     0.054 A 
BRANCH  76  77
ATOM     77  S   UNL A   1      42.065  19.343  26.124  1.00  0.00     0.124 S 
ATOM     78  O   UNL A   1      42.883  18.978  24.969  1.00  0.00    -0.237 OA
ATOM     79  O   UNL A   1      42.408  18.661  27.373  1.00  0.00    -0.237 OA
ATOM     80  O   UNL A   1      40.639  19.476  25.862  1.00  0.00    -0.744 OA
ENDBRANCH  76  77
ENDBRANCH  57  71
BRANCH  58  81
ATOM     81  C   UNL A   1      46.429  33.011  28.891  1.00  0.00    -0.014 A 
ATOM     82  C   UNL A   1      46.887  33.329  30.183  1.00  0.00     0.010 A 
ATOM     83  C   UNL A   1      46.398  34.019  27.910  1.00  0.00     0.010 A 
ATOM     84  C   UNL A   1      47.279  34.634  30.495  1.00  0.00     0.020 A 
ATOM     85  C   UNL A   1      46.817  35.319  28.211  1.00  0.00     0.020 A 
ATOM     86  C   UNL A   1      47.239  35.622  29.507  1.00  0.00     0.054 A 
BRANCH  86  87
ATOM     87  S   UNL A   1      47.779  37.303  29.924  1.00  0.00     0.124 S 
ATOM     88  O   UNL A   1      48.010  37.883  28.605  1.00  0.00    -0.237 OA
ATOM     89  O   UNL A   1      46.633  37.832  30.658  1.00  0.00    -0.237 OA
ATOM     90  O   UNL A   1      48.978  37.084  30.731  1.00  0.00    -0.744 OA
ENDBRANCH  86  87
ENDBRANCH  58  81
BRANCH  70  91
ATOM     91  C   UNL A   1      49.596  27.421  26.188  1.00  0.00    -0.014 A 
ATOM     92  C   UNL A   1      50.584  26.809  26.981  1.00  0.00     0.010 A 
ATOM     93  C   UNL A   1      49.902  27.776  24.862  1.00  0.00     0.010 A 
ATOM     94  C   UNL A   1      51.863  26.585  26.463  1.00  0.00     0.020 A 
ATOM     95  C   UNL A   1      51.170  27.531  24.333  1.00  0.00     0.020 A 
ATOM     96  C   UNL A   1      52.148  26.949  25.142  1.00  0.00     0.054 A 
BRANCH  96  97
ATOM     97  S   UNL A   1      53.802  26.608  24.481  1.00  0.00     0.124 S 
ATOM     98  O   UNL A   1      53.554  25.451  23.624  1.00  0.00    -0.237 OA
ATOM     99  O   UNL A   1      54.132  27.848  23.782  1.00  0.00    -0.237 OA
ATOM    100  O   UNL A   1      54.603  26.340  25.673  1.00  0.00    -0.744 OA
ENDBRANCH  96  97
ENDBRANCH  70  91
ENDBRANCH  44  45
ENDBRANCH  36  39
ENDBRANCH  34  35
ENDBRANCH  33  34
ENDBRANCH  32  33
ENDBRANCH   1  32
TORSDOF 20
ENDMDL
