MODEL 1
REMARK VINA RESULT:     -10.8      0.000      0.000
REMARK SMILES O=C(NCCCCCCNC(=O)c1cc(F)ccc1NS(=O)(=O)c1ccc(Cl)s1)c1ccc(-c2c3nc(c(-c4ccc(S(=O)(=O)[O-])cc4)c4ccc([nH]4)c(-c4ccc(S(=O)(=O)[O-])cc4)c4nc(c(-c5ccc(S(=O)(=O)[O-])cc5)c5ccc2[nH]5)C=C4)C=C3)cc1
REMARK SMILES IDX 6 1 5 2 4 3 3 4 1 5 2 6 30 8 31 9 89 10 32 11 88 12 33 13
REMARK SMILES IDX 34 14 35 15 82 16 36 17 87 18 81 19 83 20 37 21 86 22 80 23
REMARK SMILES IDX 79 24 38 26 68 27 49 28 67 29 50 30 53 31 66 32 84 33 51 34
REMARK SMILES IDX 52 35 65 37 85 38 54 39 39 40 40 41 48 42 41 43 47 44 42 45
REMARK SMILES IDX 43 46 44 47 45 48 46 49 69 50 70 51 78 52 71 53 77 54 72 55
REMARK SMILES IDX 73 56 74 57 75 58 76 59 55 60 56 61 64 62 57 63 63 64 58 65
REMARK SMILES IDX 59 66 60 67 61 68 62 69 7 70 8 71 9 72 10 73 11 74 12 76
REMARK SMILES IDX 13 77 14 78 19 79 15 80 18 81 16 82 17 83 20 84 21 86 22 87
REMARK SMILES IDX 23 88 24 89 25 90 29 91 26 92 27 93 28 94
REMARK H PARENT 3 7 83 25 53 36 10 75 20 85
REMARK Flexibility Score: inf
ROOT
ATOM      1  C   UNL A   1      32.960  28.019  24.589  1.00  0.00     0.002 C 
ENDROOT
BRANCH   1   2
ATOM      2  C   UNL A   1      34.046  27.788  25.642  1.00  0.00     0.021 C 
BRANCH   2   3
ATOM      3  C   UNL A   1      33.640  28.091  27.081  1.00  0.00     0.116 C 
BRANCH   3   4
ATOM      4  N   UNL A   1      33.409  29.506  27.310  1.00  0.00    -0.352 N 
ATOM      5  O   UNL A   1      33.824  31.570  28.106  1.00  0.00    -0.269 OA
ATOM      6  C   UNL A   1      34.247  30.445  27.859  1.00  0.00     0.251 C 
ATOM      7  H   UNL A   1      32.527  29.840  27.031  1.00  0.00     0.163 HD
BRANCH   6   8
ATOM      8  C   UNL A   1      35.648  30.092  28.179  1.00  0.00     0.039 A 
ATOM      9  C   UNL A   1      36.662  30.207  27.222  1.00  0.00     0.014 A 
ATOM     10  C   UNL A   1      35.950  29.663  29.475  1.00  0.00     0.014 A 
ATOM     11  C   UNL A   1      37.958  29.798  27.532  1.00  0.00     0.010 A 
ATOM     12  C   UNL A   1      37.259  29.301  29.797  1.00  0.00     0.010 A 
ATOM     13  C   UNL A   1      38.268  29.344  28.823  1.00  0.00    -0.014 A 
BRANCH  13  14
ATOM     14  C   UNL A   1      39.656  28.952  29.167  1.00  0.00     0.031 A 
ATOM     15  C   UNL A   1      40.579  29.918  29.853  1.00  0.00     0.074 A 
ATOM     16  C   UNL A   1      40.094  27.723  28.835  1.00  0.00     0.049 A 
ATOM     17  N   UNL A   1      41.838  29.764  30.177  1.00  0.00    -0.248 NA
ATOM     18  C   UNL A   1      40.018  31.228  30.217  1.00  0.00     0.031 C 
ATOM     19  C   UNL A   1      39.294  26.697  28.164  1.00  0.00     0.029 A 
ATOM     20  N   UNL A   1      41.318  27.131  29.011  1.00  0.00    -0.354 N 
ATOM     21  C   UNL A   1      42.228  30.964  30.760  1.00  0.00     0.074 A 
ATOM     22  C   UNL A   1      41.075  31.839  30.736  1.00  0.00     0.031 C 
ATOM     23  C   UNL A   1      40.045  25.597  27.996  1.00  0.00     0.029 A 
ATOM     24  C   UNL A   1      41.388  25.856  28.505  1.00  0.00     0.049 A 
ATOM     25  H   UNL A   1      42.074  27.578  29.457  1.00  0.00     0.167 HD
ATOM     26  C   UNL A   1      43.438  31.306  31.267  1.00  0.00     0.031 A 
ATOM     27  C   UNL A   1      42.421  24.995  28.436  1.00  0.00     0.031 A 
ATOM     28  C   UNL A   1      44.584  30.437  31.288  1.00  0.00     0.049 A 
ATOM     29  C   UNL A   1      43.755  25.399  28.990  1.00  0.00     0.074 A 
ATOM     30  C   UNL A   1      45.846  30.687  31.802  1.00  0.00     0.029 A 
ATOM     31  N   UNL A   1      44.612  29.153  30.768  1.00  0.00    -0.354 N 
ATOM     32  N   UNL A   1      44.098  26.529  29.559  1.00  0.00    -0.248 NA
ATOM     33  C   UNL A   1      44.839  24.412  28.896  1.00  0.00     0.031 C 
ATOM     34  C   UNL A   1      46.645  29.563  31.563  1.00  0.00     0.029 A 
ATOM     35  C   UNL A   1      45.872  28.600  30.935  1.00  0.00     0.049 A 
ATOM     36  H   UNL A   1      43.849  28.699  30.343  1.00  0.00     0.167 HD
ATOM     37  C   UNL A   1      45.436  26.385  29.904  1.00  0.00     0.074 A 
ATOM     38  C   UNL A   1      45.837  25.057  29.489  1.00  0.00     0.031 C 
ATOM     39  C   UNL A   1      46.255  27.276  30.514  1.00  0.00     0.031 A 
BRANCH  26  40
ATOM     40  C   UNL A   1      43.582  32.700  31.812  1.00  0.00    -0.014 A 
ATOM     41  C   UNL A   1      43.376  32.971  33.176  1.00  0.00     0.010 A 
ATOM     42  C   UNL A   1      43.929  33.753  30.946  1.00  0.00     0.010 A 
ATOM     43  C   UNL A   1      43.464  34.280  33.656  1.00  0.00     0.020 A 
ATOM     44  C   UNL A   1      44.037  35.061  31.427  1.00  0.00     0.020 A 
ATOM     45  C   UNL A   1      43.779  35.319  32.775  1.00  0.00     0.054 A 
BRANCH  45  46
ATOM     46  S   UNL A   1      43.866  37.016  33.413  1.00  0.00     0.124 S 
ATOM     47  O   UNL A   1      43.948  37.793  32.180  1.00  0.00    -0.237 OA
ATOM     48  O   UNL A   1      42.614  37.149  34.154  1.00  0.00    -0.237 OA
ATOM     49  O   UNL A   1      45.075  37.014  34.233  1.00  0.00    -0.744 OA
ENDBRANCH  45  46
ENDBRANCH  26  40
BRANCH  27  50
ATOM     50  C   UNL A   1      42.209  23.667  27.808  1.00  0.00    -0.014 A 
ATOM     51  C   UNL A   1      42.632  23.429  26.490  1.00  0.00     0.010 A 
ATOM     52  C   UNL A   1      41.660  22.609  28.558  1.00  0.00     0.010 A 
ATOM     53  C   UNL A   1      42.522  22.151  25.935  1.00  0.00     0.020 A 
ATOM     54  C   UNL A   1      41.567  21.327  28.012  1.00  0.00     0.020 A 
ATOM     55  C   UNL A   1      41.997  21.107  26.702  1.00  0.00     0.054 A 
BRANCH  55  56
ATOM     56  S   UNL A   1      41.965  19.431  26.004  1.00  0.00     0.124 S 
ATOM     57  O   UNL A   1      42.804  19.580  24.821  1.00  0.00    -0.237 OA
ATOM     58  O   UNL A   1      42.529  18.624  27.084  1.00  0.00    -0.237 OA
ATOM     59  O   UNL A   1      40.545  19.200  25.745  1.00  0.00    -0.744 OA
ENDBRANCH  55  56
ENDBRANCH  27  50
BRANCH  39  60
ATOM     60  C   UNL A   1      47.665  26.838  30.793  1.00  0.00    -0.014 A 
ATOM     61  C   UNL A   1      48.708  27.151  29.904  1.00  0.00     0.010 A 
ATOM     62  C   UNL A   1      47.958  26.164  31.991  1.00  0.00     0.010 A 
ATOM     63  C   UNL A   1      50.022  26.782  30.203  1.00  0.00     0.020 A 
ATOM     64  C   UNL A   1      49.272  25.807  32.301  1.00  0.00     0.020 A 
ATOM     65  C   UNL A   1      50.296  26.111  31.400  1.00  0.00     0.054 A 
BRANCH  65  66
ATOM     66  S   UNL A   1      52.015  25.695  31.802  1.00  0.00     0.124 S 
ATOM     67  O   UNL A   1      51.903  24.293  32.195  1.00  0.00    -0.237 OA
ATOM     68  O   UNL A   1      52.712  25.941  30.541  1.00  0.00    -0.237 OA
ATOM     69  O   UNL A   1      52.350  26.621  32.881  1.00  0.00    -0.744 OA
ENDBRANCH  65  66
ENDBRANCH  39  60
ENDBRANCH  13  14
ENDBRANCH   6   8
ENDBRANCH   3   4
ENDBRANCH   2   3
ENDBRANCH   1   2
BRANCH   1  70
ATOM     70  C   UNL A   1      32.291  26.755  24.045  1.00  0.00     0.002 C 
BRANCH  70  71
ATOM     71  C   UNL A   1      33.239  25.703  23.454  1.00  0.00     0.021 C 
BRANCH  71  72
ATOM     72  C   UNL A   1      33.023  24.275  23.956  1.00  0.00     0.116 C 
BRANCH  72  73
ATOM     73  N   UNL A   1      32.875  24.246  25.400  1.00  0.00    -0.352 N 
ATOM     74  C   UNL A   1      33.608  23.559  26.327  1.00  0.00     0.253 C 
ATOM     75  H   UNL A   1      32.145  24.797  25.762  1.00  0.00     0.163 HD
ATOM     76  O   UNL A   1      33.144  23.363  27.449  1.00  0.00    -0.269 OA
BRANCH  74  77
ATOM     77  C   UNL A   1      34.954  23.035  26.014  1.00  0.00     0.066 A 
ATOM     78  C   UNL A   1      35.990  23.936  25.732  1.00  0.00     0.055 A 
ATOM     79  C   UNL A   1      35.208  21.650  26.145  1.00  0.00     0.062 A 
ATOM     80  C   UNL A   1      37.275  23.454  25.539  1.00  0.00     0.124 A 
ATOM     81  C   UNL A   1      36.525  21.206  25.966  1.00  0.00     0.030 A 
ATOM     82  F   UNL A   1      38.264  24.306  25.242  1.00  0.00    -0.207 F 
ATOM     83  C   UNL A   1      37.554  22.102  25.664  1.00  0.00     0.041 A 
BRANCH  79  84
ATOM     84  N   UNL A   1      34.080  20.746  26.214  1.00  0.00    -0.278 N 
ATOM     85  H   UNL A   1      33.812  20.397  27.094  1.00  0.00     0.180 HD
BRANCH  84  86
ATOM     86  S   UNL A   1      33.206  20.263  24.859  1.00  0.00     0.271 S 
ATOM     87  O   UNL A   1      31.797  20.436  25.143  1.00  0.00    -0.200 OA
ATOM     88  O   UNL A   1      33.838  20.870  23.711  1.00  0.00    -0.200 OA
BRANCH  86  89
ATOM     89  C   UNL A   1      33.468  18.513  24.636  1.00  0.00     0.141 A 
ATOM     90  C   UNL A   1      34.434  17.795  23.949  1.00  0.00     0.036 A 
ATOM     91  S   UNL A   1      32.378  17.475  25.454  1.00  0.00    -0.110 S 
ATOM     92  C   UNL A   1      34.342  16.393  24.202  1.00  0.00     0.034 A 
ATOM     93  C   UNL A   1      33.276  16.112  25.015  1.00  0.00     0.094 A 
ATOM     94  Cl  UNL A   1      32.814  14.566  25.602  1.00  0.00    -0.072 Cl
ENDBRANCH  86  89
ENDBRANCH  84  86
ENDBRANCH  79  84
ENDBRANCH  74  77
ENDBRANCH  72  73
ENDBRANCH  71  72
ENDBRANCH  70  71
ENDBRANCH   1  70
TORSDOF 19
ENDMDL
MODEL 2
REMARK VINA RESULT:     -10.7      2.861      3.496
REMARK SMILES O=C(NCCCCCCNC(=O)c1cc(F)ccc1NS(=O)(=O)c1ccc(Cl)s1)c1ccc(-c2c3nc(c(-c4ccc(S(=O)(=O)[O-])cc4)c4ccc([nH]4)c(-c4ccc(S(=O)(=O)[O-])cc4)c4nc(c(-c5ccc(S(=O)(=O)[O-])cc5)c5ccc2[nH]5)C=C4)C=C3)cc1
REMARK SMILES IDX 6 1 5 2 4 3 3 4 1 5 2 6 30 8 31 9 89 10 32 11 88 12 33 13
REMARK SMILES IDX 34 14 35 15 82 16 36 17 87 18 81 19 83 20 37 21 86 22 80 23
REMARK SMILES IDX 79 24 38 26 68 27 49 28 67 29 50 30 53 31 66 32 84 33 51 34
REMARK SMILES IDX 52 35 65 37 85 38 54 39 39 40 40 41 48 42 41 43 47 44 42 45
REMARK SMILES IDX 43 46 44 47 45 48 46 49 69 50 70 51 78 52 71 53 77 54 72 55
REMARK SMILES IDX 73 56 74 57 75 58 76 59 55 60 56 61 64 62 57 63 63 64 58 65
REMARK SMILES IDX 59 66 60 67 61 68 62 69 7 70 8 71 9 72 10 73 11 74 12 76
REMARK SMILES IDX 13 77 14 78 19 79 15 80 18 81 16 82 17 83 20 84 21 86 22 87
REMARK SMILES IDX 23 88 24 89 25 90 29 91 26 92 27 93 28 94
REMARK H PARENT 3 7 83 25 53 36 10 75 20 85
REMARK Flexibility Score: inf
ROOT
ATOM      1  C   UNL A   1      33.917  28.305  25.716  1.00  0.00     0.002 C 
ENDROOT
BRANCH   1   2
ATOM      2  C   UNL A   1      33.996  29.193  26.960  1.00  0.00     0.021 C 
BRANCH   2   3
ATOM      3  C   UNL A   1      35.375  29.302  27.602  1.00  0.00     0.116 C 
BRANCH   3   4
ATOM      4  N   UNL A   1      35.330  29.904  28.922  1.00  0.00    -0.352 N 
ATOM      5  O   UNL A   1      36.082  30.472  30.967  1.00  0.00    -0.269 OA
ATOM      6  C   UNL A   1      36.340  30.066  29.839  1.00  0.00     0.251 C 
ATOM      7  H   UNL A   1      34.450  30.246  29.200  1.00  0.00     0.163 HD
BRANCH   6   8
ATOM      8  C   UNL A   1      37.733  29.725  29.474  1.00  0.00     0.039 A 
ATOM      9  C   UNL A   1      38.199  29.879  28.164  1.00  0.00     0.014 A 
ATOM     10  C   UNL A   1      38.593  29.267  30.477  1.00  0.00     0.014 A 
ATOM     11  C   UNL A   1      39.495  29.480  27.837  1.00  0.00     0.010 A 
ATOM     12  C   UNL A   1      39.905  28.915  30.156  1.00  0.00     0.010 A 
ATOM     13  C   UNL A   1      40.360  28.997  28.831  1.00  0.00    -0.014 A 
BRANCH  13  14
ATOM     14  C   UNL A   1      41.752  28.616  28.493  1.00  0.00     0.031 A 
ATOM     15  C   UNL A   1      42.853  29.638  28.508  1.00  0.00     0.074 A 
ATOM     16  C   UNL A   1      42.020  27.343  28.146  1.00  0.00     0.049 A 
ATOM     17  N   UNL A   1      44.113  29.494  28.187  1.00  0.00    -0.248 NA
ATOM     18  C   UNL A   1      42.491  30.999  28.933  1.00  0.00     0.031 C 
ATOM     19  C   UNL A   1      41.035  26.260  28.091  1.00  0.00     0.029 A 
ATOM     20  N   UNL A   1      43.195  26.747  27.769  1.00  0.00    -0.354 N 
ATOM     21  C   UNL A   1      44.690  30.748  28.346  1.00  0.00     0.074 A 
ATOM     22  C   UNL A   1      43.640  31.643  28.783  1.00  0.00     0.031 C 
ATOM     23  C   UNL A   1      41.651  25.129  27.714  1.00  0.00     0.029 A 
ATOM     24  C   UNL A   1      43.059  25.416  27.459  1.00  0.00     0.049 A 
ATOM     25  H   UNL A   1      44.054  27.227  27.725  1.00  0.00     0.167 HD
ATOM     26  C   UNL A   1      45.978  31.121  28.144  1.00  0.00     0.031 A 
ATOM     27  C   UNL A   1      43.959  24.526  26.999  1.00  0.00     0.031 A 
ATOM     28  C   UNL A   1      47.021  30.231  27.707  1.00  0.00     0.049 A 
ATOM     29  C   UNL A   1      45.376  24.962  26.769  1.00  0.00     0.074 A 
ATOM     30  C   UNL A   1      48.361  30.511  27.497  1.00  0.00     0.029 A 
ATOM     31  N   UNL A   1      46.842  28.890  27.407  1.00  0.00    -0.354 N 
ATOM     32  N   UNL A   1      45.908  26.146  26.948  1.00  0.00    -0.248 NA
ATOM     33  C   UNL A   1      46.313  23.943  26.278  1.00  0.00     0.031 C 
ATOM     34  C   UNL A   1      48.985  29.345  27.039  1.00  0.00     0.029 A 
ATOM     35  C   UNL A   1      48.043  28.330  27.000  1.00  0.00     0.049 A 
ATOM     36  H   UNL A   1      45.988  28.406  27.473  1.00  0.00     0.167 HD
ATOM     37  C   UNL A   1      47.247  26.013  26.605  1.00  0.00     0.074 A 
ATOM     38  C   UNL A   1      47.446  24.632  26.216  1.00  0.00     0.031 C 
ATOM     39  C   UNL A   1      48.223  26.954  26.615  1.00  0.00     0.031 A 
BRANCH  26  40
ATOM     40  C   UNL A   1      46.314  32.569  28.367  1.00  0.00    -0.014 A 
ATOM     41  C   UNL A   1      46.219  33.505  27.323  1.00  0.00     0.010 A 
ATOM     42  C   UNL A   1      46.731  32.998  29.640  1.00  0.00     0.010 A 
ATOM     43  C   UNL A   1      46.585  34.837  27.534  1.00  0.00     0.020 A 
ATOM     44  C   UNL A   1      47.080  34.334  29.859  1.00  0.00     0.020 A 
ATOM     45  C   UNL A   1      47.027  35.240  28.797  1.00  0.00     0.054 A 
BRANCH  45  46
ATOM     46  S   UNL A   1      47.520  36.969  29.046  1.00  0.00     0.124 S 
ATOM     47  O   UNL A   1      46.243  37.664  28.909  1.00  0.00    -0.237 OA
ATOM     48  O   UNL A   1      48.085  36.955  30.392  1.00  0.00    -0.237 OA
ATOM     49  O   UNL A   1      48.482  37.210  27.973  1.00  0.00    -0.744 OA
ENDBRANCH  45  46
ENDBRANCH  26  40
BRANCH  27  50
ATOM     50  C   UNL A   1      43.521  23.133  26.729  1.00  0.00    -0.014 A 
ATOM     51  C   UNL A   1      43.781  22.536  25.486  1.00  0.00     0.010 A 
ATOM     52  C   UNL A   1      42.916  22.372  27.748  1.00  0.00     0.010 A 
ATOM     53  C   UNL A   1      43.456  21.194  25.268  1.00  0.00     0.020 A 
ATOM     54  C   UNL A   1      42.608  21.027  27.539  1.00  0.00     0.020 A 
ATOM     55  C   UNL A   1      42.878  20.446  26.298  1.00  0.00     0.054 A 
BRANCH  55  56
ATOM     56  S   UNL A   1      42.565  18.677  26.034  1.00  0.00     0.124 S 
ATOM     57  O   UNL A   1      43.510  18.359  24.970  1.00  0.00    -0.237 OA
ATOM     58  O   UNL A   1      42.867  18.101  27.343  1.00  0.00    -0.237 OA
ATOM     59  O   UNL A   1      41.154  18.636  25.657  1.00  0.00    -0.744 OA
ENDBRANCH  55  56
ENDBRANCH  27  50
BRANCH  39  60
ATOM     60  C   UNL A   1      49.605  26.517  26.215  1.00  0.00    -0.014 A 
ATOM     61  C   UNL A   1      50.114  26.810  24.939  1.00  0.00     0.010 A 
ATOM     62  C   UNL A   1      50.424  25.867  27.154  1.00  0.00     0.010 A 
ATOM     63  C   UNL A   1      51.420  26.444  24.601  1.00  0.00     0.020 A 
ATOM     64  C   UNL A   1      51.735  25.512  26.825  1.00  0.00     0.020 A 
ATOM     65  C   UNL A   1      52.222  25.796  25.547  1.00  0.00     0.054 A 
BRANCH  65  66
ATOM     66  S   UNL A   1      53.935  25.384  25.112  1.00  0.00     0.124 S 
ATOM     67  O   UNL A   1      54.690  26.332  25.927  1.00  0.00    -0.237 OA
ATOM     68  O   UNL A   1      54.044  23.983  25.514  1.00  0.00    -0.237 OA
ATOM     69  O   UNL A   1      53.989  25.617  23.671  1.00  0.00    -0.744 OA
ENDBRANCH  65  66
ENDBRANCH  39  60
ENDBRANCH  13  14
ENDBRANCH   6   8
ENDBRANCH   3   4
ENDBRANCH   2   3
ENDBRANCH   1   2
BRANCH   1  70
ATOM     70  C   UNL A   1      33.688  26.816  25.984  1.00  0.00     0.002 C 
BRANCH  70  71
ATOM     71  C   UNL A   1      32.770  26.095  24.987  1.00  0.00     0.021 C 
BRANCH  71  72
ATOM     72  C   UNL A   1      32.745  24.571  25.109  1.00  0.00     0.116 C 
BRANCH  72  73
ATOM     73  N   UNL A   1      32.879  24.155  26.493  1.00  0.00    -0.352 N 
ATOM     74  C   UNL A   1      33.753  23.260  27.042  1.00  0.00     0.253 C 
ATOM     75  H   UNL A   1      32.253  24.576  27.123  1.00  0.00     0.163 HD
ATOM     76  O   UNL A   1      33.509  22.763  28.140  1.00  0.00    -0.269 OA
BRANCH  74  77
ATOM     77  C   UNL A   1      34.994  22.863  26.344  1.00  0.00     0.066 A 
ATOM     78  C   UNL A   1      35.978  23.830  26.095  1.00  0.00     0.055 A 
ATOM     79  C   UNL A   1      35.230  21.496  26.068  1.00  0.00     0.062 A 
ATOM     80  C   UNL A   1      37.184  23.443  25.533  1.00  0.00     0.124 A 
ATOM     81  C   UNL A   1      36.471  21.143  25.522  1.00  0.00     0.030 A 
ATOM     82  F   UNL A   1      38.118  24.364  25.268  1.00  0.00    -0.207 F 
ATOM     83  C   UNL A   1      37.444  22.110  25.255  1.00  0.00     0.041 A 
BRANCH  79  84
ATOM     84  N   UNL A   1      34.113  20.577  26.132  1.00  0.00    -0.278 N 
ATOM     85  H   UNL A   1      33.957  20.087  26.972  1.00  0.00     0.180 HD
BRANCH  84  86
ATOM     86  S   UNL A   1      33.071  20.307  24.839  1.00  0.00     0.271 S 
ATOM     87  O   UNL A   1      31.720  20.585  25.281  1.00  0.00    -0.200 OA
ATOM     88  O   UNL A   1      33.651  20.957  23.687  1.00  0.00    -0.200 OA
BRANCH  86  89
ATOM     89  C   UNL A   1      33.128  18.570  24.445  1.00  0.00     0.141 A 
ATOM     90  C   UNL A   1      33.614  17.878  23.346  1.00  0.00     0.036 A 
ATOM     91  S   UNL A   1      32.535  17.501  25.647  1.00  0.00    -0.110 S 
ATOM     92  C   UNL A   1      33.605  16.466  23.555  1.00  0.00     0.034 A 
ATOM     93  C   UNL A   1      33.058  16.153  24.771  1.00  0.00     0.094 A 
ATOM     94  Cl  UNL A   1      32.884  14.584  25.444  1.00  0.00    -0.072 Cl
ENDBRANCH  86  89
ENDBRANCH  84  86
ENDBRANCH  79  84
ENDBRANCH  74  77
ENDBRANCH  72  73
ENDBRANCH  71  72
ENDBRANCH  70  71
ENDBRANCH   1  70
TORSDOF 19
ENDMDL
MODEL 3
REMARK VINA RESULT:     -10.3      3.312      4.147
REMARK SMILES O=C(NCCCCCCNC(=O)c1cc(F)ccc1NS(=O)(=O)c1ccc(Cl)s1)c1ccc(-c2c3nc(c(-c4ccc(S(=O)(=O)[O-])cc4)c4ccc([nH]4)c(-c4ccc(S(=O)(=O)[O-])cc4)c4nc(c(-c5ccc(S(=O)(=O)[O-])cc5)c5ccc2[nH]5)C=C4)C=C3)cc1
REMARK SMILES IDX 6 1 5 2 4 3 3 4 1 5 2 6 30 8 31 9 89 10 32 11 88 12 33 13
REMARK SMILES IDX 34 14 35 15 82 16 36 17 87 18 81 19 83 20 37 21 86 22 80 23
REMARK SMILES IDX 79 24 38 26 68 27 49 28 67 29 50 30 53 31 66 32 84 33 51 34
REMARK SMILES IDX 52 35 65 37 85 38 54 39 39 40 40 41 48 42 41 43 47 44 42 45
REMARK SMILES IDX 43 46 44 47 45 48 46 49 69 50 70 51 78 52 71 53 77 54 72 55
REMARK SMILES IDX 73 56 74 57 75 58 76 59 55 60 56 61 64 62 57 63 63 64 58 65
REMARK SMILES IDX 59 66 60 67 61 68 62 69 7 70 8 71 9 72 10 73 11 74 12 76
REMARK SMILES IDX 13 77 14 78 19 79 15 80 18 81 16 82 17 83 20 84 21 86 22 87
REMARK SMILES IDX 23 88 24 89 25 90 29 91 26 92 27 93 28 94
REMARK H PARENT 3 7 83 25 53 36 10 75 20 85
REMARK Flexibility Score: inf
ROOT
ATOM      1  C   UNL A   1      32.507  27.192  25.132  1.00  0.00     0.002 C 
ENDROOT
BRANCH   1   2
ATOM      2  C   UNL A   1      33.061  27.859  26.393  1.00  0.00     0.021 C 
BRANCH   2   3
ATOM      3  C   UNL A   1      34.141  28.910  26.158  1.00  0.00     0.116 C 
BRANCH   3   4
ATOM      4  N   UNL A   1      33.738  30.233  26.601  1.00  0.00    -0.352 N 
ATOM      5  O   UNL A   1      33.737  32.071  27.901  1.00  0.00    -0.269 OA
ATOM      6  C   UNL A   1      34.303  31.038  27.559  1.00  0.00     0.251 C 
ATOM      7  H   UNL A   1      32.947  30.606  26.150  1.00  0.00     0.163 HD
BRANCH   6   8
ATOM      8  C   UNL A   1      35.580  30.647  28.198  1.00  0.00     0.039 A 
ATOM      9  C   UNL A   1      35.632  29.616  29.142  1.00  0.00     0.014 A 
ATOM     10  C   UNL A   1      36.749  31.313  27.819  1.00  0.00     0.014 A 
ATOM     11  C   UNL A   1      36.836  29.320  29.780  1.00  0.00     0.010 A 
ATOM     12  C   UNL A   1      37.962  30.981  28.423  1.00  0.00     0.010 A 
ATOM     13  C   UNL A   1      38.012  29.998  29.424  1.00  0.00    -0.014 A 
BRANCH  13  14
ATOM     14  C   UNL A   1      39.302  29.653  30.068  1.00  0.00     0.031 A 
ATOM     15  C   UNL A   1      39.726  30.321  31.345  1.00  0.00     0.074 A 
ATOM     16  C   UNL A   1      40.107  28.746  29.483  1.00  0.00     0.049 A 
ATOM     17  N   UNL A   1      40.842  30.182  32.015  1.00  0.00    -0.248 NA
ATOM     18  C   UNL A   1      38.778  31.272  31.944  1.00  0.00     0.031 C 
ATOM     19  C   UNL A   1      39.808  28.032  28.240  1.00  0.00     0.029 A 
ATOM     20  N   UNL A   1      41.342  28.276  29.850  1.00  0.00    -0.354 N 
ATOM     21  C   UNL A   1      40.743  31.045  33.099  1.00  0.00     0.074 A 
ATOM     22  C   UNL A   1      39.461  31.709  32.993  1.00  0.00     0.031 C 
ATOM     23  C   UNL A   1      40.826  27.205  27.955  1.00  0.00     0.029 A 
ATOM     24  C   UNL A   1      41.866  27.364  28.967  1.00  0.00     0.049 A 
ATOM     25  H   UNL A   1      41.807  28.566  30.668  1.00  0.00     0.167 HD
ATOM     26  C   UNL A   1      41.638  31.264  34.093  1.00  0.00     0.031 A 
ATOM     27  C   UNL A   1      43.058  26.739  28.956  1.00  0.00     0.031 A 
ATOM     28  C   UNL A   1      42.914  30.605  34.196  1.00  0.00     0.049 A 
ATOM     29  C   UNL A   1      44.041  27.007  30.057  1.00  0.00     0.074 A 
ATOM     30  C   UNL A   1      43.878  30.745  35.179  1.00  0.00     0.029 A 
ATOM     31  N   UNL A   1      43.404  29.686  33.283  1.00  0.00    -0.354 N 
ATOM     32  N   UNL A   1      43.919  27.808  31.087  1.00  0.00    -0.248 NA
ATOM     33  C   UNL A   1      45.319  26.286  29.996  1.00  0.00     0.031 C 
ATOM     34  C   UNL A   1      44.967  29.932  34.842  1.00  0.00     0.029 A 
ATOM     35  C   UNL A   1      44.664  29.259  33.670  1.00  0.00     0.049 A 
ATOM     36  H   UNL A   1      42.928  29.380  32.477  1.00  0.00     0.167 HD
ATOM     37  C   UNL A   1      45.100  27.678  31.807  1.00  0.00     0.074 A 
ATOM     38  C   UNL A   1      45.919  26.715  31.100  1.00  0.00     0.031 C 
ATOM     39  C   UNL A   1      45.468  28.301  32.953  1.00  0.00     0.031 A 
BRANCH  26  40
ATOM     40  C   UNL A   1      41.273  32.290  35.129  1.00  0.00    -0.014 A 
ATOM     41  C   UNL A   1      40.671  31.912  36.342  1.00  0.00     0.010 A 
ATOM     42  C   UNL A   1      41.537  33.650  34.886  1.00  0.00     0.010 A 
ATOM     43  C   UNL A   1      40.291  32.883  37.273  1.00  0.00     0.020 A 
ATOM     44  C   UNL A   1      41.175  34.621  35.824  1.00  0.00     0.020 A 
ATOM     45  C   UNL A   1      40.532  34.233  37.001  1.00  0.00     0.054 A 
BRANCH  45  46
ATOM     46  S   UNL A   1      40.010  35.480  38.211  1.00  0.00     0.124 S 
ATOM     47  O   UNL A   1      38.788  34.884  38.745  1.00  0.00    -0.237 OA
ATOM     48  O   UNL A   1      41.139  35.528  39.137  1.00  0.00    -0.237 OA
ATOM     49  O   UNL A   1      39.818  36.683  37.405  1.00  0.00    -0.744 OA
ENDBRANCH  45  46
ENDBRANCH  26  40
BRANCH  27  50
ATOM     50  C   UNL A   1      43.368  25.800  27.848  1.00  0.00    -0.014 A 
ATOM     51  C   UNL A   1      44.057  26.249  26.710  1.00  0.00     0.010 A 
ATOM     52  C   UNL A   1      43.049  24.435  27.968  1.00  0.00     0.010 A 
ATOM     53  C   UNL A   1      44.435  25.344  25.714  1.00  0.00     0.020 A 
ATOM     54  C   UNL A   1      43.441  23.526  26.983  1.00  0.00     0.020 A 
ATOM     55  C   UNL A   1      44.131  23.988  25.860  1.00  0.00     0.054 A 
BRANCH  55  56
ATOM     56  S   UNL A   1      44.726  22.812  24.611  1.00  0.00     0.124 S 
ATOM     57  O   UNL A   1      43.519  22.559  23.834  1.00  0.00    -0.237 OA
ATOM     58  O   UNL A   1      45.772  23.573  23.929  1.00  0.00    -0.237 OA
ATOM     59  O   UNL A   1      45.210  21.687  25.409  1.00  0.00    -0.744 OA
ENDBRANCH  55  56
ENDBRANCH  27  50
BRANCH  39  60
ATOM     60  C   UNL A   1      46.808  27.944  33.532  1.00  0.00    -0.014 A 
ATOM     61  C   UNL A   1      46.935  26.915  34.480  1.00  0.00     0.010 A 
ATOM     62  C   UNL A   1      47.960  28.603  33.068  1.00  0.00     0.010 A 
ATOM     63  C   UNL A   1      48.196  26.560  34.969  1.00  0.00     0.020 A 
ATOM     64  C   UNL A   1      49.223  28.241  33.543  1.00  0.00     0.020 A 
ATOM     65  C   UNL A   1      49.332  27.227  34.498  1.00  0.00     0.054 A 
BRANCH  65  66
ATOM     66  S   UNL A   1      50.965  26.711  35.096  1.00  0.00     0.124 S 
ATOM     67  O   UNL A   1      50.772  25.279  35.306  1.00  0.00    -0.237 OA
ATOM     68  O   UNL A   1      51.846  27.071  33.988  1.00  0.00    -0.237 OA
ATOM     69  O   UNL A   1      51.151  27.501  36.312  1.00  0.00    -0.744 OA
ENDBRANCH  65  66
ENDBRANCH  39  60
ENDBRANCH  13  14
ENDBRANCH   6   8
ENDBRANCH   3   4
ENDBRANCH   2   3
ENDBRANCH   1   2
BRANCH   1  70
ATOM     70  C   UNL A   1      33.481  27.098  23.955  1.00  0.00     0.002 C 
BRANCH  70  71
ATOM     71  C   UNL A   1      32.851  26.759  22.597  1.00  0.00     0.021 C 
BRANCH  71  72
ATOM     72  C   UNL A   1      31.576  25.918  22.661  1.00  0.00     0.116 C 
BRANCH  72  73
ATOM     73  N   UNL A   1      31.829  24.553  22.237  1.00  0.00    -0.352 N 
ATOM     74  C   UNL A   1      32.306  23.499  22.964  1.00  0.00     0.253 C 
ATOM     75  H   UNL A   1      31.629  24.360  21.293  1.00  0.00     0.163 HD
ATOM     76  O   UNL A   1      32.790  22.527  22.386  1.00  0.00    -0.269 OA
BRANCH  74  77
ATOM     77  C   UNL A   1      32.261  23.497  24.442  1.00  0.00     0.066 A 
ATOM     78  C   UNL A   1      31.023  23.379  25.088  1.00  0.00     0.055 A 
ATOM     79  C   UNL A   1      33.472  23.468  25.173  1.00  0.00     0.062 A 
ATOM     80  C   UNL A   1      30.986  23.274  26.469  1.00  0.00     0.124 A 
ATOM     81  C   UNL A   1      33.391  23.336  26.566  1.00  0.00     0.030 A 
ATOM     82  F   UNL A   1      29.806  23.189  27.096  1.00  0.00    -0.207 F 
ATOM     83  C   UNL A   1      32.156  23.240  27.212  1.00  0.00     0.041 A 
BRANCH  79  84
ATOM     84  N   UNL A   1      34.699  23.815  24.489  1.00  0.00    -0.278 N 
ATOM     85  H   UNL A   1      34.852  24.757  24.249  1.00  0.00     0.180 HD
BRANCH  84  86
ATOM     86  S   UNL A   1      35.876  22.682  24.084  1.00  0.00     0.271 S 
ATOM     87  O   UNL A   1      35.367  21.365  24.406  1.00  0.00    -0.200 OA
ATOM     88  O   UNL A   1      36.349  23.021  22.762  1.00  0.00    -0.200 OA
BRANCH  86  89
ATOM     89  C   UNL A   1      37.284  22.955  25.143  1.00  0.00     0.141 A 
ATOM     90  C   UNL A   1      37.718  24.065  25.850  1.00  0.00     0.036 A 
ATOM     91  S   UNL A   1      38.297  21.600  25.418  1.00  0.00    -0.110 S 
ATOM     92  C   UNL A   1      38.813  23.758  26.712  1.00  0.00     0.034 A 
ATOM     93  C   UNL A   1      39.196  22.450  26.570  1.00  0.00     0.094 A 
ATOM     94  Cl  UNL A   1      40.443  21.647  27.435  1.00  0.00    -0.072 Cl
ENDBRANCH  86  89
ENDBRANCH  84  86
ENDBRANCH  79  84
ENDBRANCH  74  77
ENDBRANCH  72  73
ENDBRANCH  71  72
ENDBRANCH  70  71
ENDBRANCH   1  70
TORSDOF 19
ENDMDL
