MODEL 1
REMARK VINA RESULT:     -11.6      0.000      0.000
REMARK SMILES CC1(C)[C@](C)(C(=O)NCCCCCCNC(=O)c2ccc(-c3c4nc(c(-c5ccc(S(=O)(=O)[O-])cc5)c5ccc([nH]5)c(-c5ccc(S(=O)(=O)[O-])cc5)c5nc(c(-c6ccc(S(=O)(=O)[O-])cc6)c6ccc3[nH]6)C=C5)C=C4)cc2)CC[C@@]1(C)C(=O)N1CCc2ccccc2C1
REMARK SMILES IDX 12 1 11 2 10 3 9 4 8 5 6 6 7 7 4 9 1 10 2 11 3 12 80 13
REMARK SMILES IDX 78 14 5 15 79 16 81 17 82 18 83 19 84 20 85 21 93 22 86 23
REMARK SMILES IDX 92 24 87 25 91 26 88 27 90 28 89 29 13 30 14 31 15 32 16 33
REMARK SMILES IDX 17 35 18 36 19 37 77 38 20 39 76 40 21 41 22 42 23 43 70 44
REMARK SMILES IDX 24 45 75 46 69 47 71 48 25 49 74 50 68 51 67 52 26 54 56 55
REMARK SMILES IDX 37 56 55 57 38 58 41 59 54 60 72 61 39 62 40 63 53 65 73 66
REMARK SMILES IDX 42 67 27 68 28 69 36 70 29 71 35 72 30 73 31 74 32 75 33 76
REMARK SMILES IDX 34 77 57 78 58 79 66 80 59 81 65 82 60 83 61 84 62 85 63 86
REMARK SMILES IDX 64 87 43 88 44 89 52 90 45 91 51 92 46 93 47 94 48 95 49 96
REMARK SMILES IDX 50 97
REMARK H PARENT 8 8 15 34 71 53 41 64
REMARK Flexibility Score: inf
ROOT
ATOM      1  C   UNL A   1      35.011  32.806  28.617  1.00  0.00     0.002 C 
ENDROOT
BRANCH   1   2
ATOM      2  C   UNL A   1      35.108  31.620  27.648  1.00  0.00     0.002 C 
BRANCH   2   3
ATOM      3  C   UNL A   1      34.955  30.248  28.314  1.00  0.00     0.021 C 
BRANCH   3   4
ATOM      4  C   UNL A   1      34.420  29.202  27.350  1.00  0.00     0.116 C 
BRANCH   4   5
ATOM      5  N   UNL A   1      33.067  28.858  27.725  1.00  0.00    -0.356 N 
ATOM      6  C   UNL A   1      32.154  28.025  27.168  1.00  0.00     0.226 C 
ATOM      7  O   UNL A   1      31.085  27.936  27.784  1.00  0.00    -0.274 OA
ATOM      8  H   UNL A   1      32.749  29.315  28.536  1.00  0.00     0.163 HD
BRANCH   6   9
ATOM      9  C   UNL A   1      32.511  27.034  26.029  1.00  0.00     0.052 C 
ATOM     10  C   UNL A   1      30.523  27.641  24.341  1.00  0.00     0.013 C 
ATOM     11  C   UNL A   1      32.041  27.627  24.577  1.00  0.00    -0.007 C 
ATOM     12  C   UNL A   1      32.451  29.156  24.558  1.00  0.00     0.013 C 
ATOM     13  C   UNL A   1      32.895  26.838  23.424  1.00  0.00     0.053 C 
ATOM     14  C   UNL A   1      33.989  26.752  25.697  1.00  0.00     0.018 C 
ATOM     15  C   UNL A   1      31.897  25.752  26.667  1.00  0.00     0.022 C 
ATOM     16  C   UNL A   1      34.085  26.270  24.235  1.00  0.00     0.018 C 
ATOM     17  C   UNL A   1      33.497  27.841  22.381  1.00  0.00     0.022 C 
BRANCH  13  18
ATOM     18  C   UNL A   1      32.263  25.701  22.417  1.00  0.00     0.229 C 
ATOM     19  O   UNL A   1      31.822  26.020  21.307  1.00  0.00    -0.274 OA
BRANCH  18  20
ATOM     20  N   UNL A   1      32.265  24.356  22.752  1.00  0.00    -0.338 N 
ATOM     21  C   UNL A   1      31.634  23.784  23.969  1.00  0.00     0.124 C 
ATOM     22  C   UNL A   1      33.256  23.533  22.180  1.00  0.00     0.155 C 
ATOM     23  C   UNL A   1      31.969  22.258  24.205  1.00  0.00     0.057 C 
ATOM     24  C   UNL A   1      34.118  22.891  23.208  1.00  0.00    -0.025 A 
ATOM     25  C   UNL A   1      33.466  22.045  24.101  1.00  0.00    -0.041 A 
ATOM     26  C   UNL A   1      35.493  23.081  23.274  1.00  0.00     0.006 A 
ATOM     27  C   UNL A   1      34.232  21.127  24.809  1.00  0.00     0.004 A 
ATOM     28  C   UNL A   1      36.258  22.253  24.072  1.00  0.00     0.000 A 
ATOM     29  C   UNL A   1      35.633  21.221  24.768  1.00  0.00     0.000 A 
ENDBRANCH  18  20
ENDBRANCH  13  18
ENDBRANCH   6   9
ENDBRANCH   4   5
ENDBRANCH   3   4
ENDBRANCH   2   3
ENDBRANCH   1   2
BRANCH   1  30
ATOM     30  C   UNL A   1      33.741  33.647  28.470  1.00  0.00     0.021 C 
BRANCH  30  31
ATOM     31  C   UNL A   1      33.911  35.106  28.877  1.00  0.00     0.116 C 
BRANCH  31  32
ATOM     32  N   UNL A   1      33.009  35.466  29.958  1.00  0.00    -0.352 N 
ATOM     33  C   UNL A   1      33.083  35.128  31.284  1.00  0.00     0.251 C 
ATOM     34  H   UNL A   1      32.242  36.028  29.705  1.00  0.00     0.163 HD
ATOM     35  O   UNL A   1      32.123  35.326  32.026  1.00  0.00    -0.269 OA
BRANCH  33  36
ATOM     36  C   UNL A   1      34.317  34.511  31.809  1.00  0.00     0.039 A 
ATOM     37  C   UNL A   1      34.342  33.133  32.033  1.00  0.00     0.014 A 
ATOM     38  C   UNL A   1      35.444  35.295  32.079  1.00  0.00     0.014 A 
ATOM     39  C   UNL A   1      35.516  32.533  32.490  1.00  0.00     0.010 A 
ATOM     40  C   UNL A   1      36.631  34.684  32.473  1.00  0.00     0.010 A 
ATOM     41  C   UNL A   1      36.676  33.300  32.691  1.00  0.00    -0.014 A 
BRANCH  41  42
ATOM     42  C   UNL A   1      37.942  32.672  33.144  1.00  0.00     0.031 A 
ATOM     43  C   UNL A   1      38.460  32.941  34.530  1.00  0.00     0.074 A 
ATOM     44  C   UNL A   1      38.650  31.907  32.290  1.00  0.00     0.049 A 
ATOM     45  N   UNL A   1      39.576  32.540  35.084  1.00  0.00    -0.248 NA
ATOM     46  C   UNL A   1      37.628  33.789  35.400  1.00  0.00     0.031 C 
ATOM     47  C   UNL A   1      38.270  31.604  30.908  1.00  0.00     0.029 A 
ATOM     48  N   UNL A   1      39.844  31.251  32.457  1.00  0.00    -0.354 N 
ATOM     49  C   UNL A   1      39.587  33.097  36.358  1.00  0.00     0.074 A 
ATOM     50  C   UNL A   1      38.391  33.902  36.478  1.00  0.00     0.031 C 
ATOM     51  C   UNL A   1      39.204  30.808  30.359  1.00  0.00     0.029 A 
ATOM     52  C   UNL A   1      40.263  30.574  31.336  1.00  0.00     0.049 A 
ATOM     53  H   UNL A   1      40.352  31.265  33.300  1.00  0.00     0.167 HD
ATOM     54  C   UNL A   1      40.498  32.936  37.346  1.00  0.00     0.031 A 
ATOM     55  C   UNL A   1      41.379  29.853  31.116  1.00  0.00     0.031 A 
ATOM     56  C   UNL A   1      41.679  32.124  37.228  1.00  0.00     0.049 A 
ATOM     57  C   UNL A   1      42.378  29.689  32.229  1.00  0.00     0.074 A 
ATOM     58  C   UNL A   1      42.643  31.862  38.187  1.00  0.00     0.029 A 
ATOM     59  N   UNL A   1      42.055  31.436  36.085  1.00  0.00    -0.354 N 
ATOM     60  N   UNL A   1      42.343  30.183  33.444  1.00  0.00    -0.248 NA
ATOM     61  C   UNL A   1      43.558  28.862  31.946  1.00  0.00     0.031 C 
ATOM     62  C   UNL A   1      43.624  31.049  37.610  1.00  0.00     0.029 A 
ATOM     63  C   UNL A   1      43.243  30.761  36.308  1.00  0.00     0.049 A 
ATOM     64  H   UNL A   1      41.552  31.428  35.239  1.00  0.00     0.167 HD
ATOM     65  C   UNL A   1      43.484  29.704  34.078  1.00  0.00     0.074 A 
ATOM     66  C   UNL A   1      44.178  28.870  33.118  1.00  0.00     0.031 C 
ATOM     67  C   UNL A   1      43.918  29.933  35.342  1.00  0.00     0.031 A 
BRANCH  54  68
ATOM     68  C   UNL A   1      40.249  33.652  38.647  1.00  0.00    -0.014 A 
ATOM     69  C   UNL A   1      39.491  33.052  39.667  1.00  0.00     0.010 A 
ATOM     70  C   UNL A   1      40.820  34.918  38.871  1.00  0.00     0.010 A 
ATOM     71  C   UNL A   1      39.276  33.719  40.876  1.00  0.00     0.020 A 
ATOM     72  C   UNL A   1      40.629  35.578  40.089  1.00  0.00     0.020 A 
ATOM     73  C   UNL A   1      39.846  34.980  41.079  1.00  0.00     0.054 A 
BRANCH  73  74
ATOM     74  S   UNL A   1      39.578  35.808  42.670  1.00  0.00     0.124 S 
ATOM     75  O   UNL A   1      38.222  35.380  43.006  1.00  0.00    -0.237 OA
ATOM     76  O   UNL A   1      40.637  35.250  43.505  1.00  0.00    -0.237 OA
ATOM     77  O   UNL A   1      39.722  37.226  42.350  1.00  0.00    -0.744 OA
ENDBRANCH  73  74
ENDBRANCH  54  68
BRANCH  55  78
ATOM     78  C   UNL A   1      41.609  29.224  29.787  1.00  0.00    -0.014 A 
ATOM     79  C   UNL A   1      42.344  29.894  28.794  1.00  0.00     0.010 A 
ATOM     80  C   UNL A   1      41.093  27.945  29.509  1.00  0.00     0.010 A 
ATOM     81  C   UNL A   1      42.538  29.310  27.540  1.00  0.00     0.020 A 
ATOM     82  C   UNL A   1      41.308  27.344  28.267  1.00  0.00     0.020 A 
ATOM     83  C   UNL A   1      42.017  28.037  27.284  1.00  0.00     0.054 A 
BRANCH  83  84
ATOM     84  S   UNL A   1      42.313  27.278  25.663  1.00  0.00     0.124 S 
ATOM     85  O   UNL A   1      42.261  28.433  24.773  1.00  0.00    -0.237 OA
ATOM     86  O   UNL A   1      43.630  26.667  25.833  1.00  0.00    -0.237 OA
ATOM     87  O   UNL A   1      41.209  26.330  25.526  1.00  0.00    -0.744 OA
ENDBRANCH  83  84
ENDBRANCH  55  78
BRANCH  67  88
ATOM     88  C   UNL A   1      45.185  29.246  35.774  1.00  0.00    -0.014 A 
ATOM     89  C   UNL A   1      46.438  29.863  35.619  1.00  0.00     0.010 A 
ATOM     90  C   UNL A   1      45.111  27.984  36.395  1.00  0.00     0.010 A 
ATOM     91  C   UNL A   1      47.599  29.219  36.051  1.00  0.00     0.020 A 
ATOM     92  C   UNL A   1      46.267  27.349  36.852  1.00  0.00     0.020 A 
ATOM     93  C   UNL A   1      47.507  27.964  36.664  1.00  0.00     0.054 A 
BRANCH  93  94
ATOM     94  S   UNL A   1      49.025  27.168  37.257  1.00  0.00     0.124 S 
ATOM     95  O   UNL A   1      48.572  26.528  38.488  1.00  0.00    -0.237 OA
ATOM     96  O   UNL A   1      49.361  26.260  36.163  1.00  0.00    -0.237 OA
ATOM     97  O   UNL A   1      49.952  28.283  37.437  1.00  0.00    -0.744 OA
ENDBRANCH  93  94
ENDBRANCH  67  88
ENDBRANCH  41  42
ENDBRANCH  33  36
ENDBRANCH  31  32
ENDBRANCH  30  31
ENDBRANCH   1  30
TORSDOF 18
ENDMDL
MODEL 2
REMARK VINA RESULT:     -11.4      6.430     10.373
REMARK SMILES CC1(C)[C@](C)(C(=O)NCCCCCCNC(=O)c2ccc(-c3c4nc(c(-c5ccc(S(=O)(=O)[O-])cc5)c5ccc([nH]5)c(-c5ccc(S(=O)(=O)[O-])cc5)c5nc(c(-c6ccc(S(=O)(=O)[O-])cc6)c6ccc3[nH]6)C=C5)C=C4)cc2)CC[C@@]1(C)C(=O)N1CCc2ccccc2C1
REMARK SMILES IDX 12 1 11 2 10 3 9 4 8 5 6 6 7 7 4 9 1 10 2 11 3 12 80 13
REMARK SMILES IDX 78 14 5 15 79 16 81 17 82 18 83 19 84 20 85 21 93 22 86 23
REMARK SMILES IDX 92 24 87 25 91 26 88 27 90 28 89 29 13 30 14 31 15 32 16 33
REMARK SMILES IDX 17 35 18 36 19 37 77 38 20 39 76 40 21 41 22 42 23 43 70 44
REMARK SMILES IDX 24 45 75 46 69 47 71 48 25 49 74 50 68 51 67 52 26 54 56 55
REMARK SMILES IDX 37 56 55 57 38 58 41 59 54 60 72 61 39 62 40 63 53 65 73 66
REMARK SMILES IDX 42 67 27 68 28 69 36 70 29 71 35 72 30 73 31 74 32 75 33 76
REMARK SMILES IDX 34 77 57 78 58 79 66 80 59 81 65 82 60 83 61 84 62 85 63 86
REMARK SMILES IDX 64 87 43 88 44 89 52 90 45 91 51 92 46 93 47 94 48 95 49 96
REMARK SMILES IDX 50 97
REMARK H PARENT 8 8 15 34 71 53 41 64
REMARK Flexibility Score: inf
ROOT
ATOM      1  C   UNL A   1      34.085  31.353  27.757  1.00  0.00     0.002 C 
ENDROOT
BRANCH   1   2
ATOM      2  C   UNL A   1      32.710  31.893  27.345  1.00  0.00     0.002 C 
BRANCH   2   3
ATOM      3  C   UNL A   1      31.901  30.945  26.454  1.00  0.00     0.021 C 
BRANCH   3   4
ATOM      4  C   UNL A   1      32.682  29.692  26.094  1.00  0.00     0.116 C 
BRANCH   4   5
ATOM      5  N   UNL A   1      32.986  29.712  24.681  1.00  0.00    -0.356 N 
ATOM      6  C   UNL A   1      32.788  28.801  23.697  1.00  0.00     0.226 C 
ATOM      7  O   UNL A   1      33.140  29.167  22.569  1.00  0.00    -0.274 OA
ATOM      8  H   UNL A   1      33.418  30.542  24.376  1.00  0.00     0.163 HD
BRANCH   6   9
ATOM      9  C   UNL A   1      31.924  27.528  23.896  1.00  0.00     0.052 C 
ATOM     10  C   UNL A   1      33.593  25.742  22.803  1.00  0.00     0.013 C 
ATOM     11  C   UNL A   1      32.872  26.206  24.078  1.00  0.00    -0.007 C 
ATOM     12  C   UNL A   1      34.045  26.621  25.057  1.00  0.00     0.013 C 
ATOM     13  C   UNL A   1      31.968  25.048  24.801  1.00  0.00     0.053 C 
ATOM     14  C   UNL A   1      31.069  27.377  25.169  1.00  0.00     0.018 C 
ATOM     15  C   UNL A   1      30.968  27.732  22.682  1.00  0.00     0.022 C 
ATOM     16  C   UNL A   1      30.818  25.877  25.422  1.00  0.00     0.018 C 
ATOM     17  C   UNL A   1      32.743  24.387  25.992  1.00  0.00     0.022 C 
BRANCH  13  18
ATOM     18  C   UNL A   1      31.393  23.709  24.037  1.00  0.00     0.229 C 
ATOM     19  O   UNL A   1      30.351  23.765  23.371  1.00  0.00    -0.274 OA
BRANCH  18  20
ATOM     20  N   UNL A   1      32.084  22.508  24.061  1.00  0.00    -0.338 N 
ATOM     21  C   UNL A   1      32.090  21.557  25.202  1.00  0.00     0.124 C 
ATOM     22  C   UNL A   1      33.171  22.352  23.178  1.00  0.00     0.155 C 
ATOM     23  C   UNL A   1      33.126  20.374  25.040  1.00  0.00     0.057 C 
ATOM     24  C   UNL A   1      34.447  22.094  23.896  1.00  0.00    -0.025 A 
ATOM     25  C   UNL A   1      34.483  20.936  24.667  1.00  0.00    -0.041 A 
ATOM     26  C   UNL A   1      35.558  22.924  23.795  1.00  0.00     0.006 A 
ATOM     27  C   UNL A   1      35.727  20.432  25.031  1.00  0.00     0.004 A 
ATOM     28  C   UNL A   1      36.780  22.485  24.265  1.00  0.00     0.000 A 
ATOM     29  C   UNL A   1      36.878  21.203  24.801  1.00  0.00     0.000 A 
ENDBRANCH  18  20
ENDBRANCH  13  18
ENDBRANCH   6   9
ENDBRANCH   4   5
ENDBRANCH   3   4
ENDBRANCH   2   3
ENDBRANCH   1   2
BRANCH   1  30
ATOM     30  C   UNL A   1      35.152  32.427  27.981  1.00  0.00     0.021 C 
BRANCH  30  31
ATOM     31  C   UNL A   1      36.381  31.935  28.735  1.00  0.00     0.116 C 
BRANCH  31  32
ATOM     32  N   UNL A   1      36.013  31.144  29.896  1.00  0.00    -0.352 N 
ATOM     33  C   UNL A   1      36.639  30.041  30.416  1.00  0.00     0.251 C 
ATOM     34  H   UNL A   1      35.204  31.439  30.375  1.00  0.00     0.163 HD
ATOM     35  O   UNL A   1      36.076  29.357  31.268  1.00  0.00    -0.269 OA
BRANCH  33  36
ATOM     36  C   UNL A   1      37.985  29.676  29.933  1.00  0.00     0.039 A 
ATOM     37  C   UNL A   1      38.215  29.609  28.558  1.00  0.00     0.014 A 
ATOM     38  C   UNL A   1      39.014  29.399  30.839  1.00  0.00     0.014 A 
ATOM     39  C   UNL A   1      39.494  29.305  28.089  1.00  0.00     0.010 A 
ATOM     40  C   UNL A   1      40.302  29.160  30.369  1.00  0.00     0.010 A 
ATOM     41  C   UNL A   1      40.552  29.101  28.990  1.00  0.00    -0.014 A 
BRANCH  41  42
ATOM     42  C   UNL A   1      41.925  28.810  28.508  1.00  0.00     0.031 A 
ATOM     43  C   UNL A   1      42.290  27.417  28.076  1.00  0.00     0.074 A 
ATOM     44  C   UNL A   1      42.854  29.787  28.513  1.00  0.00     0.049 A 
ATOM     45  N   UNL A   1      43.451  26.952  27.689  1.00  0.00    -0.248 NA
ATOM     46  C   UNL A   1      41.219  26.408  28.103  1.00  0.00     0.031 C 
ATOM     47  C   UNL A   1      42.631  31.168  28.946  1.00  0.00     0.029 A 
ATOM     48  N   UNL A   1      44.178  29.762  28.150  1.00  0.00    -0.354 N 
ATOM     49  C   UNL A   1      43.253  25.599  27.442  1.00  0.00     0.074 A 
ATOM     50  C   UNL A   1      41.874  25.306  27.767  1.00  0.00     0.031 C 
ATOM     51  C   UNL A   1      43.772  31.862  28.806  1.00  0.00     0.029 A 
ATOM     52  C   UNL A   1      44.815  30.970  28.310  1.00  0.00     0.049 A 
ATOM     53  H   UNL A   1      44.627  28.956  27.808  1.00  0.00     0.167 HD
ATOM     54  C   UNL A   1      44.133  24.687  26.965  1.00  0.00     0.031 A 
ATOM     55  C   UNL A   1      46.098  31.318  28.089  1.00  0.00     0.031 A 
ATOM     56  C   UNL A   1      45.499  24.984  26.630  1.00  0.00     0.049 A 
ATOM     57  C   UNL A   1      47.057  30.286  27.561  1.00  0.00     0.074 A 
ATOM     58  C   UNL A   1      46.459  24.138  26.100  1.00  0.00     0.029 A 
ATOM     59  N   UNL A   1      46.100  26.224  26.784  1.00  0.00    -0.354 N 
ATOM     60  N   UNL A   1      46.836  29.022  27.285  1.00  0.00    -0.248 NA
ATOM     61  C   UNL A   1      48.434  30.729  27.303  1.00  0.00     0.031 C 
ATOM     62  C   UNL A   1      47.652  24.857  25.972  1.00  0.00     0.029 A 
ATOM     63  C   UNL A   1      47.420  26.163  26.373  1.00  0.00     0.049 A 
ATOM     64  H   UNL A   1      45.654  27.028  27.133  1.00  0.00     0.167 HD
ATOM     65  C   UNL A   1      48.040  28.527  26.796  1.00  0.00     0.074 A 
ATOM     66  C   UNL A   1      48.979  29.630  26.800  1.00  0.00     0.031 C 
ATOM     67  C   UNL A   1      48.340  27.272  26.381  1.00  0.00     0.031 A 
BRANCH  54  68
ATOM     68  C   UNL A   1      43.640  23.276  26.775  1.00  0.00    -0.014 A 
ATOM     69  C   UNL A   1      43.815  22.610  25.549  1.00  0.00     0.010 A 
ATOM     70  C   UNL A   1      43.038  22.592  27.847  1.00  0.00     0.010 A 
ATOM     71  C   UNL A   1      43.366  21.297  25.387  1.00  0.00     0.020 A 
ATOM     72  C   UNL A   1      42.611  21.270  27.697  1.00  0.00     0.020 A 
ATOM     73  C   UNL A   1      42.765  20.635  26.462  1.00  0.00     0.054 A 
BRANCH  73  74
ATOM     74  S   UNL A   1      42.221  18.921  26.231  1.00  0.00     0.124 S 
ATOM     75  O   UNL A   1      40.828  19.099  25.827  1.00  0.00    -0.237 OA
ATOM     76  O   UNL A   1      43.120  18.436  25.188  1.00  0.00    -0.237 OA
ATOM     77  O   UNL A   1      42.415  18.316  27.547  1.00  0.00    -0.744 OA
ENDBRANCH  73  74
ENDBRANCH  54  68
BRANCH  55  78
ATOM     78  C   UNL A   1      46.549  32.709  28.361  1.00  0.00    -0.014 A 
ATOM     79  C   UNL A   1      46.963  33.090  29.649  1.00  0.00     0.010 A 
ATOM     80  C   UNL A   1      46.569  33.663  27.326  1.00  0.00     0.010 A 
ATOM     81  C   UNL A   1      47.364  34.404  29.905  1.00  0.00     0.020 A 
ATOM     82  C   UNL A   1      46.996  34.970  27.571  1.00  0.00     0.020 A 
ATOM     83  C   UNL A   1      47.377  35.337  28.863  1.00  0.00     0.054 A 
BRANCH  83  84
ATOM     84  S   UNL A   1      47.938  37.027  29.206  1.00  0.00     0.124 S 
ATOM     85  O   UNL A   1      47.724  37.132  30.646  1.00  0.00    -0.237 OA
ATOM     86  O   UNL A   1      49.334  36.993  28.774  1.00  0.00    -0.237 OA
ATOM     87  O   UNL A   1      47.059  37.851  28.379  1.00  0.00    -0.744 OA
ENDBRANCH  83  84
ENDBRANCH  55  78
BRANCH  67  88
ATOM     88  C   UNL A   1      49.731  27.029  25.862  1.00  0.00    -0.014 A 
ATOM     89  C   UNL A   1      50.746  26.538  26.701  1.00  0.00     0.010 A 
ATOM     90  C   UNL A   1      50.010  27.246  24.499  1.00  0.00     0.010 A 
ATOM     91  C   UNL A   1      52.024  26.295  26.193  1.00  0.00     0.020 A 
ATOM     92  C   UNL A   1      51.280  26.979  23.983  1.00  0.00     0.020 A 
ATOM     93  C   UNL A   1      52.284  26.518  24.836  1.00  0.00     0.054 A 
BRANCH  93  94
ATOM     94  S   UNL A   1      53.939  26.152  24.192  1.00  0.00     0.124 S 
ATOM     95  O   UNL A   1      54.192  24.823  24.741  1.00  0.00    -0.237 OA
ATOM     96  O   UNL A   1      53.742  26.208  22.746  1.00  0.00    -0.237 OA
ATOM     97  O   UNL A   1      54.768  27.223  24.742  1.00  0.00    -0.744 OA
ENDBRANCH  93  94
ENDBRANCH  67  88
ENDBRANCH  41  42
ENDBRANCH  33  36
ENDBRANCH  31  32
ENDBRANCH  30  31
ENDBRANCH   1  30
TORSDOF 18
ENDMDL
MODEL 3
REMARK VINA RESULT:     -11.3      5.939      8.466
REMARK SMILES CC1(C)[C@](C)(C(=O)NCCCCCCNC(=O)c2ccc(-c3c4nc(c(-c5ccc(S(=O)(=O)[O-])cc5)c5ccc([nH]5)c(-c5ccc(S(=O)(=O)[O-])cc5)c5nc(c(-c6ccc(S(=O)(=O)[O-])cc6)c6ccc3[nH]6)C=C5)C=C4)cc2)CC[C@@]1(C)C(=O)N1CCc2ccccc2C1
REMARK SMILES IDX 12 1 11 2 10 3 9 4 8 5 6 6 7 7 4 9 1 10 2 11 3 12 80 13
REMARK SMILES IDX 78 14 5 15 79 16 81 17 82 18 83 19 84 20 85 21 93 22 86 23
REMARK SMILES IDX 92 24 87 25 91 26 88 27 90 28 89 29 13 30 14 31 15 32 16 33
REMARK SMILES IDX 17 35 18 36 19 37 77 38 20 39 76 40 21 41 22 42 23 43 70 44
REMARK SMILES IDX 24 45 75 46 69 47 71 48 25 49 74 50 68 51 67 52 26 54 56 55
REMARK SMILES IDX 37 56 55 57 38 58 41 59 54 60 72 61 39 62 40 63 53 65 73 66
REMARK SMILES IDX 42 67 27 68 28 69 36 70 29 71 35 72 30 73 31 74 32 75 33 76
REMARK SMILES IDX 34 77 57 78 58 79 66 80 59 81 65 82 60 83 61 84 62 85 63 86
REMARK SMILES IDX 64 87 43 88 44 89 52 90 45 91 51 92 46 93 47 94 48 95 49 96
REMARK SMILES IDX 50 97
REMARK H PARENT 8 8 15 34 71 53 41 64
REMARK Flexibility Score: inf
ROOT
ATOM      1  C   UNL A   1      34.923  29.821  27.345  1.00  0.00     0.002 C 
ENDROOT
BRANCH   1   2
ATOM      2  C   UNL A   1      33.467  29.349  27.252  1.00  0.00     0.002 C 
BRANCH   2   3
ATOM      3  C   UNL A   1      32.472  30.446  26.861  1.00  0.00     0.021 C 
BRANCH   3   4
ATOM      4  C   UNL A   1      31.528  29.997  25.757  1.00  0.00     0.116 C 
BRANCH   4   5
ATOM      5  N   UNL A   1      32.274  29.840  24.529  1.00  0.00    -0.356 N 
ATOM      6  C   UNL A   1      32.455  28.779  23.705  1.00  0.00     0.226 C 
ATOM      7  O   UNL A   1      33.135  29.010  22.698  1.00  0.00    -0.274 OA
ATOM      8  H   UNL A   1      32.739  30.657  24.237  1.00  0.00     0.163 HD
BRANCH   6   9
ATOM      9  C   UNL A   1      31.638  27.466  23.840  1.00  0.00     0.052 C 
ATOM     10  C   UNL A   1      33.427  25.778  22.783  1.00  0.00     0.013 C 
ATOM     11  C   UNL A   1      32.634  26.182  24.035  1.00  0.00    -0.007 C 
ATOM     12  C   UNL A   1      33.745  26.624  25.073  1.00  0.00     0.013 C 
ATOM     13  C   UNL A   1      31.751  24.970  24.694  1.00  0.00     0.053 C 
ATOM     14  C   UNL A   1      30.737  27.251  25.072  1.00  0.00     0.018 C 
ATOM     15  C   UNL A   1      30.726  27.657  22.591  1.00  0.00     0.022 C 
ATOM     16  C   UNL A   1      30.541  25.736  25.282  1.00  0.00     0.018 C 
ATOM     17  C   UNL A   1      32.503  24.316  25.903  1.00  0.00     0.022 C 
BRANCH  13  18
ATOM     18  C   UNL A   1      31.267  23.627  23.878  1.00  0.00     0.229 C 
ATOM     19  O   UNL A   1      30.279  23.665  23.134  1.00  0.00    -0.274 OA
BRANCH  18  20
ATOM     20  N   UNL A   1      31.981  22.441  23.946  1.00  0.00    -0.338 N 
ATOM     21  C   UNL A   1      31.999  21.529  25.118  1.00  0.00     0.124 C 
ATOM     22  C   UNL A   1      33.077  22.277  23.076  1.00  0.00     0.155 C 
ATOM     23  C   UNL A   1      33.059  20.362  25.003  1.00  0.00     0.057 C 
ATOM     24  C   UNL A   1      34.354  22.068  23.810  1.00  0.00    -0.025 A 
ATOM     25  C   UNL A   1      34.407  20.938  24.619  1.00  0.00    -0.041 A 
ATOM     26  C   UNL A   1      35.449  22.916  23.687  1.00  0.00     0.006 A 
ATOM     27  C   UNL A   1      35.657  20.471  25.007  1.00  0.00     0.004 A 
ATOM     28  C   UNL A   1      36.676  22.517  24.179  1.00  0.00     0.000 A 
ATOM     29  C   UNL A   1      36.795  21.257  24.758  1.00  0.00     0.000 A 
ENDBRANCH  18  20
ENDBRANCH  13  18
ENDBRANCH   6   9
ENDBRANCH   4   5
ENDBRANCH   3   4
ENDBRANCH   2   3
ENDBRANCH   1   2
BRANCH   1  30
ATOM     30  C   UNL A   1      35.227  30.718  28.547  1.00  0.00     0.021 C 
BRANCH  30  31
ATOM     31  C   UNL A   1      35.677  29.959  29.791  1.00  0.00     0.116 C 
BRANCH  31  32
ATOM     32  N   UNL A   1      35.924  30.860  30.903  1.00  0.00    -0.352 N 
ATOM     33  C   UNL A   1      37.104  31.117  31.552  1.00  0.00     0.251 C 
ATOM     34  H   UNL A   1      35.139  31.352  31.236  1.00  0.00     0.163 HD
ATOM     35  O   UNL A   1      37.101  31.735  32.614  1.00  0.00    -0.269 OA
BRANCH  33  36
ATOM     36  C   UNL A   1      38.372  30.633  30.972  1.00  0.00     0.039 A 
ATOM     37  C   UNL A   1      38.632  30.871  29.621  1.00  0.00     0.014 A 
ATOM     38  C   UNL A   1      39.297  29.944  31.762  1.00  0.00     0.014 A 
ATOM     39  C   UNL A   1      39.844  30.455  29.071  1.00  0.00     0.010 A 
ATOM     40  C   UNL A   1      40.531  29.587  31.226  1.00  0.00     0.010 A 
ATOM     41  C   UNL A   1      40.812  29.830  29.874  1.00  0.00    -0.014 A 
BRANCH  41  42
ATOM     42  C   UNL A   1      42.121  29.411  29.313  1.00  0.00     0.031 A 
ATOM     43  C   UNL A   1      43.238  30.409  29.187  1.00  0.00     0.074 A 
ATOM     44  C   UNL A   1      42.283  28.149  28.868  1.00  0.00     0.049 A 
ATOM     45  N   UNL A   1      44.427  30.254  28.663  1.00  0.00    -0.248 NA
ATOM     46  C   UNL A   1      42.980  31.767  29.695  1.00  0.00     0.031 C 
ATOM     47  C   UNL A   1      41.261  27.100  28.901  1.00  0.00     0.029 A 
ATOM     48  N   UNL A   1      43.368  27.538  28.291  1.00  0.00    -0.354 N 
ATOM     49  C   UNL A   1      45.051  31.492  28.764  1.00  0.00     0.074 A 
ATOM     50  C   UNL A   1      44.094  32.401  29.356  1.00  0.00     0.031 C 
ATOM     51  C   UNL A   1      41.774  25.971  28.384  1.00  0.00     0.029 A 
ATOM     52  C   UNL A   1      43.145  26.224  27.951  1.00  0.00     0.049 A 
ATOM     53  H   UNL A   1      44.224  27.997  28.135  1.00  0.00     0.167 HD
ATOM     54  C   UNL A   1      46.314  31.836  28.418  1.00  0.00     0.031 A 
ATOM     55  C   UNL A   1      43.950  25.327  27.351  1.00  0.00     0.031 A 
ATOM     56  C   UNL A   1      47.267  30.926  27.843  1.00  0.00     0.049 A 
ATOM     57  C   UNL A   1      45.348  25.734  26.974  1.00  0.00     0.074 A 
ATOM     58  C   UNL A   1      48.586  31.168  27.495  1.00  0.00     0.029 A 
ATOM     59  N   UNL A   1      47.010  29.599  27.536  1.00  0.00    -0.354 N 
ATOM     60  N   UNL A   1      45.936  26.897  27.126  1.00  0.00    -0.248 NA
ATOM     61  C   UNL A   1      46.196  24.705  26.356  1.00  0.00     0.031 C 
ATOM     62  C   UNL A   1      49.113  29.998  26.940  1.00  0.00     0.029 A 
ATOM     63  C   UNL A   1      48.139  29.012  26.991  1.00  0.00     0.049 A 
ATOM     64  H   UNL A   1      46.152  29.142  27.685  1.00  0.00     0.167 HD
ATOM     65  C   UNL A   1      47.231  26.731  26.646  1.00  0.00     0.074 A 
ATOM     66  C   UNL A   1      47.344  25.353  26.214  1.00  0.00     0.031 C 
ATOM     67  C   UNL A   1      48.235  27.638  26.570  1.00  0.00     0.031 A 
BRANCH  54  68
ATOM     68  C   UNL A   1      46.737  33.261  28.656  1.00  0.00    -0.014 A 
ATOM     69  C   UNL A   1      46.519  34.251  27.681  1.00  0.00     0.010 A 
ATOM     70  C   UNL A   1      47.316  33.626  29.885  1.00  0.00     0.010 A 
ATOM     71  C   UNL A   1      46.905  35.574  27.917  1.00  0.00     0.020 A 
ATOM     72  C   UNL A   1      47.679  34.953  30.135  1.00  0.00     0.020 A 
ATOM     73  C   UNL A   1      47.483  35.916  29.143  1.00  0.00     0.054 A 
BRANCH  73  74
ATOM     74  S   UNL A   1      47.944  37.646  29.433  1.00  0.00     0.124 S 
ATOM     75  O   UNL A   1      49.394  37.550  29.583  1.00  0.00    -0.237 OA
ATOM     76  O   UNL A   1      47.481  38.309  28.217  1.00  0.00    -0.237 OA
ATOM     77  O   UNL A   1      47.213  37.999  30.648  1.00  0.00    -0.744 OA
ENDBRANCH  73  74
ENDBRANCH  54  68
BRANCH  55  78
ATOM     78  C   UNL A   1      43.456  23.951  27.075  1.00  0.00    -0.014 A 
ATOM     79  C   UNL A   1      43.436  22.979  28.090  1.00  0.00     0.010 A 
ATOM     80  C   UNL A   1      43.001  23.606  25.788  1.00  0.00     0.010 A 
ATOM     81  C   UNL A   1      42.993  21.681  27.820  1.00  0.00     0.020 A 
ATOM     82  C   UNL A   1      42.531  22.318  25.521  1.00  0.00     0.020 A 
ATOM     83  C   UNL A   1      42.544  21.358  26.536  1.00  0.00     0.054 A 
BRANCH  83  84
ATOM     84  S   UNL A   1      41.937  19.679  26.215  1.00  0.00     0.124 S 
ATOM     85  O   UNL A   1      42.329  18.977  27.432  1.00  0.00    -0.237 OA
ATOM     86  O   UNL A   1      40.501  19.889  26.038  1.00  0.00    -0.237 OA
ATOM     87  O   UNL A   1      42.653  19.285  25.004  1.00  0.00    -0.744 OA
ENDBRANCH  83  84
ENDBRANCH  55  78
BRANCH  67  88
ATOM     88  C   UNL A   1      49.557  27.163  26.033  1.00  0.00    -0.014 A 
ATOM     89  C   UNL A   1      50.516  26.571  26.874  1.00  0.00     0.010 A 
ATOM     90  C   UNL A   1      49.820  27.262  24.653  1.00  0.00     0.010 A 
ATOM     91  C   UNL A   1      51.726  26.113  26.349  1.00  0.00     0.020 A 
ATOM     92  C   UNL A   1      51.018  26.781  24.122  1.00  0.00     0.020 A 
ATOM     93  C   UNL A   1      51.971  26.222  24.975  1.00  0.00     0.054 A 
BRANCH  93  94
ATOM     94  S   UNL A   1      53.532  25.579  24.313  1.00  0.00     0.124 S 
ATOM     95  O   UNL A   1      54.520  26.336  25.076  1.00  0.00    -0.237 OA
ATOM     96  O   UNL A   1      53.452  24.154  24.625  1.00  0.00    -0.237 OA
ATOM     97  O   UNL A   1      53.461  25.902  22.889  1.00  0.00    -0.744 OA
ENDBRANCH  93  94
ENDBRANCH  67  88
ENDBRANCH  41  42
ENDBRANCH  33  36
ENDBRANCH  31  32
ENDBRANCH  30  31
ENDBRANCH   1  30
TORSDOF 18
ENDMDL
