MODEL 1
REMARK VINA RESULT:     -10.1      0.000      0.000
REMARK SMILES Cc1ccc(NC(=O)c2cnn3c2NC2=C(C(=O)CCC2)[C@H]3c2ccc(C(=O)NCCCCCCNC(=O)c3ccc(-c4c5nc(c(-c6ccc(S(=O)(=O)[O-])cc6)c6ccc([nH]6)c(-c6ccc(S(=O)(=O)[O-])cc6)c6nc(c(-c7ccc(S(=O)(=O)[O-])cc7)c7ccc4[nH]7)C=C6)C=C5)cc3)cc2)cc1
REMARK SMILES IDX 32 1 31 2 30 3 29 4 27 5 28 6 26 8 23 9 24 10 100 11 25 12
REMARK SMILES IDX 99 13 22 14 9 15 10 16 13 17 11 18 12 19 14 20 15 21 16 23
REMARK SMILES IDX 21 24 17 25 20 26 18 27 19 28 7 29 6 30 8 32 5 33 1 34 2 35
REMARK SMILES IDX 3 36 102 37 4 38 101 39 33 40 34 41 35 42 36 43 37 44 38 46
REMARK SMILES IDX 39 47 40 48 98 49 41 50 97 51 42 52 43 53 44 54 91 55 45 56
REMARK SMILES IDX 96 57 90 58 92 59 46 60 95 61 89 62 88 63 47 65 77 66 58 67
REMARK SMILES IDX 76 68 59 69 62 70 75 71 93 72 60 73 61 74 74 76 94 77 63 78
REMARK SMILES IDX 48 79 49 80 57 81 50 82 56 83 51 84 52 85 53 86 54 87 55 88
REMARK SMILES IDX 78 89 79 90 87 91 80 92 86 93 81 94 82 95 83 96 84 97 85 98
REMARK SMILES IDX 64 99 65 100 73 101 66 102 72 103 67 104 68 105 69 106
REMARK SMILES IDX 70 107 71 108
REMARK H PARENT 29 7 14 22 6 31 36 45 92 64 62 75
REMARK Flexibility Score: inf
ROOT
ATOM      1  C   UNL A   1      45.552  31.181  29.194  1.00  0.00     0.002 C 
ENDROOT
BRANCH   1   2
ATOM      2  C   UNL A   1      45.545  32.717  29.080  1.00  0.00     0.021 C 
BRANCH   2   3
ATOM      3  C   UNL A   1      44.171  33.361  28.868  1.00  0.00     0.116 C 
BRANCH   3   4
ATOM      4  N   UNL A   1      43.777  34.179  30.003  1.00  0.00    -0.352 N 
ATOM      5  C   UNL A   1      42.586  34.420  30.641  1.00  0.00     0.251 C 
ATOM      6  O   UNL A   1      42.635  35.071  31.688  1.00  0.00    -0.269 OA
ATOM      7  H   UNL A   1      44.533  34.669  30.403  1.00  0.00     0.163 HD
BRANCH   5   8
ATOM      8  C   UNL A   1      41.257  33.897  30.197  1.00  0.00     0.039 A 
ATOM      9  C   UNL A   1      38.573  33.166  29.563  1.00  0.00    -0.019 A 
ATOM     10  C   UNL A   1      39.037  34.469  29.326  1.00  0.00     0.007 A 
ATOM     11  C   UNL A   1      39.543  32.202  29.908  1.00  0.00     0.007 A 
ATOM     12  C   UNL A   1      40.352  34.828  29.657  1.00  0.00     0.014 A 
ATOM     13  C   UNL A   1      40.864  32.563  30.236  1.00  0.00     0.014 A 
BRANCH   9  14
ATOM     14  C   UNL A   1      37.038  32.869  29.623  1.00  0.00     0.175 C 
ATOM     15  C   UNL A   1      37.039  29.796  31.449  1.00  0.00     0.102 A 
ATOM     16  C   UNL A   1      36.403  29.465  30.212  1.00  0.00     0.151 A 
ATOM     17  C   UNL A   1      37.050  31.173  31.433  1.00  0.00     0.142 A 
ATOM     18  N   UNL A   1      36.278  30.510  29.386  1.00  0.00    -0.178 NA
ATOM     19  N   UNL A   1      36.820  31.502  30.107  1.00  0.00    -0.237 N 
ATOM     20  N   UNL A   1      37.234  32.201  32.320  1.00  0.00    -0.343 N 
ATOM     21  C   UNL A   1      36.705  33.464  32.001  1.00  0.00     0.026 C 
ATOM     22  H   UNL A   1      37.725  32.059  33.162  1.00  0.00     0.168 HD
ATOM     23  C   UNL A   1      36.379  33.704  30.707  1.00  0.00     0.044 C 
ATOM     24  C   UNL A   1      36.200  34.376  33.085  1.00  0.00     0.055 C 
ATOM     25  C   UNL A   1      34.971  34.146  30.529  1.00  0.00     0.163 C 
ATOM     26  C   UNL A   1      34.704  34.677  32.948  1.00  0.00     0.014 C 
ATOM     27  O   UNL A   1      34.541  34.473  29.429  1.00  0.00    -0.294 OA
ATOM     28  C   UNL A   1      34.072  33.982  31.748  1.00  0.00     0.081 C 
BRANCH  15  29
ATOM     29  C   UNL A   1      37.482  28.918  32.505  1.00  0.00     0.261 C 
ATOM     30  N   UNL A   1      38.385  27.912  32.214  1.00  0.00    -0.322 N 
ATOM     31  H   UNL A   1      38.424  27.198  32.891  1.00  0.00     0.170 HD
ATOM     32  O   UNL A   1      37.044  29.021  33.652  1.00  0.00    -0.269 OA
BRANCH  30  33
ATOM     33  C   UNL A   1      39.261  27.721  31.121  1.00  0.00     0.041 A 
ATOM     34  C   UNL A   1      41.674  27.235  27.561  1.00  0.00     0.044 C 
ATOM     35  C   UNL A   1      40.858  27.352  28.816  1.00  0.00    -0.051 A 
ATOM     36  C   UNL A   1      41.274  28.204  29.839  1.00  0.00     0.005 A 
ATOM     37  C   UNL A   1      39.657  26.653  28.974  1.00  0.00     0.005 A 
ATOM     38  C   UNL A   1      40.499  28.354  30.992  1.00  0.00     0.026 A 
ATOM     39  C   UNL A   1      38.871  26.828  30.121  1.00  0.00     0.026 A 
ENDBRANCH  30  33
ENDBRANCH  15  29
ENDBRANCH   9  14
ENDBRANCH   5   8
ENDBRANCH   3   4
ENDBRANCH   2   3
ENDBRANCH   1   2
BRANCH   1  40
ATOM     40  C   UNL A   1      44.450  30.410  28.445  1.00  0.00     0.002 C 
BRANCH  40  41
ATOM     41  C   UNL A   1      44.708  28.924  28.196  1.00  0.00     0.021 C 
BRANCH  41  42
ATOM     42  C   UNL A   1      46.184  28.557  28.074  1.00  0.00     0.116 C 
BRANCH  42  43
ATOM     43  N   UNL A   1      46.444  27.477  27.130  1.00  0.00    -0.352 N 
ATOM     44  C   UNL A   1      46.604  26.122  27.377  1.00  0.00     0.251 C 
ATOM     45  H   UNL A   1      46.515  27.747  26.187  1.00  0.00     0.163 HD
ATOM     46  O   UNL A   1      47.040  25.380  26.512  1.00  0.00    -0.269 OA
BRANCH  44  47
ATOM     47  C   UNL A   1      46.154  25.582  28.680  1.00  0.00     0.039 A 
ATOM     48  C   UNL A   1      44.813  25.192  28.807  1.00  0.00     0.014 A 
ATOM     49  C   UNL A   1      46.975  25.651  29.799  1.00  0.00     0.014 A 
ATOM     50  C   UNL A   1      44.248  25.058  30.075  1.00  0.00     0.010 A 
ATOM     51  C   UNL A   1      46.393  25.631  31.047  1.00  0.00     0.010 A 
ATOM     52  C   UNL A   1      45.021  25.370  31.189  1.00  0.00    -0.014 A 
BRANCH  52  53
ATOM     53  C   UNL A   1      44.527  25.501  32.555  1.00  0.00     0.031 A 
ATOM     54  C   UNL A   1      44.159  26.840  33.076  1.00  0.00     0.074 A 
ATOM     55  C   UNL A   1      44.163  24.389  33.234  1.00  0.00     0.049 A 
ATOM     56  N   UNL A   1      43.850  27.092  34.303  1.00  0.00    -0.248 NA
ATOM     57  C   UNL A   1      44.159  28.038  32.237  1.00  0.00     0.031 C 
ATOM     58  C   UNL A   1      43.202  24.316  34.333  1.00  0.00     0.029 A 
ATOM     59  N   UNL A   1      44.741  23.119  33.213  1.00  0.00    -0.354 N 
ATOM     60  C   UNL A   1      43.315  28.361  34.347  1.00  0.00     0.074 A 
ATOM     61  C   UNL A   1      43.617  28.939  33.060  1.00  0.00     0.031 C 
ATOM     62  C   UNL A   1      43.455  23.213  35.053  1.00  0.00     0.029 A 
ATOM     63  C   UNL A   1      44.688  22.647  34.536  1.00  0.00     0.049 A 
ATOM     64  H   UNL A   1      45.110  22.649  32.430  1.00  0.00     0.167 HD
ATOM     65  C   UNL A   1      42.557  28.728  35.419  1.00  0.00     0.031 A 
ATOM     66  C   UNL A   1      45.781  22.339  35.295  1.00  0.00     0.031 A 
ATOM     67  C   UNL A   1      42.581  27.710  36.465  1.00  0.00     0.049 A 
ATOM     68  C   UNL A   1      45.834  23.101  36.603  1.00  0.00     0.074 A 
ATOM     69  C   UNL A   1      41.691  26.721  36.849  1.00  0.00     0.029 A 
ATOM     70  N   UNL A   1      43.778  27.443  37.113  1.00  0.00    -0.354 N 
ATOM     71  N   UNL A   1      45.132  24.172  36.843  1.00  0.00    -0.248 NA
ATOM     72  C   UNL A   1      46.706  22.751  37.720  1.00  0.00     0.031 C 
ATOM     73  C   UNL A   1      42.390  25.809  37.683  1.00  0.00     0.029 A 
ATOM     74  C   UNL A   1      43.689  26.264  37.824  1.00  0.00     0.049 A 
ATOM     75  H   UNL A   1      44.579  28.013  37.070  1.00  0.00     0.167 HD
ATOM     76  C   UNL A   1      45.428  24.653  38.091  1.00  0.00     0.074 A 
ATOM     77  C   UNL A   1      46.416  23.723  38.605  1.00  0.00     0.031 C 
ATOM     78  C   UNL A   1      44.838  25.784  38.581  1.00  0.00     0.031 A 
BRANCH  65  79
ATOM     79  C   UNL A   1      41.588  29.894  35.433  1.00  0.00    -0.014 A 
ATOM     80  C   UNL A   1      41.719  30.887  36.428  1.00  0.00     0.010 A 
ATOM     81  C   UNL A   1      40.501  30.046  34.553  1.00  0.00     0.010 A 
ATOM     82  C   UNL A   1      40.778  31.916  36.588  1.00  0.00     0.020 A 
ATOM     83  C   UNL A   1      39.539  31.055  34.714  1.00  0.00     0.020 A 
ATOM     84  C   UNL A   1      39.675  31.977  35.741  1.00  0.00     0.054 A 
BRANCH  84  85
ATOM     85  S   UNL A   1      38.427  33.263  36.001  1.00  0.00     0.124 S 
ATOM     86  O   UNL A   1      37.200  32.595  35.574  1.00  0.00    -0.237 OA
ATOM     87  O   UNL A   1      38.538  33.528  37.433  1.00  0.00    -0.237 OA
ATOM     88  O   UNL A   1      38.867  34.353  35.131  1.00  0.00    -0.744 OA
ENDBRANCH  84  85
ENDBRANCH  65  79
BRANCH  66  89
ATOM     89  C   UNL A   1      46.971  21.914  34.509  1.00  0.00    -0.014 A 
ATOM     90  C   UNL A   1      48.066  22.802  34.476  1.00  0.00     0.010 A 
ATOM     91  C   UNL A   1      47.185  20.547  34.254  1.00  0.00     0.010 A 
ATOM     92  C   UNL A   1      49.370  22.308  34.403  1.00  0.00     0.020 A 
ATOM     93  C   UNL A   1      48.493  20.052  34.172  1.00  0.00     0.020 A 
ATOM     94  C   UNL A   1      49.571  20.929  34.327  1.00  0.00     0.054 A 
BRANCH  94  95
ATOM     95  S   UNL A   1      51.237  20.295  34.690  1.00  0.00     0.124 S 
ATOM     96  O   UNL A   1      50.960  18.964  35.219  1.00  0.00    -0.237 OA
ATOM     97  O   UNL A   1      51.857  20.334  33.367  1.00  0.00    -0.237 OA
ATOM     98  O   UNL A   1      51.763  21.261  35.651  1.00  0.00    -0.744 OA
ENDBRANCH  94  95
ENDBRANCH  66  89
BRANCH  78  99
ATOM     99  C   UNL A   1      45.218  26.536  39.836  1.00  0.00    -0.014 A 
ATOM    100  C   UNL A   1      44.401  26.656  40.969  1.00  0.00     0.010 A 
ATOM    101  C   UNL A   1      46.537  27.049  39.943  1.00  0.00     0.010 A 
ATOM    102  C   UNL A   1      44.857  27.300  42.130  1.00  0.00     0.020 A 
ATOM    103  C   UNL A   1      47.015  27.652  41.109  1.00  0.00     0.020 A 
ATOM    104  C   UNL A   1      46.160  27.796  42.192  1.00  0.00     0.054 A 
BRANCH 104 105
ATOM    105  S   UNL A   1      46.761  28.563  43.719  1.00  0.00     0.124 S 
ATOM    106  O   UNL A   1      47.386  29.782  43.216  1.00  0.00    -0.237 OA
ATOM    107  O   UNL A   1      45.536  28.760  44.491  1.00  0.00    -0.237 OA
ATOM    108  O   UNL A   1      47.678  27.565  44.264  1.00  0.00    -0.744 OA
ENDBRANCH 104 105
ENDBRANCH  78  99
ENDBRANCH  52  53
ENDBRANCH  44  47
ENDBRANCH  42  43
ENDBRANCH  41  42
ENDBRANCH  40  41
ENDBRANCH   1  40
TORSDOF 19
ENDMDL
MODEL 2
REMARK VINA RESULT:      -9.7      7.495     13.912
REMARK SMILES Cc1ccc(NC(=O)c2cnn3c2NC2=C(C(=O)CCC2)[C@H]3c2ccc(C(=O)NCCCCCCNC(=O)c3ccc(-c4c5nc(c(-c6ccc(S(=O)(=O)[O-])cc6)c6ccc([nH]6)c(-c6ccc(S(=O)(=O)[O-])cc6)c6nc(c(-c7ccc(S(=O)(=O)[O-])cc7)c7ccc4[nH]7)C=C6)C=C5)cc3)cc2)cc1
REMARK SMILES IDX 32 1 31 2 30 3 29 4 27 5 28 6 26 8 23 9 24 10 100 11 25 12
REMARK SMILES IDX 99 13 22 14 9 15 10 16 13 17 11 18 12 19 14 20 15 21 16 23
REMARK SMILES IDX 21 24 17 25 20 26 18 27 19 28 7 29 6 30 8 32 5 33 1 34 2 35
REMARK SMILES IDX 3 36 102 37 4 38 101 39 33 40 34 41 35 42 36 43 37 44 38 46
REMARK SMILES IDX 39 47 40 48 98 49 41 50 97 51 42 52 43 53 44 54 91 55 45 56
REMARK SMILES IDX 96 57 90 58 92 59 46 60 95 61 89 62 88 63 47 65 77 66 58 67
REMARK SMILES IDX 76 68 59 69 62 70 75 71 93 72 60 73 61 74 74 76 94 77 63 78
REMARK SMILES IDX 48 79 49 80 57 81 50 82 56 83 51 84 52 85 53 86 54 87 55 88
REMARK SMILES IDX 78 89 79 90 87 91 80 92 86 93 81 94 82 95 83 96 84 97 85 98
REMARK SMILES IDX 64 99 65 100 73 101 66 102 72 103 67 104 68 105 69 106
REMARK SMILES IDX 70 107 71 108
REMARK H PARENT 29 7 14 22 6 31 36 45 92 64 62 75
REMARK Flexibility Score: inf
ROOT
ATOM      1  C   UNL A   1      46.301  36.360  33.536  1.00  0.00     0.002 C 
ENDROOT
BRANCH   1   2
ATOM      2  C   UNL A   1      45.650  37.717  33.210  1.00  0.00     0.021 C 
BRANCH   2   3
ATOM      3  C   UNL A   1      44.143  37.681  32.936  1.00  0.00     0.116 C 
BRANCH   3   4
ATOM      4  N   UNL A   1      43.454  38.802  33.557  1.00  0.00    -0.352 N 
ATOM      5  C   UNL A   1      43.296  40.126  33.231  1.00  0.00     0.251 C 
ATOM      6  O   UNL A   1      42.509  40.779  33.921  1.00  0.00    -0.269 OA
ATOM      7  H   UNL A   1      43.002  38.556  34.397  1.00  0.00     0.163 HD
BRANCH   5   8
ATOM      8  C   UNL A   1      43.950  40.805  32.071  1.00  0.00     0.039 A 
ATOM      9  C   UNL A   1      45.311  41.764  29.754  1.00  0.00    -0.019 A 
ATOM     10  C   UNL A   1      44.307  40.790  29.644  1.00  0.00     0.007 A 
ATOM     11  C   UNL A   1      45.449  42.393  31.008  1.00  0.00     0.007 A 
ATOM     12  C   UNL A   1      43.654  40.309  30.789  1.00  0.00     0.014 A 
ATOM     13  C   UNL A   1      44.790  41.912  32.156  1.00  0.00     0.014 A 
BRANCH   9  14
ATOM     14  C   UNL A   1      46.333  41.983  28.589  1.00  0.00     0.175 C 
ATOM     15  C   UNL A   1      44.185  41.609  25.757  1.00  0.00     0.102 A 
ATOM     16  C   UNL A   1      45.177  40.596  25.577  1.00  0.00     0.151 A 
ATOM     17  C   UNL A   1      44.725  42.399  26.747  1.00  0.00     0.142 A 
ATOM     18  N   UNL A   1      46.108  40.591  26.537  1.00  0.00    -0.178 NA
ATOM     19  N   UNL A   1      45.713  41.611  27.313  1.00  0.00    -0.237 N 
ATOM     20  N   UNL A   1      44.531  43.650  27.272  1.00  0.00    -0.343 N 
ATOM     21  C   UNL A   1      45.594  44.260  27.961  1.00  0.00     0.026 C 
ATOM     22  H   UNL A   1      43.668  44.111  27.168  1.00  0.00     0.168 HD
ATOM     23  C   UNL A   1      46.604  43.465  28.395  1.00  0.00     0.044 C 
ATOM     24  C   UNL A   1      45.777  45.752  27.915  1.00  0.00     0.055 C 
ATOM     25  C   UNL A   1      47.941  43.904  27.917  1.00  0.00     0.163 C 
ATOM     26  C   UNL A   1      47.106  46.159  27.270  1.00  0.00     0.014 C 
ATOM     27  O   UNL A   1      48.964  43.335  28.281  1.00  0.00    -0.294 OA
ATOM     28  C   UNL A   1      47.933  44.960  26.820  1.00  0.00     0.081 C 
BRANCH  15  29
ATOM     29  C   UNL A   1      42.958  41.818  25.026  1.00  0.00     0.261 C 
ATOM     30  N   UNL A   1      42.902  42.814  24.068  1.00  0.00    -0.322 N 
ATOM     31  H   UNL A   1      41.988  43.083  23.819  1.00  0.00     0.170 HD
ATOM     32  O   UNL A   1      41.948  41.154  25.264  1.00  0.00    -0.269 OA
BRANCH  30  33
ATOM     33  C   UNL A   1      43.919  43.517  23.382  1.00  0.00     0.041 A 
ATOM     34  C   UNL A   1      47.221  45.662  21.584  1.00  0.00     0.044 C 
ATOM     35  C   UNL A   1      46.038  44.956  22.182  1.00  0.00    -0.051 A 
ATOM     36  C   UNL A   1      45.582  43.764  21.620  1.00  0.00     0.005 A 
ATOM     37  C   UNL A   1      45.399  45.445  23.326  1.00  0.00     0.005 A 
ATOM     38  C   UNL A   1      44.510  43.077  22.196  1.00  0.00     0.026 A 
ATOM     39  C   UNL A   1      44.341  44.737  23.915  1.00  0.00     0.026 A 
ENDBRANCH  30  33
ENDBRANCH  15  29
ENDBRANCH   9  14
ENDBRANCH   5   8
ENDBRANCH   3   4
ENDBRANCH   2   3
ENDBRANCH   1   2
BRANCH   1  40
ATOM     40  C   UNL A   1      47.341  35.816  32.539  1.00  0.00     0.002 C 
BRANCH  40  41
ATOM     41  C   UNL A   1      46.820  35.435  31.153  1.00  0.00     0.021 C 
BRANCH  41  42
ATOM     42  C   UNL A   1      47.196  34.026  30.709  1.00  0.00     0.116 C 
BRANCH  42  43
ATOM     43  N   UNL A   1      48.072  33.991  29.544  1.00  0.00    -0.352 N 
ATOM     44  C   UNL A   1      48.086  33.093  28.487  1.00  0.00     0.251 C 
ATOM     45  H   UNL A   1      48.748  34.704  29.502  1.00  0.00     0.163 HD
ATOM     46  O   UNL A   1      49.023  33.064  27.707  1.00  0.00    -0.269 OA
BRANCH  44  47
ATOM     47  C   UNL A   1      46.899  32.231  28.277  1.00  0.00     0.039 A 
ATOM     48  C   UNL A   1      45.930  32.655  27.357  1.00  0.00     0.014 A 
ATOM     49  C   UNL A   1      46.654  31.146  29.108  1.00  0.00     0.014 A 
ATOM     50  C   UNL A   1      44.645  32.113  27.406  1.00  0.00     0.010 A 
ATOM     51  C   UNL A   1      45.360  30.691  29.235  1.00  0.00     0.010 A 
ATOM     52  C   UNL A   1      44.344  31.197  28.410  1.00  0.00    -0.014 A 
BRANCH  52  53
ATOM     53  C   UNL A   1      43.009  30.711  28.740  1.00  0.00     0.031 A 
ATOM     54  C   UNL A   1      42.461  29.531  28.026  1.00  0.00     0.074 A 
ATOM     55  C   UNL A   1      42.399  31.166  29.858  1.00  0.00     0.049 A 
ATOM     56  N   UNL A   1      41.248  29.105  28.134  1.00  0.00    -0.248 NA
ATOM     57  C   UNL A   1      43.250  28.751  27.075  1.00  0.00     0.031 C 
ATOM     58  C   UNL A   1      41.368  30.476  30.630  1.00  0.00     0.029 A 
ATOM     59  N   UNL A   1      42.432  32.445  30.416  1.00  0.00    -0.354 N 
ATOM     60  C   UNL A   1      41.189  27.860  27.548  1.00  0.00     0.074 A 
ATOM     61  C   UNL A   1      42.430  27.727  26.825  1.00  0.00     0.031 C 
ATOM     62  C   UNL A   1      40.676  31.383  31.334  1.00  0.00     0.029 A 
ATOM     63  C   UNL A   1      41.134  32.691  30.898  1.00  0.00     0.049 A 
ATOM     64  H   UNL A   1      43.206  33.051  30.463  1.00  0.00     0.167 HD
ATOM     65  C   UNL A   1      40.156  27.026  27.857  1.00  0.00     0.031 A 
ATOM     66  C   UNL A   1      40.317  33.693  30.455  1.00  0.00     0.031 A 
ATOM     67  C   UNL A   1      39.150  27.700  28.674  1.00  0.00     0.049 A 
ATOM     68  C   UNL A   1      38.981  33.194  29.948  1.00  0.00     0.074 A 
ATOM     69  C   UNL A   1      38.864  27.689  30.028  1.00  0.00     0.029 A 
ATOM     70  N   UNL A   1      38.437  28.755  28.123  1.00  0.00    -0.354 N 
ATOM     71  N   UNL A   1      38.745  31.951  29.636  1.00  0.00    -0.248 NA
ATOM     72  C   UNL A   1      37.823  34.051  29.710  1.00  0.00     0.031 C 
ATOM     73  C   UNL A   1      38.022  28.799  30.302  1.00  0.00     0.029 A 
ATOM     74  C   UNL A   1      37.779  29.459  29.111  1.00  0.00     0.049 A 
ATOM     75  H   UNL A   1      38.406  28.971  27.164  1.00  0.00     0.167 HD
ATOM     76  C   UNL A   1      37.463  31.823  29.172  1.00  0.00     0.074 A 
ATOM     77  C   UNL A   1      36.922  33.168  29.244  1.00  0.00     0.031 C 
ATOM     78  C   UNL A   1      36.969  30.618  28.759  1.00  0.00     0.031 A 
BRANCH  65  79
ATOM     79  C   UNL A   1      40.160  25.526  27.635  1.00  0.00    -0.014 A 
ATOM     80  C   UNL A   1      41.263  24.766  28.082  1.00  0.00     0.010 A 
ATOM     81  C   UNL A   1      39.160  24.812  26.951  1.00  0.00     0.010 A 
ATOM     82  C   UNL A   1      41.400  23.401  27.789  1.00  0.00     0.020 A 
ATOM     83  C   UNL A   1      39.292  23.453  26.629  1.00  0.00     0.020 A 
ATOM     84  C   UNL A   1      40.421  22.756  27.039  1.00  0.00     0.054 A 
BRANCH  84  85
ATOM     85  S   UNL A   1      40.641  21.014  26.601  1.00  0.00     0.124 S 
ATOM     86  O   UNL A   1      40.626  20.361  27.908  1.00  0.00    -0.237 OA
ATOM     87  O   UNL A   1      39.484  20.752  25.750  1.00  0.00    -0.237 OA
ATOM     88  O   UNL A   1      41.934  20.989  25.918  1.00  0.00    -0.744 OA
ENDBRANCH  84  85
ENDBRANCH  65  79
BRANCH  66  89
ATOM     89  C   UNL A   1      41.041  34.880  29.924  1.00  0.00    -0.014 A 
ATOM     90  C   UNL A   1      42.266  35.210  30.538  1.00  0.00     0.010 A 
ATOM     91  C   UNL A   1      40.792  35.315  28.609  1.00  0.00     0.010 A 
ATOM     92  C   UNL A   1      43.299  35.777  29.790  1.00  0.00     0.020 A 
ATOM     93  C   UNL A   1      41.825  35.892  27.859  1.00  0.00     0.020 A 
ATOM     94  C   UNL A   1      43.090  36.042  28.436  1.00  0.00     0.054 A 
BRANCH  94  95
ATOM     95  S   UNL A   1      44.552  36.340  27.396  1.00  0.00     0.124 S 
ATOM     96  O   UNL A   1      44.213  35.636  26.165  1.00  0.00    -0.237 OA
ATOM     97  O   UNL A   1      44.556  37.799  27.310  1.00  0.00    -0.237 OA
ATOM     98  O   UNL A   1      45.644  35.762  28.175  1.00  0.00    -0.744 OA
ENDBRANCH  94  95
ENDBRANCH  66  89
BRANCH  78  99
ATOM     99  C   UNL A   1      35.663  30.371  28.038  1.00  0.00    -0.014 A 
ATOM    100  C   UNL A   1      34.773  31.378  27.639  1.00  0.00     0.010 A 
ATOM    101  C   UNL A   1      35.365  29.051  27.611  1.00  0.00     0.010 A 
ATOM    102  C   UNL A   1      33.618  31.078  26.899  1.00  0.00     0.020 A 
ATOM    103  C   UNL A   1      34.244  28.747  26.836  1.00  0.00     0.020 A 
ATOM    104  C   UNL A   1      33.360  29.764  26.504  1.00  0.00     0.054 A 
BRANCH 104 105
ATOM    105  S   UNL A   1      31.905  29.398  25.489  1.00  0.00     0.124 S 
ATOM    106  O   UNL A   1      31.398  28.183  26.119  1.00  0.00    -0.237 OA
ATOM    107  O   UNL A   1      31.075  30.588  25.666  1.00  0.00    -0.237 OA
ATOM    108  O   UNL A   1      32.458  29.228  24.148  1.00  0.00    -0.744 OA
ENDBRANCH 104 105
ENDBRANCH  78  99
ENDBRANCH  52  53
ENDBRANCH  44  47
ENDBRANCH  42  43
ENDBRANCH  41  42
ENDBRANCH  40  41
ENDBRANCH   1  40
TORSDOF 19
ENDMDL
MODEL 3
REMARK VINA RESULT:      -9.6      4.025     10.936
REMARK SMILES Cc1ccc(NC(=O)c2cnn3c2NC2=C(C(=O)CCC2)[C@H]3c2ccc(C(=O)NCCCCCCNC(=O)c3ccc(-c4c5nc(c(-c6ccc(S(=O)(=O)[O-])cc6)c6ccc([nH]6)c(-c6ccc(S(=O)(=O)[O-])cc6)c6nc(c(-c7ccc(S(=O)(=O)[O-])cc7)c7ccc4[nH]7)C=C6)C=C5)cc3)cc2)cc1
REMARK SMILES IDX 32 1 31 2 30 3 29 4 27 5 28 6 26 8 23 9 24 10 100 11 25 12
REMARK SMILES IDX 99 13 22 14 9 15 10 16 13 17 11 18 12 19 14 20 15 21 16 23
REMARK SMILES IDX 21 24 17 25 20 26 18 27 19 28 7 29 6 30 8 32 5 33 1 34 2 35
REMARK SMILES IDX 3 36 102 37 4 38 101 39 33 40 34 41 35 42 36 43 37 44 38 46
REMARK SMILES IDX 39 47 40 48 98 49 41 50 97 51 42 52 43 53 44 54 91 55 45 56
REMARK SMILES IDX 96 57 90 58 92 59 46 60 95 61 89 62 88 63 47 65 77 66 58 67
REMARK SMILES IDX 76 68 59 69 62 70 75 71 93 72 60 73 61 74 74 76 94 77 63 78
REMARK SMILES IDX 48 79 49 80 57 81 50 82 56 83 51 84 52 85 53 86 54 87 55 88
REMARK SMILES IDX 78 89 79 90 87 91 80 92 86 93 81 94 82 95 83 96 84 97 85 98
REMARK SMILES IDX 64 99 65 100 73 101 66 102 72 103 67 104 68 105 69 106
REMARK SMILES IDX 70 107 71 108
REMARK H PARENT 29 7 14 22 6 31 36 45 92 64 62 75
REMARK Flexibility Score: inf
ROOT
ATOM      1  C   UNL A   1      39.764  33.592  30.680  1.00  0.00     0.002 C 
ENDROOT
BRANCH   1   2
ATOM      2  C   UNL A   1      40.329  34.144  32.002  1.00  0.00     0.021 C 
BRANCH   2   3
ATOM      3  C   UNL A   1      41.855  34.130  32.129  1.00  0.00     0.116 C 
BRANCH   3   4
ATOM      4  N   UNL A   1      42.383  35.445  32.455  1.00  0.00    -0.352 N 
ATOM      5  C   UNL A   1      42.614  36.118  33.629  1.00  0.00     0.251 C 
ATOM      6  O   UNL A   1      43.220  37.190  33.546  1.00  0.00    -0.269 OA
ATOM      7  H   UNL A   1      42.628  35.968  31.657  1.00  0.00     0.163 HD
BRANCH   5   8
ATOM      8  C   UNL A   1      42.247  35.617  34.989  1.00  0.00     0.039 A 
ATOM      9  C   UNL A   1      41.458  35.013  37.663  1.00  0.00    -0.019 A 
ATOM     10  C   UNL A   1      40.565  35.630  36.774  1.00  0.00     0.007 A 
ATOM     11  C   UNL A   1      42.655  34.512  37.112  1.00  0.00     0.007 A 
ATOM     12  C   UNL A   1      40.965  35.941  35.465  1.00  0.00     0.014 A 
ATOM     13  C   UNL A   1      43.054  34.822  35.797  1.00  0.00     0.014 A 
BRANCH   9  14
ATOM     14  C   UNL A   1      41.201  35.061  39.206  1.00  0.00     0.175 C 
ATOM     15  C   UNL A   1      38.300  32.985  39.448  1.00  0.00     0.102 A 
ATOM     16  C   UNL A   1      37.876  34.240  39.987  1.00  0.00     0.151 A 
ATOM     17  C   UNL A   1      39.670  33.118  39.396  1.00  0.00     0.142 A 
ATOM     18  N   UNL A   1      38.847  35.160  40.011  1.00  0.00    -0.178 NA
ATOM     19  N   UNL A   1      39.886  34.482  39.504  1.00  0.00    -0.237 N 
ATOM     20  N   UNL A   1      40.767  32.309  39.257  1.00  0.00    -0.343 N 
ATOM     21  C   UNL A   1      42.009  32.779  39.720  1.00  0.00     0.026 C 
ATOM     22  H   UNL A   1      40.688  31.419  38.843  1.00  0.00     0.168 HD
ATOM     23  C   UNL A   1      42.142  34.113  39.929  1.00  0.00     0.044 C 
ATOM     24  C   UNL A   1      43.023  31.824  40.287  1.00  0.00     0.055 C 
ATOM     25  C   UNL A   1      42.597  34.448  41.303  1.00  0.00     0.163 C 
ATOM     26  C   UNL A   1      43.344  32.116  41.757  1.00  0.00     0.014 C 
ATOM     27  O   UNL A   1      42.836  35.606  41.629  1.00  0.00    -0.294 OA
ATOM     28  C   UNL A   1      42.559  33.302  42.306  1.00  0.00     0.081 C 
BRANCH  15  29
ATOM     29  C   UNL A   1      37.508  31.824  39.121  1.00  0.00     0.261 C 
ATOM     30  N   UNL A   1      37.280  30.865  40.092  1.00  0.00    -0.322 N 
ATOM     31  H   UNL A   1      36.987  29.995  39.737  1.00  0.00     0.170 HD
ATOM     32  O   UNL A   1      37.065  31.649  37.985  1.00  0.00    -0.269 OA
BRANCH  30  33
ATOM     33  C   UNL A   1      37.392  30.908  41.500  1.00  0.00     0.041 A 
ATOM     34  C   UNL A   1      37.408  30.893  45.829  1.00  0.00     0.044 C 
ATOM     35  C   UNL A   1      37.424  30.953  44.328  1.00  0.00    -0.051 A 
ATOM     36  C   UNL A   1      38.443  30.322  43.617  1.00  0.00     0.005 A 
ATOM     37  C   UNL A   1      36.410  31.600  43.614  1.00  0.00     0.005 A 
ATOM     38  C   UNL A   1      38.442  30.335  42.220  1.00  0.00     0.026 A 
ATOM     39  C   UNL A   1      36.400  31.586  42.212  1.00  0.00     0.026 A 
ENDBRANCH  30  33
ENDBRANCH  15  29
ENDBRANCH   9  14
ENDBRANCH   5   8
ENDBRANCH   3   4
ENDBRANCH   2   3
ENDBRANCH   1   2
BRANCH   1  40
ATOM     40  C   UNL A   1      38.840  34.513  29.864  1.00  0.00     0.002 C 
BRANCH  40  41
ATOM     41  C   UNL A   1      37.719  33.831  29.080  1.00  0.00     0.021 C 
BRANCH  41  42
ATOM     42  C   UNL A   1      36.622  33.228  29.952  1.00  0.00     0.116 C 
BRANCH  42  43
ATOM     43  N   UNL A   1      35.470  32.749  29.199  1.00  0.00    -0.352 N 
ATOM     44  C   UNL A   1      35.343  31.600  28.432  1.00  0.00     0.251 C 
ATOM     45  H   UNL A   1      34.670  33.320  29.240  1.00  0.00     0.163 HD
ATOM     46  O   UNL A   1      34.392  31.454  27.682  1.00  0.00    -0.269 OA
BRANCH  44  47
ATOM     47  C   UNL A   1      36.339  30.519  28.609  1.00  0.00     0.039 A 
ATOM     48  C   UNL A   1      36.335  29.807  29.817  1.00  0.00     0.014 A 
ATOM     49  C   UNL A   1      37.373  30.350  27.697  1.00  0.00     0.014 A 
ATOM     50  C   UNL A   1      37.462  29.075  30.193  1.00  0.00     0.010 A 
ATOM     51  C   UNL A   1      38.527  29.724  28.115  1.00  0.00     0.010 A 
ATOM     52  C   UNL A   1      38.589  29.115  29.378  1.00  0.00    -0.014 A 
BRANCH  52  53
ATOM     53  C   UNL A   1      39.908  28.601  29.729  1.00  0.00     0.031 A 
ATOM     54  C   UNL A   1      40.348  27.288  29.195  1.00  0.00     0.074 A 
ATOM     55  C   UNL A   1      40.805  29.429  30.310  1.00  0.00     0.049 A 
ATOM     56  N   UNL A   1      41.426  26.674  29.552  1.00  0.00    -0.248 NA
ATOM     57  C   UNL A   1      39.559  26.527  28.229  1.00  0.00     0.031 C 
ATOM     58  C   UNL A   1      42.261  29.305  30.263  1.00  0.00     0.029 A 
ATOM     59  N   UNL A   1      40.588  30.443  31.244  1.00  0.00    -0.354 N 
ATOM     60  C   UNL A   1      41.632  25.642  28.663  1.00  0.00     0.074 A 
ATOM     61  C   UNL A   1      40.399  25.536  27.922  1.00  0.00     0.031 C 
ATOM     62  C   UNL A   1      42.783  29.967  31.307  1.00  0.00     0.029 A 
ATOM     63  C   UNL A   1      41.670  30.383  32.140  1.00  0.00     0.049 A 
ATOM     64  H   UNL A   1      39.831  31.072  31.269  1.00  0.00     0.167 HD
ATOM     65  C   UNL A   1      42.872  25.087  28.562  1.00  0.00     0.031 A 
ATOM     66  C   UNL A   1      41.557  30.122  33.477  1.00  0.00     0.031 A 
ATOM     67  C   UNL A   1      43.774  25.603  29.588  1.00  0.00     0.049 A 
ATOM     68  C   UNL A   1      42.385  28.936  33.924  1.00  0.00     0.074 A 
ATOM     69  C   UNL A   1      44.782  26.553  29.576  1.00  0.00     0.029 A 
ATOM     70  N   UNL A   1      43.506  25.323  30.920  1.00  0.00    -0.354 N 
ATOM     71  N   UNL A   1      42.875  28.047  33.107  1.00  0.00    -0.248 NA
ATOM     72  C   UNL A   1      42.690  28.629  35.319  1.00  0.00     0.031 C 
ATOM     73  C   UNL A   1      45.069  26.898  30.923  1.00  0.00     0.029 A 
ATOM     74  C   UNL A   1      44.257  26.136  31.744  1.00  0.00     0.049 A 
ATOM     75  H   UNL A   1      42.869  24.642  31.233  1.00  0.00     0.167 HD
ATOM     76  C   UNL A   1      43.538  27.079  33.814  1.00  0.00     0.074 A 
ATOM     77  C   UNL A   1      43.400  27.493  35.198  1.00  0.00     0.031 C 
ATOM     78  C   UNL A   1      44.131  26.018  33.191  1.00  0.00     0.031 A 
BRANCH  65  79
ATOM     79  C   UNL A   1      43.356  24.260  27.388  1.00  0.00    -0.014 A 
ATOM     80  C   UNL A   1      42.531  23.231  26.883  1.00  0.00     0.010 A 
ATOM     81  C   UNL A   1      44.616  24.390  26.777  1.00  0.00     0.010 A 
ATOM     82  C   UNL A   1      42.968  22.337  25.894  1.00  0.00     0.020 A 
ATOM     83  C   UNL A   1      45.077  23.491  25.803  1.00  0.00     0.020 A 
ATOM     84  C   UNL A   1      44.254  22.458  25.377  1.00  0.00     0.054 A 
BRANCH  84  85
ATOM     85  S   UNL A   1      44.838  21.257  24.155  1.00  0.00     0.124 S 
ATOM     86  O   UNL A   1      44.116  20.046  24.540  1.00  0.00    -0.237 OA
ATOM     87  O   UNL A   1      44.427  21.864  22.892  1.00  0.00    -0.237 OA
ATOM     88  O   UNL A   1      46.282  21.208  24.380  1.00  0.00    -0.744 OA
ENDBRANCH  84  85
ENDBRANCH  65  79
BRANCH  66  89
ATOM     89  C   UNL A   1      40.253  30.522  34.070  1.00  0.00    -0.014 A 
ATOM     90  C   UNL A   1      40.283  31.512  35.074  1.00  0.00     0.010 A 
ATOM     91  C   UNL A   1      39.066  30.316  33.343  1.00  0.00     0.010 A 
ATOM     92  C   UNL A   1      39.226  32.414  35.205  1.00  0.00     0.020 A 
ATOM     93  C   UNL A   1      38.001  31.216  33.480  1.00  0.00     0.020 A 
ATOM     94  C   UNL A   1      38.127  32.301  34.353  1.00  0.00     0.054 A 
BRANCH  94  95
ATOM     95  S   UNL A   1      37.001  33.724  34.230  1.00  0.00     0.124 S 
ATOM     96  O   UNL A   1      37.809  34.813  34.768  1.00  0.00    -0.237 OA
ATOM     97  O   UNL A   1      36.751  33.774  32.791  1.00  0.00    -0.237 OA
ATOM     98  O   UNL A   1      35.859  33.322  35.045  1.00  0.00    -0.744 OA
ENDBRANCH  94  95
ENDBRANCH  66  89
BRANCH  78  99
ATOM     99  C   UNL A   1      44.706  24.784  33.849  1.00  0.00    -0.014 A 
ATOM    100  C   UNL A   1      46.012  24.686  34.350  1.00  0.00     0.010 A 
ATOM    101  C   UNL A   1      43.842  23.688  34.104  1.00  0.00     0.010 A 
ATOM    102  C   UNL A   1      46.449  23.535  35.024  1.00  0.00     0.020 A 
ATOM    103  C   UNL A   1      44.253  22.556  34.812  1.00  0.00     0.020 A 
ATOM    104  C   UNL A   1      45.567  22.476  35.249  1.00  0.00     0.054 A 
BRANCH 104 105
ATOM    105  S   UNL A   1      46.121  21.025  36.180  1.00  0.00     0.124 S 
ATOM    106  O   UNL A   1      45.658  21.340  37.528  1.00  0.00    -0.237 OA
ATOM    107  O   UNL A   1      45.423  19.925  35.519  1.00  0.00    -0.237 OA
ATOM    108  O   UNL A   1      47.570  21.034  35.995  1.00  0.00    -0.744 OA
ENDBRANCH 104 105
ENDBRANCH  78  99
ENDBRANCH  52  53
ENDBRANCH  44  47
ENDBRANCH  42  43
ENDBRANCH  41  42
ENDBRANCH  40  41
ENDBRANCH   1  40
TORSDOF 19
ENDMDL
