MODEL 1
REMARK VINA RESULT:     -10.7      0.000      0.000
REMARK SMILES O=C(NCCCCCCNC(=O)[C@@H]1CCC[N@@H+](Cc2nccn2C(F)F)C1)c1ccc(-c2c3nc(c(-c4ccc(S(=O)(=O)[O-])cc4)c4ccc([nH]4)c(-c4ccc(S(=O)(=O)[O-])cc4)c4nc(c(-c5ccc(S(=O)(=O)[O-])cc5)c5ccc2[nH]5)C=C4)C=C3)cc1
REMARK SMILES IDX 6 1 5 2 4 3 3 4 1 5 2 6 28 8 29 9 87 10 30 11 86 12 31 13
REMARK SMILES IDX 32 14 33 15 80 16 34 17 85 18 79 19 81 20 35 21 84 22 78 23
REMARK SMILES IDX 77 24 36 26 66 27 47 28 65 29 48 30 51 31 64 32 82 33 49 34
REMARK SMILES IDX 50 35 63 37 83 38 52 39 37 40 38 41 46 42 39 43 45 44 40 45
REMARK SMILES IDX 41 46 42 47 43 48 44 49 67 50 68 51 76 52 69 53 75 54 70 55
REMARK SMILES IDX 71 56 72 57 73 58 74 59 53 60 54 61 62 62 55 63 61 64 56 65
REMARK SMILES IDX 57 66 58 67 59 68 60 69 7 70 8 71 9 72 10 73 11 74 12 76
REMARK SMILES IDX 13 77 14 78 27 79 15 80 17 81 16 82 18 84 19 85 20 86 23 87
REMARK SMILES IDX 21 88 22 89 24 90 25 91 26 92
REMARK H PARENT 3 7 81 25 51 36 10 75 17 83
REMARK Flexibility Score: inf
ROOT
ATOM      1  C   UNL A   1      41.123  21.476  27.499  1.00  0.00     0.002 C 
ENDROOT
BRANCH   1   2
ATOM      2  C   UNL A   1      41.244  20.426  26.391  1.00  0.00     0.021 C 
BRANCH   2   3
ATOM      3  C   UNL A   1      42.638  19.820  26.238  1.00  0.00     0.116 C 
BRANCH   3   4
ATOM      4  N   UNL A   1      43.409  20.371  25.142  1.00  0.00    -0.352 N 
ATOM      5  O   UNL A   1      44.648  21.645  23.838  1.00  0.00    -0.269 OA
ATOM      6  C   UNL A   1      43.998  21.577  24.886  1.00  0.00     0.251 C 
ATOM      7  H   UNL A   1      43.539  19.725  24.411  1.00  0.00     0.163 HD
BRANCH   6   8
ATOM      8  C   UNL A   1      43.861  22.796  25.729  1.00  0.00     0.039 A 
ATOM      9  C   UNL A   1      44.472  23.008  26.966  1.00  0.00     0.014 A 
ATOM     10  C   UNL A   1      43.021  23.801  25.215  1.00  0.00     0.014 A 
ATOM     11  C   UNL A   1      44.179  24.146  27.713  1.00  0.00     0.010 A 
ATOM     12  C   UNL A   1      42.742  24.951  25.945  1.00  0.00     0.010 A 
ATOM     13  C   UNL A   1      43.296  25.106  27.211  1.00  0.00    -0.014 A 
BRANCH  13  14
ATOM     14  C   UNL A   1      43.095  26.331  27.979  1.00  0.00     0.031 A 
ATOM     15  C   UNL A   1      44.168  27.354  27.820  1.00  0.00     0.074 A 
ATOM     16  C   UNL A   1      41.958  26.614  28.647  1.00  0.00     0.049 A 
ATOM     17  N   UNL A   1      44.965  27.832  28.720  1.00  0.00    -0.248 NA
ATOM     18  C   UNL A   1      44.461  27.823  26.456  1.00  0.00     0.031 C 
ATOM     19  C   UNL A   1      40.705  25.857  28.640  1.00  0.00     0.029 A 
ATOM     20  N   UNL A   1      41.646  27.721  29.381  1.00  0.00    -0.354 N 
ATOM     21  C   UNL A   1      45.724  28.811  28.082  1.00  0.00     0.074 A 
ATOM     22  C   UNL A   1      45.484  28.649  26.670  1.00  0.00     0.031 C 
ATOM     23  C   UNL A   1      39.713  26.637  29.127  1.00  0.00     0.029 A 
ATOM     24  C   UNL A   1      40.284  27.887  29.601  1.00  0.00     0.049 A 
ATOM     25  H   UNL A   1      42.325  28.346  29.723  1.00  0.00     0.167 HD
ATOM     26  C   UNL A   1      46.317  29.831  28.764  1.00  0.00     0.031 A 
ATOM     27  C   UNL A   1      39.662  29.000  30.069  1.00  0.00     0.031 A 
ATOM     28  C   UNL A   1      46.383  29.565  30.178  1.00  0.00     0.049 A 
ATOM     29  C   UNL A   1      40.682  29.826  30.756  1.00  0.00     0.074 A 
ATOM     30  C   UNL A   1      46.961  28.593  30.968  1.00  0.00     0.029 A 
ATOM     31  N   UNL A   1      45.471  30.212  30.978  1.00  0.00    -0.354 N 
ATOM     32  N   UNL A   1      41.277  29.470  31.860  1.00  0.00    -0.248 NA
ATOM     33  C   UNL A   1      41.353  30.869  29.996  1.00  0.00     0.031 C 
ATOM     34  C   UNL A   1      46.040  28.393  32.037  1.00  0.00     0.029 A 
ATOM     35  C   UNL A   1      44.984  29.291  31.865  1.00  0.00     0.049 A 
ATOM     36  H   UNL A   1      45.217  31.161  30.924  1.00  0.00     0.167 HD
ATOM     37  C   UNL A   1      42.583  29.916  31.720  1.00  0.00     0.074 A 
ATOM     38  C   UNL A   1      42.542  30.859  30.604  1.00  0.00     0.031 C 
ATOM     39  C   UNL A   1      43.617  29.276  32.340  1.00  0.00     0.031 A 
BRANCH  26  40
ATOM     40  C   UNL A   1      46.448  31.240  28.222  1.00  0.00    -0.014 A 
ATOM     41  C   UNL A   1      45.283  32.031  28.109  1.00  0.00     0.010 A 
ATOM     42  C   UNL A   1      47.593  31.697  27.538  1.00  0.00     0.010 A 
ATOM     43  C   UNL A   1      45.235  33.140  27.253  1.00  0.00     0.020 A 
ATOM     44  C   UNL A   1      47.569  32.830  26.723  1.00  0.00     0.020 A 
ATOM     45  C   UNL A   1      46.375  33.515  26.546  1.00  0.00     0.054 A 
BRANCH  45  46
ATOM     46  S   UNL A   1      46.264  34.842  25.323  1.00  0.00     0.124 S 
ATOM     47  O   UNL A   1      47.640  34.925  24.848  1.00  0.00    -0.237 OA
ATOM     48  O   UNL A   1      45.293  34.306  24.373  1.00  0.00    -0.237 OA
ATOM     49  O   UNL A   1      45.798  35.987  26.104  1.00  0.00    -0.744 OA
ENDBRANCH  45  46
ENDBRANCH  26  40
BRANCH  27  50
ATOM     50  C   UNL A   1      38.331  29.533  29.683  1.00  0.00    -0.014 A 
ATOM     51  C   UNL A   1      37.489  30.150  30.627  1.00  0.00     0.010 A 
ATOM     52  C   UNL A   1      38.005  29.685  28.319  1.00  0.00     0.010 A 
ATOM     53  C   UNL A   1      36.398  30.939  30.219  1.00  0.00     0.020 A 
ATOM     54  C   UNL A   1      36.916  30.460  27.905  1.00  0.00     0.020 A 
ATOM     55  C   UNL A   1      36.131  31.106  28.857  1.00  0.00     0.054 A 
BRANCH  55  56
ATOM     56  S   UNL A   1      34.834  32.266  28.330  1.00  0.00     0.124 S 
ATOM     57  O   UNL A   1      33.958  31.413  27.534  1.00  0.00    -0.237 OA
ATOM     58  O   UNL A   1      34.284  32.729  29.601  1.00  0.00    -0.237 OA
ATOM     59  O   UNL A   1      35.568  33.279  27.571  1.00  0.00    -0.744 OA
ENDBRANCH  55  56
ENDBRANCH  27  50
BRANCH  39  60
ATOM     60  C   UNL A   1      43.305  28.284  33.433  1.00  0.00    -0.014 A 
ATOM     61  C   UNL A   1      43.020  28.650  34.763  1.00  0.00     0.010 A 
ATOM     62  C   UNL A   1      43.137  26.940  33.054  1.00  0.00     0.010 A 
ATOM     63  C   UNL A   1      42.598  27.687  35.693  1.00  0.00     0.020 A 
ATOM     64  C   UNL A   1      42.699  25.982  33.971  1.00  0.00     0.020 A 
ATOM     65  C   UNL A   1      42.438  26.359  35.289  1.00  0.00     0.054 A 
BRANCH  65  66
ATOM     66  S   UNL A   1      41.829  25.128  36.475  1.00  0.00     0.124 S 
ATOM     67  O   UNL A   1      42.780  25.256  37.579  1.00  0.00    -0.237 OA
ATOM     68  O   UNL A   1      40.472  25.599  36.761  1.00  0.00    -0.237 OA
ATOM     69  O   UNL A   1      41.896  23.871  35.743  1.00  0.00    -0.744 OA
ENDBRANCH  65  66
ENDBRANCH  39  60
ENDBRANCH  13  14
ENDBRANCH   6   8
ENDBRANCH   3   4
ENDBRANCH   2   3
ENDBRANCH   1   2
BRANCH   1  70
ATOM     70  C   UNL A   1      40.042  22.546  27.288  1.00  0.00     0.002 C 
BRANCH  70  71
ATOM     71  C   UNL A   1      39.378  22.541  25.906  1.00  0.00     0.021 C 
BRANCH  71  72
ATOM     72  C   UNL A   1      37.977  23.147  25.908  1.00  0.00     0.116 C 
BRANCH  72  73
ATOM     73  N   UNL A   1      37.366  23.166  24.604  1.00  0.00    -0.356 N 
ATOM     74  C   UNL A   1      36.097  22.913  24.207  1.00  0.00     0.228 C 
ATOM     75  H   UNL A   1      37.979  23.405  23.873  1.00  0.00     0.163 HD
ATOM     76  O   UNL A   1      35.853  23.139  23.013  1.00  0.00    -0.275 OA
BRANCH  74  77
ATOM     77  C   UNL A   1      35.003  22.282  25.076  1.00  0.00     0.133 C 
ATOM     78  C   UNL A   1      34.595  20.814  24.929  1.00  0.00     0.025 C 
ATOM     79  C   UNL A   1      33.806  23.222  25.173  1.00  0.00     0.276 C 
ATOM     80  C   UNL A   1      33.288  20.534  24.171  1.00  0.00     0.062 C 
ATOM     81  N   UNL A   1      32.851  23.014  24.076  1.00  0.00    -0.328 N 
ATOM     82  C   UNL A   1      32.268  21.670  24.155  1.00  0.00     0.262 C 
ATOM     83  H   UNL A   1      33.337  23.071  23.180  1.00  0.00     0.348 HD
BRANCH  81  84
ATOM     84  C   UNL A   1      31.827  24.086  24.084  1.00  0.00     0.339 C 
BRANCH  84  85
ATOM     85  C   UNL A   1      32.191  25.297  23.263  1.00  0.00     0.168 A 
ATOM     86  N   UNL A   1      33.005  25.288  22.219  1.00  0.00    -0.236 NA
ATOM     87  N   UNL A   1      31.843  26.593  23.577  1.00  0.00    -0.273 N 
ATOM     88  C   UNL A   1      33.286  26.597  21.940  1.00  0.00     0.131 A 
ATOM     89  C   UNL A   1      32.582  27.426  22.773  1.00  0.00     0.113 A 
BRANCH  87  90
ATOM     90  C   UNL A   1      30.929  27.049  24.603  1.00  0.00     0.450 C 
ATOM     91  F   UNL A   1      31.548  27.903  25.458  1.00  0.00    -0.185 F 
ATOM     92  F   UNL A   1      29.893  27.735  24.048  1.00  0.00    -0.185 F 
ENDBRANCH  87  90
ENDBRANCH  84  85
ENDBRANCH  81  84
ENDBRANCH  74  77
ENDBRANCH  72  73
ENDBRANCH  71  72
ENDBRANCH  70  71
ENDBRANCH   1  70
TORSDOF 19
ENDMDL
MODEL 2
REMARK VINA RESULT:     -10.6      1.316      1.832
REMARK SMILES O=C(NCCCCCCNC(=O)[C@@H]1CCC[N@@H+](Cc2nccn2C(F)F)C1)c1ccc(-c2c3nc(c(-c4ccc(S(=O)(=O)[O-])cc4)c4ccc([nH]4)c(-c4ccc(S(=O)(=O)[O-])cc4)c4nc(c(-c5ccc(S(=O)(=O)[O-])cc5)c5ccc2[nH]5)C=C4)C=C3)cc1
REMARK SMILES IDX 6 1 5 2 4 3 3 4 1 5 2 6 28 8 29 9 87 10 30 11 86 12 31 13
REMARK SMILES IDX 32 14 33 15 80 16 34 17 85 18 79 19 81 20 35 21 84 22 78 23
REMARK SMILES IDX 77 24 36 26 66 27 47 28 65 29 48 30 51 31 64 32 82 33 49 34
REMARK SMILES IDX 50 35 63 37 83 38 52 39 37 40 38 41 46 42 39 43 45 44 40 45
REMARK SMILES IDX 41 46 42 47 43 48 44 49 67 50 68 51 76 52 69 53 75 54 70 55
REMARK SMILES IDX 71 56 72 57 73 58 74 59 53 60 54 61 62 62 55 63 61 64 56 65
REMARK SMILES IDX 57 66 58 67 59 68 60 69 7 70 8 71 9 72 10 73 11 74 12 76
REMARK SMILES IDX 13 77 14 78 27 79 15 80 17 81 16 82 18 84 19 85 20 86 23 87
REMARK SMILES IDX 21 88 22 89 24 90 25 91 26 92
REMARK H PARENT 3 7 81 25 51 36 10 75 17 83
REMARK Flexibility Score: inf
ROOT
ATOM      1  C   UNL A   1      39.671  21.827  26.382  1.00  0.00     0.002 C 
ENDROOT
BRANCH   1   2
ATOM      2  C   UNL A   1      40.785  21.442  27.360  1.00  0.00     0.021 C 
BRANCH   2   3
ATOM      3  C   UNL A   1      41.923  20.631  26.742  1.00  0.00     0.116 C 
BRANCH   3   4
ATOM      4  N   UNL A   1      42.515  21.236  25.567  1.00  0.00    -0.352 N 
ATOM      5  O   UNL A   1      43.506  22.592  24.140  1.00  0.00    -0.269 OA
ATOM      6  C   UNL A   1      43.002  22.476  25.261  1.00  0.00     0.251 C 
ATOM      7  H   UNL A   1      42.582  20.608  24.813  1.00  0.00     0.163 HD
BRANCH   6   8
ATOM      8  C   UNL A   1      42.913  23.675  26.139  1.00  0.00     0.039 A 
ATOM      9  C   UNL A   1      43.417  23.779  27.436  1.00  0.00     0.014 A 
ATOM     10  C   UNL A   1      42.238  24.782  25.591  1.00  0.00     0.014 A 
ATOM     11  C   UNL A   1      43.174  24.918  28.200  1.00  0.00     0.010 A 
ATOM     12  C   UNL A   1      42.012  25.931  26.339  1.00  0.00     0.010 A 
ATOM     13  C   UNL A   1      42.452  25.984  27.658  1.00  0.00    -0.014 A 
BRANCH  13  14
ATOM     14  C   UNL A   1      42.307  27.198  28.455  1.00  0.00     0.031 A 
ATOM     15  C   UNL A   1      43.451  28.149  28.362  1.00  0.00     0.074 A 
ATOM     16  C   UNL A   1      41.169  27.540  29.093  1.00  0.00     0.049 A 
ATOM     17  N   UNL A   1      44.246  28.547  29.302  1.00  0.00    -0.248 NA
ATOM     18  C   UNL A   1      43.823  28.635  27.023  1.00  0.00     0.031 C 
ATOM     19  C   UNL A   1      39.868  26.871  29.022  1.00  0.00     0.029 A 
ATOM     20  N   UNL A   1      40.907  28.645  29.849  1.00  0.00    -0.354 N 
ATOM     21  C   UNL A   1      45.092  29.489  28.719  1.00  0.00     0.074 A 
ATOM     22  C   UNL A   1      44.891  29.383  27.296  1.00  0.00     0.031 C 
ATOM     23  C   UNL A   1      38.915  27.703  29.499  1.00  0.00     0.029 A 
ATOM     24  C   UNL A   1      39.551  28.898  30.029  1.00  0.00     0.049 A 
ATOM     25  H   UNL A   1      41.614  29.213  30.232  1.00  0.00     0.167 HD
ATOM     26  C   UNL A   1      45.728  30.447  29.451  1.00  0.00     0.031 A 
ATOM     27  C   UNL A   1      38.990  30.037  30.509  1.00  0.00     0.031 A 
ATOM     28  C   UNL A   1      45.726  30.139  30.857  1.00  0.00     0.049 A 
ATOM     29  C   UNL A   1      40.039  30.772  31.254  1.00  0.00     0.074 A 
ATOM     30  C   UNL A   1      46.209  29.108  31.637  1.00  0.00     0.029 A 
ATOM     31  N   UNL A   1      44.832  30.824  31.646  1.00  0.00    -0.354 N 
ATOM     32  N   UNL A   1      40.569  30.346  32.365  1.00  0.00    -0.248 NA
ATOM     33  C   UNL A   1      40.805  31.787  30.547  1.00  0.00     0.031 C 
ATOM     34  C   UNL A   1      45.239  28.942  32.668  1.00  0.00     0.029 A 
ATOM     35  C   UNL A   1      44.253  29.914  32.489  1.00  0.00     0.049 A 
ATOM     36  H   UNL A   1      44.644  31.790  31.612  1.00  0.00     0.167 HD
ATOM     37  C   UNL A   1      41.906  30.705  32.282  1.00  0.00     0.074 A 
ATOM     38  C   UNL A   1      41.968  31.680  31.194  1.00  0.00     0.031 C 
ATOM     39  C   UNL A   1      42.873  29.979  32.917  1.00  0.00     0.031 A 
BRANCH  26  40
ATOM     40  C   UNL A   1      45.972  31.858  28.956  1.00  0.00    -0.014 A 
ATOM     41  C   UNL A   1      44.862  32.713  28.777  1.00  0.00     0.010 A 
ATOM     42  C   UNL A   1      47.188  32.267  28.370  1.00  0.00     0.010 A 
ATOM     43  C   UNL A   1      44.936  33.841  27.949  1.00  0.00     0.020 A 
ATOM     44  C   UNL A   1      47.284  33.417  27.584  1.00  0.00     0.020 A 
ATOM     45  C   UNL A   1      46.144  34.169  27.337  1.00  0.00     0.054 A 
BRANCH  45  46
ATOM     46  S   UNL A   1      46.193  35.526  26.143  1.00  0.00     0.124 S 
ATOM     47  O   UNL A   1      47.489  36.131  26.434  1.00  0.00    -0.237 OA
ATOM     48  O   UNL A   1      46.092  34.821  24.869  1.00  0.00    -0.237 OA
ATOM     49  O   UNL A   1      45.027  36.335  26.498  1.00  0.00    -0.744 OA
ENDBRANCH  45  46
ENDBRANCH  26  40
BRANCH  27  50
ATOM     50  C   UNL A   1      37.712  30.670  30.095  1.00  0.00    -0.014 A 
ATOM     51  C   UNL A   1      36.760  31.084  31.045  1.00  0.00     0.010 A 
ATOM     52  C   UNL A   1      37.551  31.124  28.769  1.00  0.00     0.010 A 
ATOM     53  C   UNL A   1      35.722  31.966  30.694  1.00  0.00     0.020 A 
ATOM     54  C   UNL A   1      36.516  31.994  28.410  1.00  0.00     0.020 A 
ATOM     55  C   UNL A   1      35.619  32.432  29.381  1.00  0.00     0.054 A 
BRANCH  55  56
ATOM     56  S   UNL A   1      34.390  33.708  28.972  1.00  0.00     0.124 S 
ATOM     57  O   UNL A   1      35.224  34.789  28.456  1.00  0.00    -0.237 OA
ATOM     58  O   UNL A   1      33.545  33.035  27.990  1.00  0.00    -0.237 OA
ATOM     59  O   UNL A   1      33.742  33.985  30.254  1.00  0.00    -0.744 OA
ENDBRANCH  55  56
ENDBRANCH  27  50
BRANCH  39  60
ATOM     60  C   UNL A   1      42.456  28.981  33.969  1.00  0.00    -0.014 A 
ATOM     61  C   UNL A   1      41.898  27.722  33.675  1.00  0.00     0.010 A 
ATOM     62  C   UNL A   1      42.793  29.273  35.303  1.00  0.00     0.010 A 
ATOM     63  C   UNL A   1      41.667  26.788  34.697  1.00  0.00     0.020 A 
ATOM     64  C   UNL A   1      42.583  28.340  36.320  1.00  0.00     0.020 A 
ATOM     65  C   UNL A   1      42.014  27.104  36.013  1.00  0.00     0.054 A 
BRANCH  65  66
ATOM     66  S   UNL A   1      41.776  25.871  37.323  1.00  0.00     0.124 S 
ATOM     67  O   UNL A   1      42.057  24.613  36.629  1.00  0.00    -0.237 OA
ATOM     68  O   UNL A   1      42.769  26.266  38.324  1.00  0.00    -0.237 OA
ATOM     69  O   UNL A   1      40.391  26.055  37.733  1.00  0.00    -0.744 OA
ENDBRANCH  65  66
ENDBRANCH  39  60
ENDBRANCH  13  14
ENDBRANCH   6   8
ENDBRANCH   3   4
ENDBRANCH   2   3
ENDBRANCH   1   2
BRANCH   1  70
ATOM     70  C   UNL A   1      39.156  23.269  26.493  1.00  0.00     0.002 C 
BRANCH  70  71
ATOM     71  C   UNL A   1      37.667  23.457  26.184  1.00  0.00     0.021 C 
BRANCH  71  72
ATOM     72  C   UNL A   1      37.061  22.290  25.407  1.00  0.00     0.116 C 
BRANCH  72  73
ATOM     73  N   UNL A   1      36.582  22.666  24.102  1.00  0.00    -0.356 N 
ATOM     74  C   UNL A   1      35.327  22.847  23.628  1.00  0.00     0.228 C 
ATOM     75  H   UNL A   1      37.292  22.820  23.439  1.00  0.00     0.163 HD
ATOM     76  O   UNL A   1      35.249  23.299  22.476  1.00  0.00    -0.275 OA
BRANCH  74  77
ATOM     77  C   UNL A   1      34.037  22.441  24.350  1.00  0.00     0.133 C 
ATOM     78  C   UNL A   1      32.953  21.605  23.667  1.00  0.00     0.025 C 
ATOM     79  C   UNL A   1      33.471  23.633  25.116  1.00  0.00     0.276 C 
ATOM     80  C   UNL A   1      31.707  22.358  23.177  1.00  0.00     0.062 C 
ATOM     81  N   UNL A   1      32.576  24.449  24.283  1.00  0.00    -0.328 N 
ATOM     82  C   UNL A   1      31.395  23.671  23.891  1.00  0.00     0.262 C 
ATOM     83  H   UNL A   1      33.053  24.713  23.421  1.00  0.00     0.348 HD
BRANCH  81  84
ATOM     84  C   UNL A   1      32.228  25.704  24.991  1.00  0.00     0.339 C 
BRANCH  84  85
ATOM     85  C   UNL A   1      31.483  26.706  24.147  1.00  0.00     0.168 A 
ATOM     86  N   UNL A   1      30.214  27.042  24.314  1.00  0.00    -0.236 NA
ATOM     87  N   UNL A   1      31.979  27.293  23.003  1.00  0.00    -0.273 N 
ATOM     88  C   UNL A   1      29.853  27.746  23.199  1.00  0.00     0.131 A 
ATOM     89  C   UNL A   1      30.929  27.911  22.368  1.00  0.00     0.113 A 
BRANCH  87  90
ATOM     90  C   UNL A   1      33.329  27.240  22.484  1.00  0.00     0.450 C 
ATOM     91  F   UNL A   1      33.431  26.315  21.496  1.00  0.00    -0.185 F 
ATOM     92  F   UNL A   1      33.677  28.436  21.937  1.00  0.00    -0.185 F 
ENDBRANCH  87  90
ENDBRANCH  84  85
ENDBRANCH  81  84
ENDBRANCH  74  77
ENDBRANCH  72  73
ENDBRANCH  71  72
ENDBRANCH  70  71
ENDBRANCH   1  70
TORSDOF 19
ENDMDL
MODEL 3
REMARK VINA RESULT:     -10.6      2.714      9.441
REMARK SMILES O=C(NCCCCCCNC(=O)[C@@H]1CCC[N@@H+](Cc2nccn2C(F)F)C1)c1ccc(-c2c3nc(c(-c4ccc(S(=O)(=O)[O-])cc4)c4ccc([nH]4)c(-c4ccc(S(=O)(=O)[O-])cc4)c4nc(c(-c5ccc(S(=O)(=O)[O-])cc5)c5ccc2[nH]5)C=C4)C=C3)cc1
REMARK SMILES IDX 6 1 5 2 4 3 3 4 1 5 2 6 28 8 29 9 87 10 30 11 86 12 31 13
REMARK SMILES IDX 32 14 33 15 80 16 34 17 85 18 79 19 81 20 35 21 84 22 78 23
REMARK SMILES IDX 77 24 36 26 66 27 47 28 65 29 48 30 51 31 64 32 82 33 49 34
REMARK SMILES IDX 50 35 63 37 83 38 52 39 37 40 38 41 46 42 39 43 45 44 40 45
REMARK SMILES IDX 41 46 42 47 43 48 44 49 67 50 68 51 76 52 69 53 75 54 70 55
REMARK SMILES IDX 71 56 72 57 73 58 74 59 53 60 54 61 62 62 55 63 61 64 56 65
REMARK SMILES IDX 57 66 58 67 59 68 60 69 7 70 8 71 9 72 10 73 11 74 12 76
REMARK SMILES IDX 13 77 14 78 27 79 15 80 17 81 16 82 18 84 19 85 20 86 23 87
REMARK SMILES IDX 21 88 22 89 24 90 25 91 26 92
REMARK H PARENT 3 7 81 25 51 36 10 75 17 83
REMARK Flexibility Score: inf
ROOT
ATOM      1  C   UNL A   1      31.854  29.697  24.983  1.00  0.00     0.002 C 
ENDROOT
BRANCH   1   2
ATOM      2  C   UNL A   1      32.126  29.282  26.432  1.00  0.00     0.021 C 
BRANCH   2   3
ATOM      3  C   UNL A   1      33.546  29.562  26.919  1.00  0.00     0.116 C 
BRANCH   3   4
ATOM      4  N   UNL A   1      33.662  30.721  27.780  1.00  0.00    -0.352 N 
ATOM      5  O   UNL A   1      34.399  32.370  29.043  1.00  0.00    -0.269 OA
ATOM      6  C   UNL A   1      34.688  31.326  28.451  1.00  0.00     0.251 C 
ATOM      7  H   UNL A   1      32.802  31.180  27.912  1.00  0.00     0.163 HD
BRANCH   6   8
ATOM      8  C   UNL A   1      36.074  30.794  28.562  1.00  0.00     0.039 A 
ATOM      9  C   UNL A   1      36.487  29.507  28.211  1.00  0.00     0.014 A 
ATOM     10  C   UNL A   1      37.028  31.685  29.088  1.00  0.00     0.014 A 
ATOM     11  C   UNL A   1      37.792  29.091  28.465  1.00  0.00     0.010 A 
ATOM     12  C   UNL A   1      38.338  31.282  29.322  1.00  0.00     0.010 A 
ATOM     13  C   UNL A   1      38.709  29.972  29.042  1.00  0.00    -0.014 A 
BRANCH  13  14
ATOM     14  C   UNL A   1      40.092  29.528  29.198  1.00  0.00     0.031 A 
ATOM     15  C   UNL A   1      40.507  29.255  30.603  1.00  0.00     0.074 A 
ATOM     16  C   UNL A   1      40.895  29.215  28.162  1.00  0.00     0.049 A 
ATOM     17  N   UNL A   1      41.425  29.843  31.300  1.00  0.00    -0.248 NA
ATOM     18  C   UNL A   1      39.720  28.270  31.364  1.00  0.00     0.031 C 
ATOM     19  C   UNL A   1      40.536  29.131  26.744  1.00  0.00     0.029 A 
ATOM     20  N   UNL A   1      42.188  28.778  28.179  1.00  0.00    -0.354 N 
ATOM     21  C   UNL A   1      41.474  29.168  32.519  1.00  0.00     0.074 A 
ATOM     22  C   UNL A   1      40.306  28.326  32.560  1.00  0.00     0.031 C 
ATOM     23  C   UNL A   1      41.499  28.450  26.082  1.00  0.00     0.029 A 
ATOM     24  C   UNL A   1      42.595  28.171  26.996  1.00  0.00     0.049 A 
ATOM     25  H   UNL A   1      42.779  28.883  28.959  1.00  0.00     0.167 HD
ATOM     26  C   UNL A   1      42.584  29.175  33.311  1.00  0.00     0.031 A 
ATOM     27  C   UNL A   1      43.715  27.430  26.803  1.00  0.00     0.031 A 
ATOM     28  C   UNL A   1      43.501  30.221  32.939  1.00  0.00     0.049 A 
ATOM     29  C   UNL A   1      44.666  27.764  27.889  1.00  0.00     0.074 A 
ATOM     30  C   UNL A   1      43.444  31.598  32.869  1.00  0.00     0.029 A 
ATOM     31  N   UNL A   1      44.614  29.851  32.222  1.00  0.00    -0.354 N 
ATOM     32  N   UNL A   1      45.236  28.929  28.017  1.00  0.00    -0.248 NA
ATOM     33  C   UNL A   1      44.669  26.935  29.084  1.00  0.00     0.031 C 
ATOM     34  C   UNL A   1      44.233  31.940  31.732  1.00  0.00     0.029 A 
ATOM     35  C   UNL A   1      44.767  30.760  31.210  1.00  0.00     0.049 A 
ATOM     36  H   UNL A   1      45.194  29.076  32.403  1.00  0.00     0.167 HD
ATOM     37  C   UNL A   1      45.281  29.154  29.384  1.00  0.00     0.074 A 
ATOM     38  C   UNL A   1      45.016  27.851  29.991  1.00  0.00     0.031 C 
ATOM     39  C   UNL A   1      45.257  30.421  29.892  1.00  0.00     0.031 A 
BRANCH  26  40
ATOM     40  C   UNL A   1      43.038  27.986  34.131  1.00  0.00    -0.014 A 
ATOM     41  C   UNL A   1      43.363  28.188  35.491  1.00  0.00     0.010 A 
ATOM     42  C   UNL A   1      43.455  26.769  33.554  1.00  0.00     0.010 A 
ATOM     43  C   UNL A   1      44.171  27.281  36.190  1.00  0.00     0.020 A 
ATOM     44  C   UNL A   1      44.218  25.835  34.258  1.00  0.00     0.020 A 
ATOM     45  C   UNL A   1      44.614  26.122  35.557  1.00  0.00     0.054 A 
BRANCH  45  46
ATOM     46  S   UNL A   1      45.788  25.040  36.407  1.00  0.00     0.124 S 
ATOM     47  O   UNL A   1      45.619  25.452  37.796  1.00  0.00    -0.237 OA
ATOM     48  O   UNL A   1      45.284  23.712  36.071  1.00  0.00    -0.237 OA
ATOM     49  O   UNL A   1      47.073  25.387  35.799  1.00  0.00    -0.744 OA
ENDBRANCH  45  46
ENDBRANCH  26  40
BRANCH  27  50
ATOM     50  C   UNL A   1      43.882  26.235  25.936  1.00  0.00    -0.014 A 
ATOM     51  C   UNL A   1      45.150  25.840  25.470  1.00  0.00     0.010 A 
ATOM     52  C   UNL A   1      42.820  25.316  25.797  1.00  0.00     0.010 A 
ATOM     53  C   UNL A   1      45.360  24.554  24.940  1.00  0.00     0.020 A 
ATOM     54  C   UNL A   1      43.019  24.038  25.262  1.00  0.00     0.020 A 
ATOM     55  C   UNL A   1      44.295  23.653  24.859  1.00  0.00     0.054 A 
BRANCH  55  56
ATOM     56  S   UNL A   1      44.605  21.937  24.343  1.00  0.00     0.124 S 
ATOM     57  O   UNL A   1      46.009  21.754  24.702  1.00  0.00    -0.237 OA
ATOM     58  O   UNL A   1      43.644  21.184  25.143  1.00  0.00    -0.237 OA
ATOM     59  O   UNL A   1      44.331  21.955  22.907  1.00  0.00    -0.744 OA
ENDBRANCH  55  56
ENDBRANCH  27  50
BRANCH  39  60
ATOM     60  C   UNL A   1      45.508  31.581  28.959  1.00  0.00    -0.014 A 
ATOM     61  C   UNL A   1      46.781  32.135  28.725  1.00  0.00     0.010 A 
ATOM     62  C   UNL A   1      44.429  32.017  28.169  1.00  0.00     0.010 A 
ATOM     63  C   UNL A   1      46.962  33.116  27.738  1.00  0.00     0.020 A 
ATOM     64  C   UNL A   1      44.607  32.979  27.173  1.00  0.00     0.020 A 
ATOM     65  C   UNL A   1      45.873  33.529  26.967  1.00  0.00     0.054 A 
BRANCH  65  66
ATOM     66  S   UNL A   1      46.120  34.749  25.647  1.00  0.00     0.124 S 
ATOM     67  O   UNL A   1      47.531  34.561  25.303  1.00  0.00    -0.237 OA
ATOM     68  O   UNL A   1      45.165  34.317  24.624  1.00  0.00    -0.237 OA
ATOM     69  O   UNL A   1      45.802  36.022  26.279  1.00  0.00    -0.744 OA
ENDBRANCH  65  66
ENDBRANCH  39  60
ENDBRANCH  13  14
ENDBRANCH   6   8
ENDBRANCH   3   4
ENDBRANCH   2   3
ENDBRANCH   1   2
BRANCH   1  70
ATOM     70  C   UNL A   1      30.510  29.239  24.399  1.00  0.00     0.002 C 
BRANCH  70  71
ATOM     71  C   UNL A   1      30.412  29.284  22.870  1.00  0.00     0.021 C 
BRANCH  71  72
ATOM     72  C   UNL A   1      30.512  27.907  22.219  1.00  0.00     0.116 C 
BRANCH  72  73
ATOM     73  N   UNL A   1      31.852  27.567  21.816  1.00  0.00    -0.356 N 
ATOM     74  C   UNL A   1      32.684  26.579  22.219  1.00  0.00     0.228 C 
ATOM     75  H   UNL A   1      32.228  28.156  21.124  1.00  0.00     0.163 HD
ATOM     76  O   UNL A   1      33.742  26.474  21.582  1.00  0.00    -0.275 OA
BRANCH  74  77
ATOM     77  C   UNL A   1      32.468  25.679  23.442  1.00  0.00     0.133 C 
ATOM     78  C   UNL A   1      32.714  26.174  24.869  1.00  0.00     0.025 C 
ATOM     79  C   UNL A   1      33.060  24.297  23.185  1.00  0.00     0.276 C 
ATOM     80  C   UNL A   1      34.019  25.720  25.541  1.00  0.00     0.062 C 
ATOM     81  N   UNL A   1      34.478  24.226  23.565  1.00  0.00    -0.328 N 
ATOM     82  C   UNL A   1      34.629  24.425  25.010  1.00  0.00     0.262 C 
ATOM     83  H   UNL A   1      34.995  24.978  23.109  1.00  0.00     0.348 HD
BRANCH  81  84
ATOM     84  C   UNL A   1      35.065  22.948  23.096  1.00  0.00     0.339 C 
BRANCH  84  85
ATOM     85  C   UNL A   1      35.987  22.287  24.089  1.00  0.00     0.168 A 
ATOM     86  N   UNL A   1      37.237  22.654  24.323  1.00  0.00    -0.236 NA
ATOM     87  N   UNL A   1      35.700  21.127  24.775  1.00  0.00    -0.273 N 
ATOM     88  C   UNL A   1      37.799  21.651  25.062  1.00  0.00     0.131 A 
ATOM     89  C   UNL A   1      36.868  20.689  25.351  1.00  0.00     0.113 A 
BRANCH  87  90
ATOM     90  C   UNL A   1      34.439  20.420  24.848  1.00  0.00     0.450 C 
ATOM     91  F   UNL A   1      34.592  19.120  24.488  1.00  0.00    -0.185 F 
ATOM     92  F   UNL A   1      33.967  20.419  26.124  1.00  0.00    -0.185 F 
ENDBRANCH  87  90
ENDBRANCH  84  85
ENDBRANCH  81  84
ENDBRANCH  74  77
ENDBRANCH  72  73
ENDBRANCH  71  72
ENDBRANCH  70  71
ENDBRANCH   1  70
TORSDOF 19
ENDMDL
