MODEL 1
REMARK VINA RESULT:     -11.5      0.000      0.000
REMARK SMILES Cc1c[nH]c(C[N@@H+](C)[C@@H](C(=O)NCCCCCCNC(=O)c2ccc(-c3c4nc(c(-c5ccc(S(=O)(=O)[O-])cc5)c5ccc([nH]5)c(-c5ccc(S(=O)(=O)[O-])cc5)c5nc(c(-c6ccc(S(=O)(=O)[O-])cc6)c6ccc3[nH]6)C=C5)C=C4)cc2)c2ccc(NC(=O)N3CCCC3)cc2)n1
REMARK SMILES IDX 15 1 14 2 13 3 12 4 10 5 11 6 9 8 7 9 8 10 6 12 5 13 1 14
REMARK SMILES IDX 2 15 3 16 96 17 4 18 82 20 83 21 95 22 84 23 94 24 85 25
REMARK SMILES IDX 86 26 87 27 88 29 89 30 90 31 93 32 91 33 92 34 16 35 17 36
REMARK SMILES IDX 18 37 19 38 20 39 21 41 22 42 23 43 81 44 24 45 80 46 25 47
REMARK SMILES IDX 26 48 27 49 74 50 28 51 79 52 73 53 75 54 29 55 78 56 72 57
REMARK SMILES IDX 71 58 30 60 60 61 41 62 59 63 42 64 45 65 58 66 76 67 43 68
REMARK SMILES IDX 44 69 57 71 77 72 46 73 31 74 32 75 40 76 33 77 39 78 34 79
REMARK SMILES IDX 35 80 36 81 37 82 38 83 61 84 62 85 70 86 63 87 69 88 64 89
REMARK SMILES IDX 65 90 66 91 67 92 68 93 47 94 48 95 56 96 49 97 55 98 50 99
REMARK SMILES IDX 51 100 52 101 53 102 54 103
REMARK H PARENT 12 7 7 11 4 19 86 28 19 40 75 59 45 70
REMARK Flexibility Score: inf
ROOT
ATOM      1  C   UNL A   1      38.292  20.903  25.281  1.00  0.00     0.002 C 
ENDROOT
BRANCH   1   2
ATOM      2  C   UNL A   1      36.904  21.124  24.670  1.00  0.00     0.021 C 
BRANCH   2   3
ATOM      3  C   UNL A   1      36.089  22.210  25.379  1.00  0.00     0.116 C 
BRANCH   3   4
ATOM      4  N   UNL A   1      35.411  21.624  26.514  1.00  0.00    -0.351 N 
ATOM      5  C   UNL A   1      34.119  21.835  26.912  1.00  0.00     0.283 C 
ATOM      6  O   UNL A   1      33.886  21.711  28.122  1.00  0.00    -0.268 OA
ATOM      7  H   UNL A   1      35.938  21.001  27.064  1.00  0.00     0.163 HD
BRANCH   5   8
ATOM      8  C   UNL A   1      33.012  22.162  25.852  1.00  0.00     0.305 C 
BRANCH   8   9
ATOM      9  N   UNL A   1      33.194  21.372  24.603  1.00  0.00    -0.317 N 
ATOM     10  C   UNL A   1      33.428  22.147  23.400  1.00  0.00     0.334 C 
ATOM     11  H   UNL A   1      34.078  20.916  24.834  1.00  0.00     0.349 HD
BRANCH   9  12
ATOM     12  C   UNL A   1      32.274  20.250  24.362  1.00  0.00     0.339 C 
BRANCH  12  13
ATOM     13  C   UNL A   1      32.870  18.918  24.692  1.00  0.00     0.161 A 
ATOM     14  C   UNL A   1      32.773  15.466  25.516  1.00  0.00     0.068 C 
ATOM     15  C   UNL A   1      33.178  16.855  25.217  1.00  0.00     0.056 A 
ATOM     16  C   UNL A   1      34.426  17.361  24.930  1.00  0.00     0.107 A 
ATOM     17  N   UNL A   1      32.236  17.850  25.143  1.00  0.00    -0.233 NA
ATOM     18  N   UNL A   1      34.211  18.662  24.562  1.00  0.00    -0.344 N 
ATOM     19  H   UNL A   1      34.897  19.299  24.257  1.00  0.00     0.167 HD
ENDBRANCH  12  13
ENDBRANCH   9  12
ENDBRANCH   8   9
BRANCH   8  20
ATOM     20  C   UNL A   1      32.925  23.674  25.571  1.00  0.00     0.019 A 
ATOM     21  C   UNL A   1      34.062  24.493  25.533  1.00  0.00     0.012 A 
ATOM     22  C   UNL A   1      31.687  24.284  25.317  1.00  0.00     0.012 A 
ATOM     23  C   UNL A   1      33.993  25.768  24.977  1.00  0.00     0.027 A 
ATOM     24  C   UNL A   1      31.625  25.554  24.739  1.00  0.00     0.027 A 
ATOM     25  C   UNL A   1      32.802  26.228  24.427  1.00  0.00     0.042 A 
BRANCH  25  26
ATOM     26  N   UNL A   1      32.733  27.314  23.537  1.00  0.00    -0.308 N 
ATOM     27  C   UNL A   1      32.387  28.616  23.744  1.00  0.00     0.321 C 
ATOM     28  H   UNL A   1      32.975  27.098  22.608  1.00  0.00     0.171 HD
ATOM     29  O   UNL A   1      31.989  29.280  22.783  1.00  0.00    -0.248 OA
ATOM     30  N   UNL A   1      32.489  29.165  24.991  1.00  0.00    -0.325 N 
ATOM     31  C   UNL A   1      33.582  29.018  25.935  1.00  0.00     0.121 C 
ATOM     32  C   UNL A   1      31.658  30.276  25.388  1.00  0.00     0.121 C 
ATOM     33  C   UNL A   1      32.943  29.381  27.261  1.00  0.00     0.023 C 
ATOM     34  C   UNL A   1      31.903  30.441  26.889  1.00  0.00     0.023 C 
ENDBRANCH  25  26
ENDBRANCH   8  20
ENDBRANCH   5   8
ENDBRANCH   3   4
ENDBRANCH   2   3
ENDBRANCH   1   2
BRANCH   1  35
ATOM     35  C   UNL A   1      38.871  22.121  26.004  1.00  0.00     0.002 C 
BRANCH  35  36
ATOM     36  C   UNL A   1      40.203  21.869  26.713  1.00  0.00     0.021 C 
BRANCH  36  37
ATOM     37  C   UNL A   1      40.910  23.135  27.191  1.00  0.00     0.116 C 
BRANCH  37  38
ATOM     38  N   UNL A   1      41.622  23.795  26.108  1.00  0.00    -0.352 N 
ATOM     39  C   UNL A   1      41.847  25.133  25.916  1.00  0.00     0.251 C 
ATOM     40  H   UNL A   1      41.991  23.198  25.418  1.00  0.00     0.163 HD
ATOM     41  O   UNL A   1      42.249  25.539  24.825  1.00  0.00    -0.269 OA
BRANCH  39  42
ATOM     42  C   UNL A   1      41.597  26.082  27.018  1.00  0.00     0.039 A 
ATOM     43  C   UNL A   1      40.529  25.850  27.887  1.00  0.00     0.014 A 
ATOM     44  C   UNL A   1      42.421  27.199  27.192  1.00  0.00     0.014 A 
ATOM     45  C   UNL A   1      40.320  26.713  28.965  1.00  0.00     0.010 A 
ATOM     46  C   UNL A   1      42.256  28.012  28.308  1.00  0.00     0.010 A 
ATOM     47  C   UNL A   1      41.200  27.783  29.202  1.00  0.00    -0.014 A 
BRANCH  47  48
ATOM     48  C   UNL A   1      41.028  28.670  30.381  1.00  0.00     0.031 A 
ATOM     49  C   UNL A   1      41.910  28.502  31.589  1.00  0.00     0.074 A 
ATOM     50  C   UNL A   1      40.043  29.590  30.384  1.00  0.00     0.049 A 
ATOM     51  N   UNL A   1      41.884  29.151  32.724  1.00  0.00    -0.248 NA
ATOM     52  C   UNL A   1      42.942  27.454  31.522  1.00  0.00     0.031 C 
ATOM     53  C   UNL A   1      39.097  29.822  29.289  1.00  0.00     0.029 A 
ATOM     54  N   UNL A   1      39.670  30.500  31.341  1.00  0.00    -0.354 N 
ATOM     55  C   UNL A   1      42.881  28.583  33.509  1.00  0.00     0.074 A 
ATOM     56  C   UNL A   1      43.459  27.503  32.742  1.00  0.00     0.031 C 
ATOM     57  C   UNL A   1      38.273  30.828  29.625  1.00  0.00     0.029 A 
ATOM     58  C   UNL A   1      38.601  31.283  30.972  1.00  0.00     0.049 A 
ATOM     59  H   UNL A   1      40.124  30.583  32.211  1.00  0.00     0.167 HD
ATOM     60  C   UNL A   1      43.292  28.942  34.748  1.00  0.00     0.031 A 
ATOM     61  C   UNL A   1      37.951  32.253  31.645  1.00  0.00     0.031 A 
ATOM     62  C   UNL A   1      42.719  30.024  35.505  1.00  0.00     0.049 A 
ATOM     63  C   UNL A   1      38.414  32.618  33.029  1.00  0.00     0.074 A 
ATOM     64  C   UNL A   1      43.102  30.502  36.745  1.00  0.00     0.029 A 
ATOM     65  N   UNL A   1      41.639  30.791  35.096  1.00  0.00    -0.354 N 
ATOM     66  N   UNL A   1      39.407  32.118  33.724  1.00  0.00    -0.248 NA
ATOM     67  C   UNL A   1      37.675  33.687  33.715  1.00  0.00     0.031 C 
ATOM     68  C   UNL A   1      42.216  31.519  37.113  1.00  0.00     0.029 A 
ATOM     69  C   UNL A   1      41.322  31.719  36.074  1.00  0.00     0.049 A 
ATOM     70  H   UNL A   1      41.166  30.691  34.238  1.00  0.00     0.167 HD
ATOM     71  C   UNL A   1      39.427  32.828  34.921  1.00  0.00     0.074 A 
ATOM     72  C   UNL A   1      38.359  33.804  34.844  1.00  0.00     0.031 C 
ATOM     73  C   UNL A   1      40.254  32.683  35.985  1.00  0.00     0.031 A 
BRANCH  60  74
ATOM     74  C   UNL A   1      44.417  28.154  35.367  1.00  0.00    -0.014 A 
ATOM     75  C   UNL A   1      45.759  28.541  35.194  1.00  0.00     0.010 A 
ATOM     76  C   UNL A   1      44.128  27.037  36.173  1.00  0.00     0.010 A 
ATOM     77  C   UNL A   1      46.791  27.804  35.780  1.00  0.00     0.020 A 
ATOM     78  C   UNL A   1      45.156  26.315  36.786  1.00  0.00     0.020 A 
ATOM     79  C   UNL A   1      46.483  26.694  36.572  1.00  0.00     0.054 A 
BRANCH  79  80
ATOM     80  S   UNL A   1      47.842  25.774  37.343  1.00  0.00     0.124 S 
ATOM     81  O   UNL A   1      47.606  26.021  38.763  1.00  0.00    -0.237 OA
ATOM     82  O   UNL A   1      47.597  24.406  36.894  1.00  0.00    -0.237 OA
ATOM     83  O   UNL A   1      49.042  26.401  36.794  1.00  0.00    -0.744 OA
ENDBRANCH  79  80
ENDBRANCH  60  74
BRANCH  61  84
ATOM     84  C   UNL A   1      36.796  32.951  31.015  1.00  0.00    -0.014 A 
ATOM     85  C   UNL A   1      36.997  33.858  29.960  1.00  0.00     0.010 A 
ATOM     86  C   UNL A   1      35.486  32.707  31.466  1.00  0.00     0.010 A 
ATOM     87  C   UNL A   1      35.912  34.524  29.381  1.00  0.00     0.020 A 
ATOM     88  C   UNL A   1      34.396  33.347  30.869  1.00  0.00     0.020 A 
ATOM     89  C   UNL A   1      34.618  34.261  29.839  1.00  0.00     0.054 A 
BRANCH  89  90
ATOM     90  S   UNL A   1      33.221  35.102  29.042  1.00  0.00     0.124 S 
ATOM     91  O   UNL A   1      32.343  35.372  30.175  1.00  0.00    -0.237 OA
ATOM     92  O   UNL A   1      33.858  36.271  28.442  1.00  0.00    -0.237 OA
ATOM     93  O   UNL A   1      32.727  34.112  28.087  1.00  0.00    -0.744 OA
ENDBRANCH  89  90
ENDBRANCH  61  84
BRANCH  73  94
ATOM     94  C   UNL A   1      40.059  33.620  37.148  1.00  0.00    -0.014 A 
ATOM     95  C   UNL A   1      39.114  33.348  38.153  1.00  0.00     0.010 A 
ATOM     96  C   UNL A   1      40.876  34.761  37.266  1.00  0.00     0.010 A 
ATOM     97  C   UNL A   1      38.972  34.214  39.241  1.00  0.00     0.020 A 
ATOM     98  C   UNL A   1      40.758  35.611  38.367  1.00  0.00     0.020 A 
ATOM     99  C   UNL A   1      39.797  35.338  39.342  1.00  0.00     0.054 A 
BRANCH  99 100
ATOM    100  S   UNL A   1      39.625  36.417  40.791  1.00  0.00     0.124 S 
ATOM    101  O   UNL A   1      40.897  37.135  40.787  1.00  0.00    -0.237 OA
ATOM    102  O   UNL A   1      38.451  37.217  40.456  1.00  0.00    -0.237 OA
ATOM    103  O   UNL A   1      39.441  35.483  41.899  1.00  0.00    -0.744 OA
ENDBRANCH  99 100
ENDBRANCH  73  94
ENDBRANCH  47  48
ENDBRANCH  39  42
ENDBRANCH  37  38
ENDBRANCH  36  37
ENDBRANCH  35  36
ENDBRANCH   1  35
TORSDOF 21
ENDMDL
MODEL 2
REMARK VINA RESULT:     -11.1      2.344      9.332
REMARK SMILES Cc1c[nH]c(C[N@@H+](C)[C@@H](C(=O)NCCCCCCNC(=O)c2ccc(-c3c4nc(c(-c5ccc(S(=O)(=O)[O-])cc5)c5ccc([nH]5)c(-c5ccc(S(=O)(=O)[O-])cc5)c5nc(c(-c6ccc(S(=O)(=O)[O-])cc6)c6ccc3[nH]6)C=C5)C=C4)cc2)c2ccc(NC(=O)N3CCCC3)cc2)n1
REMARK SMILES IDX 15 1 14 2 13 3 12 4 10 5 11 6 9 8 7 9 8 10 6 12 5 13 1 14
REMARK SMILES IDX 2 15 3 16 96 17 4 18 82 20 83 21 95 22 84 23 94 24 85 25
REMARK SMILES IDX 86 26 87 27 88 29 89 30 90 31 93 32 91 33 92 34 16 35 17 36
REMARK SMILES IDX 18 37 19 38 20 39 21 41 22 42 23 43 81 44 24 45 80 46 25 47
REMARK SMILES IDX 26 48 27 49 74 50 28 51 79 52 73 53 75 54 29 55 78 56 72 57
REMARK SMILES IDX 71 58 30 60 60 61 41 62 59 63 42 64 45 65 58 66 76 67 43 68
REMARK SMILES IDX 44 69 57 71 77 72 46 73 31 74 32 75 40 76 33 77 39 78 34 79
REMARK SMILES IDX 35 80 36 81 37 82 38 83 61 84 62 85 70 86 63 87 69 88 64 89
REMARK SMILES IDX 65 90 66 91 67 92 68 93 47 94 48 95 56 96 49 97 55 98 50 99
REMARK SMILES IDX 51 100 52 101 53 102 54 103
REMARK H PARENT 12 7 7 11 4 19 86 28 19 40 75 59 45 70
REMARK Flexibility Score: inf
ROOT
ATOM      1  C   UNL A   1      33.712  29.212  27.355  1.00  0.00     0.002 C 
ENDROOT
BRANCH   1   2
ATOM      2  C   UNL A   1      33.956  28.795  25.900  1.00  0.00     0.021 C 
BRANCH   2   3
ATOM      3  C   UNL A   1      32.706  28.882  25.019  1.00  0.00     0.116 C 
BRANCH   3   4
ATOM      4  N   UNL A   1      33.109  29.141  23.655  1.00  0.00    -0.351 N 
ATOM      5  C   UNL A   1      33.221  28.238  22.634  1.00  0.00     0.283 C 
ATOM      6  O   UNL A   1      34.050  28.498  21.753  1.00  0.00    -0.268 OA
ATOM      7  H   UNL A   1      33.329  30.075  23.435  1.00  0.00     0.163 HD
BRANCH   5   8
ATOM      8  C   UNL A   1      32.288  26.980  22.591  1.00  0.00     0.305 C 
BRANCH   8   9
ATOM      9  N   UNL A   1      31.228  27.042  23.636  1.00  0.00    -0.317 N 
ATOM     10  C   UNL A   1      31.443  26.202  24.798  1.00  0.00     0.334 C 
ATOM     11  H   UNL A   1      31.368  28.006  23.942  1.00  0.00     0.349 HD
BRANCH   9  12
ATOM     12  C   UNL A   1      29.827  27.016  23.192  1.00  0.00     0.339 C 
BRANCH  12  13
ATOM     13  C   UNL A   1      29.187  28.367  23.178  1.00  0.00     0.161 A 
ATOM     14  C   UNL A   1      29.155  31.909  22.942  1.00  0.00     0.068 C 
ATOM     15  C   UNL A   1      28.807  30.483  23.106  1.00  0.00     0.056 A 
ATOM     16  C   UNL A   1      27.570  29.879  23.113  1.00  0.00     0.107 A 
ATOM     17  N   UNL A   1      29.795  29.539  23.228  1.00  0.00    -0.233 NA
ATOM     18  N   UNL A   1      27.826  28.535  23.121  1.00  0.00    -0.344 N 
ATOM     19  H   UNL A   1      27.154  27.816  23.089  1.00  0.00     0.167 HD
ENDBRANCH  12  13
ENDBRANCH   9  12
ENDBRANCH   8   9
BRANCH   8  20
ATOM     20  C   UNL A   1      33.097  25.671  22.668  1.00  0.00     0.019 A 
ATOM     21  C   UNL A   1      34.066  25.450  23.656  1.00  0.00     0.012 A 
ATOM     22  C   UNL A   1      32.869  24.634  21.750  1.00  0.00     0.012 A 
ATOM     23  C   UNL A   1      34.550  24.165  23.893  1.00  0.00     0.027 A 
ATOM     24  C   UNL A   1      33.339  23.344  22.004  1.00  0.00     0.027 A 
ATOM     25  C   UNL A   1      34.053  23.086  23.170  1.00  0.00     0.042 A 
BRANCH  25  26
ATOM     26  N   UNL A   1      34.199  21.750  23.582  1.00  0.00    -0.308 N 
ATOM     27  C   UNL A   1      34.117  21.184  24.818  1.00  0.00     0.321 C 
ATOM     28  H   UNL A   1      34.393  21.116  22.853  1.00  0.00     0.171 HD
ATOM     29  O   UNL A   1      34.685  20.106  25.011  1.00  0.00    -0.248 OA
ATOM     30  N   UNL A   1      33.414  21.802  25.813  1.00  0.00    -0.325 N 
ATOM     31  C   UNL A   1      32.110  22.433  25.713  1.00  0.00     0.121 C 
ATOM     32  C   UNL A   1      33.736  21.584  27.203  1.00  0.00     0.121 C 
ATOM     33  C   UNL A   1      32.081  23.355  26.917  1.00  0.00     0.023 C 
ATOM     34  C   UNL A   1      32.898  22.607  27.972  1.00  0.00     0.023 C 
ENDBRANCH  25  26
ENDBRANCH   8  20
ENDBRANCH   5   8
ENDBRANCH   3   4
ENDBRANCH   2   3
ENDBRANCH   1   2
BRANCH   1  35
ATOM     35  C   UNL A   1      34.236  30.604  27.715  1.00  0.00     0.002 C 
BRANCH  35  36
ATOM     36  C   UNL A   1      33.185  31.715  27.660  1.00  0.00     0.021 C 
BRANCH  36  37
ATOM     37  C   UNL A   1      33.734  33.078  27.246  1.00  0.00     0.116 C 
BRANCH  37  38
ATOM     38  N   UNL A   1      33.105  34.159  27.991  1.00  0.00    -0.352 N 
ATOM     39  C   UNL A   1      33.312  34.541  29.290  1.00  0.00     0.251 C 
ATOM     40  H   UNL A   1      32.441  34.686  27.492  1.00  0.00     0.163 HD
ATOM     41  O   UNL A   1      32.523  35.311  29.837  1.00  0.00    -0.269 OA
BRANCH  39  42
ATOM     42  C   UNL A   1      34.476  34.017  30.031  1.00  0.00     0.039 A 
ATOM     43  C   UNL A   1      34.269  33.106  31.067  1.00  0.00     0.014 A 
ATOM     44  C   UNL A   1      35.771  34.426  29.696  1.00  0.00     0.014 A 
ATOM     45  C   UNL A   1      35.369  32.563  31.736  1.00  0.00     0.010 A 
ATOM     46  C   UNL A   1      36.866  33.828  30.311  1.00  0.00     0.010 A 
ATOM     47  C   UNL A   1      36.676  32.896  31.343  1.00  0.00    -0.014 A 
BRANCH  47  48
ATOM     48  C   UNL A   1      37.856  32.278  32.000  1.00  0.00     0.031 A 
ATOM     49  C   UNL A   1      38.339  32.796  33.328  1.00  0.00     0.074 A 
ATOM     50  C   UNL A   1      38.525  31.288  31.374  1.00  0.00     0.049 A 
ATOM     51  N   UNL A   1      39.373  32.415  34.034  1.00  0.00    -0.248 NA
ATOM     52  C   UNL A   1      37.577  33.901  33.932  1.00  0.00     0.031 C 
ATOM     53  C   UNL A   1      38.179  30.727  30.066  1.00  0.00     0.029 A 
ATOM     54  N   UNL A   1      39.637  30.580  31.754  1.00  0.00    -0.354 N 
ATOM     55  C   UNL A   1      39.391  33.238  35.154  1.00  0.00     0.074 A 
ATOM     56  C   UNL A   1      38.300  34.174  35.009  1.00  0.00     0.031 C 
ATOM     57  C   UNL A   1      39.042  29.744  29.767  1.00  0.00     0.029 A 
ATOM     58  C   UNL A   1      40.028  29.633  30.837  1.00  0.00     0.049 A 
ATOM     59  H   UNL A   1      40.112  30.737  32.602  1.00  0.00     0.167 HD
ATOM     60  C   UNL A   1      40.230  33.205  36.217  1.00  0.00     0.031 A 
ATOM     61  C   UNL A   1      41.068  28.776  30.851  1.00  0.00     0.031 A 
ATOM     62  C   UNL A   1      41.311  32.265  36.360  1.00  0.00     0.049 A 
ATOM     63  C   UNL A   1      41.998  28.773  32.034  1.00  0.00     0.074 A 
ATOM     64  C   UNL A   1      42.181  32.114  37.425  1.00  0.00     0.029 A 
ATOM     65  N   UNL A   1      41.673  31.323  35.410  1.00  0.00    -0.354 N 
ATOM     66  N   UNL A   1      41.954  29.511  33.117  1.00  0.00    -0.248 NA
ATOM     67  C   UNL A   1      43.111  27.814  32.001  1.00  0.00     0.031 C 
ATOM     68  C   UNL A   1      43.107  31.120  37.093  1.00  0.00     0.029 A 
ATOM     69  C   UNL A   1      42.774  30.607  35.850  1.00  0.00     0.049 A 
ATOM     70  H   UNL A   1      41.216  31.184  34.549  1.00  0.00     0.167 HD
ATOM     71  C   UNL A   1      43.019  29.089  33.906  1.00  0.00     0.074 A 
ATOM     72  C   UNL A   1      43.675  28.018  33.182  1.00  0.00     0.031 C 
ATOM     73  C   UNL A   1      43.418  29.546  35.118  1.00  0.00     0.031 A 
BRANCH  60  74
ATOM     74  C   UNL A   1      40.013  34.218  37.311  1.00  0.00    -0.014 A 
ATOM     75  C   UNL A   1      40.638  35.478  37.270  1.00  0.00     0.010 A 
ATOM     76  C   UNL A   1      39.136  33.927  38.371  1.00  0.00     0.010 A 
ATOM     77  C   UNL A   1      40.422  36.411  38.287  1.00  0.00     0.020 A 
ATOM     78  C   UNL A   1      38.893  34.868  39.375  1.00  0.00     0.020 A 
ATOM     79  C   UNL A   1      39.550  36.099  39.335  1.00  0.00     0.054 A 
BRANCH  79  80
ATOM     80  S   UNL A   1      39.268  37.341  40.627  1.00  0.00     0.124 S 
ATOM     81  O   UNL A   1      40.572  37.994  40.705  1.00  0.00    -0.237 OA
ATOM     82  O   UNL A   1      38.194  38.151  40.062  1.00  0.00    -0.237 OA
ATOM     83  O   UNL A   1      38.899  36.548  41.797  1.00  0.00    -0.744 OA
ENDBRANCH  79  80
ENDBRANCH  60  74
BRANCH  61  84
ATOM     84  C   UNL A   1      41.280  27.844  29.708  1.00  0.00    -0.014 A 
ATOM     85  C   UNL A   1      40.490  26.689  29.569  1.00  0.00     0.010 A 
ATOM     86  C   UNL A   1      42.275  28.111  28.749  1.00  0.00     0.010 A 
ATOM     87  C   UNL A   1      40.703  25.809  28.504  1.00  0.00     0.020 A 
ATOM     88  C   UNL A   1      42.469  27.249  27.665  1.00  0.00     0.020 A 
ATOM     89  C   UNL A   1      41.690  26.097  27.558  1.00  0.00     0.054 A 
BRANCH  89  90
ATOM     90  S   UNL A   1      41.917  24.964  26.159  1.00  0.00     0.124 S 
ATOM     91  O   UNL A   1      40.881  23.967  26.404  1.00  0.00    -0.237 OA
ATOM     92  O   UNL A   1      41.699  25.836  25.008  1.00  0.00    -0.237 OA
ATOM     93  O   UNL A   1      43.291  24.492  26.322  1.00  0.00    -0.744 OA
ENDBRANCH  89  90
ENDBRANCH  61  84
BRANCH  73  94
ATOM     94  C   UNL A   1      44.605  28.875  35.757  1.00  0.00    -0.014 A 
ATOM     95  C   UNL A   1      44.450  27.740  36.571  1.00  0.00     0.010 A 
ATOM     96  C   UNL A   1      45.901  29.356  35.490  1.00  0.00     0.010 A 
ATOM     97  C   UNL A   1      45.567  27.113  37.129  1.00  0.00     0.020 A 
ATOM     98  C   UNL A   1      47.022  28.713  36.020  1.00  0.00     0.020 A 
ATOM     99  C   UNL A   1      46.846  27.602  36.847  1.00  0.00     0.054 A 
BRANCH  99 100
ATOM    100  S   UNL A   1      48.282  26.738  37.543  1.00  0.00     0.124 S 
ATOM    101  O   UNL A   1      47.669  25.543  38.115  1.00  0.00    -0.237 OA
ATOM    102  O   UNL A   1      49.120  26.514  36.368  1.00  0.00    -0.237 OA
ATOM    103  O   UNL A   1      48.821  27.686  38.514  1.00  0.00    -0.744 OA
ENDBRANCH  99 100
ENDBRANCH  73  94
ENDBRANCH  47  48
ENDBRANCH  39  42
ENDBRANCH  37  38
ENDBRANCH  36  37
ENDBRANCH  35  36
ENDBRANCH   1  35
TORSDOF 21
ENDMDL
MODEL 3
REMARK VINA RESULT:     -11.1      2.298      9.135
REMARK SMILES Cc1c[nH]c(C[N@@H+](C)[C@@H](C(=O)NCCCCCCNC(=O)c2ccc(-c3c4nc(c(-c5ccc(S(=O)(=O)[O-])cc5)c5ccc([nH]5)c(-c5ccc(S(=O)(=O)[O-])cc5)c5nc(c(-c6ccc(S(=O)(=O)[O-])cc6)c6ccc3[nH]6)C=C5)C=C4)cc2)c2ccc(NC(=O)N3CCCC3)cc2)n1
REMARK SMILES IDX 15 1 14 2 13 3 12 4 10 5 11 6 9 8 7 9 8 10 6 12 5 13 1 14
REMARK SMILES IDX 2 15 3 16 96 17 4 18 82 20 83 21 95 22 84 23 94 24 85 25
REMARK SMILES IDX 86 26 87 27 88 29 89 30 90 31 93 32 91 33 92 34 16 35 17 36
REMARK SMILES IDX 18 37 19 38 20 39 21 41 22 42 23 43 81 44 24 45 80 46 25 47
REMARK SMILES IDX 26 48 27 49 74 50 28 51 79 52 73 53 75 54 29 55 78 56 72 57
REMARK SMILES IDX 71 58 30 60 60 61 41 62 59 63 42 64 45 65 58 66 76 67 43 68
REMARK SMILES IDX 44 69 57 71 77 72 46 73 31 74 32 75 40 76 33 77 39 78 34 79
REMARK SMILES IDX 35 80 36 81 37 82 38 83 61 84 62 85 70 86 63 87 69 88 64 89
REMARK SMILES IDX 65 90 66 91 67 92 68 93 47 94 48 95 56 96 49 97 55 98 50 99
REMARK SMILES IDX 51 100 52 101 53 102 54 103
REMARK H PARENT 12 7 7 11 4 19 86 28 19 40 75 59 45 70
REMARK Flexibility Score: inf
ROOT
ATOM      1  C   UNL A   1      33.736  29.517  27.501  1.00  0.00     0.002 C 
ENDROOT
BRANCH   1   2
ATOM      2  C   UNL A   1      34.017  29.185  26.031  1.00  0.00     0.021 C 
BRANCH   2   3
ATOM      3  C   UNL A   1      32.822  29.436  25.106  1.00  0.00     0.116 C 
BRANCH   3   4
ATOM      4  N   UNL A   1      33.269  29.375  23.732  1.00  0.00    -0.351 N 
ATOM      5  C   UNL A   1      33.445  28.257  22.963  1.00  0.00     0.283 C 
ATOM      6  O   UNL A   1      34.300  28.328  22.071  1.00  0.00    -0.268 OA
ATOM      7  H   UNL A   1      33.471  30.236  23.300  1.00  0.00     0.163 HD
BRANCH   5   8
ATOM      8  C   UNL A   1      32.549  26.993  23.197  1.00  0.00     0.305 C 
BRANCH   8   9
ATOM      9  N   UNL A   1      31.103  27.346  23.265  1.00  0.00    -0.317 N 
ATOM     10  C   UNL A   1      30.259  26.397  23.965  1.00  0.00     0.334 C 
ATOM     11  H   UNL A   1      31.173  28.171  23.861  1.00  0.00     0.349 HD
BRANCH   9  12
ATOM     12  C   UNL A   1      30.464  27.850  22.041  1.00  0.00     0.339 C 
BRANCH  12  13
ATOM     13  C   UNL A   1      29.760  29.155  22.238  1.00  0.00     0.161 A 
ATOM     14  C   UNL A   1      27.525  31.393  23.851  1.00  0.00     0.068 C 
ATOM     15  C   UNL A   1      28.494  30.744  22.944  1.00  0.00     0.056 A 
ATOM     16  C   UNL A   1      29.294  31.303  21.972  1.00  0.00     0.107 A 
ATOM     17  N   UNL A   1      28.739  29.398  23.041  1.00  0.00    -0.233 NA
ATOM     18  N   UNL A   1      30.118  30.292  21.559  1.00  0.00    -0.344 N 
ATOM     19  H   UNL A   1      30.841  30.368  20.894  1.00  0.00     0.167 HD
ENDBRANCH  12  13
ENDBRANCH   9  12
ENDBRANCH   8   9
BRANCH   8  20
ATOM     20  C   UNL A   1      33.007  26.195  24.432  1.00  0.00     0.019 A 
ATOM     21  C   UNL A   1      32.112  25.787  25.431  1.00  0.00     0.012 A 
ATOM     22  C   UNL A   1      34.352  25.826  24.586  1.00  0.00     0.012 A 
ATOM     23  C   UNL A   1      32.486  24.816  26.358  1.00  0.00     0.027 A 
ATOM     24  C   UNL A   1      34.718  24.836  25.502  1.00  0.00     0.027 A 
ATOM     25  C   UNL A   1      33.741  24.222  26.280  1.00  0.00     0.042 A 
BRANCH  25  26
ATOM     26  N   UNL A   1      34.059  23.009  26.916  1.00  0.00    -0.308 N 
ATOM     27  C   UNL A   1      33.718  21.725  26.609  1.00  0.00     0.321 C 
ATOM     28  H   UNL A   1      34.625  23.102  27.716  1.00  0.00     0.171 HD
ATOM     29  O   UNL A   1      33.740  20.880  27.507  1.00  0.00    -0.248 OA
ATOM     30  N   UNL A   1      33.366  21.393  25.331  1.00  0.00    -0.325 N 
ATOM     31  C   UNL A   1      34.016  21.805  24.100  1.00  0.00     0.121 C 
ATOM     32  C   UNL A   1      32.495  20.273  25.064  1.00  0.00     0.121 C 
ATOM     33  C   UNL A   1      32.940  21.586  23.054  1.00  0.00     0.023 C 
ATOM     34  C   UNL A   1      32.164  20.373  23.574  1.00  0.00     0.023 C 
ENDBRANCH  25  26
ENDBRANCH   8  20
ENDBRANCH   5   8
ENDBRANCH   3   4
ENDBRANCH   2   3
ENDBRANCH   1   2
BRANCH   1  35
ATOM     35  C   UNL A   1      34.095  30.948  27.910  1.00  0.00     0.002 C 
BRANCH  35  36
ATOM     36  C   UNL A   1      32.981  31.973  27.692  1.00  0.00     0.021 C 
BRANCH  36  37
ATOM     37  C   UNL A   1      33.468  33.335  27.204  1.00  0.00     0.116 C 
BRANCH  37  38
ATOM     38  N   UNL A   1      32.970  34.415  28.042  1.00  0.00    -0.352 N 
ATOM     39  C   UNL A   1      33.313  34.731  29.331  1.00  0.00     0.251 C 
ATOM     40  H   UNL A   1      32.296  34.998  27.626  1.00  0.00     0.163 HD
ATOM     41  O   UNL A   1      32.620  35.518  29.976  1.00  0.00    -0.269 OA
BRANCH  39  42
ATOM     42  C   UNL A   1      34.506  34.114  29.942  1.00  0.00     0.039 A 
ATOM     43  C   UNL A   1      35.773  34.495  29.497  1.00  0.00     0.014 A 
ATOM     44  C   UNL A   1      34.370  33.162  30.958  1.00  0.00     0.014 A 
ATOM     45  C   UNL A   1      36.908  33.958  30.109  1.00  0.00     0.010 A 
ATOM     46  C   UNL A   1      35.499  32.687  31.616  1.00  0.00     0.010 A 
ATOM     47  C   UNL A   1      36.780  33.073  31.193  1.00  0.00    -0.014 A 
BRANCH  47  48
ATOM     48  C   UNL A   1      37.977  32.544  31.896  1.00  0.00     0.031 A 
ATOM     49  C   UNL A   1      38.766  31.411  31.298  1.00  0.00     0.074 A 
ATOM     50  C   UNL A   1      38.319  33.047  33.099  1.00  0.00     0.049 A 
ATOM     51  N   UNL A   1      39.810  30.788  31.781  1.00  0.00    -0.248 NA
ATOM     52  C   UNL A   1      38.310  30.893  29.997  1.00  0.00     0.031 C 
ATOM     53  C   UNL A   1      37.610  34.119  33.803  1.00  0.00     0.029 A 
ATOM     54  N   UNL A   1      39.349  32.721  33.946  1.00  0.00    -0.354 N 
ATOM     55  C   UNL A   1      40.126  29.802  30.855  1.00  0.00     0.074 A 
ATOM     56  C   UNL A   1      39.133  29.871  29.807  1.00  0.00     0.031 C 
ATOM     57  C   UNL A   1      38.242  34.381  34.958  1.00  0.00     0.029 A 
ATOM     58  C   UNL A   1      39.373  33.470  35.100  1.00  0.00     0.049 A 
ATOM     59  H   UNL A   1      40.007  32.017  33.747  1.00  0.00     0.167 HD
ATOM     60  C   UNL A   1      41.163  28.929  30.865  1.00  0.00     0.031 A 
ATOM     61  C   UNL A   1      40.206  33.423  36.158  1.00  0.00     0.031 A 
ATOM     62  C   UNL A   1      42.153  28.869  31.908  1.00  0.00     0.049 A 
ATOM     63  C   UNL A   1      41.337  32.430  36.155  1.00  0.00     0.074 A 
ATOM     64  C   UNL A   1      43.273  28.059  31.982  1.00  0.00     0.029 A 
ATOM     65  N   UNL A   1      42.142  29.643  33.057  1.00  0.00    -0.354 N 
ATOM     66  N   UNL A   1      41.661  31.555  35.234  1.00  0.00    -0.248 NA
ATOM     67  C   UNL A   1      42.220  32.427  37.330  1.00  0.00     0.031 C 
ATOM     68  C   UNL A   1      43.905  28.301  33.205  1.00  0.00     0.029 A 
ATOM     69  C   UNL A   1      43.217  29.309  33.863  1.00  0.00     0.049 A 
ATOM     70  H   UNL A   1      41.468  30.330  33.271  1.00  0.00     0.167 HD
ATOM     71  C   UNL A   1      42.801  30.913  35.707  1.00  0.00     0.074 A 
ATOM     72  C   UNL A   1      43.118  31.515  36.987  1.00  0.00     0.031 C 
ATOM     73  C   UNL A   1      43.518  29.915  35.135  1.00  0.00     0.031 A 
BRANCH  60  74
ATOM     74  C   UNL A   1      41.276  27.964  29.714  1.00  0.00    -0.014 A 
ATOM     75  C   UNL A   1      42.305  28.083  28.762  1.00  0.00     0.010 A 
ATOM     76  C   UNL A   1      40.368  26.894  29.606  1.00  0.00     0.010 A 
ATOM     77  C   UNL A   1      42.402  27.177  27.704  1.00  0.00     0.020 A 
ATOM     78  C   UNL A   1      40.479  25.968  28.566  1.00  0.00     0.020 A 
ATOM     79  C   UNL A   1      41.486  26.124  27.612  1.00  0.00     0.054 A 
BRANCH  79  80
ATOM     80  S   UNL A   1      41.653  24.947  26.242  1.00  0.00     0.124 S 
ATOM     81  O   UNL A   1      42.982  24.390  26.486  1.00  0.00    -0.237 OA
ATOM     82  O   UNL A   1      40.539  24.032  26.469  1.00  0.00    -0.237 OA
ATOM     83  O   UNL A   1      41.538  25.782  25.049  1.00  0.00    -0.744 OA
ENDBRANCH  79  80
ENDBRANCH  60  74
BRANCH  61  84
ATOM     84  C   UNL A   1      40.005  34.351  37.305  1.00  0.00    -0.014 A 
ATOM     85  C   UNL A   1      40.658  35.595  37.343  1.00  0.00     0.010 A 
ATOM     86  C   UNL A   1      39.153  33.994  38.367  1.00  0.00     0.010 A 
ATOM     87  C   UNL A   1      40.480  36.457  38.429  1.00  0.00     0.020 A 
ATOM     88  C   UNL A   1      38.948  34.866  39.440  1.00  0.00     0.020 A 
ATOM     89  C   UNL A   1      39.623  36.087  39.470  1.00  0.00     0.054 A 
BRANCH  89  90
ATOM     90  S   UNL A   1      39.371  37.241  40.847  1.00  0.00     0.124 S 
ATOM     91  O   UNL A   1      38.389  38.166  40.293  1.00  0.00    -0.237 OA
ATOM     92  O   UNL A   1      38.886  36.363  41.909  1.00  0.00    -0.237 OA
ATOM     93  O   UNL A   1      40.702  37.800  41.072  1.00  0.00    -0.744 OA
ENDBRANCH  89  90
ENDBRANCH  61  84
BRANCH  73  94
ATOM     94  C   UNL A   1      44.737  29.425  35.873  1.00  0.00    -0.014 A 
ATOM     95  C   UNL A   1      45.990  30.039  35.700  1.00  0.00     0.010 A 
ATOM     96  C   UNL A   1      44.611  28.370  36.797  1.00  0.00     0.010 A 
ATOM     97  C   UNL A   1      47.101  29.589  36.419  1.00  0.00     0.020 A 
ATOM     98  C   UNL A   1      45.713  27.939  37.539  1.00  0.00     0.020 A 
ATOM     99  C   UNL A   1      46.954  28.543  37.336  1.00  0.00     0.054 A 
BRANCH  99 100
ATOM    100  S   UNL A   1      48.402  28.014  38.292  1.00  0.00     0.124 S 
ATOM    101  O   UNL A   1      49.453  28.018  37.279  1.00  0.00    -0.237 OA
ATOM    102  O   UNL A   1      48.509  29.054  39.312  1.00  0.00    -0.237 OA
ATOM    103  O   UNL A   1      48.025  26.694  38.792  1.00  0.00    -0.744 OA
ENDBRANCH  99 100
ENDBRANCH  73  94
ENDBRANCH  47  48
ENDBRANCH  39  42
ENDBRANCH  37  38
ENDBRANCH  36  37
ENDBRANCH  35  36
ENDBRANCH   1  35
TORSDOF 21
ENDMDL
