MODEL 1
REMARK VINA RESULT:     -11.3      0.000      0.000
REMARK SMILES CCn1cc(CC(=O)NCCCCCCNC(=O)c2ccc(-c3c4nc(c(-c5ccc(S(=O)(=O)[O-])cc5)c5ccc([nH]5)c(-c5ccc(S(=O)(=O)[O-])cc5)c5nc(c(-c6ccc(S(=O)(=O)[O-])cc6)c6ccc3[nH]6)C=C5)C=C4)cc2)c2ccccc21
REMARK SMILES IDX 13 1 12 2 11 3 10 4 9 5 7 6 8 7 6 9 5 10 3 11 4 12 84 13
REMARK SMILES IDX 79 14 83 15 80 16 82 17 81 18 2 19 1 20 14 21 15 22 16 23
REMARK SMILES IDX 17 24 18 26 19 27 20 28 78 29 21 30 77 31 22 32 23 33 24 34
REMARK SMILES IDX 71 35 25 36 76 37 70 38 72 39 26 40 75 41 69 42 68 43 27 45
REMARK SMILES IDX 57 46 38 47 56 48 39 49 42 50 55 51 73 52 40 53 41 54 54 56
REMARK SMILES IDX 74 57 43 58 28 59 29 60 37 61 30 62 36 63 31 64 32 65 33 66
REMARK SMILES IDX 34 67 35 68 58 69 59 70 67 71 60 72 66 73 61 74 62 75 63 76
REMARK SMILES IDX 64 77 65 78 44 79 45 80 53 81 46 82 52 83 47 84 48 85 49 86
REMARK SMILES IDX 50 87 51 88
REMARK H PARENT 9 8 16 25 72 44 42 55
REMARK Flexibility Score: inf
ROOT
ATOM      1  C   UNL A   1      39.121  23.158  26.588  1.00  0.00     0.002 C 
ENDROOT
BRANCH   1   2
ATOM      2  C   UNL A   1      37.784  23.652  26.023  1.00  0.00     0.002 C 
BRANCH   2   3
ATOM      3  C   UNL A   1      37.093  22.686  25.053  1.00  0.00     0.021 C 
BRANCH   3   4
ATOM      4  C   UNL A   1      35.569  22.826  25.022  1.00  0.00     0.116 C 
BRANCH   4   5
ATOM      5  N   UNL A   1      35.149  23.739  23.973  1.00  0.00    -0.356 N 
ATOM      6  C   UNL A   1      34.396  24.874  24.070  1.00  0.00     0.224 C 
ATOM      7  O   UNL A   1      34.064  25.452  23.031  1.00  0.00    -0.275 OA
ATOM      8  H   UNL A   1      35.449  23.507  23.064  1.00  0.00     0.163 HD
BRANCH   6   9
ATOM      9  C   UNL A   1      34.034  25.441  25.436  1.00  0.00     0.137 C 
BRANCH   9  10
ATOM     10  C   UNL A   1      33.125  26.627  25.365  1.00  0.00    -0.013 A 
ATOM     11  N   UNL A   1      31.477  27.984  24.706  1.00  0.00    -0.347 N 
ATOM     12  C   UNL A   1      31.956  26.706  24.632  1.00  0.00     0.091 A 
ATOM     13  C   UNL A   1      32.253  28.721  25.584  1.00  0.00     0.048 A 
ATOM     14  C   UNL A   1      33.292  27.888  26.012  1.00  0.00     0.003 A 
ATOM     15  C   UNL A   1      32.145  30.054  26.015  1.00  0.00     0.027 A 
ATOM     16  C   UNL A   1      34.254  28.406  26.905  1.00  0.00     0.010 A 
ATOM     17  C   UNL A   1      33.108  30.539  26.905  1.00  0.00     0.002 A 
ATOM     18  C   UNL A   1      34.149  29.729  27.345  1.00  0.00     0.001 A 
BRANCH  11  19
ATOM     19  C   UNL A   1      30.373  28.539  23.936  1.00  0.00     0.119 C 
ATOM     20  C   UNL A   1      30.537  28.541  22.423  1.00  0.00     0.027 C 
ENDBRANCH  11  19
ENDBRANCH   9  10
ENDBRANCH   6   9
ENDBRANCH   4   5
ENDBRANCH   3   4
ENDBRANCH   2   3
ENDBRANCH   1   2
BRANCH   1  21
ATOM     21  C   UNL A   1      39.687  21.895  25.928  1.00  0.00     0.021 C 
BRANCH  21  22
ATOM     22  C   UNL A   1      41.130  21.571  26.318  1.00  0.00     0.116 C 
BRANCH  22  23
ATOM     23  N   UNL A   1      42.116  22.168  25.440  1.00  0.00    -0.352 N 
ATOM     24  C   UNL A   1      42.657  23.418  25.308  1.00  0.00     0.251 C 
ATOM     25  H   UNL A   1      42.482  21.527  24.788  1.00  0.00     0.163 HD
ATOM     26  O   UNL A   1      43.579  23.523  24.494  1.00  0.00    -0.269 OA
BRANCH  24  27
ATOM     27  C   UNL A   1      42.183  24.641  26.018  1.00  0.00     0.039 A 
ATOM     28  C   UNL A   1      41.452  25.682  25.448  1.00  0.00     0.014 A 
ATOM     29  C   UNL A   1      42.568  24.757  27.369  1.00  0.00     0.014 A 
ATOM     30  C   UNL A   1      41.203  26.846  26.167  1.00  0.00     0.010 A 
ATOM     31  C   UNL A   1      42.302  25.912  28.101  1.00  0.00     0.010 A 
ATOM     32  C   UNL A   1      41.661  26.978  27.481  1.00  0.00    -0.014 A 
BRANCH  32  33
ATOM     33  C   UNL A   1      41.384  28.238  28.167  1.00  0.00     0.031 A 
ATOM     34  C   UNL A   1      42.436  29.286  28.047  1.00  0.00     0.074 A 
ATOM     35  C   UNL A   1      40.238  28.502  28.826  1.00  0.00     0.049 A 
ATOM     36  N   UNL A   1      43.159  29.806  28.984  1.00  0.00    -0.248 NA
ATOM     37  C   UNL A   1      42.789  29.742  26.694  1.00  0.00     0.031 C 
ATOM     38  C   UNL A   1      38.990  27.733  28.831  1.00  0.00     0.029 A 
ATOM     39  N   UNL A   1      39.927  29.599  29.573  1.00  0.00    -0.354 N 
ATOM     40  C   UNL A   1      43.958  30.772  28.373  1.00  0.00     0.074 A 
ATOM     41  C   UNL A   1      43.768  30.610  26.952  1.00  0.00     0.031 C 
ATOM     42  C   UNL A   1      37.999  28.498  29.343  1.00  0.00     0.029 A 
ATOM     43  C   UNL A   1      38.573  29.734  29.847  1.00  0.00     0.049 A 
ATOM     44  H   UNL A   1      40.604  30.240  29.889  1.00  0.00     0.167 HD
ATOM     45  C   UNL A   1      44.609  31.741  29.076  1.00  0.00     0.031 A 
ATOM     46  C   UNL A   1      37.965  30.814  30.393  1.00  0.00     0.031 A 
ATOM     47  C   UNL A   1      44.686  31.435  30.477  1.00  0.00     0.049 A 
ATOM     48  C   UNL A   1      38.999  31.585  31.125  1.00  0.00     0.074 A 
ATOM     49  C   UNL A   1      45.296  30.447  31.222  1.00  0.00     0.029 A 
ATOM     50  N   UNL A   1      43.774  32.033  31.310  1.00  0.00    -0.354 N 
ATOM     51  N   UNL A   1      39.605  31.153  32.194  1.00  0.00    -0.248 NA
ATOM     52  C   UNL A   1      39.647  32.692  30.442  1.00  0.00     0.031 C 
ATOM     53  C   UNL A   1      44.399  30.191  32.298  1.00  0.00     0.029 A 
ATOM     54  C   UNL A   1      43.319  31.070  32.174  1.00  0.00     0.049 A 
ATOM     55  H   UNL A   1      43.497  32.978  31.291  1.00  0.00     0.167 HD
ATOM     56  C   UNL A   1      40.900  31.637  32.089  1.00  0.00     0.074 A 
ATOM     57  C   UNL A   1      40.835  32.663  31.050  1.00  0.00     0.031 C 
ATOM     58  C   UNL A   1      41.954  30.981  32.658  1.00  0.00     0.031 A 
BRANCH  45  59
ATOM     59  C   UNL A   1      44.934  33.111  28.536  1.00  0.00    -0.014 A 
ATOM     60  C   UNL A   1      44.012  34.176  28.552  1.00  0.00     0.010 A 
ATOM     61  C   UNL A   1      46.273  33.434  28.222  1.00  0.00     0.010 A 
ATOM     62  C   UNL A   1      44.389  35.489  28.258  1.00  0.00     0.020 A 
ATOM     63  C   UNL A   1      46.671  34.755  27.969  1.00  0.00     0.020 A 
ATOM     64  C   UNL A   1      45.721  35.774  27.985  1.00  0.00     0.054 A 
BRANCH  64  65
ATOM     65  S   UNL A   1      46.189  37.506  27.740  1.00  0.00     0.124 S 
ATOM     66  O   UNL A   1      46.059  37.649  26.292  1.00  0.00    -0.237 OA
ATOM     67  O   UNL A   1      45.191  38.214  28.535  1.00  0.00    -0.237 OA
ATOM     68  O   UNL A   1      47.554  37.569  28.254  1.00  0.00    -0.744 OA
ENDBRANCH  64  65
ENDBRANCH  45  59
BRANCH  46  69
ATOM     69  C   UNL A   1      36.695  31.437  29.941  1.00  0.00    -0.014 A 
ATOM     70  C   UNL A   1      36.615  32.006  28.654  1.00  0.00     0.010 A 
ATOM     71  C   UNL A   1      35.691  31.764  30.872  1.00  0.00     0.010 A 
ATOM     72  C   UNL A   1      35.623  32.937  28.333  1.00  0.00     0.020 A 
ATOM     73  C   UNL A   1      34.693  32.701  30.557  1.00  0.00     0.020 A 
ATOM     74  C   UNL A   1      34.692  33.310  29.300  1.00  0.00     0.054 A 
BRANCH  74  75
ATOM     75  S   UNL A   1      33.553  34.672  28.919  1.00  0.00     0.124 S 
ATOM     76  O   UNL A   1      32.997  34.978  30.238  1.00  0.00    -0.237 OA
ATOM     77  O   UNL A   1      34.452  35.689  28.372  1.00  0.00    -0.237 OA
ATOM     78  O   UNL A   1      32.620  34.093  27.966  1.00  0.00    -0.744 OA
ENDBRANCH  74  75
ENDBRANCH  46  69
BRANCH  58  79
ATOM     79  C   UNL A   1      41.681  29.879  33.662  1.00  0.00    -0.014 A 
ATOM     80  C   UNL A   1      41.912  30.167  35.019  1.00  0.00     0.010 A 
ATOM     81  C   UNL A   1      41.412  28.544  33.298  1.00  0.00     0.010 A 
ATOM     82  C   UNL A   1      41.921  29.154  35.981  1.00  0.00     0.020 A 
ATOM     83  C   UNL A   1      41.392  27.525  34.264  1.00  0.00     0.020 A 
ATOM     84  C   UNL A   1      41.677  27.836  35.596  1.00  0.00     0.054 A 
BRANCH  84  85
ATOM     85  S   UNL A   1      41.776  26.542  36.863  1.00  0.00     0.124 S 
ATOM     86  O   UNL A   1      42.960  26.942  37.621  1.00  0.00    -0.237 OA
ATOM     87  O   UNL A   1      40.506  26.685  37.573  1.00  0.00    -0.237 OA
ATOM     88  O   UNL A   1      41.920  25.304  36.100  1.00  0.00    -0.744 OA
ENDBRANCH  84  85
ENDBRANCH  58  79
ENDBRANCH  32  33
ENDBRANCH  24  27
ENDBRANCH  22  23
ENDBRANCH  21  22
ENDBRANCH   1  21
TORSDOF 18
ENDMDL
MODEL 2
REMARK VINA RESULT:     -10.8      3.102      9.640
REMARK SMILES CCn1cc(CC(=O)NCCCCCCNC(=O)c2ccc(-c3c4nc(c(-c5ccc(S(=O)(=O)[O-])cc5)c5ccc([nH]5)c(-c5ccc(S(=O)(=O)[O-])cc5)c5nc(c(-c6ccc(S(=O)(=O)[O-])cc6)c6ccc3[nH]6)C=C5)C=C4)cc2)c2ccccc21
REMARK SMILES IDX 13 1 12 2 11 3 10 4 9 5 7 6 8 7 6 9 5 10 3 11 4 12 84 13
REMARK SMILES IDX 79 14 83 15 80 16 82 17 81 18 2 19 1 20 14 21 15 22 16 23
REMARK SMILES IDX 17 24 18 26 19 27 20 28 78 29 21 30 77 31 22 32 23 33 24 34
REMARK SMILES IDX 71 35 25 36 76 37 70 38 72 39 26 40 75 41 69 42 68 43 27 45
REMARK SMILES IDX 57 46 38 47 56 48 39 49 42 50 55 51 73 52 40 53 41 54 54 56
REMARK SMILES IDX 74 57 43 58 28 59 29 60 37 61 30 62 36 63 31 64 32 65 33 66
REMARK SMILES IDX 34 67 35 68 58 69 59 70 67 71 60 72 66 73 61 74 62 75 63 76
REMARK SMILES IDX 64 77 65 78 44 79 45 80 53 81 46 82 52 83 47 84 48 85 49 86
REMARK SMILES IDX 50 87 51 88
REMARK H PARENT 9 8 16 25 72 44 42 55
REMARK Flexibility Score: inf
ROOT
ATOM      1  C   UNL A   1      36.467  32.296  28.099  1.00  0.00     0.002 C 
ENDROOT
BRANCH   1   2
ATOM      2  C   UNL A   1      37.199  30.986  28.411  1.00  0.00     0.002 C 
BRANCH   2   3
ATOM      3  C   UNL A   1      36.291  29.769  28.623  1.00  0.00     0.021 C 
BRANCH   3   4
ATOM      4  C   UNL A   1      35.404  29.443  27.419  1.00  0.00     0.116 C 
BRANCH   4   5
ATOM      5  N   UNL A   1      34.067  29.064  27.840  1.00  0.00    -0.356 N 
ATOM      6  C   UNL A   1      32.984  28.733  27.076  1.00  0.00     0.224 C 
ATOM      7  O   UNL A   1      31.902  28.542  27.638  1.00  0.00    -0.275 OA
ATOM      8  H   UNL A   1      33.920  29.041  28.814  1.00  0.00     0.163 HD
BRANCH   6   9
ATOM      9  C   UNL A   1      33.134  28.546  25.572  1.00  0.00     0.137 C 
BRANCH   9  10
ATOM     10  C   UNL A   1      31.954  27.883  24.935  1.00  0.00    -0.013 A 
ATOM     11  N   UNL A   1      30.634  26.296  24.079  1.00  0.00    -0.347 N 
ATOM     12  C   UNL A   1      31.746  26.520  24.844  1.00  0.00     0.091 A 
ATOM     13  C   UNL A   1      30.035  27.503  23.766  1.00  0.00     0.048 A 
ATOM     14  C   UNL A   1      30.844  28.514  24.296  1.00  0.00     0.003 A 
ATOM     15  C   UNL A   1      28.868  27.793  23.040  1.00  0.00     0.027 A 
ATOM     16  C   UNL A   1      30.471  29.859  24.096  1.00  0.00     0.010 A 
ATOM     17  C   UNL A   1      28.517  29.135  22.862  1.00  0.00     0.002 A 
ATOM     18  C   UNL A   1      29.306  30.155  23.381  1.00  0.00     0.001 A 
BRANCH  11  19
ATOM     19  C   UNL A   1      30.171  25.008  23.587  1.00  0.00     0.119 C 
ATOM     20  C   UNL A   1      31.079  23.815  23.851  1.00  0.00     0.027 C 
ENDBRANCH  11  19
ENDBRANCH   9  10
ENDBRANCH   6   9
ENDBRANCH   4   5
ENDBRANCH   3   4
ENDBRANCH   2   3
ENDBRANCH   1   2
BRANCH   1  21
ATOM     21  C   UNL A   1      35.899  33.037  29.314  1.00  0.00     0.021 C 
BRANCH  21  22
ATOM     22  C   UNL A   1      34.777  32.292  30.040  1.00  0.00     0.116 C 
BRANCH  22  23
ATOM     23  N   UNL A   1      34.829  32.427  31.482  1.00  0.00    -0.352 N 
ATOM     24  C   UNL A   1      35.743  32.105  32.448  1.00  0.00     0.251 C 
ATOM     25  H   UNL A   1      34.019  32.848  31.853  1.00  0.00     0.163 HD
ATOM     26  O   UNL A   1      35.475  32.484  33.591  1.00  0.00    -0.269 OA
BRANCH  24  27
ATOM     27  C   UNL A   1      36.979  31.300  32.229  1.00  0.00     0.039 A 
ATOM     28  C   UNL A   1      38.248  31.812  31.965  1.00  0.00     0.014 A 
ATOM     29  C   UNL A   1      36.814  29.900  32.242  1.00  0.00     0.014 A 
ATOM     30  C   UNL A   1      39.295  30.962  31.620  1.00  0.00     0.010 A 
ATOM     31  C   UNL A   1      37.863  29.044  31.920  1.00  0.00     0.010 A 
ATOM     32  C   UNL A   1      39.093  29.580  31.560  1.00  0.00    -0.014 A 
BRANCH  32  33
ATOM     33  C   UNL A   1      40.231  28.752  31.167  1.00  0.00     0.031 A 
ATOM     34  C   UNL A   1      41.227  28.469  32.240  1.00  0.00     0.074 A 
ATOM     35  C   UNL A   1      40.381  28.207  29.944  1.00  0.00     0.049 A 
ATOM     36  N   UNL A   1      42.469  28.825  32.293  1.00  0.00    -0.248 NA
ATOM     37  C   UNL A   1      40.747  27.782  33.448  1.00  0.00     0.031 C 
ATOM     38  C   UNL A   1      39.405  28.130  28.853  1.00  0.00     0.029 A 
ATOM     39  N   UNL A   1      41.444  27.508  29.456  1.00  0.00    -0.354 N 
ATOM     40  C   UNL A   1      42.983  28.278  33.468  1.00  0.00     0.074 A 
ATOM     41  C   UNL A   1      41.854  27.744  34.190  1.00  0.00     0.031 C 
ATOM     42  C   UNL A   1      39.831  27.231  27.937  1.00  0.00     0.029 A 
ATOM     43  C   UNL A   1      41.172  26.799  28.293  1.00  0.00     0.049 A 
ATOM     44  H   UNL A   1      42.327  27.504  29.890  1.00  0.00     0.167 HD
ATOM     45  C   UNL A   1      44.321  28.166  33.704  1.00  0.00     0.031 A 
ATOM     46  C   UNL A   1      41.972  25.877  27.706  1.00  0.00     0.031 A 
ATOM     47  C   UNL A   1      45.098  28.986  32.817  1.00  0.00     0.049 A 
ATOM     48  C   UNL A   1      43.357  26.127  28.171  1.00  0.00     0.074 A 
ATOM     49  C   UNL A   1      45.221  30.344  32.609  1.00  0.00     0.029 A 
ATOM     50  N   UNL A   1      45.667  28.380  31.725  1.00  0.00    -0.354 N 
ATOM     51  N   UNL A   1      44.044  27.191  27.866  1.00  0.00    -0.248 NA
ATOM     52  C   UNL A   1      43.852  25.367  29.306  1.00  0.00     0.031 C 
ATOM     53  C   UNL A   1      45.424  30.485  31.207  1.00  0.00     0.029 A 
ATOM     54  C   UNL A   1      45.461  29.204  30.648  1.00  0.00     0.049 A 
ATOM     55  H   UNL A   1      46.135  27.514  31.715  1.00  0.00     0.167 HD
ATOM     56  C   UNL A   1      44.793  27.467  28.999  1.00  0.00     0.074 A 
ATOM     57  C   UNL A   1      44.715  26.253  29.808  1.00  0.00     0.031 C 
ATOM     58  C   UNL A   1      45.184  28.741  29.301  1.00  0.00     0.031 A 
BRANCH  45  59
ATOM     59  C   UNL A   1      44.947  27.093  34.559  1.00  0.00    -0.014 A 
ATOM     60  C   UNL A   1      45.465  27.347  35.844  1.00  0.00     0.010 A 
ATOM     61  C   UNL A   1      44.805  25.738  34.186  1.00  0.00     0.010 A 
ATOM     62  C   UNL A   1      45.838  26.316  36.710  1.00  0.00     0.020 A 
ATOM     63  C   UNL A   1      45.134  24.695  35.064  1.00  0.00     0.020 A 
ATOM     64  C   UNL A   1      45.654  24.994  36.322  1.00  0.00     0.054 A 
BRANCH  64  65
ATOM     65  S   UNL A   1      46.027  23.693  37.524  1.00  0.00     0.124 S 
ATOM     66  O   UNL A   1      45.179  24.074  38.651  1.00  0.00    -0.237 OA
ATOM     67  O   UNL A   1      45.621  22.485  36.811  1.00  0.00    -0.237 OA
ATOM     68  O   UNL A   1      47.463  23.831  37.747  1.00  0.00    -0.744 OA
ENDBRANCH  64  65
ENDBRANCH  45  59
BRANCH  46  69
ATOM     69  C   UNL A   1      41.553  24.561  27.161  1.00  0.00    -0.014 A 
ATOM     70  C   UNL A   1      40.757  23.701  27.945  1.00  0.00     0.010 A 
ATOM     71  C   UNL A   1      42.196  24.019  26.031  1.00  0.00     0.010 A 
ATOM     72  C   UNL A   1      40.677  22.334  27.667  1.00  0.00     0.020 A 
ATOM     73  C   UNL A   1      42.122  22.645  25.749  1.00  0.00     0.020 A 
ATOM     74  C   UNL A   1      41.394  21.806  26.595  1.00  0.00     0.054 A 
BRANCH  74  75
ATOM     75  S   UNL A   1      41.436  20.002  26.392  1.00  0.00     0.124 S 
ATOM     76  O   UNL A   1      41.743  19.553  27.751  1.00  0.00    -0.237 OA
ATOM     77  O   UNL A   1      40.078  19.707  25.932  1.00  0.00    -0.237 OA
ATOM     78  O   UNL A   1      42.484  19.785  25.409  1.00  0.00    -0.744 OA
ENDBRANCH  74  75
ENDBRANCH  46  69
BRANCH  58  79
ATOM     79  C   UNL A   1      45.058  29.820  28.246  1.00  0.00    -0.014 A 
ATOM     80  C   UNL A   1      46.241  30.266  27.629  1.00  0.00     0.010 A 
ATOM     81  C   UNL A   1      43.867  30.534  28.001  1.00  0.00     0.010 A 
ATOM     82  C   UNL A   1      46.252  31.412  26.830  1.00  0.00     0.020 A 
ATOM     83  C   UNL A   1      43.865  31.671  27.177  1.00  0.00     0.020 A 
ATOM     84  C   UNL A   1      45.067  32.118  26.622  1.00  0.00     0.054 A 
BRANCH  84  85
ATOM     85  S   UNL A   1      45.141  33.643  25.643  1.00  0.00     0.124 S 
ATOM     86  O   UNL A   1      44.585  33.215  24.361  1.00  0.00    -0.237 OA
ATOM     87  O   UNL A   1      44.301  34.562  26.409  1.00  0.00    -0.237 OA
ATOM     88  O   UNL A   1      46.562  33.983  25.618  1.00  0.00    -0.744 OA
ENDBRANCH  84  85
ENDBRANCH  58  79
ENDBRANCH  32  33
ENDBRANCH  24  27
ENDBRANCH  22  23
ENDBRANCH  21  22
ENDBRANCH   1  21
TORSDOF 18
ENDMDL
MODEL 3
REMARK VINA RESULT:     -10.8      2.013      3.017
REMARK SMILES CCn1cc(CC(=O)NCCCCCCNC(=O)c2ccc(-c3c4nc(c(-c5ccc(S(=O)(=O)[O-])cc5)c5ccc([nH]5)c(-c5ccc(S(=O)(=O)[O-])cc5)c5nc(c(-c6ccc(S(=O)(=O)[O-])cc6)c6ccc3[nH]6)C=C5)C=C4)cc2)c2ccccc21
REMARK SMILES IDX 13 1 12 2 11 3 10 4 9 5 7 6 8 7 6 9 5 10 3 11 4 12 84 13
REMARK SMILES IDX 79 14 83 15 80 16 82 17 81 18 2 19 1 20 14 21 15 22 16 23
REMARK SMILES IDX 17 24 18 26 19 27 20 28 78 29 21 30 77 31 22 32 23 33 24 34
REMARK SMILES IDX 71 35 25 36 76 37 70 38 72 39 26 40 75 41 69 42 68 43 27 45
REMARK SMILES IDX 57 46 38 47 56 48 39 49 42 50 55 51 73 52 40 53 41 54 54 56
REMARK SMILES IDX 74 57 43 58 28 59 29 60 37 61 30 62 36 63 31 64 32 65 33 66
REMARK SMILES IDX 34 67 35 68 58 69 59 70 67 71 60 72 66 73 61 74 62 75 63 76
REMARK SMILES IDX 64 77 65 78 44 79 45 80 53 81 46 82 52 83 47 84 48 85 49 86
REMARK SMILES IDX 50 87 51 88
REMARK H PARENT 9 8 16 25 72 44 42 55
REMARK Flexibility Score: inf
ROOT
ATOM      1  C   UNL A   1      41.394  23.348  28.165  1.00  0.00     0.002 C 
ENDROOT
BRANCH   1   2
ATOM      2  C   UNL A   1      40.545  24.427  27.484  1.00  0.00     0.002 C 
BRANCH   2   3
ATOM      3  C   UNL A   1      39.029  24.248  27.631  1.00  0.00     0.021 C 
BRANCH   3   4
ATOM      4  C   UNL A   1      38.299  24.034  26.303  1.00  0.00     0.116 C 
BRANCH   4   5
ATOM      5  N   UNL A   1      38.428  22.660  25.850  1.00  0.00    -0.356 N 
ATOM      6  C   UNL A   1      37.601  21.941  25.034  1.00  0.00     0.224 C 
ATOM      7  O   UNL A   1      37.844  20.744  24.858  1.00  0.00    -0.275 OA
ATOM      8  H   UNL A   1      39.222  22.179  26.177  1.00  0.00     0.163 HD
BRANCH   6   9
ATOM      9  C   UNL A   1      36.448  22.626  24.314  1.00  0.00     0.137 C 
BRANCH   9  10
ATOM     10  C   UNL A   1      35.103  22.140  24.751  1.00  0.00    -0.013 A 
ATOM     11  N   UNL A   1      33.321  20.817  25.012  1.00  0.00    -0.347 N 
ATOM     12  C   UNL A   1      34.634  20.845  24.631  1.00  0.00     0.091 A 
ATOM     13  C   UNL A   1      32.951  22.058  25.499  1.00  0.00     0.048 A 
ATOM     14  C   UNL A   1      34.055  22.904  25.349  1.00  0.00     0.003 A 
ATOM     15  C   UNL A   1      31.735  22.515  26.034  1.00  0.00     0.027 A 
ATOM     16  C   UNL A   1      33.939  24.251  25.749  1.00  0.00     0.010 A 
ATOM     17  C   UNL A   1      31.649  23.853  26.429  1.00  0.00     0.002 A 
ATOM     18  C   UNL A   1      32.734  24.712  26.289  1.00  0.00     0.001 A 
BRANCH  11  19
ATOM     19  C   UNL A   1      32.404  19.696  24.867  1.00  0.00     0.119 C 
ATOM     20  C   UNL A   1      32.782  18.414  25.595  1.00  0.00     0.027 C 
ENDBRANCH  11  19
ENDBRANCH   9  10
ENDBRANCH   6   9
ENDBRANCH   4   5
ENDBRANCH   3   4
ENDBRANCH   2   3
ENDBRANCH   1   2
BRANCH   1  21
ATOM     21  C   UNL A   1      42.075  22.354  27.218  1.00  0.00     0.021 C 
BRANCH  21  22
ATOM     22  C   UNL A   1      41.793  22.600  25.735  1.00  0.00     0.116 C 
BRANCH  22  23
ATOM     23  N   UNL A   1      42.953  23.047  24.990  1.00  0.00    -0.352 N 
ATOM     24  C   UNL A   1      43.734  24.170  25.006  1.00  0.00     0.251 C 
ATOM     25  H   UNL A   1      43.247  22.391  24.315  1.00  0.00     0.163 HD
ATOM     26  O   UNL A   1      44.730  24.144  24.277  1.00  0.00    -0.269 OA
BRANCH  24  27
ATOM     27  C   UNL A   1      43.442  25.410  25.780  1.00  0.00     0.039 A 
ATOM     28  C   UNL A   1      43.966  25.732  27.031  1.00  0.00     0.014 A 
ATOM     29  C   UNL A   1      42.511  26.295  25.199  1.00  0.00     0.014 A 
ATOM     30  C   UNL A   1      43.498  26.842  27.728  1.00  0.00     0.010 A 
ATOM     31  C   UNL A   1      42.056  27.419  25.883  1.00  0.00     0.010 A 
ATOM     32  C   UNL A   1      42.515  27.665  27.171  1.00  0.00    -0.014 A 
BRANCH  32  33
ATOM     33  C   UNL A   1      42.056  28.798  27.970  1.00  0.00     0.031 A 
ATOM     34  C   UNL A   1      42.998  29.950  28.064  1.00  0.00     0.074 A 
ATOM     35  C   UNL A   1      40.842  28.868  28.552  1.00  0.00     0.049 A 
ATOM     36  N   UNL A   1      43.589  30.416  29.115  1.00  0.00    -0.248 NA
ATOM     37  C   UNL A   1      43.402  30.600  26.809  1.00  0.00     0.031 C 
ATOM     38  C   UNL A   1      39.686  27.989  28.359  1.00  0.00     0.029 A 
ATOM     39  N   UNL A   1      40.362  29.829  29.390  1.00  0.00    -0.354 N 
ATOM     40  C   UNL A   1      44.325  31.522  28.692  1.00  0.00     0.074 A 
ATOM     41  C   UNL A   1      44.261  31.520  27.251  1.00  0.00     0.031 C 
ATOM     42  C   UNL A   1      38.583  28.586  28.867  1.00  0.00     0.029 A 
ATOM     43  C   UNL A   1      38.984  29.799  29.558  1.00  0.00     0.049 A 
ATOM     44  H   UNL A   1      40.941  30.488  29.836  1.00  0.00     0.167 HD
ATOM     45  C   UNL A   1      44.816  32.455  29.556  1.00  0.00     0.031 A 
ATOM     46  C   UNL A   1      38.226  30.741  30.169  1.00  0.00     0.031 A 
ATOM     47  C   UNL A   1      44.818  31.987  30.914  1.00  0.00     0.049 A 
ATOM     48  C   UNL A   1      39.114  31.510  31.073  1.00  0.00     0.074 A 
ATOM     49  C   UNL A   1      45.471  30.977  31.591  1.00  0.00     0.029 A 
ATOM     50  N   UNL A   1      43.788  32.387  31.727  1.00  0.00    -0.354 N 
ATOM     51  N   UNL A   1      39.680  31.010  32.135  1.00  0.00    -0.248 NA
ATOM     52  C   UNL A   1      39.692  32.751  30.582  1.00  0.00     0.031 C 
ATOM     53  C   UNL A   1      44.527  30.506  32.547  1.00  0.00     0.029 A 
ATOM     54  C   UNL A   1      43.372  31.286  32.431  1.00  0.00     0.049 A 
ATOM     55  H   UNL A   1      43.415  33.296  31.793  1.00  0.00     0.167 HD
ATOM     56  C   UNL A   1      40.921  31.625  32.200  1.00  0.00     0.074 A 
ATOM     57  C   UNL A   1      40.827  32.761  31.285  1.00  0.00     0.031 C 
ATOM     58  C   UNL A   1      41.992  31.007  32.780  1.00  0.00     0.031 A 
BRANCH  45  59
ATOM     59  C   UNL A   1      45.034  33.906  29.209  1.00  0.00    -0.014 A 
ATOM     60  C   UNL A   1      44.032  34.885  29.357  1.00  0.00     0.010 A 
ATOM     61  C   UNL A   1      46.344  34.369  28.957  1.00  0.00     0.010 A 
ATOM     62  C   UNL A   1      44.306  36.250  29.245  1.00  0.00     0.020 A 
ATOM     63  C   UNL A   1      46.639  35.739  28.887  1.00  0.00     0.020 A 
ATOM     64  C   UNL A   1      45.613  36.671  29.028  1.00  0.00     0.054 A 
BRANCH  64  65
ATOM     65  S   UNL A   1      45.946  38.451  29.022  1.00  0.00     0.124 S 
ATOM     66  O   UNL A   1      46.754  38.600  27.815  1.00  0.00    -0.237 OA
ATOM     67  O   UNL A   1      44.602  39.019  28.955  1.00  0.00    -0.237 OA
ATOM     68  O   UNL A   1      46.653  38.673  30.280  1.00  0.00    -0.744 OA
ENDBRANCH  64  65
ENDBRANCH  45  59
BRANCH  46  69
ATOM     69  C   UNL A   1      36.935  31.291  29.683  1.00  0.00    -0.014 A 
ATOM     70  C   UNL A   1      36.869  31.899  28.413  1.00  0.00     0.010 A 
ATOM     71  C   UNL A   1      35.872  31.513  30.579  1.00  0.00     0.010 A 
ATOM     72  C   UNL A   1      35.828  32.771  28.081  1.00  0.00     0.020 A 
ATOM     73  C   UNL A   1      34.824  32.389  30.251  1.00  0.00     0.020 A 
ATOM     74  C   UNL A   1      34.833  33.043  29.017  1.00  0.00     0.054 A 
BRANCH  74  75
ATOM     75  S   UNL A   1      33.617  34.335  28.631  1.00  0.00     0.124 S 
ATOM     76  O   UNL A   1      33.101  34.669  29.960  1.00  0.00    -0.237 OA
ATOM     77  O   UNL A   1      34.445  35.369  28.009  1.00  0.00    -0.237 OA
ATOM     78  O   UNL A   1      32.675  33.676  27.742  1.00  0.00    -0.744 OA
ENDBRANCH  74  75
ENDBRANCH  46  69
BRANCH  58  79
ATOM     79  C   UNL A   1      41.761  29.769  33.622  1.00  0.00    -0.014 A 
ATOM     80  C   UNL A   1      41.880  29.903  35.017  1.00  0.00     0.010 A 
ATOM     81  C   UNL A   1      41.641  28.472  33.083  1.00  0.00     0.010 A 
ATOM     82  C   UNL A   1      41.925  28.782  35.849  1.00  0.00     0.020 A 
ATOM     83  C   UNL A   1      41.657  27.342  33.916  1.00  0.00     0.020 A 
ATOM     84  C   UNL A   1      41.829  27.506  35.292  1.00  0.00     0.054 A 
BRANCH  84  85
ATOM     85  S   UNL A   1      41.970  26.076  36.400  1.00  0.00     0.124 S 
ATOM     86  O   UNL A   1      42.359  26.701  37.663  1.00  0.00    -0.237 OA
ATOM     87  O   UNL A   1      40.622  25.512  36.375  1.00  0.00    -0.237 OA
ATOM     88  O   UNL A   1      42.998  25.244  35.779  1.00  0.00    -0.744 OA
ENDBRANCH  84  85
ENDBRANCH  58  79
ENDBRANCH  32  33
ENDBRANCH  24  27
ENDBRANCH  22  23
ENDBRANCH  21  22
ENDBRANCH   1  21
TORSDOF 18
ENDMDL
