MODEL 1
REMARK VINA RESULT:     -10.0      0.000      0.000
REMARK SMILES C[C@H]1OCC[C@@H]1C(=O)Nc1sc2c(c1C(=O)NCCCCCCNC(=O)c1ccc(-c3c4nc(c(-c5ccc(S(=O)(=O)[O-])cc5)c5ccc([nH]5)c(-c5ccc(S(=O)(=O)[O-])cc5)c5nc(c(-c6ccc(S(=O)(=O)[O-])cc6)c6ccc3[nH]6)C=C5)C=C4)cc1)CCC2
REMARK SMILES IDX 21 1 20 2 19 3 18 4 17 5 15 6 16 7 14 9 10 10 11 11 12 12
REMARK SMILES IDX 13 13 89 14 87 15 88 16 9 17 7 18 8 19 6 21 1 22 2 23 3 24
REMARK SMILES IDX 4 25 5 26 22 27 23 28 24 29 25 30 26 32 27 33 28 34 86 35
REMARK SMILES IDX 29 36 85 37 30 38 31 39 32 40 79 41 33 42 84 43 78 44 80 45
REMARK SMILES IDX 34 46 83 47 77 48 76 49 35 51 65 52 46 53 64 54 47 55 50 56
REMARK SMILES IDX 63 57 81 58 48 59 49 60 62 62 82 63 51 64 36 65 37 66 45 67
REMARK SMILES IDX 38 68 44 69 39 70 40 71 41 72 42 73 43 74 66 75 67 76 75 77
REMARK SMILES IDX 68 78 74 79 69 80 70 81 71 82 72 83 73 84 52 85 53 86 61 87
REMARK SMILES IDX 54 88 60 89 55 90 56 91 57 92 58 93 59 94
REMARK H PARENT 17 8 9 20 24 31 80 50 50 61
REMARK Flexibility Score: inf
ROOT
ATOM      1  C   UNL A   1      47.675  26.901  30.931  1.00  0.00     0.002 C 
ENDROOT
BRANCH   1   2
ATOM      2  C   UNL A   1      46.673  25.903  30.338  1.00  0.00     0.002 C 
BRANCH   2   3
ATOM      3  C   UNL A   1      46.303  26.382  28.969  1.00  0.00     0.021 C 
BRANCH   3   4
ATOM      4  C   UNL A   1      45.150  25.469  28.551  1.00  0.00     0.116 C 
BRANCH   4   5
ATOM      5  N   UNL A   1      44.551  24.534  29.423  1.00  0.00    -0.352 N 
ATOM      6  C   UNL A   1      43.297  23.939  29.157  1.00  0.00     0.254 C 
ATOM      7  O   UNL A   1      43.013  22.963  29.864  1.00  0.00    -0.269 OA
ATOM      8  H   UNL A   1      45.025  24.287  30.250  1.00  0.00     0.163 HD
BRANCH   6   9
ATOM      9  C   UNL A   1      42.198  24.684  28.322  1.00  0.00     0.078 A 
ATOM     10  C   UNL A   1      41.377  24.039  27.356  1.00  0.00     0.108 A 
ATOM     11  S   UNL A   1      40.477  25.151  26.374  1.00  0.00    -0.122 S 
ATOM     12  C   UNL A   1      40.866  26.402  27.399  1.00  0.00     0.011 A 
ATOM     13  C   UNL A   1      41.684  26.043  28.423  1.00  0.00    -0.019 A 
ATOM     14  C   UNL A   1      40.600  27.866  27.362  1.00  0.00     0.047 C 
ATOM     15  C   UNL A   1      41.925  27.274  29.258  1.00  0.00     0.038 C 
ATOM     16  C   UNL A   1      40.978  28.330  28.775  1.00  0.00     0.010 C 
BRANCH  10  17
ATOM     17  N   UNL A   1      41.109  22.716  27.002  1.00  0.00    -0.317 N 
ATOM     18  C   UNL A   1      41.889  21.827  26.273  1.00  0.00     0.230 C 
ATOM     19  O   UNL A   1      41.401  20.726  25.977  1.00  0.00    -0.274 OA
ATOM     20  H   UNL A   1      40.245  22.362  27.313  1.00  0.00     0.170 HD
BRANCH  18  21
ATOM     21  C   UNL A   1      43.377  22.094  25.886  1.00  0.00     0.110 C 
ATOM     22  C   UNL A   1      44.178  24.248  25.020  1.00  0.00     0.039 C 
ATOM     23  C   UNL A   1      43.500  22.972  24.644  1.00  0.00     0.127 C 
ATOM     24  O   UNL A   1      44.362  22.363  23.670  1.00  0.00    -0.378 OA
ATOM     25  C   UNL A   1      44.890  21.182  24.226  1.00  0.00     0.161 C 
ATOM     26  C   UNL A   1      44.086  20.895  25.434  1.00  0.00     0.044 C 
ENDBRANCH  18  21
ENDBRANCH  10  17
ENDBRANCH   6   9
ENDBRANCH   4   5
ENDBRANCH   3   4
ENDBRANCH   2   3
ENDBRANCH   1   2
BRANCH   1  27
ATOM     27  C   UNL A   1      48.028  26.523  32.351  1.00  0.00     0.021 C 
BRANCH  27  28
ATOM     28  C   UNL A   1      47.113  27.259  33.262  1.00  0.00     0.116 C 
BRANCH  28  29
ATOM     29  N   UNL A   1      47.444  27.045  34.649  1.00  0.00    -0.352 N 
ATOM     30  C   UNL A   1      46.521  26.708  35.613  1.00  0.00     0.251 C 
ATOM     31  H   UNL A   1      48.384  27.147  34.922  1.00  0.00     0.163 HD
ATOM     32  O   UNL A   1      46.866  26.705  36.791  1.00  0.00    -0.269 OA
BRANCH  30  33
ATOM     33  C   UNL A   1      45.158  26.196  35.084  1.00  0.00     0.039 A 
ATOM     34  C   UNL A   1      45.021  25.484  33.967  1.00  0.00     0.014 A 
ATOM     35  C   UNL A   1      43.968  26.985  35.171  1.00  0.00     0.014 A 
ATOM     36  C   UNL A   1      43.825  26.114  32.901  1.00  0.00     0.010 A 
ATOM     37  C   UNL A   1      42.716  27.280  34.343  1.00  0.00     0.010 A 
ATOM     38  C   UNL A   1      42.826  27.575  32.977  1.00  0.00    -0.014 A 
BRANCH  38  39
ATOM     39  C   UNL A   1      41.463  28.921  32.357  1.00  0.00     0.031 A 
ATOM     40  C   UNL A   1      43.318  29.542  31.779  1.00  0.00     0.074 A 
ATOM     41  C   UNL A   1      39.593  29.035  32.338  1.00  0.00     0.049 A 
ATOM     42  N   UNL A   1      44.321  30.018  32.607  1.00  0.00    -0.248 NA
ATOM     43  C   UNL A   1      44.854  29.156  30.683  1.00  0.00     0.031 C 
ATOM     44  C   UNL A   1      37.629  29.162  32.314  1.00  0.00     0.029 A 
ATOM     45  N   UNL A   1      38.553  30.482  31.991  1.00  0.00    -0.354 N 
ATOM     46  C   UNL A   1      45.115  30.893  31.717  1.00  0.00     0.074 A 
ATOM     47  C   UNL A   1      45.716  30.218  30.669  1.00  0.00     0.031 C 
ATOM     48  C   UNL A   1      36.341  29.731  31.732  1.00  0.00     0.029 A 
ATOM     49  C   UNL A   1      37.084  30.723  31.142  1.00  0.00     0.049 A 
ATOM     50  H   UNL A   1      38.913  31.313  32.376  1.00  0.00     0.167 HD
ATOM     51  C   UNL A   1      44.522  32.026  31.316  1.00  0.00     0.031 A 
ATOM     52  C   UNL A   1      36.631  31.573  30.110  1.00  0.00     0.031 A 
ATOM     53  C   UNL A   1      43.506  32.261  32.251  1.00  0.00     0.049 A 
ATOM     54  C   UNL A   1      37.933  32.190  30.190  1.00  0.00     0.074 A 
ATOM     55  C   UNL A   1      43.567  32.149  33.624  1.00  0.00     0.029 A 
ATOM     56  N   UNL A   1      42.246  31.978  31.860  1.00  0.00    -0.354 N 
ATOM     57  N   UNL A   1      38.306  32.894  31.243  1.00  0.00    -0.248 NA
ATOM     58  C   UNL A   1      38.917  31.422  29.439  1.00  0.00     0.031 C 
ATOM     59  C   UNL A   1      42.268  31.989  34.072  1.00  0.00     0.029 A 
ATOM     60  C   UNL A   1      41.457  31.972  32.960  1.00  0.00     0.049 A 
ATOM     61  H   UNL A   1      41.952  31.806  30.936  1.00  0.00     0.167 HD
ATOM     62  C   UNL A   1      39.590  32.432  31.532  1.00  0.00     0.074 A 
ATOM     63  C   UNL A   1      39.944  31.618  30.268  1.00  0.00     0.031 C 
ATOM     64  C   UNL A   1      40.065  32.141  32.833  1.00  0.00     0.031 A 
BRANCH  51  65
ATOM     65  C   UNL A   1      44.665  32.724  30.028  1.00  0.00    -0.014 A 
ATOM     66  C   UNL A   1      43.740  32.233  29.125  1.00  0.00     0.010 A 
ATOM     67  C   UNL A   1      45.641  33.660  29.612  1.00  0.00     0.010 A 
ATOM     68  C   UNL A   1      43.850  32.542  27.787  1.00  0.00     0.020 A 
ATOM     69  C   UNL A   1      45.682  34.062  28.273  1.00  0.00     0.020 A 
ATOM     70  C   UNL A   1      44.774  33.502  27.368  1.00  0.00     0.054 A 
BRANCH  70  71
ATOM     71  S   UNL A   1      44.684  34.084  25.646  1.00  0.00     0.124 S 
ATOM     72  O   UNL A   1      45.922  34.842  25.500  1.00  0.00    -0.237 OA
ATOM     73  O   UNL A   1      44.622  32.829  24.899  1.00  0.00    -0.237 OA
ATOM     74  O   UNL A   1      43.455  34.873  25.615  1.00  0.00    -0.744 OA
ENDBRANCH  70  71
ENDBRANCH  51  65
BRANCH  52  75
ATOM     75  C   UNL A   1      35.858  31.052  28.816  1.00  0.00    -0.014 A 
ATOM     76  C   UNL A   1      35.949  29.771  28.203  1.00  0.00     0.010 A 
ATOM     77  C   UNL A   1      34.829  31.868  28.279  1.00  0.00     0.010 A 
ATOM     78  C   UNL A   1      35.008  29.316  27.212  1.00  0.00     0.020 A 
ATOM     79  C   UNL A   1      33.841  31.403  27.371  1.00  0.00     0.020 A 
ATOM     80  C   UNL A   1      33.898  30.101  26.884  1.00  0.00     0.054 A 
BRANCH  80  81
ATOM     81  S   UNL A   1      32.483  29.386  25.937  1.00  0.00     0.124 S 
ATOM     82  O   UNL A   1      31.557  30.511  25.843  1.00  0.00    -0.237 OA
ATOM     83  O   UNL A   1      33.106  28.982  24.679  1.00  0.00    -0.237 OA
ATOM     84  O   UNL A   1      32.025  28.279  26.775  1.00  0.00    -0.744 OA
ENDBRANCH  80  81
ENDBRANCH  52  75
BRANCH  64  85
ATOM     85  C   UNL A   1      39.279  32.168  34.216  1.00  0.00    -0.014 A 
ATOM     86  C   UNL A   1      38.431  33.181  34.786  1.00  0.00     0.010 A 
ATOM     87  C   UNL A   1      39.381  31.013  34.965  1.00  0.00     0.010 A 
ATOM     88  C   UNL A   1      38.046  33.184  36.136  1.00  0.00     0.020 A 
ATOM     89  C   UNL A   1      38.840  30.922  36.254  1.00  0.00     0.020 A 
ATOM     90  C   UNL A   1      38.193  32.009  36.849  1.00  0.00     0.054 A 
BRANCH  90  91
ATOM     91  S   UNL A   1      37.404  31.850  38.484  1.00  0.00     0.124 S 
ATOM     92  O   UNL A   1      37.025  30.441  38.529  1.00  0.00    -0.237 OA
ATOM     93  O   UNL A   1      38.479  32.234  39.399  1.00  0.00    -0.237 OA
ATOM     94  O   UNL A   1      36.291  32.795  38.422  1.00  0.00    -0.744 OA
ENDBRANCH  90  91
ENDBRANCH  64  85
ENDBRANCH  38  39
ENDBRANCH  30  33
ENDBRANCH  28  29
ENDBRANCH  27  28
ENDBRANCH   1  27
TORSDOF 18
ENDMDL
MODEL 2
REMARK VINA RESULT:      -9.8      2.797      8.445
REMARK SMILES C[C@H]1OCC[C@@H]1C(=O)Nc1sc2c(c1C(=O)NCCCCCCNC(=O)c1ccc(-c3c4nc(c(-c5ccc(S(=O)(=O)[O-])cc5)c5ccc([nH]5)c(-c5ccc(S(=O)(=O)[O-])cc5)c5nc(c(-c6ccc(S(=O)(=O)[O-])cc6)c6ccc3[nH]6)C=C5)C=C4)cc1)CCC2
REMARK SMILES IDX 21 1 20 2 19 3 18 4 17 5 15 6 16 7 14 9 10 10 11 11 12 12
REMARK SMILES IDX 13 13 89 14 87 15 88 16 9 17 7 18 8 19 6 21 1 22 2 23 3 24
REMARK SMILES IDX 4 25 5 26 22 27 23 28 24 29 25 30 26 32 27 33 28 34 86 35
REMARK SMILES IDX 29 36 85 37 30 38 31 39 32 40 79 41 33 42 84 43 78 44 80 45
REMARK SMILES IDX 34 46 83 47 77 48 76 49 35 51 65 52 46 53 64 54 47 55 50 56
REMARK SMILES IDX 63 57 81 58 48 59 49 60 62 62 82 63 51 64 36 65 37 66 45 67
REMARK SMILES IDX 38 68 44 69 39 70 40 71 41 72 42 73 43 74 66 75 67 76 75 77
REMARK SMILES IDX 68 78 74 79 69 80 70 81 71 82 72 83 73 84 52 85 53 86 61 87
REMARK SMILES IDX 54 88 60 89 55 90 56 91 57 92 58 93 59 94
REMARK H PARENT 17 8 9 20 24 31 80 50 50 61
REMARK Flexibility Score: inf
ROOT
ATOM      1  C   UNL A   1      45.451  29.027  27.383  1.00  0.00     0.002 C 
ENDROOT
BRANCH   1   2
ATOM      2  C   UNL A   1      44.192  28.307  26.887  1.00  0.00     0.002 C 
BRANCH   2   3
ATOM      3  C   UNL A   1      44.526  27.637  25.590  1.00  0.00     0.021 C 
BRANCH   3   4
ATOM      4  C   UNL A   1      43.421  26.597  25.411  1.00  0.00     0.116 C 
BRANCH   4   5
ATOM      5  N   UNL A   1      43.612  25.379  24.722  1.00  0.00    -0.352 N 
ATOM      6  C   UNL A   1      43.758  24.141  25.388  1.00  0.00     0.254 C 
ATOM      7  O   UNL A   1      43.664  23.138  24.669  1.00  0.00    -0.269 OA
ATOM      8  H   UNL A   1      43.645  25.392  23.738  1.00  0.00     0.163 HD
BRANCH   6   9
ATOM      9  C   UNL A   1      44.379  24.054  26.826  1.00  0.00     0.078 A 
ATOM     10  C   UNL A   1      43.835  23.250  27.866  1.00  0.00     0.108 A 
ATOM     11  S   UNL A   1      44.531  23.584  29.420  1.00  0.00    -0.122 S 
ATOM     12  C   UNL A   1      45.739  24.479  28.709  1.00  0.00     0.011 A 
ATOM     13  C   UNL A   1      45.623  24.589  27.359  1.00  0.00    -0.019 A 
ATOM     14  C   UNL A   1      46.860  25.290  29.258  1.00  0.00     0.047 C 
ATOM     15  C   UNL A   1      46.792  25.408  26.874  1.00  0.00     0.038 C 
ATOM     16  C   UNL A   1      47.736  25.561  28.027  1.00  0.00     0.010 C 
BRANCH  10  17
ATOM     17  N   UNL A   1      42.871  22.245  27.946  1.00  0.00    -0.317 N 
ATOM     18  C   UNL A   1      41.500  22.323  27.728  1.00  0.00     0.230 C 
ATOM     19  O   UNL A   1      40.811  21.320  27.968  1.00  0.00    -0.274 OA
ATOM     20  H   UNL A   1      43.208  21.354  28.190  1.00  0.00     0.170 HD
BRANCH  18  21
ATOM     21  C   UNL A   1      40.789  23.567  27.110  1.00  0.00     0.110 C 
ATOM     22  C   UNL A   1      40.981  25.830  28.045  1.00  0.00     0.039 C 
ATOM     23  C   UNL A   1      40.272  24.524  28.181  1.00  0.00     0.127 C 
ATOM     24  O   UNL A   1      38.884  24.828  27.967  1.00  0.00    -0.378 OA
ATOM     25  C   UNL A   1      38.475  24.207  26.772  1.00  0.00     0.161 C 
ATOM     26  C   UNL A   1      39.540  23.241  26.420  1.00  0.00     0.044 C 
ENDBRANCH  18  21
ENDBRANCH  10  17
ENDBRANCH   6   9
ENDBRANCH   4   5
ENDBRANCH   3   4
ENDBRANCH   2   3
ENDBRANCH   1   2
BRANCH   1  27
ATOM     27  C   UNL A   1      45.827  30.153  26.446  1.00  0.00     0.021 C 
BRANCH  27  28
ATOM     28  C   UNL A   1      44.914  31.295  26.714  1.00  0.00     0.116 C 
BRANCH  28  29
ATOM     29  N   UNL A   1      44.813  32.183  25.583  1.00  0.00    -0.352 N 
ATOM     30  C   UNL A   1      44.479  33.515  25.683  1.00  0.00     0.251 C 
ATOM     31  H   UNL A   1      44.993  31.816  24.688  1.00  0.00     0.163 HD
ATOM     32  O   UNL A   1      44.260  34.151  24.656  1.00  0.00    -0.269 OA
BRANCH  30  33
ATOM     33  C   UNL A   1      44.579  34.124  27.103  1.00  0.00     0.039 A 
ATOM     34  C   UNL A   1      45.584  33.878  27.943  1.00  0.00     0.014 A 
ATOM     35  C   UNL A   1      43.429  34.291  27.938  1.00  0.00     0.014 A 
ATOM     36  C   UNL A   1      45.058  33.389  29.507  1.00  0.00     0.010 A 
ATOM     37  C   UNL A   1      43.050  34.180  29.415  1.00  0.00     0.010 A 
ATOM     38  C   UNL A   1      43.446  33.062  30.165  1.00  0.00    -0.014 A 
BRANCH  38  39
ATOM     39  C   UNL A   1      42.083  32.524  31.544  1.00  0.00     0.031 A 
ATOM     40  C   UNL A   1      43.347  30.958  31.216  1.00  0.00     0.074 A 
ATOM     41  C   UNL A   1      40.712  33.382  32.491  1.00  0.00     0.049 A 
ATOM     42  N   UNL A   1      43.409  30.176  30.075  1.00  0.00    -0.248 NA
ATOM     43  C   UNL A   1      45.159  30.320  31.357  1.00  0.00     0.031 C 
ATOM     44  C   UNL A   1      39.272  34.276  33.491  1.00  0.00     0.029 A 
ATOM     45  N   UNL A   1      39.393  32.637  33.492  1.00  0.00    -0.354 N 
ATOM     46  C   UNL A   1      43.942  28.888  30.569  1.00  0.00     0.074 A 
ATOM     47  C   UNL A   1      45.221  28.981  31.088  1.00  0.00     0.031 C 
ATOM     48  C   UNL A   1      38.347  34.362  34.699  1.00  0.00     0.029 A 
ATOM     49  C   UNL A   1      38.640  33.050  34.975  1.00  0.00     0.049 A 
ATOM     50  H   UNL A   1      39.030  31.814  33.094  1.00  0.00     0.167 HD
ATOM     51  C   UNL A   1      43.128  28.171  31.356  1.00  0.00     0.031 A 
ATOM     52  C   UNL A   1      38.375  32.398  36.199  1.00  0.00     0.031 A 
ATOM     53  C   UNL A   1      41.839  28.643  31.079  1.00  0.00     0.049 A 
ATOM     54  C   UNL A   1      38.935  31.224  35.575  1.00  0.00     0.074 A 
ATOM     55  C   UNL A   1      41.279  28.928  29.850  1.00  0.00     0.029 A 
ATOM     56  N   UNL A   1      41.285  29.464  31.995  1.00  0.00    -0.354 N 
ATOM     57  N   UNL A   1      38.324  30.609  34.577  1.00  0.00    -0.248 NA
ATOM     58  C   UNL A   1      40.389  31.247  35.638  1.00  0.00     0.031 C 
ATOM     59  C   UNL A   1      40.230  29.799  30.079  1.00  0.00     0.029 A 
ATOM     60  C   UNL A   1      40.201  30.050  31.432  1.00  0.00     0.049 A 
ATOM     61  H   UNL A   1      41.611  29.611  32.912  1.00  0.00     0.167 HD
ATOM     62  C   UNL A   1      39.332  30.388  33.638  1.00  0.00     0.074 A 
ATOM     63  C   UNL A   1      40.614  30.690  34.446  1.00  0.00     0.031 C 
ATOM     64  C   UNL A   1      39.193  30.600  32.246  1.00  0.00     0.031 A 
BRANCH  51  65
ATOM     65  C   UNL A   1      43.486  27.301  32.487  1.00  0.00    -0.014 A 
ATOM     66  C   UNL A   1      44.207  26.213  32.029  1.00  0.00     0.010 A 
ATOM     67  C   UNL A   1      43.096  27.378  33.845  1.00  0.00     0.010 A 
ATOM     68  C   UNL A   1      44.429  25.133  32.857  1.00  0.00     0.020 A 
ATOM     69  C   UNL A   1      43.420  26.331  34.715  1.00  0.00     0.020 A 
ATOM     70  C   UNL A   1      44.095  25.215  34.210  1.00  0.00     0.054 A 
BRANCH  70  71
ATOM     71  S   UNL A   1      44.667  23.886  35.315  1.00  0.00     0.124 S 
ATOM     72  O   UNL A   1      44.063  24.250  36.592  1.00  0.00    -0.237 OA
ATOM     73  O   UNL A   1      44.116  22.693  34.674  1.00  0.00    -0.237 OA
ATOM     74  O   UNL A   1      46.123  23.993  35.254  1.00  0.00    -0.744 OA
ENDBRANCH  70  71
ENDBRANCH  51  65
BRANCH  52  75
ATOM     75  C   UNL A   1      38.722  33.025  37.623  1.00  0.00    -0.014 A 
ATOM     76  C   UNL A   1      39.643  34.072  37.915  1.00  0.00     0.010 A 
ATOM     77  C   UNL A   1      37.928  32.640  38.735  1.00  0.00     0.010 A 
ATOM     78  C   UNL A   1      39.675  34.745  39.188  1.00  0.00     0.020 A 
ATOM     79  C   UNL A   1      37.886  33.351  39.963  1.00  0.00     0.020 A 
ATOM     80  C   UNL A   1      38.720  34.446  40.165  1.00  0.00     0.054 A 
BRANCH  80  81
ATOM     81  S   UNL A   1      38.487  35.553  41.624  1.00  0.00     0.124 S 
ATOM     82  O   UNL A   1      38.575  36.886  41.035  1.00  0.00    -0.237 OA
ATOM     83  O   UNL A   1      37.165  35.171  42.114  1.00  0.00    -0.237 OA
ATOM     84  O   UNL A   1      39.593  35.198  42.513  1.00  0.00    -0.744 OA
ENDBRANCH  80  81
ENDBRANCH  52  75
BRANCH  64  85
ATOM     85  C   UNL A   1      37.958  31.202  31.443  1.00  0.00    -0.014 A 
ATOM     86  C   UNL A   1      36.546  31.110  31.700  1.00  0.00     0.010 A 
ATOM     87  C   UNL A   1      38.298  31.984  30.358  1.00  0.00     0.010 A 
ATOM     88  C   UNL A   1      35.572  31.446  30.745  1.00  0.00     0.020 A 
ATOM     89  C   UNL A   1      37.326  32.493  29.485  1.00  0.00     0.020 A 
ATOM     90  C   UNL A   1      35.969  32.208  29.663  1.00  0.00     0.054 A 
BRANCH  90  91
ATOM     91  S   UNL A   1      34.705  32.956  28.584  1.00  0.00     0.124 S 
ATOM     92  O   UNL A   1      35.504  33.626  27.561  1.00  0.00    -0.237 OA
ATOM     93  O   UNL A   1      33.948  31.795  28.120  1.00  0.00    -0.237 OA
ATOM     94  O   UNL A   1      33.970  33.845  29.482  1.00  0.00    -0.744 OA
ENDBRANCH  90  91
ENDBRANCH  64  85
ENDBRANCH  38  39
ENDBRANCH  30  33
ENDBRANCH  28  29
ENDBRANCH  27  28
ENDBRANCH   1  27
TORSDOF 18
ENDMDL
MODEL 3
REMARK VINA RESULT:      -9.8      1.738      2.789
REMARK SMILES C[C@H]1OCC[C@@H]1C(=O)Nc1sc2c(c1C(=O)NCCCCCCNC(=O)c1ccc(-c3c4nc(c(-c5ccc(S(=O)(=O)[O-])cc5)c5ccc([nH]5)c(-c5ccc(S(=O)(=O)[O-])cc5)c5nc(c(-c6ccc(S(=O)(=O)[O-])cc6)c6ccc3[nH]6)C=C5)C=C4)cc1)CCC2
REMARK SMILES IDX 21 1 20 2 19 3 18 4 17 5 15 6 16 7 14 9 10 10 11 11 12 12
REMARK SMILES IDX 13 13 89 14 87 15 88 16 9 17 7 18 8 19 6 21 1 22 2 23 3 24
REMARK SMILES IDX 4 25 5 26 22 27 23 28 24 29 25 30 26 32 27 33 28 34 86 35
REMARK SMILES IDX 29 36 85 37 30 38 31 39 32 40 79 41 33 42 84 43 78 44 80 45
REMARK SMILES IDX 34 46 83 47 77 48 76 49 35 51 65 52 46 53 64 54 47 55 50 56
REMARK SMILES IDX 63 57 81 58 48 59 49 60 62 62 82 63 51 64 36 65 37 66 45 67
REMARK SMILES IDX 38 68 44 69 39 70 40 71 41 72 42 73 43 74 66 75 67 76 75 77
REMARK SMILES IDX 68 78 74 79 69 80 70 81 71 82 72 83 73 84 52 85 53 86 61 87
REMARK SMILES IDX 54 88 60 89 55 90 56 91 57 92 58 93 59 94
REMARK H PARENT 17 8 9 20 24 31 80 50 50 61
REMARK Flexibility Score: inf
ROOT
ATOM      1  C   UNL A   1      47.410  27.128  30.887  1.00  0.00     0.002 C 
ENDROOT
BRANCH   1   2
ATOM      2  C   UNL A   1      46.876  25.744  30.503  1.00  0.00     0.002 C 
BRANCH   2   3
ATOM      3  C   UNL A   1      45.877  25.926  29.402  1.00  0.00     0.021 C 
BRANCH   3   4
ATOM      4  C   UNL A   1      46.424  25.077  28.255  1.00  0.00     0.116 C 
BRANCH   4   5
ATOM      5  N   UNL A   1      45.617  24.222  27.474  1.00  0.00    -0.352 N 
ATOM      6  C   UNL A   1      44.691  24.707  26.522  1.00  0.00     0.254 C 
ATOM      7  O   UNL A   1      44.242  23.859  25.740  1.00  0.00    -0.269 OA
ATOM      8  H   UNL A   1      45.702  23.249  27.596  1.00  0.00     0.163 HD
BRANCH   6   9
ATOM      9  C   UNL A   1      43.995  26.103  26.694  1.00  0.00     0.078 A 
ATOM     10  C   UNL A   1      44.297  27.233  25.886  1.00  0.00     0.108 A 
ATOM     11  S   UNL A   1      43.614  28.708  26.493  1.00  0.00    -0.122 S 
ATOM     12  C   UNL A   1      42.668  27.852  27.561  1.00  0.00     0.011 A 
ATOM     13  C   UNL A   1      42.873  26.509  27.528  1.00  0.00    -0.019 A 
ATOM     14  C   UNL A   1      41.727  28.263  28.639  1.00  0.00     0.047 C 
ATOM     15  C   UNL A   1      41.938  25.888  28.533  1.00  0.00     0.038 C 
ATOM     16  C   UNL A   1      40.994  26.960  28.984  1.00  0.00     0.010 C 
BRANCH  10  17
ATOM     17  N   UNL A   1      45.012  27.451  24.708  1.00  0.00    -0.317 N 
ATOM     18  C   UNL A   1      46.373  27.672  24.534  1.00  0.00     0.230 C 
ATOM     19  O   UNL A   1      46.780  27.959  23.399  1.00  0.00    -0.274 OA
ATOM     20  H   UNL A   1      44.478  27.447  23.882  1.00  0.00     0.170 HD
BRANCH  18  21
ATOM     21  C   UNL A   1      47.433  27.490  25.665  1.00  0.00     0.110 C 
ATOM     22  C   UNL A   1      47.571  28.955  27.631  1.00  0.00     0.039 C 
ATOM     23  C   UNL A   1      47.947  28.826  26.192  1.00  0.00     0.127 C 
ATOM     24  O   UNL A   1      49.384  28.863  26.177  1.00  0.00    -0.378 OA
ATOM     25  C   UNL A   1      49.853  27.603  25.760  1.00  0.00     0.161 C 
ATOM     26  C   UNL A   1      48.684  26.889  25.200  1.00  0.00     0.044 C 
ENDBRANCH  18  21
ENDBRANCH  10  17
ENDBRANCH   6   9
ENDBRANCH   4   5
ENDBRANCH   3   4
ENDBRANCH   2   3
ENDBRANCH   1   2
BRANCH   1  27
ATOM     27  C   UNL A   1      48.021  27.100  32.270  1.00  0.00     0.021 C 
BRANCH  27  28
ATOM     28  C   UNL A   1      46.994  27.579  33.233  1.00  0.00     0.116 C 
BRANCH  28  29
ATOM     29  N   UNL A   1      47.340  27.258  34.595  1.00  0.00    -0.352 N 
ATOM     30  C   UNL A   1      46.439  26.790  35.523  1.00  0.00     0.251 C 
ATOM     31  H   UNL A   1      48.275  27.382  34.877  1.00  0.00     0.163 HD
ATOM     32  O   UNL A   1      46.788  26.698  36.697  1.00  0.00    -0.269 OA
BRANCH  30  33
ATOM     33  C   UNL A   1      45.103  26.259  34.950  1.00  0.00     0.039 A 
ATOM     34  C   UNL A   1      45.008  25.579  33.807  1.00  0.00     0.014 A 
ATOM     35  C   UNL A   1      43.890  27.012  35.035  1.00  0.00     0.014 A 
ATOM     36  C   UNL A   1      43.818  26.211  32.736  1.00  0.00     0.010 A 
ATOM     37  C   UNL A   1      42.648  27.300  34.190  1.00  0.00     0.010 A 
ATOM     38  C   UNL A   1      42.778  27.642  32.835  1.00  0.00    -0.014 A 
BRANCH  38  39
ATOM     39  C   UNL A   1      41.393  28.970  32.229  1.00  0.00     0.031 A 
ATOM     40  C   UNL A   1      43.229  29.593  31.597  1.00  0.00     0.074 A 
ATOM     41  C   UNL A   1      39.522  29.073  32.254  1.00  0.00     0.049 A 
ATOM     42  N   UNL A   1      44.249  30.088  32.393  1.00  0.00    -0.248 NA
ATOM     43  C   UNL A   1      44.740  29.200  30.470  1.00  0.00     0.031 C 
ATOM     44  C   UNL A   1      37.557  29.188  32.275  1.00  0.00     0.029 A 
ATOM     45  N   UNL A   1      38.465  30.509  31.910  1.00  0.00    -0.354 N 
ATOM     46  C   UNL A   1      45.015  30.953  31.471  1.00  0.00     0.074 A 
ATOM     47  C   UNL A   1      45.595  30.267  30.420  1.00  0.00     0.031 C 
ATOM     48  C   UNL A   1      36.251  29.741  31.716  1.00  0.00     0.029 A 
ATOM     49  C   UNL A   1      36.974  30.728  31.093  1.00  0.00     0.049 A 
ATOM     50  H   UNL A   1      38.829  31.348  32.273  1.00  0.00     0.167 HD
ATOM     51  C   UNL A   1      44.406  32.077  31.067  1.00  0.00     0.031 A 
ATOM     52  C   UNL A   1      36.491  31.559  30.060  1.00  0.00     0.031 A 
ATOM     53  C   UNL A   1      43.411  32.320  32.023  1.00  0.00     0.049 A 
ATOM     54  C   UNL A   1      37.791  32.185  30.099  1.00  0.00     0.074 A 
ATOM     55  C   UNL A   1      43.506  32.229  33.396  1.00  0.00     0.029 A 
ATOM     56  N   UNL A   1      42.144  32.024  31.667  1.00  0.00    -0.354 N 
ATOM     57  N   UNL A   1      38.185  32.907  31.132  1.00  0.00    -0.248 NA
ATOM     58  C   UNL A   1      38.761  31.412  29.336  1.00  0.00     0.031 C 
ATOM     59  C   UNL A   1      42.220  32.069  33.878  1.00  0.00     0.029 A 
ATOM     60  C   UNL A   1      41.381  32.030  32.786  1.00  0.00     0.049 A 
ATOM     61  H   UNL A   1      41.829  31.836  30.753  1.00  0.00     0.167 HD
ATOM     62  C   UNL A   1      39.478  32.457  31.397  1.00  0.00     0.074 A 
ATOM     63  C   UNL A   1      39.807  31.626  30.137  1.00  0.00     0.031 C 
ATOM     64  C   UNL A   1      39.986  32.189  32.690  1.00  0.00     0.031 A 
BRANCH  51  65
ATOM     65  C   UNL A   1      44.514  32.756  29.766  1.00  0.00    -0.014 A 
ATOM     66  C   UNL A   1      43.717  32.114  28.836  1.00  0.00     0.010 A 
ATOM     67  C   UNL A   1      45.365  33.813  29.367  1.00  0.00     0.010 A 
ATOM     68  C   UNL A   1      43.850  32.402  27.496  1.00  0.00     0.020 A 
ATOM     69  C   UNL A   1      45.417  34.183  28.019  1.00  0.00     0.020 A 
ATOM     70  C   UNL A   1      44.647  33.475  27.091  1.00  0.00     0.054 A 
BRANCH  70  71
ATOM     71  S   UNL A   1      44.564  33.995  25.349  1.00  0.00     0.124 S 
ATOM     72  O   UNL A   1      43.421  34.901  25.340  1.00  0.00    -0.237 OA
ATOM     73  O   UNL A   1      45.869  34.624  25.152  1.00  0.00    -0.237 OA
ATOM     74  O   UNL A   1      44.378  32.739  24.625  1.00  0.00    -0.744 OA
ENDBRANCH  70  71
ENDBRANCH  51  65
BRANCH  52  75
ATOM     75  C   UNL A   1      35.690  31.015  28.793  1.00  0.00    -0.014 A 
ATOM     76  C   UNL A   1      35.758  29.718  28.210  1.00  0.00     0.010 A 
ATOM     77  C   UNL A   1      34.660  31.828  28.254  1.00  0.00     0.010 A 
ATOM     78  C   UNL A   1      34.795  29.248  27.248  1.00  0.00     0.020 A 
ATOM     79  C   UNL A   1      33.652  31.351  27.375  1.00  0.00     0.020 A 
ATOM     80  C   UNL A   1      33.687  30.036  26.920  1.00  0.00     0.054 A 
BRANCH  80  81
ATOM     81  S   UNL A   1      32.250  29.312  26.015  1.00  0.00     0.124 S 
ATOM     82  O   UNL A   1      32.886  28.625  24.895  1.00  0.00    -0.237 OA
ATOM     83  O   UNL A   1      31.639  28.443  27.018  1.00  0.00    -0.237 OA
ATOM     84  O   UNL A   1      31.446  30.477  25.646  1.00  0.00    -0.744 OA
ENDBRANCH  80  81
ENDBRANCH  52  75
BRANCH  64  85
ATOM     85  C   UNL A   1      39.233  32.232  34.091  1.00  0.00    -0.014 A 
ATOM     86  C   UNL A   1      38.539  33.311  34.742  1.00  0.00     0.010 A 
ATOM     87  C   UNL A   1      39.192  31.029  34.765  1.00  0.00     0.010 A 
ATOM     88  C   UNL A   1      38.180  33.279  36.099  1.00  0.00     0.020 A 
ATOM     89  C   UNL A   1      38.664  30.929  36.060  1.00  0.00     0.020 A 
ATOM     90  C   UNL A   1      38.179  32.053  36.736  1.00  0.00     0.054 A 
BRANCH  90  91
ATOM     91  S   UNL A   1      37.403  31.896  38.377  1.00  0.00     0.124 S 
ATOM     92  O   UNL A   1      38.469  32.313  39.284  1.00  0.00    -0.237 OA
ATOM     93  O   UNL A   1      36.270  32.816  38.287  1.00  0.00    -0.237 OA
ATOM     94  O   UNL A   1      37.038  30.483  38.451  1.00  0.00    -0.744 OA
ENDBRANCH  90  91
ENDBRANCH  64  85
ENDBRANCH  38  39
ENDBRANCH  30  33
ENDBRANCH  28  29
ENDBRANCH  27  28
ENDBRANCH   1  27
TORSDOF 18
ENDMDL
