MODEL 1
REMARK VINA RESULT:     -11.0      0.000      0.000
REMARK SMILES C[C@H](Oc1ccc(C(=O)NCc2ccccc2)cc1)C(=O)NCCCCCCNC(=O)c1ccc(-c2c3nc(c(-c4ccc(S(=O)(=O)[O-])cc4)c4ccc([nH]4)c(-c4ccc(S(=O)(=O)[O-])cc4)c4nc(c(-c5ccc(S(=O)(=O)[O-])cc5)c5ccc2[nH]5)C=C4)C=C3)cc1
REMARK SMILES IDX 24 1 23 2 22 3 20 4 21 5 2 7 1 8 3 9 4 10 5 11 19 12 6 13
REMARK SMILES IDX 18 14 7 15 8 16 9 17 10 18 11 20 12 21 13 22 17 23 14 24
REMARK SMILES IDX 16 25 15 26 25 27 26 28 27 29 28 30 29 31 30 32 31 34 32 35
REMARK SMILES IDX 33 36 91 37 34 38 90 39 35 40 36 41 37 42 84 43 38 44 89 45
REMARK SMILES IDX 83 46 85 47 39 48 88 49 82 50 81 51 40 53 70 54 51 55 69 56
REMARK SMILES IDX 52 57 55 58 68 59 86 60 53 61 54 62 67 64 87 65 56 66 41 67
REMARK SMILES IDX 42 68 50 69 43 70 49 71 44 72 45 73 46 74 47 75 48 76 71 77
REMARK SMILES IDX 72 78 80 79 73 80 79 81 74 82 75 83 76 84 77 85 78 86 57 87
REMARK SMILES IDX 58 88 66 89 59 90 65 91 60 92 61 93 62 94 63 95 64 96
REMARK H PARENT 22 6 10 19 29 33 85 52 55 63
REMARK Flexibility Score: inf
ROOT
ATOM      1  C   UNL A   1      33.614  26.118  22.865  1.00  0.00     0.021 C 
ENDROOT
BRANCH   1   2
ATOM      2  C   UNL A   1      33.194  27.530  23.257  1.00  0.00     0.116 C 
BRANCH   2   3
ATOM      3  N   UNL A   1      32.190  28.063  22.350  1.00  0.00    -0.353 N 
ATOM      4  C   UNL A   1      30.883  28.383  22.600  1.00  0.00     0.260 C 
ATOM      5  O   UNL A   1      30.201  28.816  21.668  1.00  0.00    -0.271 OA
ATOM      6  H   UNL A   1      32.494  28.215  21.427  1.00  0.00     0.163 HD
BRANCH   4   7
ATOM      7  C   UNL A   1      30.312  28.257  24.023  1.00  0.00     0.258 C 
ATOM      8  C   UNL A   1      31.423  28.640  25.007  1.00  0.00     0.064 C 
BRANCH   7   9
ATOM      9  O   UNL A   1      29.696  26.966  24.068  1.00  0.00    -0.481 OA
BRANCH   9  10
ATOM     10  C   UNL A   1      30.233  25.891  24.694  1.00  0.00     0.120 A 
ATOM     11  C   UNL A   1      30.618  25.812  26.022  1.00  0.00     0.047 A 
ATOM     12  C   UNL A   1      30.409  24.776  23.869  1.00  0.00     0.047 A 
ATOM     13  C   UNL A   1      31.256  24.658  26.492  1.00  0.00     0.017 A 
ATOM     14  C   UNL A   1      31.045  23.620  24.336  1.00  0.00     0.017 A 
ATOM     15  C   UNL A   1      31.476  23.546  25.660  1.00  0.00     0.040 A 
BRANCH  15  16
ATOM     16  C   UNL A   1      32.239  22.413  26.253  1.00  0.00     0.251 C 
ATOM     17  O   UNL A   1      32.667  22.539  27.401  1.00  0.00    -0.269 OA
ATOM     18  N   UNL A   1      32.490  21.231  25.619  1.00  0.00    -0.348 N 
ATOM     19  H   UNL A   1      33.040  20.616  26.156  1.00  0.00     0.164 HD
BRANCH  18  20
ATOM     20  C   UNL A   1      32.125  20.681  24.330  1.00  0.00     0.152 C 
BRANCH  20  21
ATOM     21  C   UNL A   1      32.870  19.396  24.053  1.00  0.00    -0.029 A 
ATOM     22  C   UNL A   1      34.074  19.124  24.720  1.00  0.00     0.005 A 
ATOM     23  C   UNL A   1      32.388  18.451  23.132  1.00  0.00     0.005 A 
ATOM     24  C   UNL A   1      34.788  17.954  24.450  1.00  0.00     0.000 A 
ATOM     25  C   UNL A   1      33.100  17.280  22.868  1.00  0.00     0.000 A 
ATOM     26  C   UNL A   1      34.303  17.035  23.522  1.00  0.00     0.000 A 
ENDBRANCH  20  21
ENDBRANCH  18  20
ENDBRANCH  15  16
ENDBRANCH   9  10
ENDBRANCH   7   9
ENDBRANCH   4   7
ENDBRANCH   2   3
ENDBRANCH   1   2
BRANCH   1  27
ATOM     27  C   UNL A   1      34.241  25.317  24.009  1.00  0.00     0.002 C 
BRANCH  27  28
ATOM     28  C   UNL A   1      34.781  23.940  23.611  1.00  0.00     0.002 C 
BRANCH  28  29
ATOM     29  C   UNL A   1      35.476  23.168  24.735  1.00  0.00     0.021 C 
BRANCH  29  30
ATOM     30  C   UNL A   1      36.798  23.774  25.194  1.00  0.00     0.116 C 
BRANCH  30  31
ATOM     31  N   UNL A   1      37.791  22.756  25.496  1.00  0.00    -0.352 N 
ATOM     32  C   UNL A   1      39.013  22.893  26.108  1.00  0.00     0.251 C 
ATOM     33  H   UNL A   1      37.555  21.841  25.224  1.00  0.00     0.163 HD
ATOM     34  O   UNL A   1      39.810  21.963  26.107  1.00  0.00    -0.269 OA
BRANCH  32  35
ATOM     35  C   UNL A   1      39.365  24.179  26.749  1.00  0.00     0.039 A 
ATOM     36  C   UNL A   1      38.982  24.404  28.072  1.00  0.00     0.014 A 
ATOM     37  C   UNL A   1      40.076  25.155  26.044  1.00  0.00     0.014 A 
ATOM     38  C   UNL A   1      39.364  25.587  28.709  1.00  0.00     0.010 A 
ATOM     39  C   UNL A   1      40.521  26.297  26.704  1.00  0.00     0.010 A 
ATOM     40  C   UNL A   1      40.163  26.529  28.041  1.00  0.00    -0.014 A 
BRANCH  40  41
ATOM     41  C   UNL A   1      40.629  27.768  28.716  1.00  0.00     0.031 A 
ATOM     42  C   UNL A   1      42.012  27.825  29.309  1.00  0.00     0.074 A 
ATOM     43  C   UNL A   1      39.790  28.814  28.852  1.00  0.00     0.049 A 
ATOM     44  N   UNL A   1      42.572  28.783  30.004  1.00  0.00    -0.248 NA
ATOM     45  C   UNL A   1      42.871  26.643  29.120  1.00  0.00     0.031 C 
ATOM     46  C   UNL A   1      38.414  28.870  28.350  1.00  0.00     0.029 A 
ATOM     47  N   UNL A   1      39.968  30.032  29.462  1.00  0.00    -0.354 N 
ATOM     48  C   UNL A   1      43.835  28.314  30.347  1.00  0.00     0.074 A 
ATOM     49  C   UNL A   1      43.940  26.967  29.830  1.00  0.00     0.031 C 
ATOM     50  C   UNL A   1      37.884  30.067  28.651  1.00  0.00     0.029 A 
ATOM     51  C   UNL A   1      38.859  30.845  29.407  1.00  0.00     0.049 A 
ATOM     52  H   UNL A   1      40.809  30.297  29.898  1.00  0.00     0.167 HD
ATOM     53  C   UNL A   1      44.824  28.952  31.015  1.00  0.00     0.031 A 
ATOM     54  C   UNL A   1      38.646  32.073  29.919  1.00  0.00     0.031 A 
ATOM     55  C   UNL A   1      44.719  30.298  31.514  1.00  0.00     0.049 A 
ATOM     56  C   UNL A   1      39.756  32.753  30.677  1.00  0.00     0.074 A 
ATOM     57  C   UNL A   1      45.686  31.052  32.156  1.00  0.00     0.029 A 
ATOM     58  N   UNL A   1      43.584  31.089  31.429  1.00  0.00    -0.354 N 
ATOM     59  N   UNL A   1      40.965  32.315  30.936  1.00  0.00    -0.248 NA
ATOM     60  C   UNL A   1      39.476  34.097  31.202  1.00  0.00     0.031 C 
ATOM     61  C   UNL A   1      45.115  32.277  32.515  1.00  0.00     0.029 A 
ATOM     62  C   UNL A   1      43.817  32.314  32.031  1.00  0.00     0.049 A 
ATOM     63  H   UNL A   1      42.738  30.821  31.003  1.00  0.00     0.167 HD
ATOM     64  C   UNL A   1      41.601  33.347  31.621  1.00  0.00     0.074 A 
ATOM     65  C   UNL A   1      40.648  34.430  31.724  1.00  0.00     0.031 C 
ATOM     66  C   UNL A   1      42.863  33.391  32.115  1.00  0.00     0.031 A 
BRANCH  53  67
ATOM     67  C   UNL A   1      46.109  28.204  31.253  1.00  0.00    -0.014 A 
ATOM     68  C   UNL A   1      47.171  28.266  30.331  1.00  0.00     0.010 A 
ATOM     69  C   UNL A   1      46.284  27.479  32.447  1.00  0.00     0.010 A 
ATOM     70  C   UNL A   1      48.368  27.591  30.584  1.00  0.00     0.020 A 
ATOM     71  C   UNL A   1      47.491  26.830  32.718  1.00  0.00     0.020 A 
ATOM     72  C   UNL A   1      48.521  26.879  31.777  1.00  0.00     0.054 A 
BRANCH  72  73
ATOM     73  S   UNL A   1      50.102  26.049  32.096  1.00  0.00     0.124 S 
ATOM     74  O   UNL A   1      50.717  26.939  33.078  1.00  0.00    -0.237 OA
ATOM     75  O   UNL A   1      49.680  24.747  32.607  1.00  0.00    -0.237 OA
ATOM     76  O   UNL A   1      50.751  26.022  30.788  1.00  0.00    -0.744 OA
ENDBRANCH  72  73
ENDBRANCH  53  67
BRANCH  54  77
ATOM     77  C   UNL A   1      37.329  32.746  29.732  1.00  0.00    -0.014 A 
ATOM     78  C   UNL A   1      37.032  33.419  28.532  1.00  0.00     0.010 A 
ATOM     79  C   UNL A   1      36.370  32.732  30.760  1.00  0.00     0.010 A 
ATOM     80  C   UNL A   1      35.815  34.088  28.377  1.00  0.00     0.020 A 
ATOM     81  C   UNL A   1      35.138  33.372  30.597  1.00  0.00     0.020 A 
ATOM     82  C   UNL A   1      34.876  34.060  29.411  1.00  0.00     0.054 A 
BRANCH  82  83
ATOM     83  S   UNL A   1      33.292  34.915  29.177  1.00  0.00     0.124 S 
ATOM     84  O   UNL A   1      33.722  36.226  28.704  1.00  0.00    -0.237 OA
ATOM     85  O   UNL A   1      32.623  34.072  28.188  1.00  0.00    -0.237 OA
ATOM     86  O   UNL A   1      32.691  34.894  30.509  1.00  0.00    -0.744 OA
ENDBRANCH  82  83
ENDBRANCH  54  77
BRANCH  66  87
ATOM     87  C   UNL A   1      43.314  34.672  32.767  1.00  0.00    -0.014 A 
ATOM     88  C   UNL A   1      43.103  34.915  34.135  1.00  0.00     0.010 A 
ATOM     89  C   UNL A   1      44.025  35.618  32.004  1.00  0.00     0.010 A 
ATOM     90  C   UNL A   1      43.569  36.096  34.722  1.00  0.00     0.020 A 
ATOM     91  C   UNL A   1      44.520  36.783  32.594  1.00  0.00     0.020 A 
ATOM     92  C   UNL A   1      44.277  37.020  33.947  1.00  0.00     0.054 A 
BRANCH  92  93
ATOM     93  S   UNL A   1      44.919  38.518  34.746  1.00  0.00     0.124 S 
ATOM     94  O   UNL A   1      46.023  38.883  33.863  1.00  0.00    -0.237 OA
ATOM     95  O   UNL A   1      43.766  39.415  34.715  1.00  0.00    -0.237 OA
ATOM     96  O   UNL A   1      45.311  38.061  36.077  1.00  0.00    -0.744 OA
ENDBRANCH  92  93
ENDBRANCH  66  87
ENDBRANCH  40  41
ENDBRANCH  32  35
ENDBRANCH  30  31
ENDBRANCH  29  30
ENDBRANCH  28  29
ENDBRANCH  27  28
ENDBRANCH   1  27
TORSDOF 21
ENDMDL
MODEL 2
REMARK VINA RESULT:     -10.6      3.907      9.470
REMARK SMILES C[C@H](Oc1ccc(C(=O)NCc2ccccc2)cc1)C(=O)NCCCCCCNC(=O)c1ccc(-c2c3nc(c(-c4ccc(S(=O)(=O)[O-])cc4)c4ccc([nH]4)c(-c4ccc(S(=O)(=O)[O-])cc4)c4nc(c(-c5ccc(S(=O)(=O)[O-])cc5)c5ccc2[nH]5)C=C4)C=C3)cc1
REMARK SMILES IDX 24 1 23 2 22 3 20 4 21 5 2 7 1 8 3 9 4 10 5 11 19 12 6 13
REMARK SMILES IDX 18 14 7 15 8 16 9 17 10 18 11 20 12 21 13 22 17 23 14 24
REMARK SMILES IDX 16 25 15 26 25 27 26 28 27 29 28 30 29 31 30 32 31 34 32 35
REMARK SMILES IDX 33 36 91 37 34 38 90 39 35 40 36 41 37 42 84 43 38 44 89 45
REMARK SMILES IDX 83 46 85 47 39 48 88 49 82 50 81 51 40 53 70 54 51 55 69 56
REMARK SMILES IDX 52 57 55 58 68 59 86 60 53 61 54 62 67 64 87 65 56 66 41 67
REMARK SMILES IDX 42 68 50 69 43 70 49 71 44 72 45 73 46 74 47 75 48 76 71 77
REMARK SMILES IDX 72 78 80 79 73 80 79 81 74 82 75 83 76 84 77 85 78 86 57 87
REMARK SMILES IDX 58 88 66 89 59 90 65 91 60 92 61 93 62 94 63 95 64 96
REMARK H PARENT 22 6 10 19 29 33 85 52 55 63
REMARK Flexibility Score: inf
ROOT
ATOM      1  C   UNL A   1      32.491  29.721  25.367  1.00  0.00     0.021 C 
ENDROOT
BRANCH   1   2
ATOM      2  C   UNL A   1      31.215  28.906  25.188  1.00  0.00     0.116 C 
BRANCH   2   3
ATOM      3  N   UNL A   1      30.630  29.105  23.872  1.00  0.00    -0.353 N 
ATOM      4  C   UNL A   1      30.528  28.225  22.828  1.00  0.00     0.260 C 
ATOM      5  O   UNL A   1      29.996  28.616  21.787  1.00  0.00    -0.271 OA
ATOM      6  H   UNL A   1      30.255  30.000  23.708  1.00  0.00     0.163 HD
BRANCH   4   7
ATOM      7  C   UNL A   1      31.012  26.774  22.989  1.00  0.00     0.258 C 
ATOM      8  C   UNL A   1      30.185  26.125  24.104  1.00  0.00     0.064 C 
BRANCH   7   9
ATOM      9  O   UNL A   1      32.438  26.862  23.081  1.00  0.00    -0.481 OA
BRANCH   9  10
ATOM     10  C   UNL A   1      33.232  25.858  23.527  1.00  0.00     0.120 A 
ATOM     11  C   UNL A   1      33.657  24.755  22.806  1.00  0.00     0.047 A 
ATOM     12  C   UNL A   1      33.625  25.988  24.863  1.00  0.00     0.047 A 
ATOM     13  C   UNL A   1      34.394  23.750  23.444  1.00  0.00     0.017 A 
ATOM     14  C   UNL A   1      34.362  24.986  25.504  1.00  0.00     0.017 A 
ATOM     15  C   UNL A   1      34.759  23.851  24.799  1.00  0.00     0.040 A 
BRANCH  15  16
ATOM     16  C   UNL A   1      35.467  22.679  25.384  1.00  0.00     0.251 C 
ATOM     17  O   UNL A   1      36.650  22.812  25.698  1.00  0.00    -0.269 OA
ATOM     18  N   UNL A   1      34.894  21.461  25.613  1.00  0.00    -0.348 N 
ATOM     19  H   UNL A   1      35.528  20.799  25.972  1.00  0.00     0.164 HD
BRANCH  18  20
ATOM     20  C   UNL A   1      33.558  20.928  25.443  1.00  0.00     0.152 C 
BRANCH  20  21
ATOM     21  C   UNL A   1      33.577  19.654  24.632  1.00  0.00    -0.029 A 
ATOM     22  C   UNL A   1      32.530  19.371  23.742  1.00  0.00     0.005 A 
ATOM     23  C   UNL A   1      34.628  18.728  24.742  1.00  0.00     0.005 A 
ATOM     24  C   UNL A   1      32.521  18.181  23.009  1.00  0.00     0.000 A 
ATOM     25  C   UNL A   1      34.621  17.543  24.005  1.00  0.00     0.000 A 
ATOM     26  C   UNL A   1      33.564  17.267  23.143  1.00  0.00     0.000 A 
ENDBRANCH  20  21
ENDBRANCH  18  20
ENDBRANCH  15  16
ENDBRANCH   9  10
ENDBRANCH   7   9
ENDBRANCH   4   7
ENDBRANCH   2   3
ENDBRANCH   1   2
BRANCH   1  27
ATOM     27  C   UNL A   1      33.175  29.513  26.720  1.00  0.00     0.002 C 
BRANCH  27  28
ATOM     28  C   UNL A   1      34.695  29.334  26.652  1.00  0.00     0.002 C 
BRANCH  28  29
ATOM     29  C   UNL A   1      35.403  29.293  28.008  1.00  0.00     0.021 C 
BRANCH  29  30
ATOM     30  C   UNL A   1      35.779  30.660  28.567  1.00  0.00     0.116 C 
BRANCH  30  31
ATOM     31  N   UNL A   1      35.707  30.698  30.018  1.00  0.00    -0.352 N 
ATOM     32  C   UNL A   1      36.657  30.337  30.942  1.00  0.00     0.251 C 
ATOM     33  H   UNL A   1      34.858  31.028  30.391  1.00  0.00     0.163 HD
ATOM     34  O   UNL A   1      36.360  30.247  32.127  1.00  0.00    -0.269 OA
BRANCH  32  35
ATOM     35  C   UNL A   1      38.034  30.040  30.492  1.00  0.00     0.039 A 
ATOM     36  C   UNL A   1      38.933  29.466  31.393  1.00  0.00     0.014 A 
ATOM     37  C   UNL A   1      38.431  30.323  29.182  1.00  0.00     0.014 A 
ATOM     38  C   UNL A   1      40.216  29.122  30.962  1.00  0.00     0.010 A 
ATOM     39  C   UNL A   1      39.683  29.909  28.735  1.00  0.00     0.010 A 
ATOM     40  C   UNL A   1      40.591  29.311  29.621  1.00  0.00    -0.014 A 
BRANCH  40  41
ATOM     41  C   UNL A   1      41.931  28.900  29.126  1.00  0.00     0.031 A 
ATOM     42  C   UNL A   1      43.045  29.911  29.050  1.00  0.00     0.074 A 
ATOM     43  C   UNL A   1      42.127  27.641  28.687  1.00  0.00     0.049 A 
ATOM     44  N   UNL A   1      44.256  29.767  28.576  1.00  0.00    -0.248 NA
ATOM     45  C   UNL A   1      42.754  31.266  29.550  1.00  0.00     0.031 C 
ATOM     46  C   UNL A   1      41.118  26.578  28.678  1.00  0.00     0.029 A 
ATOM     47  N   UNL A   1      43.242  27.042  28.153  1.00  0.00    -0.354 N 
ATOM     48  C   UNL A   1      44.863  31.012  28.702  1.00  0.00     0.074 A 
ATOM     49  C   UNL A   1      43.871  31.911  29.250  1.00  0.00     0.031 C 
ATOM     50  C   UNL A   1      41.667  25.455  28.189  1.00  0.00     0.029 A 
ATOM     51  C   UNL A   1      43.048  25.725  27.804  1.00  0.00     0.049 A 
ATOM     52  H   UNL A   1      44.098  27.511  28.033  1.00  0.00     0.167 HD
ATOM     53  C   UNL A   1      46.135  31.370  28.407  1.00  0.00     0.031 A 
ATOM     54  C   UNL A   1      43.883  24.840  27.226  1.00  0.00     0.031 A 
ATOM     55  C   UNL A   1      47.121  30.466  27.877  1.00  0.00     0.049 A 
ATOM     56  C   UNL A   1      45.286  25.269  26.888  1.00  0.00     0.074 A 
ATOM     57  C   UNL A   1      48.453  30.720  27.597  1.00  0.00     0.029 A 
ATOM     58  N   UNL A   1      46.887  29.141  27.547  1.00  0.00    -0.354 N 
ATOM     59  N   UNL A   1      45.858  26.435  27.074  1.00  0.00    -0.248 NA
ATOM     60  C   UNL A   1      46.160  24.260  26.273  1.00  0.00     0.031 C 
ATOM     61  C   UNL A   1      49.008  29.565  27.039  1.00  0.00     0.029 A 
ATOM     62  C   UNL A   1      48.043  28.570  27.040  1.00  0.00     0.049 A 
ATOM     63  H   UNL A   1      46.028  28.674  27.657  1.00  0.00     0.167 HD
ATOM     64  C   UNL A   1      47.170  26.286  26.634  1.00  0.00     0.074 A 
ATOM     65  C   UNL A   1      47.308  24.918  26.184  1.00  0.00     0.031 C 
ATOM     66  C   UNL A   1      48.170  27.201  26.609  1.00  0.00     0.031 A 
BRANCH  53  67
ATOM     67  C   UNL A   1      46.536  32.802  28.646  1.00  0.00    -0.014 A 
ATOM     68  C   UNL A   1      46.659  33.712  27.579  1.00  0.00     0.010 A 
ATOM     69  C   UNL A   1      46.731  33.262  29.962  1.00  0.00     0.010 A 
ATOM     70  C   UNL A   1      47.001  35.045  27.822  1.00  0.00     0.020 A 
ATOM     71  C   UNL A   1      47.041  34.601  30.210  1.00  0.00     0.020 A 
ATOM     72  C   UNL A   1      47.187  35.482  29.137  1.00  0.00     0.054 A 
BRANCH  72  73
ATOM     73  S   UNL A   1      47.589  37.227  29.424  1.00  0.00     0.124 S 
ATOM     74  O   UNL A   1      46.872  37.884  28.334  1.00  0.00    -0.237 OA
ATOM     75  O   UNL A   1      47.050  37.461  30.761  1.00  0.00    -0.237 OA
ATOM     76  O   UNL A   1      49.045  37.269  29.325  1.00  0.00    -0.744 OA
ENDBRANCH  72  73
ENDBRANCH  53  67
BRANCH  54  77
ATOM     77  C   UNL A   1      43.419  23.454  26.931  1.00  0.00    -0.014 A 
ATOM     78  C   UNL A   1      43.073  22.577  27.974  1.00  0.00     0.010 A 
ATOM     79  C   UNL A   1      43.337  22.999  25.602  1.00  0.00     0.010 A 
ATOM     80  C   UNL A   1      42.682  21.263  27.696  1.00  0.00     0.020 A 
ATOM     81  C   UNL A   1      42.916  21.696  25.318  1.00  0.00     0.020 A 
ATOM     82  C   UNL A   1      42.607  20.832  26.369  1.00  0.00     0.054 A 
BRANCH  82  83
ATOM     83  S   UNL A   1      42.073  19.131  26.032  1.00  0.00     0.124 S 
ATOM     84  O   UNL A   1      40.639  19.299  25.822  1.00  0.00    -0.237 OA
ATOM     85  O   UNL A   1      42.851  18.786  24.844  1.00  0.00    -0.237 OA
ATOM     86  O   UNL A   1      42.448  18.407  27.244  1.00  0.00    -0.744 OA
ENDBRANCH  82  83
ENDBRANCH  54  77
BRANCH  66  87
ATOM     87  C   UNL A   1      49.524  26.745  26.130  1.00  0.00    -0.014 A 
ATOM     88  C   UNL A   1      49.963  26.995  24.818  1.00  0.00     0.010 A 
ATOM     89  C   UNL A   1      50.398  26.114  27.036  1.00  0.00     0.010 A 
ATOM     90  C   UNL A   1      51.240  26.596  24.413  1.00  0.00     0.020 A 
ATOM     91  C   UNL A   1      51.686  25.744  26.644  1.00  0.00     0.020 A 
ATOM     92  C   UNL A   1      52.094  25.976  25.331  1.00  0.00     0.054 A 
BRANCH  92  93
ATOM     93  S   UNL A   1      53.766  25.518  24.796  1.00  0.00     0.124 S 
ATOM     94  O   UNL A   1      53.831  26.108  23.462  1.00  0.00    -0.237 OA
ATOM     95  O   UNL A   1      54.610  26.155  25.806  1.00  0.00    -0.237 OA
ATOM     96  O   UNL A   1      53.755  24.057  24.832  1.00  0.00    -0.744 OA
ENDBRANCH  92  93
ENDBRANCH  66  87
ENDBRANCH  40  41
ENDBRANCH  32  35
ENDBRANCH  30  31
ENDBRANCH  29  30
ENDBRANCH  28  29
ENDBRANCH  27  28
ENDBRANCH   1  27
TORSDOF 21
ENDMDL
MODEL 3
REMARK VINA RESULT:     -10.5      4.071      7.847
REMARK SMILES C[C@H](Oc1ccc(C(=O)NCc2ccccc2)cc1)C(=O)NCCCCCCNC(=O)c1ccc(-c2c3nc(c(-c4ccc(S(=O)(=O)[O-])cc4)c4ccc([nH]4)c(-c4ccc(S(=O)(=O)[O-])cc4)c4nc(c(-c5ccc(S(=O)(=O)[O-])cc5)c5ccc2[nH]5)C=C4)C=C3)cc1
REMARK SMILES IDX 24 1 23 2 22 3 20 4 21 5 2 7 1 8 3 9 4 10 5 11 19 12 6 13
REMARK SMILES IDX 18 14 7 15 8 16 9 17 10 18 11 20 12 21 13 22 17 23 14 24
REMARK SMILES IDX 16 25 15 26 25 27 26 28 27 29 28 30 29 31 30 32 31 34 32 35
REMARK SMILES IDX 33 36 91 37 34 38 90 39 35 40 36 41 37 42 84 43 38 44 89 45
REMARK SMILES IDX 83 46 85 47 39 48 88 49 82 50 81 51 40 53 70 54 51 55 69 56
REMARK SMILES IDX 52 57 55 58 68 59 86 60 53 61 54 62 67 64 87 65 56 66 41 67
REMARK SMILES IDX 42 68 50 69 43 70 49 71 44 72 45 73 46 74 47 75 48 76 71 77
REMARK SMILES IDX 72 78 80 79 73 80 79 81 74 82 75 83 76 84 77 85 78 86 57 87
REMARK SMILES IDX 58 88 66 89 59 90 65 91 60 92 61 93 62 94 63 95 64 96
REMARK H PARENT 22 6 10 19 29 33 85 52 55 63
REMARK Flexibility Score: inf
ROOT
ATOM      1  C   UNL A   1      32.461  29.367  26.326  1.00  0.00     0.021 C 
ENDROOT
BRANCH   1   2
ATOM      2  C   UNL A   1      32.589  29.114  24.828  1.00  0.00     0.116 C 
BRANCH   2   3
ATOM      3  N   UNL A   1      31.316  29.278  24.145  1.00  0.00    -0.353 N 
ATOM      4  C   UNL A   1      30.496  28.325  23.603  1.00  0.00     0.260 C 
ATOM      5  O   UNL A   1      29.456  28.696  23.054  1.00  0.00    -0.271 OA
ATOM      6  H   UNL A   1      30.999  30.206  24.059  1.00  0.00     0.163 HD
BRANCH   4   7
ATOM      7  C   UNL A   1      30.848  26.833  23.737  1.00  0.00     0.258 C 
ATOM      8  C   UNL A   1      30.514  26.401  25.168  1.00  0.00     0.064 C 
BRANCH   7   9
ATOM      9  O   UNL A   1      32.177  26.713  23.218  1.00  0.00    -0.481 OA
BRANCH   9  10
ATOM     10  C   UNL A   1      33.034  25.718  23.554  1.00  0.00     0.120 A 
ATOM     11  C   UNL A   1      33.939  25.722  24.602  1.00  0.00     0.047 A 
ATOM     12  C   UNL A   1      32.969  24.599  22.718  1.00  0.00     0.047 A 
ATOM     13  C   UNL A   1      34.830  24.653  24.754  1.00  0.00     0.017 A 
ATOM     14  C   UNL A   1      33.857  23.528  22.867  1.00  0.00     0.017 A 
ATOM     15  C   UNL A   1      34.801  23.541  23.893  1.00  0.00     0.040 A 
BRANCH  15  16
ATOM     16  C   UNL A   1      35.854  22.510  24.105  1.00  0.00     0.251 C 
ATOM     17  O   UNL A   1      36.994  22.751  23.704  1.00  0.00    -0.269 OA
ATOM     18  N   UNL A   1      35.653  21.312  24.729  1.00  0.00    -0.348 N 
ATOM     19  H   UNL A   1      36.458  20.747  24.743  1.00  0.00     0.164 HD
BRANCH  18  20
ATOM     20  C   UNL A   1      34.514  20.690  25.373  1.00  0.00     0.152 C 
BRANCH  20  21
ATOM     21  C   UNL A   1      33.942  19.583  24.520  1.00  0.00    -0.029 A 
ATOM     22  C   UNL A   1      32.791  19.812  23.750  1.00  0.00     0.005 A 
ATOM     23  C   UNL A   1      34.533  18.310  24.473  1.00  0.00     0.005 A 
ATOM     24  C   UNL A   1      32.234  18.787  22.982  1.00  0.00     0.000 A 
ATOM     25  C   UNL A   1      33.979  17.289  23.701  1.00  0.00     0.000 A 
ATOM     26  C   UNL A   1      32.826  17.526  22.960  1.00  0.00     0.000 A 
ENDBRANCH  20  21
ENDBRANCH  18  20
ENDBRANCH  15  16
ENDBRANCH   9  10
ENDBRANCH   7   9
ENDBRANCH   4   7
ENDBRANCH   2   3
ENDBRANCH   1   2
BRANCH   1  27
ATOM     27  C   UNL A   1      33.780  29.242  27.091  1.00  0.00     0.002 C 
BRANCH  27  28
ATOM     28  C   UNL A   1      34.327  30.559  27.651  1.00  0.00     0.002 C 
BRANCH  28  29
ATOM     29  C   UNL A   1      33.337  31.726  27.646  1.00  0.00     0.021 C 
BRANCH  29  30
ATOM     30  C   UNL A   1      33.986  33.105  27.676  1.00  0.00     0.116 C 
BRANCH  30  31
ATOM     31  N   UNL A   1      33.219  34.054  28.467  1.00  0.00    -0.352 N 
ATOM     32  C   UNL A   1      33.385  34.421  29.779  1.00  0.00     0.251 C 
ATOM     33  H   UNL A   1      32.476  34.494  27.995  1.00  0.00     0.163 HD
ATOM     34  O   UNL A   1      32.528  35.089  30.346  1.00  0.00    -0.269 OA
BRANCH  32  35
ATOM     35  C   UNL A   1      34.597  33.988  30.508  1.00  0.00     0.039 A 
ATOM     36  C   UNL A   1      34.540  32.837  31.295  1.00  0.00     0.014 A 
ATOM     37  C   UNL A   1      35.787  34.715  30.407  1.00  0.00     0.014 A 
ATOM     38  C   UNL A   1      35.694  32.381  31.937  1.00  0.00     0.010 A 
ATOM     39  C   UNL A   1      36.952  34.217  30.984  1.00  0.00     0.010 A 
ATOM     40  C   UNL A   1      36.917  33.050  31.761  1.00  0.00    -0.014 A 
BRANCH  40  41
ATOM     41  C   UNL A   1      38.169  32.552  32.387  1.00  0.00     0.031 A 
ATOM     42  C   UNL A   1      39.091  31.652  31.608  1.00  0.00     0.074 A 
ATOM     43  C   UNL A   1      38.444  32.856  33.671  1.00  0.00     0.049 A 
ATOM     44  N   UNL A   1      40.186  31.054  32.003  1.00  0.00    -0.248 NA
ATOM     45  C   UNL A   1      38.724  31.366  30.210  1.00  0.00     0.031 C 
ATOM     46  C   UNL A   1      37.613  33.692  34.543  1.00  0.00     0.029 A 
ATOM     47  N   UNL A   1      39.497  32.488  34.473  1.00  0.00    -0.354 N 
ATOM     48  C   UNL A   1      40.626  30.311  30.913  1.00  0.00     0.074 A 
ATOM     49  C   UNL A   1      39.654  30.491  29.858  1.00  0.00     0.031 C 
ATOM     50  C   UNL A   1      38.200  33.792  35.746  1.00  0.00     0.029 A 
ATOM     51  C   UNL A   1      39.420  32.992  35.751  1.00  0.00     0.049 A 
ATOM     52  H   UNL A   1      40.236  31.918  34.162  1.00  0.00     0.167 HD
ATOM     53  C   UNL A   1      41.747  29.561  30.795  1.00  0.00     0.031 A 
ATOM     54  C   UNL A   1      40.233  32.818  36.812  1.00  0.00     0.031 A 
ATOM     55  C   UNL A   1      42.719  29.397  31.844  1.00  0.00     0.049 A 
ATOM     56  C   UNL A   1      41.462  31.962  36.660  1.00  0.00     0.074 A 
ATOM     57  C   UNL A   1      43.916  28.702  31.802  1.00  0.00     0.029 A 
ATOM     58  N   UNL A   1      42.609  29.932  33.117  1.00  0.00    -0.354 N 
ATOM     59  N   UNL A   1      41.893  31.319  35.601  1.00  0.00    -0.248 NA
ATOM     60  C   UNL A   1      42.323  31.818  37.843  1.00  0.00     0.031 C 
ATOM     61  C   UNL A   1      44.499  28.764  33.071  1.00  0.00     0.029 A 
ATOM     62  C   UNL A   1      43.703  29.559  33.881  1.00  0.00     0.049 A 
ATOM     63  H   UNL A   1      41.865  30.493  33.434  1.00  0.00     0.167 HD
ATOM     64  C   UNL A   1      43.093  30.725  35.981  1.00  0.00     0.074 A 
ATOM     65  C   UNL A   1      43.324  31.096  37.360  1.00  0.00     0.031 C 
ATOM     66  C   UNL A   1      43.929  29.947  35.250  1.00  0.00     0.031 A 
BRANCH  53  67
ATOM     67  C   UNL A   1      41.986  28.853  29.487  1.00  0.00    -0.014 A 
ATOM     68  C   UNL A   1      41.424  27.588  29.229  1.00  0.00     0.010 A 
ATOM     69  C   UNL A   1      42.728  29.490  28.475  1.00  0.00     0.010 A 
ATOM     70  C   UNL A   1      41.629  26.961  27.998  1.00  0.00     0.020 A 
ATOM     71  C   UNL A   1      42.908  28.879  27.231  1.00  0.00     0.020 A 
ATOM     72  C   UNL A   1      42.368  27.612  27.005  1.00  0.00     0.054 A 
BRANCH  72  73
ATOM     73  S   UNL A   1      42.582  26.790  25.403  1.00  0.00     0.124 S 
ATOM     74  O   UNL A   1      41.401  25.932  25.344  1.00  0.00    -0.237 OA
ATOM     75  O   UNL A   1      42.588  27.913  24.468  1.00  0.00    -0.237 OA
ATOM     76  O   UNL A   1      43.855  26.088  25.538  1.00  0.00    -0.744 OA
ENDBRANCH  72  73
ENDBRANCH  53  67
BRANCH  54  77
ATOM     77  C   UNL A   1      39.916  33.471  38.114  1.00  0.00    -0.014 A 
ATOM     78  C   UNL A   1      39.090  32.830  39.055  1.00  0.00     0.010 A 
ATOM     79  C   UNL A   1      40.428  34.746  38.414  1.00  0.00     0.010 A 
ATOM     80  C   UNL A   1      38.757  33.464  40.256  1.00  0.00     0.020 A 
ATOM     81  C   UNL A   1      40.124  35.370  39.628  1.00  0.00     0.020 A 
ATOM     82  C   UNL A   1      39.277  34.731  40.534  1.00  0.00     0.054 A 
BRANCH  82  83
ATOM     83  S   UNL A   1      38.852  35.523  42.110  1.00  0.00     0.124 S 
ATOM     84  O   UNL A   1      39.187  36.919  41.848  1.00  0.00    -0.237 OA
ATOM     85  O   UNL A   1      37.426  35.227  42.237  1.00  0.00    -0.237 OA
ATOM     86  O   UNL A   1      39.710  34.843  43.078  1.00  0.00    -0.744 OA
ENDBRANCH  82  83
ENDBRANCH  54  77
BRANCH  66  87
ATOM     87  C   UNL A   1      45.204  29.484  35.905  1.00  0.00    -0.014 A 
ATOM     88  C   UNL A   1      45.259  28.292  36.647  1.00  0.00     0.010 A 
ATOM     89  C   UNL A   1      46.385  30.226  35.711  1.00  0.00     0.010 A 
ATOM     90  C   UNL A   1      46.467  27.866  37.209  1.00  0.00     0.020 A 
ATOM     91  C   UNL A   1      47.599  29.786  36.244  1.00  0.00     0.020 A 
ATOM     92  C   UNL A   1      47.629  28.615  37.000  1.00  0.00     0.054 A 
BRANCH  92  93
ATOM     93  S   UNL A   1      49.193  28.011  37.693  1.00  0.00     0.124 S 
ATOM     94  O   UNL A   1      48.908  28.002  39.125  1.00  0.00    -0.237 OA
ATOM     95  O   UNL A   1      49.330  26.695  37.071  1.00  0.00    -0.237 OA
ATOM     96  O   UNL A   1      50.173  29.004  37.259  1.00  0.00    -0.744 OA
ENDBRANCH  92  93
ENDBRANCH  66  87
ENDBRANCH  40  41
ENDBRANCH  32  35
ENDBRANCH  30  31
ENDBRANCH  29  30
ENDBRANCH  28  29
ENDBRANCH  27  28
ENDBRANCH   1  27
TORSDOF 21
ENDMDL
