MODEL 1
REMARK VINA RESULT:      -9.8      0.000      0.000
REMARK SMILES CC1(C)CCC[C@@H]1[NH2+]Cc1cc(C(=O)NCCCCCCNC(=O)c2ccc(-c3c4nc(c(-c5ccc(S(=O)(=O)[O-])cc5)c5ccc([nH]5)c(-c5ccc(S(=O)(=O)[O-])cc5)c5nc(c(-c6ccc(S(=O)(=O)[O-])cc6)c6ccc3[nH]6)C=C5)C=C4)cc2)cs1
REMARK SMILES IDX 18 1 17 2 16 3 15 4 13 5 14 6 12 8 10 9 11 10 86 11 85 12
REMARK SMILES IDX 9 13 8 14 7 17 1 18 2 19 3 20 4 21 5 22 6 23 19 24 20 25
REMARK SMILES IDX 21 26 22 27 23 28 24 30 25 31 26 32 84 33 27 34 83 35 28 36
REMARK SMILES IDX 29 37 30 38 77 39 31 40 82 41 76 42 78 43 32 44 81 45 75 46
REMARK SMILES IDX 74 47 33 49 63 50 44 51 62 52 45 53 48 54 61 55 79 56 46 57
REMARK SMILES IDX 47 58 60 60 80 61 49 62 34 63 35 64 43 65 36 66 42 67 37 68
REMARK SMILES IDX 38 69 39 70 40 71 41 72 64 73 65 74 73 75 66 76 72 77 67 78
REMARK SMILES IDX 68 79 69 80 70 81 71 82 50 83 51 84 59 85 52 86 58 87 53 88
REMARK SMILES IDX 54 89 55 90 56 91 57 92
REMARK H PARENT 15 7 8 15 8 16 22 29 78 48 48 59
REMARK Flexibility Score: inf
ROOT
ATOM      1  C   UNL A   1      35.189  31.560  28.412  1.00  0.00     0.002 C 
ENDROOT
BRANCH   1   2
ATOM      2  C   UNL A   1      34.463  30.808  27.289  1.00  0.00     0.021 C 
BRANCH   2   3
ATOM      3  C   UNL A   1      34.564  29.288  27.428  1.00  0.00     0.116 C 
BRANCH   3   4
ATOM      4  N   UNL A   1      33.276  28.730  27.791  1.00  0.00    -0.352 N 
ATOM      5  C   UNL A   1      32.405  27.934  27.094  1.00  0.00     0.252 C 
ATOM      6  O   UNL A   1      31.385  27.561  27.682  1.00  0.00    -0.269 OA
ATOM      7  H   UNL A   1      32.974  28.963  28.698  1.00  0.00     0.163 HD
BRANCH   5   8
ATOM      8  C   UNL A   1      32.710  27.488  25.734  1.00  0.00     0.051 A 
ATOM      9  C   UNL A   1      33.401  26.136  23.935  1.00  0.00     0.059 A 
ATOM     10  C   UNL A   1      33.554  26.422  25.279  1.00  0.00     0.035 A 
ATOM     11  S   UNL A   1      32.496  27.359  23.155  1.00  0.00    -0.142 S 
ATOM     12  C   UNL A   1      32.173  28.144  24.637  1.00  0.00     0.079 A 
BRANCH   9  13
ATOM     13  C   UNL A   1      33.908  24.936  23.178  1.00  0.00     0.308 C 
BRANCH  13  14
ATOM     14  N   UNL A   1      33.491  23.724  23.876  1.00  0.00    -0.339 N 
ATOM     15  H   UNL A   1      33.299  23.979  24.845  1.00  0.00     0.346 HD
ATOM     16  H   UNL A   1      32.687  23.383  23.349  1.00  0.00     0.346 HD
BRANCH  14  17
ATOM     17  C   UNL A   1      34.428  22.604  23.896  1.00  0.00     0.188 C 
ATOM     18  C   UNL A   1      33.844  20.814  25.646  1.00  0.00     0.017 C 
ATOM     19  C   UNL A   1      34.832  21.909  25.225  1.00  0.00     0.017 C 
ATOM     20  C   UNL A   1      35.060  22.890  26.391  1.00  0.00     0.017 C 
ATOM     21  C   UNL A   1      36.174  21.260  24.818  1.00  0.00     0.013 C 
ATOM     22  C   UNL A   1      36.880  22.329  24.000  1.00  0.00     0.007 C 
ATOM     23  C   UNL A   1      35.766  23.089  23.286  1.00  0.00     0.065 C 
ENDBRANCH  14  17
ENDBRANCH  13  14
ENDBRANCH   9  13
ENDBRANCH   5   8
ENDBRANCH   3   4
ENDBRANCH   2   3
ENDBRANCH   1   2
BRANCH   1  24
ATOM     24  C   UNL A   1      35.809  32.896  27.985  1.00  0.00     0.002 C 
BRANCH  24  25
ATOM     25  C   UNL A   1      34.830  34.072  27.943  1.00  0.00     0.021 C 
BRANCH  25  26
ATOM     26  C   UNL A   1      33.400  33.702  28.324  1.00  0.00     0.116 C 
BRANCH  26  27
ATOM     27  N   UNL A   1      32.826  34.672  29.244  1.00  0.00    -0.352 N 
ATOM     28  C   UNL A   1      33.109  34.883  30.569  1.00  0.00     0.251 C 
ATOM     29  H   UNL A   1      32.136  35.261  28.860  1.00  0.00     0.163 HD
ATOM     30  O   UNL A   1      32.349  35.556  31.260  1.00  0.00    -0.269 OA
BRANCH  28  31
ATOM     31  C   UNL A   1      34.330  34.295  31.156  1.00  0.00     0.039 A 
ATOM     32  C   UNL A   1      34.301  32.974  31.606  1.00  0.00     0.014 A 
ATOM     33  C   UNL A   1      35.497  35.056  31.273  1.00  0.00     0.014 A 
ATOM     34  C   UNL A   1      35.460  32.399  32.130  1.00  0.00     0.010 A 
ATOM     35  C   UNL A   1      36.670  34.457  31.720  1.00  0.00     0.010 A 
ATOM     36  C   UNL A   1      36.661  33.128  32.164  1.00  0.00    -0.014 A 
BRANCH  36  37
ATOM     37  C   UNL A   1      37.918  32.516  32.665  1.00  0.00     0.031 A 
ATOM     38  C   UNL A   1      38.391  32.797  34.065  1.00  0.00     0.074 A 
ATOM     39  C   UNL A   1      38.664  31.759  31.836  1.00  0.00     0.049 A 
ATOM     40  N   UNL A   1      39.482  32.393  34.662  1.00  0.00    -0.248 NA
ATOM     41  C   UNL A   1      37.541  33.668  34.893  1.00  0.00     0.031 C 
ATOM     42  C   UNL A   1      38.332  31.451  30.443  1.00  0.00     0.029 A 
ATOM     43  N   UNL A   1      39.858  31.117  32.043  1.00  0.00    -0.354 N 
ATOM     44  C   UNL A   1      39.457  32.970  35.927  1.00  0.00     0.074 A 
ATOM     45  C   UNL A   1      38.273  33.799  35.988  1.00  0.00     0.031 C 
ATOM     46  C   UNL A   1      39.285  30.656  29.931  1.00  0.00     0.029 A 
ATOM     47  C   UNL A   1      40.315  30.434  30.941  1.00  0.00     0.049 A 
ATOM     48  H   UNL A   1      40.342  31.143  32.900  1.00  0.00     0.167 HD
ATOM     49  C   UNL A   1      40.329  32.810  36.951  1.00  0.00     0.031 A 
ATOM     50  C   UNL A   1      41.439  29.716  30.759  1.00  0.00     0.031 A 
ATOM     51  C   UNL A   1      41.506  31.985  36.881  1.00  0.00     0.049 A 
ATOM     52  C   UNL A   1      42.402  29.563  31.902  1.00  0.00     0.074 A 
ATOM     53  C   UNL A   1      42.426  31.712  37.878  1.00  0.00     0.029 A 
ATOM     54  N   UNL A   1      41.931  31.306  35.748  1.00  0.00    -0.354 N 
ATOM     55  N   UNL A   1      42.326  30.059  33.114  1.00  0.00    -0.248 NA
ATOM     56  C   UNL A   1      43.596  28.744  31.659  1.00  0.00     0.031 C 
ATOM     57  C   UNL A   1      43.442  30.921  37.330  1.00  0.00     0.029 A 
ATOM     58  C   UNL A   1      43.117  30.640  36.011  1.00  0.00     0.049 A 
ATOM     59  H   UNL A   1      41.460  31.298  34.884  1.00  0.00     0.167 HD
ATOM     60  C   UNL A   1      43.450  29.591  33.787  1.00  0.00     0.074 A 
ATOM     61  C   UNL A   1      44.179  28.759  32.851  1.00  0.00     0.031 C 
ATOM     62  C   UNL A   1      43.838  29.823  35.065  1.00  0.00     0.031 A 
BRANCH  49  63
ATOM     63  C   UNL A   1      40.046  33.561  38.228  1.00  0.00    -0.014 A 
ATOM     64  C   UNL A   1      40.579  34.843  38.457  1.00  0.00     0.010 A 
ATOM     65  C   UNL A   1      39.223  32.981  39.211  1.00  0.00     0.010 A 
ATOM     66  C   UNL A   1      40.346  35.504  39.665  1.00  0.00     0.020 A 
ATOM     67  C   UNL A   1      38.957  33.654  40.408  1.00  0.00     0.020 A 
ATOM     68  C   UNL A   1      39.541  34.901  40.637  1.00  0.00     0.054 A 
BRANCH  68  69
ATOM     69  S   UNL A   1      39.257  35.780  42.197  1.00  0.00     0.124 S 
ATOM     70  O   UNL A   1      37.843  35.508  42.442  1.00  0.00    -0.237 OA
ATOM     71  O   UNL A   1      40.190  35.124  43.110  1.00  0.00    -0.237 OA
ATOM     72  O   UNL A   1      39.577  37.170  41.876  1.00  0.00    -0.744 OA
ENDBRANCH  68  69
ENDBRANCH  49  63
BRANCH  50  73
ATOM     73  C   UNL A   1      41.696  29.075  29.440  1.00  0.00    -0.014 A 
ATOM     74  C   UNL A   1      42.445  29.741  28.453  1.00  0.00     0.010 A 
ATOM     75  C   UNL A   1      41.228  27.773  29.180  1.00  0.00     0.010 A 
ATOM     76  C   UNL A   1      42.716  29.119  27.231  1.00  0.00     0.020 A 
ATOM     77  C   UNL A   1      41.521  27.137  27.971  1.00  0.00     0.020 A 
ATOM     78  C   UNL A   1      42.258  27.819  27.000  1.00  0.00     0.054 A 
BRANCH  78  79
ATOM     79  S   UNL A   1      42.687  27.006  25.436  1.00  0.00     0.124 S 
ATOM     80  O   UNL A   1      41.684  25.950  25.357  1.00  0.00    -0.237 OA
ATOM     81  O   UNL A   1      42.544  28.091  24.468  1.00  0.00    -0.237 OA
ATOM     82  O   UNL A   1      44.059  26.553  25.652  1.00  0.00    -0.744 OA
ENDBRANCH  78  79
ENDBRANCH  50  73
BRANCH  62  83
ATOM     83  C   UNL A   1      45.098  29.148  35.542  1.00  0.00    -0.014 A 
ATOM     84  C   UNL A   1      46.340  29.805  35.504  1.00  0.00     0.010 A 
ATOM     85  C   UNL A   1      45.024  27.854  36.089  1.00  0.00     0.010 A 
ATOM     86  C   UNL A   1      47.491  29.167  35.976  1.00  0.00     0.020 A 
ATOM     87  C   UNL A   1      46.166  27.225  36.590  1.00  0.00     0.020 A 
ATOM     88  C   UNL A   1      47.396  27.881  36.517  1.00  0.00     0.054 A 
BRANCH  88  89
ATOM     89  S   UNL A   1      48.896  27.093  37.164  1.00  0.00     0.124 S 
ATOM     90  O   UNL A   1      48.377  26.340  38.302  1.00  0.00    -0.237 OA
ATOM     91  O   UNL A   1      49.348  26.289  36.032  1.00  0.00    -0.237 OA
ATOM     92  O   UNL A   1      49.761  28.220  37.506  1.00  0.00    -0.744 OA
ENDBRANCH  88  89
ENDBRANCH  62  83
ENDBRANCH  36  37
ENDBRANCH  28  31
ENDBRANCH  26  27
ENDBRANCH  25  26
ENDBRANCH  24  25
ENDBRANCH   1  24
TORSDOF 19
ENDMDL
MODEL 2
REMARK VINA RESULT:      -9.6      6.682     10.934
REMARK SMILES CC1(C)CCC[C@@H]1[NH2+]Cc1cc(C(=O)NCCCCCCNC(=O)c2ccc(-c3c4nc(c(-c5ccc(S(=O)(=O)[O-])cc5)c5ccc([nH]5)c(-c5ccc(S(=O)(=O)[O-])cc5)c5nc(c(-c6ccc(S(=O)(=O)[O-])cc6)c6ccc3[nH]6)C=C5)C=C4)cc2)cs1
REMARK SMILES IDX 18 1 17 2 16 3 15 4 13 5 14 6 12 8 10 9 11 10 86 11 85 12
REMARK SMILES IDX 9 13 8 14 7 17 1 18 2 19 3 20 4 21 5 22 6 23 19 24 20 25
REMARK SMILES IDX 21 26 22 27 23 28 24 30 25 31 26 32 84 33 27 34 83 35 28 36
REMARK SMILES IDX 29 37 30 38 77 39 31 40 82 41 76 42 78 43 32 44 81 45 75 46
REMARK SMILES IDX 74 47 33 49 63 50 44 51 62 52 45 53 48 54 61 55 79 56 46 57
REMARK SMILES IDX 47 58 60 60 80 61 49 62 34 63 35 64 43 65 36 66 42 67 37 68
REMARK SMILES IDX 38 69 39 70 40 71 41 72 64 73 65 74 73 75 66 76 72 77 67 78
REMARK SMILES IDX 68 79 69 80 70 81 71 82 50 83 51 84 59 85 52 86 58 87 53 88
REMARK SMILES IDX 54 89 55 90 56 91 57 92
REMARK H PARENT 15 7 8 15 8 16 22 29 78 48 48 59
REMARK Flexibility Score: inf
ROOT
ATOM      1  C   UNL A   1      40.294  23.174  26.844  1.00  0.00     0.002 C 
ENDROOT
BRANCH   1   2
ATOM      2  C   UNL A   1      39.215  24.154  27.323  1.00  0.00     0.021 C 
BRANCH   2   3
ATOM      3  C   UNL A   1      37.968  24.146  26.437  1.00  0.00     0.116 C 
BRANCH   3   4
ATOM      4  N   UNL A   1      37.547  22.783  26.174  1.00  0.00    -0.352 N 
ATOM      5  C   UNL A   1      36.361  22.275  25.713  1.00  0.00     0.252 C 
ATOM      6  O   UNL A   1      36.300  21.055  25.533  1.00  0.00    -0.269 OA
ATOM      7  H   UNL A   1      38.235  22.103  26.358  1.00  0.00     0.163 HD
BRANCH   5   8
ATOM      8  C   UNL A   1      35.238  23.153  25.382  1.00  0.00     0.051 A 
ATOM      9  C   UNL A   1      33.404  24.609  25.618  1.00  0.00     0.059 A 
ATOM     10  C   UNL A   1      34.132  23.580  26.187  1.00  0.00     0.035 A 
ATOM     11  S   UNL A   1      33.846  24.831  23.981  1.00  0.00    -0.142 S 
ATOM     12  C   UNL A   1      35.111  23.690  24.110  1.00  0.00     0.079 A 
BRANCH   9  13
ATOM     13  C   UNL A   1      32.359  25.478  26.270  1.00  0.00     0.308 C 
BRANCH  13  14
ATOM     14  N   UNL A   1      31.803  26.382  25.268  1.00  0.00    -0.339 N 
ATOM     15  H   UNL A   1      32.495  26.479  24.525  1.00  0.00     0.346 HD
ATOM     16  H   UNL A   1      30.922  25.951  24.989  1.00  0.00     0.346 HD
BRANCH  14  17
ATOM     17  C   UNL A   1      31.440  27.728  25.706  1.00  0.00     0.188 C 
ATOM     18  C   UNL A   1      30.776  29.286  23.773  1.00  0.00     0.017 C 
ATOM     19  C   UNL A   1      31.809  28.980  24.865  1.00  0.00     0.017 C 
ATOM     20  C   UNL A   1      33.221  28.920  24.253  1.00  0.00     0.017 C 
ATOM     21  C   UNL A   1      31.754  30.083  25.945  1.00  0.00     0.013 C 
ATOM     22  C   UNL A   1      32.433  29.463  27.156  1.00  0.00     0.007 C 
ATOM     23  C   UNL A   1      32.098  27.976  27.086  1.00  0.00     0.065 C 
ENDBRANCH  14  17
ENDBRANCH  13  14
ENDBRANCH   9  13
ENDBRANCH   5   8
ENDBRANCH   3   4
ENDBRANCH   2   3
ENDBRANCH   1   2
BRANCH   1  24
ATOM     24  C   UNL A   1      40.886  22.290  27.949  1.00  0.00     0.002 C 
BRANCH  24  25
ATOM     25  C   UNL A   1      40.985  20.804  27.596  1.00  0.00     0.021 C 
BRANCH  25  26
ATOM     26  C   UNL A   1      40.849  20.511  26.105  1.00  0.00     0.116 C 
BRANCH  26  27
ATOM     27  N   UNL A   1      41.950  19.692  25.621  1.00  0.00    -0.352 N 
ATOM     28  C   UNL A   1      43.205  20.074  25.223  1.00  0.00     0.251 C 
ATOM     29  H   UNL A   1      41.767  18.725  25.571  1.00  0.00     0.163 HD
ATOM     30  O   UNL A   1      43.914  19.294  24.594  1.00  0.00    -0.269 OA
BRANCH  28  31
ATOM     31  C   UNL A   1      43.695  21.427  25.554  1.00  0.00     0.039 A 
ATOM     32  C   UNL A   1      43.484  22.468  24.648  1.00  0.00     0.014 A 
ATOM     33  C   UNL A   1      44.373  21.661  26.755  1.00  0.00     0.014 A 
ATOM     34  C   UNL A   1      43.913  23.758  24.969  1.00  0.00     0.010 A 
ATOM     35  C   UNL A   1      44.726  22.960  27.107  1.00  0.00     0.010 A 
ATOM     36  C   UNL A   1      44.510  24.018  26.214  1.00  0.00    -0.014 A 
BRANCH  36  37
ATOM     37  C   UNL A   1      44.920  25.392  26.597  1.00  0.00     0.031 A 
ATOM     38  C   UNL A   1      43.908  26.357  27.151  1.00  0.00     0.074 A 
ATOM     39  C   UNL A   1      46.190  25.790  26.385  1.00  0.00     0.049 A 
ATOM     40  N   UNL A   1      44.066  27.609  27.497  1.00  0.00    -0.248 NA
ATOM     41  C   UNL A   1      42.532  25.860  27.312  1.00  0.00     0.031 C 
ATOM     42  C   UNL A   1      47.253  24.958  25.813  1.00  0.00     0.029 A 
ATOM     43  N   UNL A   1      46.802  26.995  26.621  1.00  0.00    -0.354 N 
ATOM     44  C   UNL A   1      42.812  28.051  27.901  1.00  0.00     0.074 A 
ATOM     45  C   UNL A   1      41.893  26.952  27.701  1.00  0.00     0.031 C 
ATOM     46  C   UNL A   1      48.391  25.670  25.771  1.00  0.00     0.029 A 
ATOM     47  C   UNL A   1      48.130  27.017  26.268  1.00  0.00     0.049 A 
ATOM     48  H   UNL A   1      46.333  27.770  27.007  1.00  0.00     0.167 HD
ATOM     49  C   UNL A   1      42.459  29.255  28.411  1.00  0.00     0.031 A 
ATOM     50  C   UNL A   1      49.037  28.011  26.330  1.00  0.00     0.031 A 
ATOM     51  C   UNL A   1      43.380  30.345  28.605  1.00  0.00     0.049 A 
ATOM     52  C   UNL A   1      48.623  29.345  26.884  1.00  0.00     0.074 A 
ATOM     53  C   UNL A   1      43.136  31.588  29.164  1.00  0.00     0.029 A 
ATOM     54  N   UNL A   1      44.718  30.326  28.239  1.00  0.00    -0.354 N 
ATOM     55  N   UNL A   1      47.448  29.722  27.327  1.00  0.00    -0.248 NA
ATOM     56  C   UNL A   1      49.659  30.383  26.958  1.00  0.00     0.031 C 
ATOM     57  C   UNL A   1      44.312  32.342  29.076  1.00  0.00     0.029 A 
ATOM     58  C   UNL A   1      45.306  31.546  28.530  1.00  0.00     0.049 A 
ATOM     59  H   UNL A   1      45.181  29.559  27.832  1.00  0.00     0.167 HD
ATOM     60  C   UNL A   1      47.609  31.036  27.758  1.00  0.00     0.074 A 
ATOM     61  C   UNL A   1      48.999  31.378  27.536  1.00  0.00     0.031 C 
ATOM     62  C   UNL A   1      46.691  31.877  28.293  1.00  0.00     0.031 A 
BRANCH  49  63
ATOM     63  C   UNL A   1      41.010  29.458  28.776  1.00  0.00    -0.014 A 
ATOM     64  C   UNL A   1      40.600  29.549  30.120  1.00  0.00     0.010 A 
ATOM     65  C   UNL A   1      40.043  29.571  27.760  1.00  0.00     0.010 A 
ATOM     66  C   UNL A   1      39.247  29.689  30.441  1.00  0.00     0.020 A 
ATOM     67  C   UNL A   1      38.692  29.747  28.076  1.00  0.00     0.020 A 
ATOM     68  C   UNL A   1      38.301  29.780  29.416  1.00  0.00     0.054 A 
BRANCH  68  69
ATOM     69  S   UNL A   1      36.552  29.958  29.862  1.00  0.00     0.124 S 
ATOM     70  O   UNL A   1      36.479  29.188  31.101  1.00  0.00    -0.237 OA
ATOM     71  O   UNL A   1      36.404  31.403  30.012  1.00  0.00    -0.237 OA
ATOM     72  O   UNL A   1      35.842  29.376  28.725  1.00  0.00    -0.744 OA
ENDBRANCH  68  69
ENDBRANCH  49  63
BRANCH  50  73
ATOM     73  C   UNL A   1      50.431  27.764  25.868  1.00  0.00    -0.014 A 
ATOM     74  C   UNL A   1      50.802  28.028  24.538  1.00  0.00     0.010 A 
ATOM     75  C   UNL A   1      51.407  27.302  26.771  1.00  0.00     0.010 A 
ATOM     76  C   UNL A   1      52.121  27.830  24.119  1.00  0.00     0.020 A 
ATOM     77  C   UNL A   1      52.732  27.131  26.363  1.00  0.00     0.020 A 
ATOM     78  C   UNL A   1      53.079  27.390  25.036  1.00  0.00     0.054 A 
BRANCH  78  79
ATOM     79  S   UNL A   1      54.799  27.214  24.486  1.00  0.00     0.124 S 
ATOM     80  O   UNL A   1      54.751  27.795  23.149  1.00  0.00    -0.237 OA
ATOM     81  O   UNL A   1      55.530  27.986  25.488  1.00  0.00    -0.237 OA
ATOM     82  O   UNL A   1      55.028  25.772  24.535  1.00  0.00    -0.744 OA
ENDBRANCH  78  79
ENDBRANCH  50  73
BRANCH  62  83
ATOM     83  C   UNL A   1      47.162  33.248  28.705  1.00  0.00    -0.014 A 
ATOM     84  C   UNL A   1      47.088  34.343  27.827  1.00  0.00     0.010 A 
ATOM     85  C   UNL A   1      47.634  33.452  30.015  1.00  0.00     0.010 A 
ATOM     86  C   UNL A   1      47.507  35.610  28.240  1.00  0.00     0.020 A 
ATOM     87  C   UNL A   1      48.025  34.722  30.443  1.00  0.00     0.020 A 
ATOM     88  C   UNL A   1      47.972  35.792  29.547  1.00  0.00     0.054 A 
BRANCH  88  89
ATOM     89  S   UNL A   1      48.468  37.455  30.072  1.00  0.00     0.124 S 
ATOM     90  O   UNL A   1      49.302  37.170  31.237  1.00  0.00    -0.237 OA
ATOM     91  O   UNL A   1      49.179  37.962  28.901  1.00  0.00    -0.237 OA
ATOM     92  O   UNL A   1      47.201  38.121  30.362  1.00  0.00    -0.744 OA
ENDBRANCH  88  89
ENDBRANCH  62  83
ENDBRANCH  36  37
ENDBRANCH  28  31
ENDBRANCH  26  27
ENDBRANCH  25  26
ENDBRANCH  24  25
ENDBRANCH   1  24
TORSDOF 19
ENDMDL
MODEL 3
REMARK VINA RESULT:      -9.6      5.977      8.488
REMARK SMILES CC1(C)CCC[C@@H]1[NH2+]Cc1cc(C(=O)NCCCCCCNC(=O)c2ccc(-c3c4nc(c(-c5ccc(S(=O)(=O)[O-])cc5)c5ccc([nH]5)c(-c5ccc(S(=O)(=O)[O-])cc5)c5nc(c(-c6ccc(S(=O)(=O)[O-])cc6)c6ccc3[nH]6)C=C5)C=C4)cc2)cs1
REMARK SMILES IDX 18 1 17 2 16 3 15 4 13 5 14 6 12 8 10 9 11 10 86 11 85 12
REMARK SMILES IDX 9 13 8 14 7 17 1 18 2 19 3 20 4 21 5 22 6 23 19 24 20 25
REMARK SMILES IDX 21 26 22 27 23 28 24 30 25 31 26 32 84 33 27 34 83 35 28 36
REMARK SMILES IDX 29 37 30 38 77 39 31 40 82 41 76 42 78 43 32 44 81 45 75 46
REMARK SMILES IDX 74 47 33 49 63 50 44 51 62 52 45 53 48 54 61 55 79 56 46 57
REMARK SMILES IDX 47 58 60 60 80 61 49 62 34 63 35 64 43 65 36 66 42 67 37 68
REMARK SMILES IDX 38 69 39 70 40 71 41 72 64 73 65 74 73 75 66 76 72 77 67 78
REMARK SMILES IDX 68 79 69 80 70 81 71 82 50 83 51 84 59 85 52 86 58 87 53 88
REMARK SMILES IDX 54 89 55 90 56 91 57 92
REMARK H PARENT 15 7 8 15 8 16 22 29 78 48 48 59
REMARK Flexibility Score: inf
ROOT
ATOM      1  C   UNL A   1      34.825  31.707  28.254  1.00  0.00     0.002 C 
ENDROOT
BRANCH   1   2
ATOM      2  C   UNL A   1      35.234  30.438  27.497  1.00  0.00     0.021 C 
BRANCH   2   3
ATOM      3  C   UNL A   1      34.118  29.394  27.435  1.00  0.00     0.116 C 
BRANCH   3   4
ATOM      4  N   UNL A   1      33.180  29.725  26.379  1.00  0.00    -0.352 N 
ATOM      5  C   UNL A   1      32.498  28.932  25.494  1.00  0.00     0.252 C 
ATOM      6  O   UNL A   1      31.712  29.492  24.723  1.00  0.00    -0.269 OA
ATOM      7  H   UNL A   1      33.001  30.688  26.282  1.00  0.00     0.163 HD
BRANCH   5   8
ATOM      8  C   UNL A   1      32.643  27.476  25.513  1.00  0.00     0.051 A 
ATOM      9  C   UNL A   1      33.614  25.333  25.434  1.00  0.00     0.059 A 
ATOM     10  C   UNL A   1      33.702  26.648  25.015  1.00  0.00     0.035 A 
ATOM     11  S   UNL A   1      32.090  25.025  26.145  1.00  0.00    -0.142 S 
ATOM     12  C   UNL A   1      31.649  26.672  26.047  1.00  0.00     0.079 A 
BRANCH   9  13
ATOM     13  C   UNL A   1      34.664  24.256  25.337  1.00  0.00     0.308 C 
BRANCH  13  14
ATOM     14  N   UNL A   1      34.272  23.306  24.300  1.00  0.00    -0.339 N 
ATOM     15  H   UNL A   1      33.856  23.840  23.536  1.00  0.00     0.346 HD
ATOM     16  H   UNL A   1      35.131  22.808  24.065  1.00  0.00     0.346 HD
BRANCH  14  17
ATOM     17  C   UNL A   1      33.323  22.260  24.672  1.00  0.00     0.188 C 
ATOM     18  C   UNL A   1      33.767  21.259  26.998  1.00  0.00     0.017 C 
ATOM     19  C   UNL A   1      33.769  21.013  25.483  1.00  0.00     0.017 C 
ATOM     20  C   UNL A   1      35.132  20.444  25.043  1.00  0.00     0.017 C 
ATOM     21  C   UNL A   1      32.646  20.015  25.124  1.00  0.00     0.013 C 
ATOM     22  C   UNL A   1      32.431  20.206  23.632  1.00  0.00     0.007 C 
ATOM     23  C   UNL A   1      32.713  21.683  23.371  1.00  0.00     0.065 C 
ENDBRANCH  14  17
ENDBRANCH  13  14
ENDBRANCH   9  13
ENDBRANCH   5   8
ENDBRANCH   3   4
ENDBRANCH   2   3
ENDBRANCH   1   2
BRANCH   1  24
ATOM     24  C   UNL A   1      35.748  32.910  28.026  1.00  0.00     0.002 C 
BRANCH  24  25
ATOM     25  C   UNL A   1      35.952  33.803  29.253  1.00  0.00     0.021 C 
BRANCH  25  26
ATOM     26  C   UNL A   1      37.039  33.311  30.203  1.00  0.00     0.116 C 
BRANCH  26  27
ATOM     27  N   UNL A   1      36.507  32.369  31.176  1.00  0.00    -0.352 N 
ATOM     28  C   UNL A   1      36.874  31.069  31.415  1.00  0.00     0.251 C 
ATOM     29  H   UNL A   1      35.779  32.713  31.744  1.00  0.00     0.163 HD
ATOM     30  O   UNL A   1      36.147  30.339  32.082  1.00  0.00    -0.269 OA
BRANCH  28  31
ATOM     31  C   UNL A   1      38.144  30.558  30.864  1.00  0.00     0.039 A 
ATOM     32  C   UNL A   1      38.294  30.458  29.478  1.00  0.00     0.014 A 
ATOM     33  C   UNL A   1      39.180  30.165  31.716  1.00  0.00     0.014 A 
ATOM     34  C   UNL A   1      39.505  30.008  28.948  1.00  0.00     0.010 A 
ATOM     35  C   UNL A   1      40.411  29.795  31.184  1.00  0.00     0.010 A 
ATOM     36  C   UNL A   1      40.582  29.701  29.797  1.00  0.00    -0.014 A 
BRANCH  36  37
ATOM     37  C   UNL A   1      41.895  29.277  29.249  1.00  0.00     0.031 A 
ATOM     38  C   UNL A   1      43.018  30.269  29.121  1.00  0.00     0.074 A 
ATOM     39  C   UNL A   1      42.054  28.013  28.809  1.00  0.00     0.049 A 
ATOM     40  N   UNL A   1      44.216  30.098  28.625  1.00  0.00    -0.248 NA
ATOM     41  C   UNL A   1      42.751  31.640  29.584  1.00  0.00     0.031 C 
ATOM     42  C   UNL A   1      41.024  26.970  28.841  1.00  0.00     0.029 A 
ATOM     43  N   UNL A   1      43.138  27.392  28.244  1.00  0.00    -0.354 N 
ATOM     44  C   UNL A   1      44.839  31.338  28.703  1.00  0.00     0.074 A 
ATOM     45  C   UNL A   1      43.866  32.265  29.238  1.00  0.00     0.031 C 
ATOM     46  C   UNL A   1      41.537  25.833  28.345  1.00  0.00     0.029 A 
ATOM     47  C   UNL A   1      42.913  26.075  27.920  1.00  0.00     0.049 A 
ATOM     48  H   UNL A   1      43.997  27.847  28.086  1.00  0.00     0.167 HD
ATOM     49  C   UNL A   1      46.111  31.672  28.378  1.00  0.00     0.031 A 
ATOM     50  C   UNL A   1      43.718  25.165  27.340  1.00  0.00     0.031 A 
ATOM     51  C   UNL A   1      47.073  30.744  27.843  1.00  0.00     0.049 A 
ATOM     52  C   UNL A   1      45.120  25.559  26.971  1.00  0.00     0.074 A 
ATOM     53  C   UNL A   1      48.402  30.967  27.530  1.00  0.00     0.029 A 
ATOM     54  N   UNL A   1      46.806  29.417  27.534  1.00  0.00    -0.354 N 
ATOM     55  N   UNL A   1      45.714  26.719  27.119  1.00  0.00    -0.248 NA
ATOM     56  C   UNL A   1      45.966  24.519  26.371  1.00  0.00     0.031 C 
ATOM     57  C   UNL A   1      48.921  29.794  26.971  1.00  0.00     0.029 A 
ATOM     58  C   UNL A   1      47.937  28.818  27.004  1.00  0.00     0.049 A 
ATOM     59  H   UNL A   1      45.941  28.969  27.671  1.00  0.00     0.167 HD
ATOM     60  C   UNL A   1      47.013  26.542  26.652  1.00  0.00     0.074 A 
ATOM     61  C   UNL A   1      47.120  25.158  26.234  1.00  0.00     0.031 C 
ATOM     62  C   UNL A   1      48.025  27.441  26.582  1.00  0.00     0.031 A 
BRANCH  49  63
ATOM     63  C   UNL A   1      46.524  33.109  28.576  1.00  0.00    -0.014 A 
ATOM     64  C   UNL A   1      46.099  34.121  27.695  1.00  0.00     0.010 A 
ATOM     65  C   UNL A   1      47.341  33.456  29.668  1.00  0.00     0.010 A 
ATOM     66  C   UNL A   1      46.530  35.439  27.867  1.00  0.00     0.020 A 
ATOM     67  C   UNL A   1      47.747  34.780  29.864  1.00  0.00     0.020 A 
ATOM     68  C   UNL A   1      47.358  35.758  28.948  1.00  0.00     0.054 A 
BRANCH  68  69
ATOM     69  S   UNL A   1      47.905  37.476  29.144  1.00  0.00     0.124 S 
ATOM     70  O   UNL A   1      46.761  38.217  28.620  1.00  0.00    -0.237 OA
ATOM     71  O   UNL A   1      48.115  37.584  30.585  1.00  0.00    -0.237 OA
ATOM     72  O   UNL A   1      49.119  37.549  28.333  1.00  0.00    -0.744 OA
ENDBRANCH  68  69
ENDBRANCH  49  63
BRANCH  50  73
ATOM     73  C   UNL A   1      43.211  23.786  27.093  1.00  0.00    -0.014 A 
ATOM     74  C   UNL A   1      42.783  23.399  25.812  1.00  0.00     0.010 A 
ATOM     75  C   UNL A   1      43.195  22.839  28.134  1.00  0.00     0.010 A 
ATOM     76  C   UNL A   1      42.344  22.093  25.576  1.00  0.00     0.020 A 
ATOM     77  C   UNL A   1      42.784  21.525  27.897  1.00  0.00     0.020 A 
ATOM     78  C   UNL A   1      42.354  21.162  26.619  1.00  0.00     0.054 A 
BRANCH  78  79
ATOM     79  S   UNL A   1      41.852  19.454  26.270  1.00  0.00     0.124 S 
ATOM     80  O   UNL A   1      42.256  18.764  27.490  1.00  0.00    -0.237 OA
ATOM     81  O   UNL A   1      40.412  19.587  26.063  1.00  0.00    -0.237 OA
ATOM     82  O   UNL A   1      42.615  19.111  25.073  1.00  0.00    -0.744 OA
ENDBRANCH  78  79
ENDBRANCH  50  73
BRANCH  62  83
ATOM     83  C   UNL A   1      49.352  26.955  26.058  1.00  0.00    -0.014 A 
ATOM     84  C   UNL A   1      49.770  27.238  24.746  1.00  0.00     0.010 A 
ATOM     85  C   UNL A   1      50.216  26.249  26.915  1.00  0.00     0.010 A 
ATOM     86  C   UNL A   1      51.016  26.798  24.292  1.00  0.00     0.020 A 
ATOM     87  C   UNL A   1      51.475  25.834  26.475  1.00  0.00     0.020 A 
ATOM     88  C   UNL A   1      51.861  26.100  25.159  1.00  0.00     0.054 A 
BRANCH  88  89
ATOM     89  S   UNL A   1      53.491  25.579  24.558  1.00  0.00     0.124 S 
ATOM     90  O   UNL A   1      53.327  25.679  23.110  1.00  0.00    -0.237 OA
ATOM     91  O   UNL A   1      54.384  26.567  25.159  1.00  0.00    -0.237 OA
ATOM     92  O   UNL A   1      53.635  24.220  25.076  1.00  0.00    -0.744 OA
ENDBRANCH  88  89
ENDBRANCH  62  83
ENDBRANCH  36  37
ENDBRANCH  28  31
ENDBRANCH  26  27
ENDBRANCH  25  26
ENDBRANCH  24  25
ENDBRANCH   1  24
TORSDOF 19
ENDMDL
