MODEL 1
REMARK VINA RESULT:     -11.4      0.000      0.000
REMARK SMILES O=C(CSc1nnc(-c2ccncc2)s1)Nc1cccc(C(=O)NCCCCCCNC(=O)c2ccc(-c3c4nc(c(-c5ccc(S(=O)(=O)[O-])cc5)c5ccc([nH]5)c(-c5ccc(S(=O)(=O)[O-])cc5)c5nc(c(-c6ccc(S(=O)(=O)[O-])cc6)c6ccc3[nH]6)C=C5)C=C4)cc2)c1
REMARK SMILES IDX 26 1 25 2 24 3 22 4 23 5 21 7 17 8 18 9 94 10 19 11 20 12
REMARK SMILES IDX 16 13 1 14 2 15 3 17 4 18 5 19 6 20 15 21 7 22 8 23 9 24
REMARK SMILES IDX 10 25 14 26 11 27 13 28 12 29 27 30 28 31 29 32 30 33 31 34
REMARK SMILES IDX 32 35 33 37 34 38 35 39 93 40 36 41 92 42 37 43 38 44 39 45
REMARK SMILES IDX 86 46 40 47 91 48 85 49 87 50 41 51 90 52 84 53 83 54 42 56
REMARK SMILES IDX 72 57 53 58 71 59 54 60 57 61 70 62 88 63 55 64 56 65 69 67
REMARK SMILES IDX 89 68 58 69 43 70 44 71 52 72 45 73 51 74 46 75 47 76 48 77
REMARK SMILES IDX 49 78 50 79 73 80 74 81 82 82 75 83 81 84 76 85 77 86 78 87
REMARK SMILES IDX 79 88 80 89 59 90 60 91 68 92 61 93 67 94 62 95 63 96 64 97
REMARK SMILES IDX 65 98 66 99
REMARK H PARENT 24 6 16 16 31 36 87 55 57 66
REMARK Flexibility Score: inf
ROOT
ATOM      1  C   UNL A   1      36.600  21.853  24.127  1.00  0.00     0.021 C 
ENDROOT
BRANCH   1   2
ATOM      2  C   UNL A   1      36.563  20.709  25.133  1.00  0.00     0.116 C 
BRANCH   2   3
ATOM      3  N   UNL A   1      35.497  19.743  24.900  1.00  0.00    -0.352 N 
ATOM      4  C   UNL A   1      34.127  19.897  24.940  1.00  0.00     0.251 C 
ATOM      5  O   UNL A   1      33.407  18.921  24.742  1.00  0.00    -0.269 OA
ATOM      6  H   UNL A   1      35.804  18.835  24.677  1.00  0.00     0.163 HD
BRANCH   4   7
ATOM      7  C   UNL A   1      33.500  21.201  25.289  1.00  0.00     0.041 A 
ATOM      8  C   UNL A   1      32.631  23.363  24.622  1.00  0.00     0.041 A 
ATOM      9  C   UNL A   1      32.660  23.773  25.959  1.00  0.00     0.026 A 
ATOM     10  C   UNL A   1      32.952  22.041  24.318  1.00  0.00     0.040 A 
ATOM     11  C   UNL A   1      33.056  22.886  26.965  1.00  0.00     0.003 A 
ATOM     12  C   UNL A   1      33.504  21.609  26.627  1.00  0.00     0.014 A 
BRANCH   8  13
ATOM     13  N   UNL A   1      32.351  24.333  23.637  1.00  0.00    -0.325 N 
ATOM     14  O   UNL A   1      34.425  24.609  22.623  1.00  0.00    -0.274 OA
ATOM     15  C   UNL A   1      33.234  24.897  22.726  1.00  0.00     0.234 C 
ATOM     16  H   UNL A   1      31.420  24.647  23.590  1.00  0.00     0.169 HD
BRANCH  15  17
ATOM     17  C   UNL A   1      32.658  26.030  21.885  1.00  0.00     0.177 C 
BRANCH  17  18
ATOM     18  S   UNL A   1      31.022  26.600  22.428  1.00  0.00    -0.084 SA
BRANCH  18  19
ATOM     19  C   UNL A   1      31.491  27.744  23.662  1.00  0.00     0.175 A 
ATOM     20  N   UNL A   1      30.729  28.748  24.024  1.00  0.00    -0.131 NA
ATOM     21  S   UNL A   1      33.001  27.675  24.456  1.00  0.00    -0.086 S 
ATOM     22  N   UNL A   1      31.331  29.521  25.003  1.00  0.00    -0.137 NA
ATOM     23  C   UNL A   1      32.532  29.083  25.327  1.00  0.00     0.148 A 
BRANCH  23  24
ATOM     24  C   UNL A   1      33.408  29.671  26.347  1.00  0.00     0.015 A 
ATOM     25  C   UNL A   1      33.129  30.905  26.949  1.00  0.00     0.031 A 
ATOM     26  C   UNL A   1      34.559  28.987  26.747  1.00  0.00     0.031 A 
ATOM     27  C   UNL A   1      34.010  31.401  27.894  1.00  0.00     0.111 A 
ATOM     28  C   UNL A   1      35.381  29.568  27.700  1.00  0.00     0.111 A 
ATOM     29  N   UNL A   1      35.132  30.761  28.280  1.00  0.00    -0.265 NA
ENDBRANCH  23  24
ENDBRANCH  18  19
ENDBRANCH  17  18
ENDBRANCH  15  17
ENDBRANCH   8  13
ENDBRANCH   4   7
ENDBRANCH   2   3
ENDBRANCH   1   2
BRANCH   1  30
ATOM     30  C   UNL A   1      36.520  23.266  24.702  1.00  0.00     0.002 C 
BRANCH  30  31
ATOM     31  C   UNL A   1      36.952  23.429  26.162  1.00  0.00     0.002 C 
BRANCH  31  32
ATOM     32  C   UNL A   1      38.117  24.386  26.428  1.00  0.00     0.021 C 
BRANCH  32  33
ATOM     33  C   UNL A   1      39.439  23.738  26.832  1.00  0.00     0.116 C 
BRANCH  33  34
ATOM     34  N   UNL A   1      40.563  24.206  26.039  1.00  0.00    -0.352 N 
ATOM     35  C   UNL A   1      41.370  25.304  26.208  1.00  0.00     0.251 C 
ATOM     36  H   UNL A   1      40.780  23.647  25.258  1.00  0.00     0.163 HD
ATOM     37  O   UNL A   1      42.178  25.598  25.332  1.00  0.00    -0.269 OA
BRANCH  35  38
ATOM     38  C   UNL A   1      41.258  26.149  27.420  1.00  0.00     0.039 A 
ATOM     39  C   UNL A   1      42.129  27.233  27.558  1.00  0.00     0.014 A 
ATOM     40  C   UNL A   1      40.330  25.871  28.427  1.00  0.00     0.014 A 
ATOM     41  C   UNL A   1      42.030  28.070  28.673  1.00  0.00     0.010 A 
ATOM     42  C   UNL A   1      40.185  26.747  29.505  1.00  0.00     0.010 A 
ATOM     43  C   UNL A   1      41.033  27.856  29.640  1.00  0.00    -0.014 A 
BRANCH  43  44
ATOM     44  C   UNL A   1      40.851  28.811  30.764  1.00  0.00     0.031 A 
ATOM     45  C   UNL A   1      41.695  28.719  32.007  1.00  0.00     0.074 A 
ATOM     46  C   UNL A   1      39.879  29.743  30.684  1.00  0.00     0.049 A 
ATOM     47  N   UNL A   1      41.679  29.481  33.072  1.00  0.00    -0.248 NA
ATOM     48  C   UNL A   1      42.664  27.615  32.075  1.00  0.00     0.031 C 
ATOM     49  C   UNL A   1      38.950  29.898  29.562  1.00  0.00     0.029 A 
ATOM     50  N   UNL A   1      39.510  30.733  31.559  1.00  0.00    -0.354 N 
ATOM     51  C   UNL A   1      42.620  28.942  33.941  1.00  0.00     0.074 A 
ATOM     52  C   UNL A   1      43.156  27.761  33.297  1.00  0.00     0.031 C 
ATOM     53  C   UNL A   1      38.138  30.938  29.803  1.00  0.00     0.029 A 
ATOM     54  C   UNL A   1      38.463  31.503  31.109  1.00  0.00     0.049 A 
ATOM     55  H   UNL A   1      39.952  30.880  32.426  1.00  0.00     0.167 HD
ATOM     56  C   UNL A   1      43.014  29.395  35.157  1.00  0.00     0.031 A 
ATOM     57  C   UNL A   1      37.830  32.547  31.679  1.00  0.00     0.031 A 
ATOM     58  C   UNL A   1      42.478  30.570  35.794  1.00  0.00     0.049 A 
ATOM     59  C   UNL A   1      38.296  33.045  33.017  1.00  0.00     0.074 A 
ATOM     60  C   UNL A   1      42.865  31.155  36.988  1.00  0.00     0.029 A 
ATOM     61  N   UNL A   1      41.429  31.333  35.300  1.00  0.00    -0.354 N 
ATOM     62  N   UNL A   1      39.256  32.581  33.780  1.00  0.00    -0.248 NA
ATOM     63  C   UNL A   1      37.603  34.219  33.564  1.00  0.00     0.031 C 
ATOM     64  C   UNL A   1      42.009  32.232  37.246  1.00  0.00     0.029 A 
ATOM     65  C   UNL A   1      41.130  32.359  36.183  1.00  0.00     0.049 A 
ATOM     66  H   UNL A   1      40.965  31.168  34.448  1.00  0.00     0.167 HD
ATOM     67  C   UNL A   1      39.293  33.413  34.892  1.00  0.00     0.074 A 
ATOM     68  C   UNL A   1      38.276  34.426  34.688  1.00  0.00     0.031 C 
ATOM     69  C   UNL A   1      40.096  33.344  35.984  1.00  0.00     0.031 A 
BRANCH  56  70
ATOM     70  C   UNL A   1      44.064  28.597  35.889  1.00  0.00    -0.014 A 
ATOM     71  C   UNL A   1      45.435  28.872  35.735  1.00  0.00     0.010 A 
ATOM     72  C   UNL A   1      43.672  27.568  36.766  1.00  0.00     0.010 A 
ATOM     73  C   UNL A   1      46.394  28.098  36.396  1.00  0.00     0.020 A 
ATOM     74  C   UNL A   1      44.626  26.812  37.453  1.00  0.00     0.020 A 
ATOM     75  C   UNL A   1      45.982  27.067  37.245  1.00  0.00     0.054 A 
BRANCH  75  76
ATOM     76  S   UNL A   1      47.246  26.076  38.088  1.00  0.00     0.124 S 
ATOM     77  O   UNL A   1      46.963  24.735  37.582  1.00  0.00    -0.237 OA
ATOM     78  O   UNL A   1      48.492  26.674  37.615  1.00  0.00    -0.237 OA
ATOM     79  O   UNL A   1      46.960  26.280  39.506  1.00  0.00    -0.744 OA
ENDBRANCH  75  76
ENDBRANCH  56  70
BRANCH  57  80
ATOM     80  C   UNL A   1      36.696  33.194  30.963  1.00  0.00    -0.014 A 
ATOM     81  C   UNL A   1      35.378  33.052  31.429  1.00  0.00     0.010 A 
ATOM     82  C   UNL A   1      36.940  34.001  29.837  1.00  0.00     0.010 A 
ATOM     83  C   UNL A   1      34.324  33.705  30.783  1.00  0.00     0.020 A 
ATOM     84  C   UNL A   1      35.893  34.679  29.205  1.00  0.00     0.020 A 
ATOM     85  C   UNL A   1      34.591  34.522  29.680  1.00  0.00     0.054 A 
BRANCH  85  86
ATOM     86  S   UNL A   1      33.220  35.431  28.913  1.00  0.00     0.124 S 
ATOM     87  O   UNL A   1      33.925  36.440  28.128  1.00  0.00    -0.237 OA
ATOM     88  O   UNL A   1      32.544  34.389  28.143  1.00  0.00    -0.237 OA
ATOM     89  O   UNL A   1      32.465  35.939  30.055  1.00  0.00    -0.744 OA
ENDBRANCH  85  86
ENDBRANCH  57  80
BRANCH  69  90
ATOM     90  C   UNL A   1      39.904  34.400  37.043  1.00  0.00    -0.014 A 
ATOM     91  C   UNL A   1      39.075  34.173  38.157  1.00  0.00     0.010 A 
ATOM     92  C   UNL A   1      40.580  35.629  36.934  1.00  0.00     0.010 A 
ATOM     93  C   UNL A   1      38.886  35.173  39.114  1.00  0.00     0.020 A 
ATOM     94  C   UNL A   1      40.420  36.619  37.906  1.00  0.00     0.020 A 
ATOM     95  C   UNL A   1      39.557  36.393  38.980  1.00  0.00     0.054 A 
BRANCH  95  96
ATOM     96  S   UNL A   1      39.306  37.671  40.241  1.00  0.00     0.124 S 
ATOM     97  O   UNL A   1      40.626  38.292  40.311  1.00  0.00    -0.237 OA
ATOM     98  O   UNL A   1      38.253  38.499  39.656  1.00  0.00    -0.237 OA
ATOM     99  O   UNL A   1      38.908  36.914  41.427  1.00  0.00    -0.744 OA
ENDBRANCH  95  96
ENDBRANCH  69  90
ENDBRANCH  43  44
ENDBRANCH  35  38
ENDBRANCH  33  34
ENDBRANCH  32  33
ENDBRANCH  31  32
ENDBRANCH  30  31
ENDBRANCH   1  30
TORSDOF 21
ENDMDL
MODEL 2
REMARK VINA RESULT:     -11.2      0.746      7.860
REMARK SMILES O=C(CSc1nnc(-c2ccncc2)s1)Nc1cccc(C(=O)NCCCCCCNC(=O)c2ccc(-c3c4nc(c(-c5ccc(S(=O)(=O)[O-])cc5)c5ccc([nH]5)c(-c5ccc(S(=O)(=O)[O-])cc5)c5nc(c(-c6ccc(S(=O)(=O)[O-])cc6)c6ccc3[nH]6)C=C5)C=C4)cc2)c1
REMARK SMILES IDX 26 1 25 2 24 3 22 4 23 5 21 7 17 8 18 9 94 10 19 11 20 12
REMARK SMILES IDX 16 13 1 14 2 15 3 17 4 18 5 19 6 20 15 21 7 22 8 23 9 24
REMARK SMILES IDX 10 25 14 26 11 27 13 28 12 29 27 30 28 31 29 32 30 33 31 34
REMARK SMILES IDX 32 35 33 37 34 38 35 39 93 40 36 41 92 42 37 43 38 44 39 45
REMARK SMILES IDX 86 46 40 47 91 48 85 49 87 50 41 51 90 52 84 53 83 54 42 56
REMARK SMILES IDX 72 57 53 58 71 59 54 60 57 61 70 62 88 63 55 64 56 65 69 67
REMARK SMILES IDX 89 68 58 69 43 70 44 71 52 72 45 73 51 74 46 75 47 76 48 77
REMARK SMILES IDX 49 78 50 79 73 80 74 81 82 82 75 83 81 84 76 85 77 86 78 87
REMARK SMILES IDX 79 88 80 89 59 90 60 91 68 92 61 93 67 94 62 95 63 96 64 97
REMARK SMILES IDX 65 98 66 99
REMARK H PARENT 24 6 16 16 31 36 87 55 57 66
REMARK Flexibility Score: inf
ROOT
ATOM      1  C   UNL A   1      35.735  21.827  24.207  1.00  0.00     0.021 C 
ENDROOT
BRANCH   1   2
ATOM      2  C   UNL A   1      35.691  20.686  25.218  1.00  0.00     0.116 C 
BRANCH   2   3
ATOM      3  N   UNL A   1      34.526  19.821  25.091  1.00  0.00    -0.352 N 
ATOM      4  C   UNL A   1      33.181  20.118  25.157  1.00  0.00     0.251 C 
ATOM      5  O   UNL A   1      32.359  19.208  25.056  1.00  0.00    -0.269 OA
ATOM      6  H   UNL A   1      34.732  18.872  24.933  1.00  0.00     0.163 HD
BRANCH   4   7
ATOM      7  C   UNL A   1      32.701  21.502  25.419  1.00  0.00     0.041 A 
ATOM      8  C   UNL A   1      31.937  23.652  24.604  1.00  0.00     0.041 A 
ATOM      9  C   UNL A   1      32.145  24.195  25.876  1.00  0.00     0.026 A 
ATOM     10  C   UNL A   1      32.117  22.283  24.419  1.00  0.00     0.040 A 
ATOM     11  C   UNL A   1      32.578  23.384  26.930  1.00  0.00     0.003 A 
ATOM     12  C   UNL A   1      32.884  22.044  26.695  1.00  0.00     0.014 A 
BRANCH   8  13
ATOM     13  N   UNL A   1      31.627  24.537  23.550  1.00  0.00    -0.325 N 
ATOM     14  O   UNL A   1      33.730  25.319  22.938  1.00  0.00    -0.274 OA
ATOM     15  C   UNL A   1      32.508  25.308  22.803  1.00  0.00     0.234 C 
ATOM     16  H   UNL A   1      30.675  24.617  23.315  1.00  0.00     0.169 HD
BRANCH  15  17
ATOM     17  C   UNL A   1      31.850  26.278  21.827  1.00  0.00     0.177 C 
BRANCH  17  18
ATOM     18  S   UNL A   1      30.483  27.235  22.540  1.00  0.00    -0.084 SA
BRANCH  18  19
ATOM     19  C   UNL A   1      31.227  27.770  24.028  1.00  0.00     0.175 A 
ATOM     20  N   UNL A   1      30.822  27.366  25.207  1.00  0.00    -0.131 NA
ATOM     21  S   UNL A   1      32.504  28.903  24.063  1.00  0.00    -0.086 S 
ATOM     22  N   UNL A   1      31.556  27.948  26.227  1.00  0.00    -0.137 NA
ATOM     23  C   UNL A   1      32.472  28.784  25.779  1.00  0.00     0.148 A 
BRANCH  23  24
ATOM     24  C   UNL A   1      33.423  29.534  26.609  1.00  0.00     0.015 A 
ATOM     25  C   UNL A   1      34.698  29.040  26.913  1.00  0.00     0.031 A 
ATOM     26  C   UNL A   1      33.062  30.785  27.115  1.00  0.00     0.031 A 
ATOM     27  C   UNL A   1      35.534  29.799  27.713  1.00  0.00     0.111 A 
ATOM     28  C   UNL A   1      33.968  31.468  27.910  1.00  0.00     0.111 A 
ATOM     29  N   UNL A   1      35.196  31.001  28.221  1.00  0.00    -0.265 NA
ENDBRANCH  23  24
ENDBRANCH  18  19
ENDBRANCH  17  18
ENDBRANCH  15  17
ENDBRANCH   8  13
ENDBRANCH   4   7
ENDBRANCH   2   3
ENDBRANCH   1   2
BRANCH   1  30
ATOM     30  C   UNL A   1      35.955  23.228  24.773  1.00  0.00     0.002 C 
BRANCH  30  31
ATOM     31  C   UNL A   1      36.625  23.307  26.147  1.00  0.00     0.002 C 
BRANCH  31  32
ATOM     32  C   UNL A   1      37.690  24.392  26.327  1.00  0.00     0.021 C 
BRANCH  32  33
ATOM     33  C   UNL A   1      39.066  23.914  26.785  1.00  0.00     0.116 C 
BRANCH  33  34
ATOM     34  N   UNL A   1      40.146  24.427  25.960  1.00  0.00    -0.352 N 
ATOM     35  C   UNL A   1      40.948  25.527  26.136  1.00  0.00     0.251 C 
ATOM     36  H   UNL A   1      40.331  23.903  25.147  1.00  0.00     0.163 HD
ATOM     37  O   UNL A   1      41.712  25.866  25.237  1.00  0.00    -0.269 OA
BRANCH  35  38
ATOM     38  C   UNL A   1      40.886  26.320  27.387  1.00  0.00     0.039 A 
ATOM     39  C   UNL A   1      41.728  27.428  27.515  1.00  0.00     0.014 A 
ATOM     40  C   UNL A   1      40.033  25.970  28.437  1.00  0.00     0.014 A 
ATOM     41  C   UNL A   1      41.672  28.217  28.667  1.00  0.00     0.010 A 
ATOM     42  C   UNL A   1      39.928  26.798  29.557  1.00  0.00     0.010 A 
ATOM     43  C   UNL A   1      40.746  27.931  29.684  1.00  0.00    -0.014 A 
BRANCH  43  44
ATOM     44  C   UNL A   1      40.604  28.835  30.855  1.00  0.00     0.031 A 
ATOM     45  C   UNL A   1      39.551  29.910  30.884  1.00  0.00     0.074 A 
ATOM     46  C   UNL A   1      41.467  28.717  31.885  1.00  0.00     0.049 A 
ATOM     47  N   UNL A   1      39.279  30.772  31.831  1.00  0.00    -0.248 NA
ATOM     48  C   UNL A   1      38.711  30.053  29.684  1.00  0.00     0.031 C 
ATOM     49  C   UNL A   1      42.573  27.759  31.953  1.00  0.00     0.029 A 
ATOM     50  N   UNL A   1      41.551  29.406  33.069  1.00  0.00    -0.354 N 
ATOM     51  C   UNL A   1      38.251  31.567  31.339  1.00  0.00     0.074 A 
ATOM     52  C   UNL A   1      37.980  31.115  29.991  1.00  0.00     0.031 C 
ATOM     53  C   UNL A   1      43.206  27.901  33.127  1.00  0.00     0.029 A 
ATOM     54  C   UNL A   1      42.577  28.981  33.881  1.00  0.00     0.049 A 
ATOM     55  H   UNL A   1      40.937  30.135  33.315  1.00  0.00     0.167 HD
ATOM     56  C   UNL A   1      37.584  32.574  31.957  1.00  0.00     0.031 A 
ATOM     57  C   UNL A   1      42.971  29.408  35.097  1.00  0.00     0.031 A 
ATOM     58  C   UNL A   1      37.857  33.021  33.299  1.00  0.00     0.049 A 
ATOM     59  C   UNL A   1      42.205  30.509  35.771  1.00  0.00     0.074 A 
ATOM     60  C   UNL A   1      37.186  33.978  34.041  1.00  0.00     0.029 A 
ATOM     61  N   UNL A   1      38.893  32.555  34.096  1.00  0.00    -0.354 N 
ATOM     62  N   UNL A   1      41.171  31.184  35.328  1.00  0.00    -0.248 NA
ATOM     63  C   UNL A   1      42.649  30.896  37.117  1.00  0.00     0.031 C 
ATOM     64  C   UNL A   1      37.855  34.135  35.261  1.00  0.00     0.029 A 
ATOM     65  C   UNL A   1      38.904  33.231  35.306  1.00  0.00     0.049 A 
ATOM     66  H   UNL A   1      39.528  31.848  33.838  1.00  0.00     0.167 HD
ATOM     67  C   UNL A   1      40.831  32.067  36.346  1.00  0.00     0.074 A 
ATOM     68  C   UNL A   1      41.754  31.821  37.437  1.00  0.00     0.031 C 
ATOM     69  C   UNL A   1      39.845  32.999  36.374  1.00  0.00     0.031 A 
BRANCH  56  70
ATOM     70  C   UNL A   1      36.504  33.276  31.172  1.00  0.00    -0.014 A 
ATOM     71  C   UNL A   1      36.806  34.044  30.032  1.00  0.00     0.010 A 
ATOM     72  C   UNL A   1      35.159  33.147  31.568  1.00  0.00     0.010 A 
ATOM     73  C   UNL A   1      35.794  34.716  29.340  1.00  0.00     0.020 A 
ATOM     74  C   UNL A   1      34.141  33.792  30.860  1.00  0.00     0.020 A 
ATOM     75  C   UNL A   1      34.468  34.591  29.764  1.00  0.00     0.054 A 
BRANCH  75  76
ATOM     76  S   UNL A   1      33.174  35.475  28.849  1.00  0.00     0.124 S 
ATOM     77  O   UNL A   1      33.963  36.327  27.962  1.00  0.00    -0.237 OA
ATOM     78  O   UNL A   1      32.447  34.391  28.194  1.00  0.00    -0.237 OA
ATOM     79  O   UNL A   1      32.431  36.180  29.891  1.00  0.00    -0.744 OA
ENDBRANCH  75  76
ENDBRANCH  56  70
BRANCH  57  80
ATOM     80  C   UNL A   1      44.145  28.768  35.750  1.00  0.00    -0.014 A 
ATOM     81  C   UNL A   1      45.450  29.215  35.479  1.00  0.00     0.010 A 
ATOM     82  C   UNL A   1      43.957  27.738  36.690  1.00  0.00     0.010 A 
ATOM     83  C   UNL A   1      46.545  28.645  36.137  1.00  0.00     0.020 A 
ATOM     84  C   UNL A   1      45.045  27.184  37.370  1.00  0.00     0.020 A 
ATOM     85  C   UNL A   1      46.333  27.639  37.085  1.00  0.00     0.054 A 
BRANCH  85  86
ATOM     86  S   UNL A   1      47.760  26.977  37.991  1.00  0.00     0.124 S 
ATOM     87  O   UNL A   1      48.880  27.462  37.190  1.00  0.00    -0.237 OA
ATOM     88  O   UNL A   1      47.610  27.591  39.308  1.00  0.00    -0.237 OA
ATOM     89  O   UNL A   1      47.545  25.532  37.959  1.00  0.00    -0.744 OA
ENDBRANCH  85  86
ENDBRANCH  57  80
BRANCH  69  90
ATOM     90  C   UNL A   1      39.713  33.821  37.631  1.00  0.00    -0.014 A 
ATOM     91  C   UNL A   1      39.031  33.327  38.757  1.00  0.00     0.010 A 
ATOM     92  C   UNL A   1      40.299  35.098  37.692  1.00  0.00     0.010 A 
ATOM     93  C   UNL A   1      38.894  34.113  39.903  1.00  0.00     0.020 A 
ATOM     94  C   UNL A   1      40.193  35.875  38.849  1.00  0.00     0.020 A 
ATOM     95  C   UNL A   1      39.472  35.387  39.940  1.00  0.00     0.054 A 
BRANCH  95  96
ATOM     96  S   UNL A   1      39.291  36.385  41.443  1.00  0.00     0.124 S 
ATOM     97  O   UNL A   1      40.568  36.155  42.115  1.00  0.00    -0.237 OA
ATOM     98  O   UNL A   1      39.093  37.732  40.913  1.00  0.00    -0.237 OA
ATOM     99  O   UNL A   1      38.125  35.805  42.106  1.00  0.00    -0.744 OA
ENDBRANCH  95  96
ENDBRANCH  69  90
ENDBRANCH  43  44
ENDBRANCH  35  38
ENDBRANCH  33  34
ENDBRANCH  32  33
ENDBRANCH  31  32
ENDBRANCH  30  31
ENDBRANCH   1  30
TORSDOF 21
ENDMDL
MODEL 3
REMARK VINA RESULT:     -10.7      1.407      2.154
REMARK SMILES O=C(CSc1nnc(-c2ccncc2)s1)Nc1cccc(C(=O)NCCCCCCNC(=O)c2ccc(-c3c4nc(c(-c5ccc(S(=O)(=O)[O-])cc5)c5ccc([nH]5)c(-c5ccc(S(=O)(=O)[O-])cc5)c5nc(c(-c6ccc(S(=O)(=O)[O-])cc6)c6ccc3[nH]6)C=C5)C=C4)cc2)c1
REMARK SMILES IDX 26 1 25 2 24 3 22 4 23 5 21 7 17 8 18 9 94 10 19 11 20 12
REMARK SMILES IDX 16 13 1 14 2 15 3 17 4 18 5 19 6 20 15 21 7 22 8 23 9 24
REMARK SMILES IDX 10 25 14 26 11 27 13 28 12 29 27 30 28 31 29 32 30 33 31 34
REMARK SMILES IDX 32 35 33 37 34 38 35 39 93 40 36 41 92 42 37 43 38 44 39 45
REMARK SMILES IDX 86 46 40 47 91 48 85 49 87 50 41 51 90 52 84 53 83 54 42 56
REMARK SMILES IDX 72 57 53 58 71 59 54 60 57 61 70 62 88 63 55 64 56 65 69 67
REMARK SMILES IDX 89 68 58 69 43 70 44 71 52 72 45 73 51 74 46 75 47 76 48 77
REMARK SMILES IDX 49 78 50 79 73 80 74 81 82 82 75 83 81 84 76 85 77 86 78 87
REMARK SMILES IDX 79 88 80 89 59 90 60 91 68 92 61 93 67 94 62 95 63 96 64 97
REMARK SMILES IDX 65 98 66 99
REMARK H PARENT 24 6 16 16 31 36 87 55 57 66
REMARK Flexibility Score: inf
ROOT
ATOM      1  C   UNL A   1      38.662  19.762  24.995  1.00  0.00     0.021 C 
ENDROOT
BRANCH   1   2
ATOM      2  C   UNL A   1      37.168  19.473  24.913  1.00  0.00     0.116 C 
BRANCH   2   3
ATOM      3  N   UNL A   1      36.808  18.096  25.224  1.00  0.00    -0.352 N 
ATOM      4  C   UNL A   1      35.652  17.392  24.959  1.00  0.00     0.251 C 
ATOM      5  O   UNL A   1      35.552  16.231  25.353  1.00  0.00    -0.269 OA
ATOM      6  H   UNL A   1      37.503  17.585  25.700  1.00  0.00     0.163 HD
BRANCH   4   7
ATOM      7  C   UNL A   1      34.495  18.027  24.273  1.00  0.00     0.041 A 
ATOM      8  C   UNL A   1      32.770  19.727  24.196  1.00  0.00     0.041 A 
ATOM      9  C   UNL A   1      32.120  19.005  23.190  1.00  0.00     0.026 A 
ATOM     10  C   UNL A   1      34.009  19.281  24.651  1.00  0.00     0.040 A 
ATOM     11  C   UNL A   1      32.681  17.826  22.688  1.00  0.00     0.003 A 
ATOM     12  C   UNL A   1      33.853  17.322  23.250  1.00  0.00     0.014 A 
BRANCH   8  13
ATOM     13  N   UNL A   1      32.098  20.835  24.755  1.00  0.00    -0.325 N 
ATOM     14  O   UNL A   1      32.812  22.577  23.392  1.00  0.00    -0.274 OA
ATOM     15  C   UNL A   1      32.159  22.160  24.347  1.00  0.00     0.234 C 
ATOM     16  H   UNL A   1      31.516  20.645  25.526  1.00  0.00     0.169 HD
BRANCH  15  17
ATOM     17  C   UNL A   1      31.429  23.149  25.249  1.00  0.00     0.177 C 
BRANCH  17  18
ATOM     18  S   UNL A   1      30.746  24.585  24.375  1.00  0.00    -0.084 SA
BRANCH  18  19
ATOM     19  C   UNL A   1      31.287  25.871  25.427  1.00  0.00     0.175 A 
ATOM     20  N   UNL A   1      30.749  26.099  26.600  1.00  0.00    -0.131 NA
ATOM     21  S   UNL A   1      32.524  26.962  24.986  1.00  0.00    -0.086 S 
ATOM     22  N   UNL A   1      31.338  27.183  27.231  1.00  0.00    -0.137 NA
ATOM     23  C   UNL A   1      32.282  27.743  26.500  1.00  0.00     0.148 A 
BRANCH  23  24
ATOM     24  C   UNL A   1      33.105  28.889  26.902  1.00  0.00     0.015 A 
ATOM     25  C   UNL A   1      32.556  30.156  27.137  1.00  0.00     0.031 A 
ATOM     26  C   UNL A   1      34.483  28.727  27.067  1.00  0.00     0.031 A 
ATOM     27  C   UNL A   1      33.399  31.193  27.500  1.00  0.00     0.111 A 
ATOM     28  C   UNL A   1      35.244  29.827  27.431  1.00  0.00     0.111 A 
ATOM     29  N   UNL A   1      34.731  31.056  27.649  1.00  0.00    -0.265 NA
ENDBRANCH  23  24
ENDBRANCH  18  19
ENDBRANCH  17  18
ENDBRANCH  15  17
ENDBRANCH   8  13
ENDBRANCH   4   7
ENDBRANCH   2   3
ENDBRANCH   1   2
BRANCH   1  30
ATOM     30  C   UNL A   1      39.081  20.931  25.884  1.00  0.00     0.002 C 
BRANCH  30  31
ATOM     31  C   UNL A   1      40.371  20.745  26.688  1.00  0.00     0.002 C 
BRANCH  31  32
ATOM     32  C   UNL A   1      40.766  21.891  27.621  1.00  0.00     0.021 C 
BRANCH  32  33
ATOM     33  C   UNL A   1      40.314  23.288  27.199  1.00  0.00     0.116 C 
BRANCH  33  34
ATOM     34  N   UNL A   1      41.169  23.874  26.181  1.00  0.00    -0.352 N 
ATOM     35  C   UNL A   1      41.631  25.160  26.047  1.00  0.00     0.251 C 
ATOM     36  H   UNL A   1      41.461  23.252  25.476  1.00  0.00     0.163 HD
ATOM     37  O   UNL A   1      42.228  25.482  25.023  1.00  0.00    -0.269 OA
BRANCH  35  38
ATOM     38  C   UNL A   1      41.397  26.166  27.110  1.00  0.00     0.039 A 
ATOM     39  C   UNL A   1      40.467  25.871  28.111  1.00  0.00     0.014 A 
ATOM     40  C   UNL A   1      42.057  27.397  27.115  1.00  0.00     0.014 A 
ATOM     41  C   UNL A   1      40.246  26.783  29.147  1.00  0.00     0.010 A 
ATOM     42  C   UNL A   1      41.886  28.276  28.186  1.00  0.00     0.010 A 
ATOM     43  C   UNL A   1      40.979  27.979  29.214  1.00  0.00    -0.014 A 
BRANCH  43  44
ATOM     44  C   UNL A   1      40.830  28.895  30.376  1.00  0.00     0.031 A 
ATOM     45  C   UNL A   1      41.735  28.785  31.573  1.00  0.00     0.074 A 
ATOM     46  C   UNL A   1      39.835  29.805  30.371  1.00  0.00     0.049 A 
ATOM     47  N   UNL A   1      41.753  29.512  32.661  1.00  0.00    -0.248 NA
ATOM     48  C   UNL A   1      42.732  27.703  31.559  1.00  0.00     0.031 C 
ATOM     49  C   UNL A   1      38.849  29.972  29.300  1.00  0.00     0.029 A 
ATOM     50  N   UNL A   1      39.486  30.758  31.295  1.00  0.00    -0.354 N 
ATOM     51  C   UNL A   1      42.748  28.970  33.467  1.00  0.00     0.074 A 
ATOM     52  C   UNL A   1      43.278  27.823  32.760  1.00  0.00     0.031 C 
ATOM     53  C   UNL A   1      38.026  30.984  29.614  1.00  0.00     0.029 A 
ATOM     54  C   UNL A   1      38.401  31.516  30.920  1.00  0.00     0.049 A 
ATOM     55  H   UNL A   1      39.966  30.888  32.144  1.00  0.00     0.167 HD
ATOM     56  C   UNL A   1      43.189  29.394  34.677  1.00  0.00     0.031 A 
ATOM     57  C   UNL A   1      37.773  32.526  31.553  1.00  0.00     0.031 A 
ATOM     58  C   UNL A   1      42.658  30.536  35.376  1.00  0.00     0.049 A 
ATOM     59  C   UNL A   1      38.291  32.994  32.883  1.00  0.00     0.074 A 
ATOM     60  C   UNL A   1      43.089  31.093  36.568  1.00  0.00     0.029 A 
ATOM     61  N   UNL A   1      41.569  31.288  34.957  1.00  0.00    -0.354 N 
ATOM     62  N   UNL A   1      39.298  32.529  33.583  1.00  0.00    -0.248 NA
ATOM     63  C   UNL A   1      37.600  34.133  33.499  1.00  0.00     0.031 C 
ATOM     64  C   UNL A   1      42.222  32.141  36.902  1.00  0.00     0.029 A 
ATOM     65  C   UNL A   1      41.290  32.279  35.886  1.00  0.00     0.049 A 
ATOM     66  H   UNL A   1      41.069  31.138  34.123  1.00  0.00     0.167 HD
ATOM     67  C   UNL A   1      39.369  33.328  34.719  1.00  0.00     0.074 A 
ATOM     68  C   UNL A   1      38.321  34.321  34.596  1.00  0.00     0.031 C 
ATOM     69  C   UNL A   1      40.226  33.244  35.768  1.00  0.00     0.031 A 
BRANCH  56  70
ATOM     70  C   UNL A   1      44.292  28.600  35.332  1.00  0.00    -0.014 A 
ATOM     71  C   UNL A   1      44.018  27.654  36.337  1.00  0.00     0.010 A 
ATOM     72  C   UNL A   1      45.625  28.786  34.919  1.00  0.00     0.010 A 
ATOM     73  C   UNL A   1      45.057  26.954  36.957  1.00  0.00     0.020 A 
ATOM     74  C   UNL A   1      46.664  28.066  35.514  1.00  0.00     0.020 A 
ATOM     75  C   UNL A   1      46.376  27.171  36.546  1.00  0.00     0.054 A 
BRANCH  75  76
ATOM     76  S   UNL A   1      47.707  26.251  37.367  1.00  0.00     0.124 S 
ATOM     77  O   UNL A   1      48.763  26.287  36.358  1.00  0.00    -0.237 OA
ATOM     78  O   UNL A   1      47.957  27.050  38.564  1.00  0.00    -0.237 OA
ATOM     79  O   UNL A   1      47.122  24.936  37.611  1.00  0.00    -0.744 OA
ENDBRANCH  75  76
ENDBRANCH  56  70
BRANCH  57  80
ATOM     80  C   UNL A   1      36.592  33.167  30.913  1.00  0.00    -0.014 A 
ATOM     81  C   UNL A   1      35.324  33.103  31.517  1.00  0.00     0.010 A 
ATOM     82  C   UNL A   1      36.743  33.893  29.717  1.00  0.00     0.010 A 
ATOM     83  C   UNL A   1      34.230  33.752  30.938  1.00  0.00     0.020 A 
ATOM     84  C   UNL A   1      35.657  34.566  29.149  1.00  0.00     0.020 A 
ATOM     85  C   UNL A   1      34.407  34.487  29.761  1.00  0.00     0.054 A 
BRANCH  85  86
ATOM     86  S   UNL A   1      32.992  35.395  29.077  1.00  0.00     0.124 S 
ATOM     87  O   UNL A   1      32.166  35.609  30.262  1.00  0.00    -0.237 OA
ATOM     88  O   UNL A   1      33.623  36.590  28.522  1.00  0.00    -0.237 OA
ATOM     89  O   UNL A   1      32.441  34.474  28.086  1.00  0.00    -0.744 OA
ENDBRANCH  85  86
ENDBRANCH  57  80
BRANCH  69  90
ATOM     90  C   UNL A   1      40.062  34.262  36.869  1.00  0.00    -0.014 A 
ATOM     91  C   UNL A   1      39.204  34.025  37.959  1.00  0.00     0.010 A 
ATOM     92  C   UNL A   1      40.792  35.463  36.822  1.00  0.00     0.010 A 
ATOM     93  C   UNL A   1      39.043  34.991  38.955  1.00  0.00     0.020 A 
ATOM     94  C   UNL A   1      40.658  36.418  37.834  1.00  0.00     0.020 A 
ATOM     95  C   UNL A   1      39.768  36.185  38.883  1.00  0.00     0.054 A 
BRANCH  95  96
ATOM     96  S   UNL A   1      39.550  37.418  40.194  1.00  0.00     0.124 S 
ATOM     97  O   UNL A   1      38.234  37.967  39.880  1.00  0.00    -0.237 OA
ATOM     98  O   UNL A   1      39.621  36.612  41.410  1.00  0.00    -0.237 OA
ATOM     99  O   UNL A   1      40.672  38.335  39.997  1.00  0.00    -0.744 OA
ENDBRANCH  95  96
ENDBRANCH  69  90
ENDBRANCH  43  44
ENDBRANCH  35  38
ENDBRANCH  33  34
ENDBRANCH  32  33
ENDBRANCH  31  32
ENDBRANCH  30  31
ENDBRANCH   1  30
TORSDOF 21
ENDMDL
