MODEL 1
REMARK VINA RESULT:      -9.8      0.000      0.000
REMARK SMILES CC[C@H](C)[C@H](NC(=O)[C@H](C)Oc1ccc2c(C)c(C)c(=O)oc2c1C)C(=O)NCCCCCCNC(=O)c1ccc(-c2c3nc(c(-c4ccc(S(=O)(=O)[O-])cc4)c4ccc([nH]4)c(-c4ccc(S(=O)(=O)[O-])cc4)c4nc(c(-c5ccc(S(=O)(=O)[O-])cc5)c5ccc2[nH]5)C=C4)C=C3)cc1
REMARK SMILES IDX 31 1 30 2 29 3 28 4 26 5 27 6 5 8 3 9 4 10 2 11 1 12 6 13
REMARK SMILES IDX 7 14 8 16 9 17 10 18 11 19 12 20 13 21 24 22 14 23 23 24
REMARK SMILES IDX 25 25 15 26 22 27 16 28 20 29 17 30 18 31 21 32 19 33 32 34
REMARK SMILES IDX 33 35 34 36 35 37 36 38 37 40 38 41 39 42 97 43 40 44 96 45
REMARK SMILES IDX 41 46 42 47 43 48 90 49 44 50 95 51 89 52 91 53 45 54 94 55
REMARK SMILES IDX 88 56 87 57 46 59 76 60 57 61 75 62 58 63 61 64 74 65 92 66
REMARK SMILES IDX 59 67 60 68 73 70 93 71 62 72 47 73 48 74 56 75 49 76 55 77
REMARK SMILES IDX 50 78 51 79 52 80 53 81 54 82 77 83 78 84 86 85 79 86 85 87
REMARK SMILES IDX 80 88 81 89 82 90 83 91 84 92 63 93 64 94 72 95 65 96 71 97
REMARK SMILES IDX 66 98 67 99 68 100 69 101 70 102
REMARK H PARENT 28 7 6 15 35 39 91 58 61 69
REMARK Flexibility Score: inf
ROOT
ATOM      1  C   UNL A   1      38.183  23.375  26.042  1.00  0.00     0.002 C 
ENDROOT
BRANCH   1   2
ATOM      2  C   UNL A   1      37.280  22.784  24.956  1.00  0.00     0.021 C 
BRANCH   2   3
ATOM      3  C   UNL A   1      36.144  21.915  25.480  1.00  0.00     0.116 C 
BRANCH   3   4
ATOM      4  N   UNL A   1      35.668  22.262  26.806  1.00  0.00    -0.354 N 
ATOM      5  C   UNL A   1      34.488  22.864  27.173  1.00  0.00     0.242 C 
ATOM      6  O   UNL A   1      34.166  22.795  28.363  1.00  0.00    -0.273 OA
ATOM      7  H   UNL A   1      36.273  22.032  27.546  1.00  0.00     0.163 HD
BRANCH   5   8
ATOM      8  C   UNL A   1      33.501  23.484  26.115  1.00  0.00     0.174 C 
BRANCH   8   9
ATOM      9  C   UNL A   1      33.316  24.987  26.468  1.00  0.00     0.018 C 
ATOM     10  C   UNL A   1      34.254  25.822  25.586  1.00  0.00     0.010 C 
BRANCH   9  11
ATOM     11  C   UNL A   1      31.861  25.444  26.406  1.00  0.00     0.002 C 
ATOM     12  C   UNL A   1      31.604  26.933  26.321  1.00  0.00     0.004 C 
ENDBRANCH   9  11
ENDBRANCH   8   9
BRANCH   8  13
ATOM     13  N   UNL A   1      32.310  22.618  26.018  1.00  0.00    -0.341 N 
ATOM     14  C   UNL A   1      31.757  21.584  25.364  1.00  0.00     0.261 C 
ATOM     15  H   UNL A   1      31.668  22.916  26.703  1.00  0.00     0.164 HD
ATOM     16  O   UNL A   1      30.695  21.240  25.921  1.00  0.00    -0.271 OA
BRANCH  14  17
ATOM     17  C   UNL A   1      32.240  20.729  24.148  1.00  0.00     0.258 C 
ATOM     18  C   UNL A   1      33.297  19.639  24.097  1.00  0.00     0.064 C 
BRANCH  17  19
ATOM     19  O   UNL A   1      32.364  21.532  22.949  1.00  0.00    -0.480 OA
BRANCH  19  20
ATOM     20  C   UNL A   1      31.964  22.840  22.902  1.00  0.00     0.127 A 
ATOM     21  C   UNL A   1      30.662  23.286  23.100  1.00  0.00     0.047 A 
ATOM     22  C   UNL A   1      32.964  23.797  22.682  1.00  0.00     0.035 A 
ATOM     23  C   UNL A   1      30.328  24.646  23.067  1.00  0.00     0.016 A 
ATOM     24  C   UNL A   1      32.603  25.162  22.631  1.00  0.00     0.145 A 
ATOM     25  C   UNL A   1      34.404  23.407  22.491  1.00  0.00     0.052 C 
ATOM     26  C   UNL A   1      31.302  25.613  22.834  1.00  0.00     0.021 A 
ATOM     27  O   UNL A   1      33.626  26.086  22.338  1.00  0.00    -0.422 OA
ATOM     28  C   UNL A   1      31.018  27.058  22.809  1.00  0.00    -0.030 A 
ATOM     29  C   UNL A   1      33.369  27.433  22.133  1.00  0.00     0.339 A 
ATOM     30  C   UNL A   1      29.637  27.506  23.211  1.00  0.00     0.045 C 
ATOM     31  C   UNL A   1      31.997  27.915  22.452  1.00  0.00     0.038 A 
ATOM     32  O   UNL A   1      34.253  28.178  21.728  1.00  0.00    -0.246 OA
ATOM     33  C   UNL A   1      31.788  29.404  22.341  1.00  0.00     0.052 C 
ENDBRANCH  19  20
ENDBRANCH  17  19
ENDBRANCH  14  17
ENDBRANCH   8  13
ENDBRANCH   5   8
ENDBRANCH   3   4
ENDBRANCH   2   3
ENDBRANCH   1   2
BRANCH   1  34
ATOM     34  C   UNL A   1      39.302  22.465  26.575  1.00  0.00     0.002 C 
BRANCH  34  35
ATOM     35  C   UNL A   1      39.588  21.192  25.774  1.00  0.00     0.021 C 
BRANCH  35  36
ATOM     36  C   UNL A   1      40.319  20.090  26.533  1.00  0.00     0.116 C 
BRANCH  36  37
ATOM     37  N   UNL A   1      41.630  19.803  25.973  1.00  0.00    -0.352 N 
ATOM     38  C   UNL A   1      42.751  20.591  25.946  1.00  0.00     0.251 C 
ATOM     39  H   UNL A   1      41.725  18.918  25.554  1.00  0.00     0.163 HD
ATOM     40  O   UNL A   1      43.736  20.247  25.298  1.00  0.00    -0.269 OA
BRANCH  38  41
ATOM     41  C   UNL A   1      42.753  21.871  26.678  1.00  0.00     0.039 A 
ATOM     42  C   UNL A   1      42.975  23.054  25.968  1.00  0.00     0.014 A 
ATOM     43  C   UNL A   1      42.529  21.901  28.059  1.00  0.00     0.014 A 
ATOM     44  C   UNL A   1      42.926  24.275  26.638  1.00  0.00     0.010 A 
ATOM     45  C   UNL A   1      42.421  23.124  28.713  1.00  0.00     0.010 A 
ATOM     46  C   UNL A   1      42.633  24.320  28.010  1.00  0.00    -0.014 A 
BRANCH  46  47
ATOM     47  C   UNL A   1      42.602  25.613  28.732  1.00  0.00     0.031 A 
ATOM     48  C   UNL A   1      43.775  26.018  29.581  1.00  0.00     0.074 A 
ATOM     49  C   UNL A   1      41.523  26.414  28.638  1.00  0.00     0.049 A 
ATOM     50  N   UNL A   1      43.944  27.112  30.274  1.00  0.00    -0.248 NA
ATOM     51  C   UNL A   1      44.902  25.072  29.665  1.00  0.00     0.031 C 
ATOM     52  C   UNL A   1      40.321  26.127  27.853  1.00  0.00     0.029 A 
ATOM     53  N   UNL A   1      41.258  27.632  29.215  1.00  0.00    -0.354 N 
ATOM     54  C   UNL A   1      45.196  26.994  30.862  1.00  0.00     0.074 A 
ATOM     55  C   UNL A   1      45.720  25.696  30.500  1.00  0.00     0.031 C 
ATOM     56  C   UNL A   1      39.449  27.140  27.997  1.00  0.00     0.029 A 
ATOM     57  C   UNL A   1      40.021  28.138  28.896  1.00  0.00     0.049 A 
ATOM     58  H   UNL A   1      41.896  28.098  29.803  1.00  0.00     0.167 HD
ATOM     59  C   UNL A   1      45.868  27.902  31.604  1.00  0.00     0.031 A 
ATOM     60  C   UNL A   1      39.411  29.275  29.283  1.00  0.00     0.031 A 
ATOM     61  C   UNL A   1      45.357  29.200  31.943  1.00  0.00     0.049 A 
ATOM     62  C   UNL A   1      40.153  30.247  30.157  1.00  0.00     0.074 A 
ATOM     63  C   UNL A   1      45.995  30.216  32.631  1.00  0.00     0.029 A 
ATOM     64  N   UNL A   1      44.089  29.657  31.626  1.00  0.00    -0.354 N 
ATOM     65  N   UNL A   1      41.369  30.147  30.636  1.00  0.00    -0.248 NA
ATOM     66  C   UNL A   1      39.457  31.487  30.526  1.00  0.00     0.031 C 
ATOM     67  C   UNL A   1      45.093  31.273  32.773  1.00  0.00     0.029 A 
ATOM     68  C   UNL A   1      43.911  30.931  32.133  1.00  0.00     0.049 A 
ATOM     69  H   UNL A   1      43.415  29.152  31.117  1.00  0.00     0.167 HD
ATOM     70  C   UNL A   1      41.594  31.324  31.342  1.00  0.00     0.074 A 
ATOM     71  C   UNL A   1      40.389  32.119  31.229  1.00  0.00     0.031 C 
ATOM     72  C   UNL A   1      42.706  31.710  32.012  1.00  0.00     0.031 A 
BRANCH  59  73
ATOM     73  C   UNL A   1      47.245  27.541  32.080  1.00  0.00    -0.014 A 
ATOM     74  C   UNL A   1      48.374  27.868  31.308  1.00  0.00     0.010 A 
ATOM     75  C   UNL A   1      47.419  26.955  33.346  1.00  0.00     0.010 A 
ATOM     76  C   UNL A   1      49.657  27.605  31.793  1.00  0.00     0.020 A 
ATOM     77  C   UNL A   1      48.703  26.709  33.842  1.00  0.00     0.020 A 
ATOM     78  C   UNL A   1      49.813  27.037  33.060  1.00  0.00     0.054 A 
BRANCH  78  79
ATOM     79  S   UNL A   1      51.495  26.756  33.676  1.00  0.00     0.124 S 
ATOM     80  O   UNL A   1      51.963  25.677  32.809  1.00  0.00    -0.237 OA
ATOM     81  O   UNL A   1      52.128  28.054  33.461  1.00  0.00    -0.237 OA
ATOM     82  O   UNL A   1      51.298  26.384  35.075  1.00  0.00    -0.744 OA
ENDBRANCH  78  79
ENDBRANCH  59  73
BRANCH  60  83
ATOM     83  C   UNL A   1      38.027  29.555  28.819  1.00  0.00    -0.014 A 
ATOM     84  C   UNL A   1      37.783  29.944  27.491  1.00  0.00     0.010 A 
ATOM     85  C   UNL A   1      36.940  29.378  29.694  1.00  0.00     0.010 A 
ATOM     86  C   UNL A   1      36.474  30.143  27.043  1.00  0.00     0.020 A 
ATOM     87  C   UNL A   1      35.629  29.561  29.246  1.00  0.00     0.020 A 
ATOM     88  C   UNL A   1      35.404  29.937  27.921  1.00  0.00     0.054 A 
BRANCH  88  89
ATOM     89  S   UNL A   1      33.715  30.137  27.290  1.00  0.00     0.124 S 
ATOM     90  O   UNL A   1      32.988  29.102  28.020  1.00  0.00    -0.237 OA
ATOM     91  O   UNL A   1      33.408  31.514  27.669  1.00  0.00    -0.237 OA
ATOM     92  O   UNL A   1      33.854  29.907  25.853  1.00  0.00    -0.744 OA
ENDBRANCH  88  89
ENDBRANCH  60  83
BRANCH  72  93
ATOM     93  C   UNL A   1      42.704  33.055  32.682  1.00  0.00    -0.014 A 
ATOM     94  C   UNL A   1      42.386  33.171  34.045  1.00  0.00     0.010 A 
ATOM     95  C   UNL A   1      43.187  34.177  31.985  1.00  0.00     0.010 A 
ATOM     96  C   UNL A   1      42.566  34.388  34.706  1.00  0.00     0.020 A 
ATOM     97  C   UNL A   1      43.386  35.390  32.647  1.00  0.00     0.020 A 
ATOM     98  C   UNL A   1      43.082  35.484  34.007  1.00  0.00     0.054 A 
BRANCH  98  99
ATOM     99  S   UNL A   1      43.397  37.021  34.918  1.00  0.00     0.124 S 
ATOM    100  O   UNL A   1      42.942  36.681  36.264  1.00  0.00    -0.237 OA
ATOM    101  O   UNL A   1      44.840  37.185  34.764  1.00  0.00    -0.237 OA
ATOM    102  O   UNL A   1      42.582  38.014  34.222  1.00  0.00    -0.744 OA
ENDBRANCH  98  99
ENDBRANCH  72  93
ENDBRANCH  46  47
ENDBRANCH  38  41
ENDBRANCH  36  37
ENDBRANCH  35  36
ENDBRANCH  34  35
ENDBRANCH   1  34
TORSDOF 22
ENDMDL
MODEL 2
REMARK VINA RESULT:      -9.8      3.468      4.115
REMARK SMILES CC[C@H](C)[C@H](NC(=O)[C@H](C)Oc1ccc2c(C)c(C)c(=O)oc2c1C)C(=O)NCCCCCCNC(=O)c1ccc(-c2c3nc(c(-c4ccc(S(=O)(=O)[O-])cc4)c4ccc([nH]4)c(-c4ccc(S(=O)(=O)[O-])cc4)c4nc(c(-c5ccc(S(=O)(=O)[O-])cc5)c5ccc2[nH]5)C=C4)C=C3)cc1
REMARK SMILES IDX 31 1 30 2 29 3 28 4 26 5 27 6 5 8 3 9 4 10 2 11 1 12 6 13
REMARK SMILES IDX 7 14 8 16 9 17 10 18 11 19 12 20 13 21 24 22 14 23 23 24
REMARK SMILES IDX 25 25 15 26 22 27 16 28 20 29 17 30 18 31 21 32 19 33 32 34
REMARK SMILES IDX 33 35 34 36 35 37 36 38 37 40 38 41 39 42 97 43 40 44 96 45
REMARK SMILES IDX 41 46 42 47 43 48 90 49 44 50 95 51 89 52 91 53 45 54 94 55
REMARK SMILES IDX 88 56 87 57 46 59 76 60 57 61 75 62 58 63 61 64 74 65 92 66
REMARK SMILES IDX 59 67 60 68 73 70 93 71 62 72 47 73 48 74 56 75 49 76 55 77
REMARK SMILES IDX 50 78 51 79 52 80 53 81 54 82 77 83 78 84 86 85 79 86 85 87
REMARK SMILES IDX 80 88 81 89 82 90 83 91 84 92 63 93 64 94 72 95 65 96 71 97
REMARK SMILES IDX 66 98 67 99 68 100 69 101 70 102
REMARK H PARENT 28 7 6 15 35 39 91 58 61 69
REMARK Flexibility Score: inf
ROOT
ATOM      1  C   UNL A   1      38.203  22.949  26.085  1.00  0.00     0.002 C 
ENDROOT
BRANCH   1   2
ATOM      2  C   UNL A   1      37.448  22.207  24.978  1.00  0.00     0.021 C 
BRANCH   2   3
ATOM      3  C   UNL A   1      35.990  21.907  25.298  1.00  0.00     0.116 C 
BRANCH   3   4
ATOM      4  N   UNL A   1      35.584  22.210  26.658  1.00  0.00    -0.354 N 
ATOM      5  C   UNL A   1      34.441  22.827  27.104  1.00  0.00     0.242 C 
ATOM      6  O   UNL A   1      34.171  22.716  28.305  1.00  0.00    -0.273 OA
ATOM      7  H   UNL A   1      36.217  21.934  27.359  1.00  0.00     0.163 HD
BRANCH   5   8
ATOM      8  C   UNL A   1      33.423  23.515  26.120  1.00  0.00     0.174 C 
BRANCH   8   9
ATOM      9  C   UNL A   1      33.307  25.010  26.533  1.00  0.00     0.018 C 
ATOM     10  C   UNL A   1      34.336  25.825  25.738  1.00  0.00     0.010 C 
BRANCH   9  11
ATOM     11  C   UNL A   1      31.885  25.555  26.423  1.00  0.00     0.002 C 
ATOM     12  C   UNL A   1      31.711  27.057  26.489  1.00  0.00     0.004 C 
ENDBRANCH   9  11
ENDBRANCH   8   9
BRANCH   8  13
ATOM     13  N   UNL A   1      32.200  22.692  26.054  1.00  0.00    -0.341 N 
ATOM     14  C   UNL A   1      31.597  21.675  25.419  1.00  0.00     0.261 C 
ATOM     15  H   UNL A   1      31.585  23.016  26.752  1.00  0.00     0.164 HD
ATOM     16  O   UNL A   1      30.535  21.373  26.001  1.00  0.00    -0.271 OA
BRANCH  14  17
ATOM     17  C   UNL A   1      32.021  20.798  24.197  1.00  0.00     0.258 C 
ATOM     18  C   UNL A   1      33.089  19.720  24.111  1.00  0.00     0.064 C 
BRANCH  17  19
ATOM     19  O   UNL A   1      32.066  21.574  22.974  1.00  0.00    -0.480 OA
BRANCH  19  20
ATOM     20  C   UNL A   1      31.746  22.904  22.942  1.00  0.00     0.127 A 
ATOM     21  C   UNL A   1      30.480  23.428  23.179  1.00  0.00     0.047 A 
ATOM     22  C   UNL A   1      32.796  23.799  22.696  1.00  0.00     0.035 A 
ATOM     23  C   UNL A   1      30.228  24.805  23.158  1.00  0.00     0.016 A 
ATOM     24  C   UNL A   1      32.518  25.184  22.659  1.00  0.00     0.145 A 
ATOM     25  C   UNL A   1      34.203  23.322  22.464  1.00  0.00     0.052 C 
ATOM     26  C   UNL A   1      31.253  25.713  22.900  1.00  0.00     0.021 A 
ATOM     27  O   UNL A   1      33.586  26.044  22.339  1.00  0.00    -0.422 OA
ATOM     28  C   UNL A   1      31.057  27.172  22.887  1.00  0.00    -0.030 A 
ATOM     29  C   UNL A   1      33.406  27.405  22.145  1.00  0.00     0.339 A 
ATOM     30  C   UNL A   1      29.718  27.702  23.329  1.00  0.00     0.045 C 
ATOM     31  C   UNL A   1      32.077  27.969  22.503  1.00  0.00     0.038 A 
ATOM     32  O   UNL A   1      34.323  28.097  21.716  1.00  0.00    -0.246 OA
ATOM     33  C   UNL A   1      31.956  29.468  22.402  1.00  0.00     0.052 C 
ENDBRANCH  19  20
ENDBRANCH  17  19
ENDBRANCH  14  17
ENDBRANCH   8  13
ENDBRANCH   5   8
ENDBRANCH   3   4
ENDBRANCH   2   3
ENDBRANCH   1   2
BRANCH   1  34
ATOM     34  C   UNL A   1      39.552  22.349  26.516  1.00  0.00     0.002 C 
BRANCH  34  35
ATOM     35  C   UNL A   1      39.998  21.077  25.791  1.00  0.00     0.021 C 
BRANCH  35  36
ATOM     36  C   UNL A   1      40.404  19.916  26.692  1.00  0.00     0.116 C 
BRANCH  36  37
ATOM     37  N   UNL A   1      41.491  19.130  26.132  1.00  0.00    -0.352 N 
ATOM     38  C   UNL A   1      42.754  19.527  25.780  1.00  0.00     0.251 C 
ATOM     39  H   UNL A   1      41.291  18.177  25.985  1.00  0.00     0.163 HD
ATOM     40  O   UNL A   1      43.502  18.759  25.182  1.00  0.00    -0.269 OA
BRANCH  38  41
ATOM     41  C   UNL A   1      43.198  20.897  26.102  1.00  0.00     0.039 A 
ATOM     42  C   UNL A   1      43.541  21.757  25.056  1.00  0.00     0.014 A 
ATOM     43  C   UNL A   1      43.265  21.329  27.431  1.00  0.00     0.014 A 
ATOM     44  C   UNL A   1      43.910  23.070  25.341  1.00  0.00     0.010 A 
ATOM     45  C   UNL A   1      43.574  22.657  27.709  1.00  0.00     0.010 A 
ATOM     46  C   UNL A   1      43.913  23.534  26.666  1.00  0.00    -0.014 A 
BRANCH  46  47
ATOM     47  C   UNL A   1      44.326  24.922  26.978  1.00  0.00     0.031 A 
ATOM     48  C   UNL A   1      45.779  25.299  26.903  1.00  0.00     0.074 A 
ATOM     49  C   UNL A   1      43.404  25.836  27.340  1.00  0.00     0.049 A 
ATOM     50  N   UNL A   1      46.335  26.461  27.121  1.00  0.00    -0.248 NA
ATOM     51  C   UNL A   1      46.732  24.235  26.539  1.00  0.00     0.031 C 
ATOM     52  C   UNL A   1      41.966  25.588  27.457  1.00  0.00     0.029 A 
ATOM     53  N   UNL A   1      43.542  27.158  27.684  1.00  0.00    -0.354 N 
ATOM     54  C   UNL A   1      47.694  26.272  26.908  1.00  0.00     0.074 A 
ATOM     55  C   UNL A   1      47.891  24.874  26.605  1.00  0.00     0.031 C 
ATOM     56  C   UNL A   1      41.355  26.720  27.843  1.00  0.00     0.029 A 
ATOM     57  C   UNL A   1      42.356  27.768  28.020  1.00  0.00     0.049 A 
ATOM     58  H   UNL A   1      44.408  27.625  27.691  1.00  0.00     0.167 HD
ATOM     59  C   UNL A   1      48.684  27.192  26.923  1.00  0.00     0.031 A 
ATOM     60  C   UNL A   1      42.101  29.027  28.426  1.00  0.00     0.031 A 
ATOM     61  C   UNL A   1      48.484  28.587  27.199  1.00  0.00     0.049 A 
ATOM     62  C   UNL A   1      43.226  30.021  28.491  1.00  0.00     0.074 A 
ATOM     63  C   UNL A   1      49.416  29.606  27.166  1.00  0.00     0.029 A 
ATOM     64  N   UNL A   1      47.274  29.153  27.564  1.00  0.00    -0.354 N 
ATOM     65  N   UNL A   1      44.493  29.838  28.207  1.00  0.00    -0.248 NA
ATOM     66  C   UNL A   1      42.891  31.389  28.909  1.00  0.00     0.031 C 
ATOM     67  C   UNL A   1      48.780  30.786  27.560  1.00  0.00     0.029 A 
ATOM     68  C   UNL A   1      47.442  30.506  27.792  1.00  0.00     0.049 A 
ATOM     69  H   UNL A   1      46.423  28.666  27.649  1.00  0.00     0.167 HD
ATOM     70  C   UNL A   1      45.102  31.074  28.386  1.00  0.00     0.074 A 
ATOM     71  C   UNL A   1      44.068  31.997  28.805  1.00  0.00     0.031 C 
ATOM     72  C   UNL A   1      46.402  31.412  28.208  1.00  0.00     0.031 A 
BRANCH  59  73
ATOM     73  C   UNL A   1      50.076  26.731  26.601  1.00  0.00    -0.014 A 
ATOM     74  C   UNL A   1      50.936  26.290  27.622  1.00  0.00     0.010 A 
ATOM     75  C   UNL A   1      50.496  26.651  25.261  1.00  0.00     0.010 A 
ATOM     76  C   UNL A   1      52.199  25.784  27.309  1.00  0.00     0.020 A 
ATOM     77  C   UNL A   1      51.752  26.127  24.944  1.00  0.00     0.020 A 
ATOM     78  C   UNL A   1      52.595  25.697  25.971  1.00  0.00     0.054 A 
BRANCH  78  79
ATOM     79  S   UNL A   1      54.222  24.989  25.600  1.00  0.00     0.124 S 
ATOM     80  O   UNL A   1      53.900  23.580  25.381  1.00  0.00    -0.237 OA
ATOM     81  O   UNL A   1      54.623  25.733  24.410  1.00  0.00    -0.237 OA
ATOM     82  O   UNL A   1      55.006  25.264  26.802  1.00  0.00    -0.744 OA
ENDBRANCH  78  79
ENDBRANCH  59  73
BRANCH  60  83
ATOM     83  C   UNL A   1      40.709  29.412  28.778  1.00  0.00    -0.014 A 
ATOM     84  C   UNL A   1      39.724  29.521  27.782  1.00  0.00     0.010 A 
ATOM     85  C   UNL A   1      40.353  29.617  30.123  1.00  0.00     0.010 A 
ATOM     86  C   UNL A   1      38.402  29.820  28.126  1.00  0.00     0.020 A 
ATOM     87  C   UNL A   1      39.029  29.900  30.473  1.00  0.00     0.020 A 
ATOM     88  C   UNL A   1      38.061  29.995  29.472  1.00  0.00     0.054 A 
BRANCH  88  89
ATOM     89  S   UNL A   1      36.326  30.313  29.892  1.00  0.00     0.124 S 
ATOM     90  O   UNL A   1      36.116  29.430  31.036  1.00  0.00    -0.237 OA
ATOM     91  O   UNL A   1      36.341  31.743  30.189  1.00  0.00    -0.237 OA
ATOM     92  O   UNL A   1      35.603  29.942  28.676  1.00  0.00    -0.744 OA
ENDBRANCH  88  89
ENDBRANCH  60  83
BRANCH  72  93
ATOM     93  C   UNL A   1      46.809  32.837  28.450  1.00  0.00    -0.014 A 
ATOM     94  C   UNL A   1      46.521  33.832  27.501  1.00  0.00     0.010 A 
ATOM     95  C   UNL A   1      47.327  33.207  29.705  1.00  0.00     0.010 A 
ATOM     96  C   UNL A   1      46.732  35.177  27.810  1.00  0.00     0.020 A 
ATOM     97  C   UNL A   1      47.520  34.552  30.024  1.00  0.00     0.020 A 
ATOM     98  C   UNL A   1      47.212  35.530  29.075  1.00  0.00     0.054 A 
BRANCH  98  99
ATOM     99  S   UNL A   1      47.380  37.290  29.478  1.00  0.00     0.124 S 
ATOM    100  O   UNL A   1      48.051  37.248  30.775  1.00  0.00    -0.237 OA
ATOM    101  O   UNL A   1      48.187  37.789  28.368  1.00  0.00    -0.237 OA
ATOM    102  O   UNL A   1      46.001  37.775  29.510  1.00  0.00    -0.744 OA
ENDBRANCH  98  99
ENDBRANCH  72  93
ENDBRANCH  46  47
ENDBRANCH  38  41
ENDBRANCH  36  37
ENDBRANCH  35  36
ENDBRANCH  34  35
ENDBRANCH   1  34
TORSDOF 22
ENDMDL
MODEL 3
REMARK VINA RESULT:      -9.4      2.919      8.471
REMARK SMILES CC[C@H](C)[C@H](NC(=O)[C@H](C)Oc1ccc2c(C)c(C)c(=O)oc2c1C)C(=O)NCCCCCCNC(=O)c1ccc(-c2c3nc(c(-c4ccc(S(=O)(=O)[O-])cc4)c4ccc([nH]4)c(-c4ccc(S(=O)(=O)[O-])cc4)c4nc(c(-c5ccc(S(=O)(=O)[O-])cc5)c5ccc2[nH]5)C=C4)C=C3)cc1
REMARK SMILES IDX 31 1 30 2 29 3 28 4 26 5 27 6 5 8 3 9 4 10 2 11 1 12 6 13
REMARK SMILES IDX 7 14 8 16 9 17 10 18 11 19 12 20 13 21 24 22 14 23 23 24
REMARK SMILES IDX 25 25 15 26 22 27 16 28 20 29 17 30 18 31 21 32 19 33 32 34
REMARK SMILES IDX 33 35 34 36 35 37 36 38 37 40 38 41 39 42 97 43 40 44 96 45
REMARK SMILES IDX 41 46 42 47 43 48 90 49 44 50 95 51 89 52 91 53 45 54 94 55
REMARK SMILES IDX 88 56 87 57 46 59 76 60 57 61 75 62 58 63 61 64 74 65 92 66
REMARK SMILES IDX 59 67 60 68 73 70 93 71 62 72 47 73 48 74 56 75 49 76 55 77
REMARK SMILES IDX 50 78 51 79 52 80 53 81 54 82 77 83 78 84 86 85 79 86 85 87
REMARK SMILES IDX 80 88 81 89 82 90 83 91 84 92 63 93 64 94 72 95 65 96 71 97
REMARK SMILES IDX 66 98 67 99 68 100 69 101 70 102
REMARK H PARENT 28 7 6 15 35 39 91 58 61 69
REMARK Flexibility Score: inf
ROOT
ATOM      1  C   UNL A   1      31.501  28.518  26.400  1.00  0.00     0.002 C 
ENDROOT
BRANCH   1   2
ATOM      2  C   UNL A   1      31.792  29.040  24.989  1.00  0.00     0.021 C 
BRANCH   2   3
ATOM      3  C   UNL A   1      31.675  27.994  23.890  1.00  0.00     0.116 C 
BRANCH   3   4
ATOM      4  N   UNL A   1      30.319  27.590  23.568  1.00  0.00    -0.354 N 
ATOM      5  C   UNL A   1      29.724  26.360  23.711  1.00  0.00     0.242 C 
ATOM      6  O   UNL A   1      28.490  26.320  23.651  1.00  0.00    -0.273 OA
ATOM      7  H   UNL A   1      29.745  28.297  23.196  1.00  0.00     0.163 HD
BRANCH   5   8
ATOM      8  C   UNL A   1      30.545  25.072  24.091  1.00  0.00     0.174 C 
BRANCH   8   9
ATOM      9  C   UNL A   1      30.796  25.111  25.626  1.00  0.00     0.018 C 
ATOM     10  C   UNL A   1      29.506  25.553  26.328  1.00  0.00     0.010 C 
BRANCH   9  11
ATOM     11  C   UNL A   1      31.368  23.806  26.174  1.00  0.00     0.002 C 
ATOM     12  C   UNL A   1      30.419  22.634  26.305  1.00  0.00     0.004 C 
ENDBRANCH   9  11
ENDBRANCH   8   9
BRANCH   8  13
ATOM     13  N   UNL A   1      31.699  24.963  23.178  1.00  0.00    -0.341 N 
ATOM     14  C   UNL A   1      32.643  24.136  22.700  1.00  0.00     0.261 C 
ATOM     15  H   UNL A   1      31.827  25.841  22.752  1.00  0.00     0.164 HD
ATOM     16  O   UNL A   1      33.271  24.690  21.774  1.00  0.00    -0.271 OA
BRANCH  14  17
ATOM     17  C   UNL A   1      33.006  22.651  23.026  1.00  0.00     0.258 C 
ATOM     18  C   UNL A   1      32.328  21.372  22.564  1.00  0.00     0.064 C 
BRANCH  17  19
ATOM     19  O   UNL A   1      33.376  22.487  24.417  1.00  0.00    -0.480 OA
BRANCH  19  20
ATOM     20  C   UNL A   1      34.667  22.251  24.805  1.00  0.00     0.127 A 
ATOM     21  C   UNL A   1      35.313  21.022  24.730  1.00  0.00     0.047 A 
ATOM     22  C   UNL A   1      35.398  23.354  25.268  1.00  0.00     0.035 A 
ATOM     23  C   UNL A   1      36.648  20.857  25.118  1.00  0.00     0.016 A 
ATOM     24  C   UNL A   1      36.738  23.163  25.675  1.00  0.00     0.145 A 
ATOM     25  C   UNL A   1      34.791  24.727  25.350  1.00  0.00     0.052 C 
ATOM     26  C   UNL A   1      37.389  21.935  25.597  1.00  0.00     0.021 A 
ATOM     27  O   UNL A   1      37.414  24.281  26.200  1.00  0.00    -0.422 OA
ATOM     28  C   UNL A   1      38.801  21.831  25.999  1.00  0.00    -0.030 A 
ATOM     29  C   UNL A   1      38.683  24.186  26.751  1.00  0.00     0.339 A 
ATOM     30  C   UNL A   1      39.512  20.531  25.728  1.00  0.00     0.045 C 
ATOM     31  C   UNL A   1      39.403  22.896  26.569  1.00  0.00     0.038 A 
ATOM     32  O   UNL A   1      39.178  25.141  27.337  1.00  0.00    -0.246 OA
ATOM     33  C   UNL A   1      40.826  22.869  27.066  1.00  0.00     0.052 C 
ENDBRANCH  19  20
ENDBRANCH  17  19
ENDBRANCH  14  17
ENDBRANCH   8  13
ENDBRANCH   5   8
ENDBRANCH   3   4
ENDBRANCH   2   3
ENDBRANCH   1   2
BRANCH   1  34
ATOM     34  C   UNL A   1      32.704  28.404  27.351  1.00  0.00     0.002 C 
BRANCH  34  35
ATOM     35  C   UNL A   1      34.059  28.100  26.708  1.00  0.00     0.021 C 
BRANCH  35  36
ATOM     36  C   UNL A   1      35.087  29.224  26.781  1.00  0.00     0.116 C 
BRANCH  36  37
ATOM     37  N   UNL A   1      34.490  30.502  27.132  1.00  0.00    -0.352 N 
ATOM     38  C   UNL A   1      34.853  31.387  28.114  1.00  0.00     0.251 C 
ATOM     39  H   UNL A   1      33.716  30.770  26.587  1.00  0.00     0.163 HD
ATOM     40  O   UNL A   1      34.144  32.356  28.369  1.00  0.00    -0.269 OA
BRANCH  38  41
ATOM     41  C   UNL A   1      36.090  31.147  28.882  1.00  0.00     0.039 A 
ATOM     42  C   UNL A   1      36.096  30.144  29.854  1.00  0.00     0.014 A 
ATOM     43  C   UNL A   1      37.239  31.907  28.634  1.00  0.00     0.014 A 
ATOM     44  C   UNL A   1      37.272  29.871  30.550  1.00  0.00     0.010 A 
ATOM     45  C   UNL A   1      38.426  31.591  29.286  1.00  0.00     0.010 A 
ATOM     46  C   UNL A   1      38.449  30.580  30.260  1.00  0.00    -0.014 A 
BRANCH  46  47
ATOM     47  C   UNL A   1      39.696  30.308  31.011  1.00  0.00     0.031 A 
ATOM     48  C   UNL A   1      40.645  29.252  30.516  1.00  0.00     0.074 A 
ATOM     49  C   UNL A   1      39.970  30.995  32.137  1.00  0.00     0.049 A 
ATOM     50  N   UNL A   1      41.791  28.881  31.022  1.00  0.00    -0.248 NA
ATOM     51  C   UNL A   1      40.258  28.517  29.299  1.00  0.00     0.031 C 
ATOM     52  C   UNL A   1      39.124  32.037  32.721  1.00  0.00     0.029 A 
ATOM     53  N   UNL A   1      41.037  30.914  32.998  1.00  0.00    -0.354 N 
ATOM     54  C   UNL A   1      42.266  27.884  30.181  1.00  0.00     0.074 A 
ATOM     55  C   UNL A   1      41.260  27.659  29.169  1.00  0.00     0.031 C 
ATOM     56  C   UNL A   1      39.704  32.498  33.841  1.00  0.00     0.029 A 
ATOM     57  C   UNL A   1      40.952  31.775  34.066  1.00  0.00     0.049 A 
ATOM     58  H   UNL A   1      41.791  30.297  32.862  1.00  0.00     0.167 HD
ATOM     59  C   UNL A   1      43.454  27.240  30.225  1.00  0.00     0.031 A 
ATOM     60  C   UNL A   1      41.782  31.962  35.111  1.00  0.00     0.031 A 
ATOM     61  C   UNL A   1      44.463  27.480  31.217  1.00  0.00     0.049 A 
ATOM     62  C   UNL A   1      43.072  31.193  35.172  1.00  0.00     0.074 A 
ATOM     63  C   UNL A   1      45.728  26.927  31.300  1.00  0.00     0.029 A 
ATOM     64  N   UNL A   1      44.322  28.336  32.297  1.00  0.00    -0.354 N 
ATOM     65  N   UNL A   1      43.536  30.311  34.321  1.00  0.00    -0.248 NA
ATOM     66  C   UNL A   1      43.957  31.456  36.315  1.00  0.00     0.031 C 
ATOM     67  C   UNL A   1      46.335  27.413  32.460  1.00  0.00     0.029 A 
ATOM     68  C   UNL A   1      45.465  28.303  33.072  1.00  0.00     0.049 A 
ATOM     69  H   UNL A   1      43.527  28.886  32.484  1.00  0.00     0.167 HD
ATOM     70  C   UNL A   1      44.781  29.932  34.812  1.00  0.00     0.074 A 
ATOM     71  C   UNL A   1      44.996  30.678  36.034  1.00  0.00     0.031 C 
ATOM     72  C   UNL A   1      45.665  29.052  34.286  1.00  0.00     0.031 A 
BRANCH  59  73
ATOM     73  C   UNL A   1      43.747  26.231  29.153  1.00  0.00    -0.014 A 
ATOM     74  C   UNL A   1      44.258  26.641  27.909  1.00  0.00     0.010 A 
ATOM     75  C   UNL A   1      43.597  24.859  29.421  1.00  0.00     0.010 A 
ATOM     76  C   UNL A   1      44.607  25.693  26.945  1.00  0.00     0.020 A 
ATOM     77  C   UNL A   1      43.964  23.907  28.465  1.00  0.00     0.020 A 
ATOM     78  C   UNL A   1      44.468  24.332  27.234  1.00  0.00     0.054 A 
BRANCH  78  79
ATOM     79  S   UNL A   1      44.978  23.129  25.976  1.00  0.00     0.124 S 
ATOM     80  O   UNL A   1      44.113  21.989  26.274  1.00  0.00    -0.237 OA
ATOM     81  O   UNL A   1      44.682  23.833  24.732  1.00  0.00    -0.237 OA
ATOM     82  O   UNL A   1      46.397  22.917  26.250  1.00  0.00    -0.744 OA
ENDBRANCH  78  79
ENDBRANCH  59  73
BRANCH  60  83
ATOM     83  C   UNL A   1      41.414  32.940  36.168  1.00  0.00    -0.014 A 
ATOM     84  C   UNL A   1      41.796  34.287  36.059  1.00  0.00     0.010 A 
ATOM     85  C   UNL A   1      40.630  32.534  37.263  1.00  0.00     0.010 A 
ATOM     86  C   UNL A   1      41.393  35.216  37.023  1.00  0.00     0.020 A 
ATOM     87  C   UNL A   1      40.211  33.462  38.221  1.00  0.00     0.020 A 
ATOM     88  C   UNL A   1      40.591  34.799  38.092  1.00  0.00     0.054 A 
BRANCH  88  89
ATOM     89  S   UNL A   1      40.027  36.040  39.288  1.00  0.00     0.124 S 
ATOM     90  O   UNL A   1      39.682  37.167  38.427  1.00  0.00    -0.237 OA
ATOM     91  O   UNL A   1      38.901  35.360  39.924  1.00  0.00    -0.237 OA
ATOM     92  O   UNL A   1      41.191  36.244  40.148  1.00  0.00    -0.744 OA
ENDBRANCH  88  89
ENDBRANCH  60  83
BRANCH  72  93
ATOM     93  C   UNL A   1      46.965  28.832  35.006  1.00  0.00    -0.014 A 
ATOM     94  C   UNL A   1      47.113  27.754  35.895  1.00  0.00     0.010 A 
ATOM     95  C   UNL A   1      48.089  29.604  34.661  1.00  0.00     0.010 A 
ATOM     96  C   UNL A   1      48.371  27.443  36.417  1.00  0.00     0.020 A 
ATOM     97  C   UNL A   1      49.351  29.284  35.166  1.00  0.00     0.020 A 
ATOM     98  C   UNL A   1      49.484  28.199  36.034  1.00  0.00     0.054 A 
BRANCH  98  99
ATOM     99  S   UNL A   1      51.117  27.707  36.652  1.00  0.00     0.124 S 
ATOM    100  O   UNL A   1      51.751  27.167  35.451  1.00  0.00    -0.237 OA
ATOM    101  O   UNL A   1      51.662  28.972  37.136  1.00  0.00    -0.237 OA
ATOM    102  O   UNL A   1      50.817  26.722  37.689  1.00  0.00    -0.744 OA
ENDBRANCH  98  99
ENDBRANCH  72  93
ENDBRANCH  46  47
ENDBRANCH  38  41
ENDBRANCH  36  37
ENDBRANCH  35  36
ENDBRANCH  34  35
ENDBRANCH   1  34
TORSDOF 22
ENDMDL
