MODEL 1
REMARK VINA RESULT:     -13.1      0.000      0.000
REMARK SMILES Cc1ccc(-c2csc(NC(=O)[C@H]3[C@@H](C(=O)NCCCCCCNC(=O)c4ccc(-c5c6nc(c(-c7ccc(S(=O)(=O)[O-])cc7)c7ccc([nH]7)c(-c7ccc(S(=O)(=O)[O-])cc7)c7nc(c(-c8ccc(S(=O)(=O)[O-])cc8)c8ccc5[nH]8)C=C7)C=C6)cc4)[C@H]4C=C[C@@H]3C4)c2C(=O)NC2CC2)cc1
REMARK SMILES IDX 20 1 19 2 18 3 17 4 15 5 16 6 14 8 13 9 90 10 87 11 89 12
REMARK SMILES IDX 91 13 88 14 11 15 10 16 12 18 9 19 6 20 7 21 92 22 8 23 5 24
REMARK SMILES IDX 1 25 2 26 3 27 100 28 4 29 99 30 93 31 94 32 95 33 96 35
REMARK SMILES IDX 97 36 98 37 21 38 22 39 23 40 24 41 25 42 26 44 27 45 28 46
REMARK SMILES IDX 86 47 29 48 85 49 30 50 31 51 32 52 79 53 33 54 84 55 78 56
REMARK SMILES IDX 80 57 34 58 83 59 77 60 76 61 35 63 65 64 46 65 64 66 47 67
REMARK SMILES IDX 50 68 63 69 81 70 48 71 49 72 62 74 82 75 51 76 36 77 37 78
REMARK SMILES IDX 45 79 38 80 44 81 39 82 40 83 41 84 42 85 43 86 66 87 67 88
REMARK SMILES IDX 75 89 68 90 74 91 69 92 70 93 71 94 72 95 73 96 52 97 53 98
REMARK SMILES IDX 61 99 54 100 60 101 55 102 56 103 57 104 58 105 59 106
REMARK H PARENT 17 7 10 17 95 34 24 43 80 62 50 73
REMARK Flexibility Score: inf
ROOT
ATOM      1  C   UNL A   1      33.981  29.889  27.616  1.00  0.00     0.002 C 
ENDROOT
BRANCH   1   2
ATOM      2  C   UNL A   1      32.922  30.931  27.229  1.00  0.00     0.021 C 
BRANCH   2   3
ATOM      3  C   UNL A   1      31.777  30.403  26.367  1.00  0.00     0.116 C 
BRANCH   3   4
ATOM      4  N   UNL A   1      32.205  30.148  25.006  1.00  0.00    -0.356 N 
ATOM      5  C   UNL A   1      31.966  29.095  24.172  1.00  0.00     0.224 C 
ATOM      6  O   UNL A   1      32.511  29.107  23.067  1.00  0.00    -0.275 OA
ATOM      7  H   UNL A   1      32.765  30.857  24.615  1.00  0.00     0.163 HD
BRANCH   5   8
ATOM      8  C   UNL A   1      30.941  28.038  24.577  1.00  0.00     0.098 C 
ATOM      9  C   UNL A   1      31.435  26.615  25.052  1.00  0.00     0.099 C 
ATOM     10  C   UNL A   1      30.767  25.696  23.990  1.00  0.00     0.025 C 
ATOM     11  C   UNL A   1      30.036  27.703  23.352  1.00  0.00     0.025 C 
ATOM     12  C   UNL A   1      31.338  25.951  22.624  1.00  0.00    -0.027 C 
ATOM     13  C   UNL A   1      29.407  26.394  23.819  1.00  0.00     0.017 C 
ATOM     14  C   UNL A   1      30.871  27.141  22.221  1.00  0.00    -0.027 C 
BRANCH   9  15
ATOM     15  C   UNL A   1      32.934  26.518  25.335  1.00  0.00     0.229 C 
ATOM     16  N   UNL A   1      33.617  25.339  25.290  1.00  0.00    -0.317 N 
ATOM     17  H   UNL A   1      34.584  25.428  25.123  1.00  0.00     0.170 HD
ATOM     18  O   UNL A   1      33.572  27.517  25.688  1.00  0.00    -0.274 OA
BRANCH  16  19
ATOM     19  C   UNL A   1      33.172  24.042  25.442  1.00  0.00     0.108 A 
ATOM     20  C   UNL A   1      32.733  21.785  25.140  1.00  0.00     0.007 A 
ATOM     21  C   UNL A   1      31.884  22.130  26.180  1.00  0.00     0.076 A 
ATOM     22  C   UNL A   1      33.575  22.908  24.727  1.00  0.00     0.082 A 
ATOM     23  S   UNL A   1      32.185  23.685  26.777  1.00  0.00    -0.125 S 
BRANCH  20  24
ATOM     24  C   UNL A   1      32.671  20.390  24.717  1.00  0.00    -0.017 A 
ATOM     25  C   UNL A   1      33.322  16.287  23.647  1.00  0.00     0.044 C 
ATOM     26  C   UNL A   1      32.910  17.679  24.025  1.00  0.00    -0.051 A 
ATOM     27  C   UNL A   1      32.984  18.066  25.364  1.00  0.00     0.004 A 
ATOM     28  C   UNL A   1      32.595  18.642  23.050  1.00  0.00     0.004 A 
ATOM     29  C   UNL A   1      32.834  19.404  25.707  1.00  0.00     0.009 A 
ATOM     30  C   UNL A   1      32.474  19.999  23.393  1.00  0.00     0.009 A 
ENDBRANCH  20  24
BRANCH  22  31
ATOM     31  C   UNL A   1      34.532  23.105  23.626  1.00  0.00     0.255 C 
ATOM     32  O   UNL A   1      34.237  23.876  22.703  1.00  0.00    -0.269 OA
ATOM     33  N   UNL A   1      35.823  22.638  23.542  1.00  0.00    -0.349 N 
ATOM     34  H   UNL A   1      36.283  23.037  22.768  1.00  0.00     0.164 HD
BRANCH  33  35
ATOM     35  C   UNL A   1      36.692  21.756  24.234  1.00  0.00     0.082 C 
ATOM     36  C   UNL A   1      37.779  22.095  25.185  1.00  0.00     0.027 C 
ATOM     37  C   UNL A   1      36.469  21.558  25.701  1.00  0.00     0.027 C 
ENDBRANCH  33  35
ENDBRANCH  22  31
ENDBRANCH  16  19
ENDBRANCH   9  15
ENDBRANCH   5   8
ENDBRANCH   3   4
ENDBRANCH   2   3
ENDBRANCH   1   2
BRANCH   1  38
ATOM     38  C   UNL A   1      35.440  30.229  27.271  1.00  0.00     0.002 C 
BRANCH  38  39
ATOM     39  C   UNL A   1      36.007  31.501  27.898  1.00  0.00     0.021 C 
BRANCH  39  40
ATOM     40  C   UNL A   1      37.177  31.258  28.840  1.00  0.00     0.116 C 
BRANCH  40  41
ATOM     41  N   UNL A   1      36.796  30.948  30.218  1.00  0.00    -0.352 N 
ATOM     42  C   UNL A   1      36.903  29.739  30.886  1.00  0.00     0.251 C 
ATOM     43  H   UNL A   1      36.414  31.693  30.736  1.00  0.00     0.163 HD
ATOM     44  O   UNL A   1      36.412  29.526  31.993  1.00  0.00    -0.269 OA
BRANCH  42  45
ATOM     45  C   UNL A   1      37.805  28.732  30.303  1.00  0.00     0.039 A 
ATOM     46  C   UNL A   1      38.717  28.133  31.182  1.00  0.00     0.014 A 
ATOM     47  C   UNL A   1      37.997  28.712  28.925  1.00  0.00     0.014 A 
ATOM     48  C   UNL A   1      39.951  27.741  30.694  1.00  0.00     0.010 A 
ATOM     49  C   UNL A   1      39.266  28.464  28.466  1.00  0.00     0.010 A 
ATOM     50  C   UNL A   1      40.243  28.029  29.361  1.00  0.00    -0.014 A 
BRANCH  50  51
ATOM     51  C   UNL A   1      41.563  27.847  28.800  1.00  0.00     0.031 A 
ATOM     52  C   UNL A   1      41.970  26.461  28.544  1.00  0.00     0.074 A 
ATOM     53  C   UNL A   1      42.368  28.907  28.596  1.00  0.00     0.049 A 
ATOM     54  N   UNL A   1      43.159  26.009  28.721  1.00  0.00    -0.248 NA
ATOM     55  C   UNL A   1      41.003  25.431  28.161  1.00  0.00     0.031 C 
ATOM     56  C   UNL A   1      43.684  28.928  27.971  1.00  0.00     0.029 A 
ATOM     57  N   UNL A   1      42.230  30.179  29.132  1.00  0.00    -0.354 N 
ATOM     58  C   UNL A   1      43.178  24.738  28.194  1.00  0.00     0.074 A 
ATOM     59  C   UNL A   1      41.800  24.377  27.976  1.00  0.00     0.031 C 
ATOM     60  C   UNL A   1      44.330  30.041  28.371  1.00  0.00     0.029 A 
ATOM     61  C   UNL A   1      43.496  30.712  29.362  1.00  0.00     0.049 A 
ATOM     62  H   UNL A   1      41.376  30.630  29.319  1.00  0.00     0.167 HD
ATOM     63  C   UNL A   1      44.362  24.192  27.813  1.00  0.00     0.031 A 
ATOM     64  C   UNL A   1      43.892  30.982  30.641  1.00  0.00     0.031 A 
ATOM     65  C   UNL A   1      45.461  25.110  28.093  1.00  0.00     0.049 A 
ATOM     66  C   UNL A   1      44.992  30.049  31.116  1.00  0.00     0.074 A 
ATOM     67  C   UNL A   1      46.091  26.062  27.308  1.00  0.00     0.029 A 
ATOM     68  N   UNL A   1      45.757  25.430  29.414  1.00  0.00    -0.354 N 
ATOM     69  N   UNL A   1      45.236  28.874  30.594  1.00  0.00    -0.248 NA
ATOM     70  C   UNL A   1      45.944  30.391  32.169  1.00  0.00     0.031 C 
ATOM     71  C   UNL A   1      46.688  27.017  28.174  1.00  0.00     0.029 A 
ATOM     72  C   UNL A   1      46.454  26.624  29.480  1.00  0.00     0.049 A 
ATOM     73  H   UNL A   1      45.505  24.884  30.193  1.00  0.00     0.167 HD
ATOM     74  C   UNL A   1      46.364  28.335  31.165  1.00  0.00     0.074 A 
ATOM     75  C   UNL A   1      46.762  29.323  32.153  1.00  0.00     0.031 C 
ATOM     76  C   UNL A   1      46.904  27.141  30.767  1.00  0.00     0.031 A 
BRANCH  63  77
ATOM     77  C   UNL A   1      44.418  23.027  26.863  1.00  0.00    -0.014 A 
ATOM     78  C   UNL A   1      43.299  22.181  26.744  1.00  0.00     0.010 A 
ATOM     79  C   UNL A   1      45.560  22.679  26.113  1.00  0.00     0.010 A 
ATOM     80  C   UNL A   1      43.341  21.005  25.982  1.00  0.00     0.020 A 
ATOM     81  C   UNL A   1      45.628  21.484  25.379  1.00  0.00     0.020 A 
ATOM     82  C   UNL A   1      44.513  20.653  25.319  1.00  0.00     0.054 A 
BRANCH  82  83
ATOM     83  S   UNL A   1      44.549  19.110  24.370  1.00  0.00     0.124 S 
ATOM     84  O   UNL A   1      43.390  18.390  24.891  1.00  0.00    -0.237 OA
ATOM     85  O   UNL A   1      44.429  19.589  22.996  1.00  0.00    -0.237 OA
ATOM     86  O   UNL A   1      45.843  18.522  24.712  1.00  0.00    -0.744 OA
ENDBRANCH  82  83
ENDBRANCH  63  77
BRANCH  64  87
ATOM     87  C   UNL A   1      42.847  31.669  31.467  1.00  0.00    -0.014 A 
ATOM     88  C   UNL A   1      42.714  33.065  31.295  1.00  0.00     0.010 A 
ATOM     89  C   UNL A   1      41.774  30.976  32.058  1.00  0.00     0.010 A 
ATOM     90  C   UNL A   1      41.515  33.727  31.595  1.00  0.00     0.020 A 
ATOM     91  C   UNL A   1      40.560  31.637  32.347  1.00  0.00     0.020 A 
ATOM     92  C   UNL A   1      40.429  33.004  32.084  1.00  0.00     0.054 A 
BRANCH  92  93
ATOM     93  S   UNL A   1      38.802  33.821  32.226  1.00  0.00     0.124 S 
ATOM     94  O   UNL A   1      38.757  34.637  31.019  1.00  0.00    -0.237 OA
ATOM     95  O   UNL A   1      37.861  32.702  32.260  1.00  0.00    -0.237 OA
ATOM     96  O   UNL A   1      38.902  34.545  33.490  1.00  0.00    -0.744 OA
ENDBRANCH  92  93
ENDBRANCH  64  87
BRANCH  76  97
ATOM     97  C   UNL A   1      47.987  26.353  31.479  1.00  0.00    -0.014 A 
ATOM     98  C   UNL A   1      47.820  25.702  32.709  1.00  0.00     0.010 A 
ATOM     99  C   UNL A   1      49.216  26.125  30.805  1.00  0.00     0.010 A 
ATOM    100  C   UNL A   1      48.838  24.907  33.257  1.00  0.00     0.020 A 
ATOM    101  C   UNL A   1      50.212  25.288  31.311  1.00  0.00     0.020 A 
ATOM    102  C   UNL A   1      50.025  24.700  32.552  1.00  0.00     0.054 A 
BRANCH 102 103
ATOM    103  S   UNL A   1      51.293  23.606  33.234  1.00  0.00     0.124 S 
ATOM    104  O   UNL A   1      52.486  24.444  33.153  1.00  0.00    -0.237 OA
ATOM    105  O   UNL A   1      50.802  23.343  34.586  1.00  0.00    -0.237 OA
ATOM    106  O   UNL A   1      51.273  22.453  32.337  1.00  0.00    -0.744 OA
ENDBRANCH 102 103
ENDBRANCH  76  97
ENDBRANCH  50  51
ENDBRANCH  42  45
ENDBRANCH  40  41
ENDBRANCH  39  40
ENDBRANCH  38  39
ENDBRANCH   1  38
TORSDOF 21
ENDMDL
MODEL 2
REMARK VINA RESULT:     -13.1      3.874     10.441
REMARK SMILES Cc1ccc(-c2csc(NC(=O)[C@H]3[C@@H](C(=O)NCCCCCCNC(=O)c4ccc(-c5c6nc(c(-c7ccc(S(=O)(=O)[O-])cc7)c7ccc([nH]7)c(-c7ccc(S(=O)(=O)[O-])cc7)c7nc(c(-c8ccc(S(=O)(=O)[O-])cc8)c8ccc5[nH]8)C=C7)C=C6)cc4)[C@H]4C=C[C@@H]3C4)c2C(=O)NC2CC2)cc1
REMARK SMILES IDX 20 1 19 2 18 3 17 4 15 5 16 6 14 8 13 9 90 10 87 11 89 12
REMARK SMILES IDX 91 13 88 14 11 15 10 16 12 18 9 19 6 20 7 21 92 22 8 23 5 24
REMARK SMILES IDX 1 25 2 26 3 27 100 28 4 29 99 30 93 31 94 32 95 33 96 35
REMARK SMILES IDX 97 36 98 37 21 38 22 39 23 40 24 41 25 42 26 44 27 45 28 46
REMARK SMILES IDX 86 47 29 48 85 49 30 50 31 51 32 52 79 53 33 54 84 55 78 56
REMARK SMILES IDX 80 57 34 58 83 59 77 60 76 61 35 63 65 64 46 65 64 66 47 67
REMARK SMILES IDX 50 68 63 69 81 70 48 71 49 72 62 74 82 75 51 76 36 77 37 78
REMARK SMILES IDX 45 79 38 80 44 81 39 82 40 83 41 84 42 85 43 86 66 87 67 88
REMARK SMILES IDX 75 89 68 90 74 91 69 92 70 93 71 94 72 95 73 96 52 97 53 98
REMARK SMILES IDX 61 99 54 100 60 101 55 102 56 103 57 104 58 105 59 106
REMARK H PARENT 17 7 10 17 95 34 24 43 80 62 50 73
REMARK Flexibility Score: inf
ROOT
ATOM      1  C   UNL A   1      38.519  24.020  26.521  1.00  0.00     0.002 C 
ENDROOT
BRANCH   1   2
ATOM      2  C   UNL A   1      37.766  23.691  25.225  1.00  0.00     0.021 C 
BRANCH   2   3
ATOM      3  C   UNL A   1      37.469  22.208  25.005  1.00  0.00     0.116 C 
BRANCH   3   4
ATOM      4  N   UNL A   1      36.495  21.711  25.957  1.00  0.00    -0.356 N 
ATOM      5  C   UNL A   1      35.131  21.702  25.923  1.00  0.00     0.224 C 
ATOM      6  O   UNL A   1      34.539  21.263  26.910  1.00  0.00    -0.275 OA
ATOM      7  H   UNL A   1      36.884  21.311  26.768  1.00  0.00     0.163 HD
BRANCH   5   8
ATOM      8  C   UNL A   1      34.411  22.094  24.634  1.00  0.00     0.098 C 
ATOM      9  C   UNL A   1      33.520  23.397  24.605  1.00  0.00     0.099 C 
ATOM     10  C   UNL A   1      32.129  22.800  24.248  1.00  0.00     0.025 C 
ATOM     11  C   UNL A   1      33.402  20.971  24.246  1.00  0.00     0.025 C 
ATOM     12  C   UNL A   1      31.623  21.918  25.355  1.00  0.00    -0.027 C 
ATOM     13  C   UNL A   1      32.532  21.713  23.238  1.00  0.00     0.017 C 
ATOM     14  C   UNL A   1      32.362  20.802  25.333  1.00  0.00    -0.027 C 
BRANCH   9  15
ATOM     15  C   UNL A   1      33.687  24.316  25.815  1.00  0.00     0.229 C 
ATOM     16  N   UNL A   1      32.700  25.151  26.247  1.00  0.00    -0.317 N 
ATOM     17  H   UNL A   1      32.761  25.406  27.196  1.00  0.00     0.170 HD
ATOM     18  O   UNL A   1      34.770  24.381  26.408  1.00  0.00    -0.274 OA
BRANCH  16  19
ATOM     19  C   UNL A   1      31.630  25.696  25.568  1.00  0.00     0.108 A 
ATOM     20  C   UNL A   1      30.277  27.039  24.246  1.00  0.00     0.007 A 
ATOM     21  C   UNL A   1      29.364  26.231  24.906  1.00  0.00     0.076 A 
ATOM     22  C   UNL A   1      31.658  26.683  24.575  1.00  0.00     0.082 A 
ATOM     23  S   UNL A   1      30.106  24.971  25.758  1.00  0.00    -0.125 S 
BRANCH  20  24
ATOM     24  C   UNL A   1      29.701  28.015  23.327  1.00  0.00    -0.017 A 
ATOM     25  C   UNL A   1      28.323  31.457  21.170  1.00  0.00     0.044 C 
ATOM     26  C   UNL A   1      28.772  30.156  21.765  1.00  0.00    -0.051 A 
ATOM     27  C   UNL A   1      30.137  29.871  21.816  1.00  0.00     0.004 A 
ATOM     28  C   UNL A   1      27.868  29.290  22.404  1.00  0.00     0.004 A 
ATOM     29  C   UNL A   1      30.592  28.792  22.564  1.00  0.00     0.009 A 
ATOM     30  C   UNL A   1      28.329  28.217  23.186  1.00  0.00     0.009 A 
ENDBRANCH  20  24
BRANCH  22  31
ATOM     31  C   UNL A   1      32.963  27.283  24.251  1.00  0.00     0.255 C 
ATOM     32  O   UNL A   1      33.576  26.882  23.253  1.00  0.00    -0.269 OA
ATOM     33  N   UNL A   1      33.561  28.367  24.848  1.00  0.00    -0.349 N 
ATOM     34  H   UNL A   1      34.360  28.642  24.341  1.00  0.00     0.164 HD
BRANCH  33  35
ATOM     35  C   UNL A   1      33.375  29.210  25.974  1.00  0.00     0.082 C 
ATOM     36  C   UNL A   1      32.649  28.912  27.234  1.00  0.00     0.027 C 
ATOM     37  C   UNL A   1      34.156  28.907  27.214  1.00  0.00     0.027 C 
ENDBRANCH  33  35
ENDBRANCH  22  31
ENDBRANCH  16  19
ENDBRANCH   9  15
ENDBRANCH   5   8
ENDBRANCH   3   4
ENDBRANCH   2   3
ENDBRANCH   1   2
BRANCH   1  38
ATOM     38  C   UNL A   1      39.818  24.827  26.377  1.00  0.00     0.002 C 
BRANCH  38  39
ATOM     39  C   UNL A   1      40.287  25.588  27.617  1.00  0.00     0.021 C 
BRANCH  39  40
ATOM     40  C   UNL A   1      41.765  25.946  27.601  1.00  0.00     0.116 C 
BRANCH  40  41
ATOM     41  N   UNL A   1      42.247  26.488  26.330  1.00  0.00    -0.352 N 
ATOM     42  C   UNL A   1      41.996  27.734  25.779  1.00  0.00     0.251 C 
ATOM     43  H   UNL A   1      42.822  25.891  25.799  1.00  0.00     0.163 HD
ATOM     44  O   UNL A   1      42.312  28.049  24.633  1.00  0.00    -0.269 OA
BRANCH  42  45
ATOM     45  C   UNL A   1      41.486  28.775  26.687  1.00  0.00     0.039 A 
ATOM     46  C   UNL A   1      42.402  29.295  27.612  1.00  0.00     0.014 A 
ATOM     47  C   UNL A   1      40.113  28.902  26.868  1.00  0.00     0.014 A 
ATOM     48  C   UNL A   1      41.934  29.713  28.845  1.00  0.00     0.010 A 
ATOM     49  C   UNL A   1      39.663  29.173  28.135  1.00  0.00     0.010 A 
ATOM     50  C   UNL A   1      40.581  29.528  29.124  1.00  0.00    -0.014 A 
BRANCH  50  51
ATOM     51  C   UNL A   1      40.024  29.740  30.441  1.00  0.00     0.031 A 
ATOM     52  C   UNL A   1      39.224  30.959  30.614  1.00  0.00     0.074 A 
ATOM     53  C   UNL A   1      40.296  28.882  31.442  1.00  0.00     0.049 A 
ATOM     54  N   UNL A   1      39.223  31.681  31.676  1.00  0.00    -0.248 NA
ATOM     55  C   UNL A   1      38.427  31.520  29.523  1.00  0.00     0.031 C 
ATOM     56  C   UNL A   1      39.766  28.888  32.799  1.00  0.00     0.029 A 
ATOM     57  N   UNL A   1      41.309  27.935  31.482  1.00  0.00    -0.354 N 
ATOM     58  C   UNL A   1      38.216  32.607  31.519  1.00  0.00     0.074 A 
ATOM     59  C   UNL A   1      37.838  32.552  30.129  1.00  0.00     0.031 C 
ATOM     60  C   UNL A   1      40.606  28.193  33.590  1.00  0.00     0.029 A 
ATOM     61  C   UNL A   1      41.768  27.818  32.791  1.00  0.00     0.049 A 
ATOM     62  H   UNL A   1      41.649  27.430  30.709  1.00  0.00     0.167 HD
ATOM     63  C   UNL A   1      37.670  33.188  32.618  1.00  0.00     0.031 A 
ATOM     64  C   UNL A   1      43.051  28.175  33.091  1.00  0.00     0.031 A 
ATOM     65  C   UNL A   1      38.330  32.713  33.829  1.00  0.00     0.049 A 
ATOM     66  C   UNL A   1      43.120  29.428  33.946  1.00  0.00     0.074 A 
ATOM     67  C   UNL A   1      38.025  31.680  34.702  1.00  0.00     0.029 A 
ATOM     68  N   UNL A   1      39.670  33.021  34.036  1.00  0.00    -0.354 N 
ATOM     69  N   UNL A   1      42.163  30.317  34.027  1.00  0.00    -0.248 NA
ATOM     70  C   UNL A   1      44.240  29.746  34.827  1.00  0.00     0.031 C 
ATOM     71  C   UNL A   1      39.222  31.303  35.366  1.00  0.00     0.029 A 
ATOM     72  C   UNL A   1      40.241  32.130  34.927  1.00  0.00     0.049 A 
ATOM     73  H   UNL A   1      40.146  33.768  33.607  1.00  0.00     0.167 HD
ATOM     74  C   UNL A   1      42.482  31.263  34.971  1.00  0.00     0.074 A 
ATOM     75  C   UNL A   1      43.800  30.864  35.434  1.00  0.00     0.031 C 
ATOM     76  C   UNL A   1      41.636  32.280  35.324  1.00  0.00     0.031 A 
BRANCH  63  77
ATOM     77  C   UNL A   1      36.323  33.856  32.562  1.00  0.00    -0.014 A 
ATOM     78  C   UNL A   1      35.683  34.013  31.318  1.00  0.00     0.010 A 
ATOM     79  C   UNL A   1      35.670  34.404  33.685  1.00  0.00     0.010 A 
ATOM     80  C   UNL A   1      34.496  34.747  31.186  1.00  0.00     0.020 A 
ATOM     81  C   UNL A   1      34.504  35.175  33.561  1.00  0.00     0.020 A 
ATOM     82  C   UNL A   1      33.924  35.341  32.307  1.00  0.00     0.054 A 
BRANCH  82  83
ATOM     83  S   UNL A   1      32.408  36.313  32.101  1.00  0.00     0.124 S 
ATOM     84  O   UNL A   1      32.327  36.472  30.651  1.00  0.00    -0.237 OA
ATOM     85  O   UNL A   1      31.398  35.443  32.697  1.00  0.00    -0.237 OA
ATOM     86  O   UNL A   1      32.682  37.544  32.840  1.00  0.00    -0.744 OA
ENDBRANCH  82  83
ENDBRANCH  63  77
BRANCH  64  87
ATOM     87  C   UNL A   1      44.065  27.676  32.107  1.00  0.00    -0.014 A 
ATOM     88  C   UNL A   1      44.393  26.303  32.168  1.00  0.00     0.010 A 
ATOM     89  C   UNL A   1      44.375  28.371  30.923  1.00  0.00     0.010 A 
ATOM     90  C   UNL A   1      44.905  25.623  31.055  1.00  0.00     0.020 A 
ATOM     91  C   UNL A   1      44.878  27.687  29.794  1.00  0.00     0.020 A 
ATOM     92  C   UNL A   1      45.110  26.309  29.859  1.00  0.00     0.054 A 
BRANCH  92  93
ATOM     93  S   UNL A   1      45.527  25.371  28.350  1.00  0.00     0.124 S 
ATOM     94  O   UNL A   1      45.219  26.327  27.293  1.00  0.00    -0.237 OA
ATOM     95  O   UNL A   1      46.947  25.064  28.521  1.00  0.00    -0.237 OA
ATOM     96  O   UNL A   1      44.657  24.201  28.433  1.00  0.00    -0.744 OA
ENDBRANCH  92  93
ENDBRANCH  64  87
BRANCH  76  97
ATOM     97  C   UNL A   1      41.980  33.496  36.163  1.00  0.00    -0.014 A 
ATOM     98  C   UNL A   1      42.447  34.713  35.648  1.00  0.00     0.010 A 
ATOM     99  C   UNL A   1      41.680  33.471  37.551  1.00  0.00     0.010 A 
ATOM    100  C   UNL A   1      42.648  35.827  36.478  1.00  0.00     0.020 A 
ATOM    101  C   UNL A   1      41.817  34.589  38.375  1.00  0.00     0.020 A 
ATOM    102  C   UNL A   1      42.326  35.760  37.834  1.00  0.00     0.054 A 
BRANCH 102 103
ATOM    103  S   UNL A   1      42.511  37.229  38.873  1.00  0.00     0.124 S 
ATOM    104  O   UNL A   1      43.385  38.065  38.054  1.00  0.00    -0.237 OA
ATOM    105  O   UNL A   1      41.136  37.704  39.010  1.00  0.00    -0.237 OA
ATOM    106  O   UNL A   1      43.108  36.711  40.101  1.00  0.00    -0.744 OA
ENDBRANCH 102 103
ENDBRANCH  76  97
ENDBRANCH  50  51
ENDBRANCH  42  45
ENDBRANCH  40  41
ENDBRANCH  39  40
ENDBRANCH  38  39
ENDBRANCH   1  38
TORSDOF 21
ENDMDL
MODEL 3
REMARK VINA RESULT:     -13.0      2.292      2.741
REMARK SMILES Cc1ccc(-c2csc(NC(=O)[C@H]3[C@@H](C(=O)NCCCCCCNC(=O)c4ccc(-c5c6nc(c(-c7ccc(S(=O)(=O)[O-])cc7)c7ccc([nH]7)c(-c7ccc(S(=O)(=O)[O-])cc7)c7nc(c(-c8ccc(S(=O)(=O)[O-])cc8)c8ccc5[nH]8)C=C7)C=C6)cc4)[C@H]4C=C[C@@H]3C4)c2C(=O)NC2CC2)cc1
REMARK SMILES IDX 20 1 19 2 18 3 17 4 15 5 16 6 14 8 13 9 90 10 87 11 89 12
REMARK SMILES IDX 91 13 88 14 11 15 10 16 12 18 9 19 6 20 7 21 92 22 8 23 5 24
REMARK SMILES IDX 1 25 2 26 3 27 100 28 4 29 99 30 93 31 94 32 95 33 96 35
REMARK SMILES IDX 97 36 98 37 21 38 22 39 23 40 24 41 25 42 26 44 27 45 28 46
REMARK SMILES IDX 86 47 29 48 85 49 30 50 31 51 32 52 79 53 33 54 84 55 78 56
REMARK SMILES IDX 80 57 34 58 83 59 77 60 76 61 35 63 65 64 46 65 64 66 47 67
REMARK SMILES IDX 50 68 63 69 81 70 48 71 49 72 62 74 82 75 51 76 36 77 37 78
REMARK SMILES IDX 45 79 38 80 44 81 39 82 40 83 41 84 42 85 43 86 66 87 67 88
REMARK SMILES IDX 75 89 68 90 74 91 69 92 70 93 71 94 72 95 73 96 52 97 53 98
REMARK SMILES IDX 61 99 54 100 60 101 55 102 56 103 57 104 58 105 59 106
REMARK H PARENT 17 7 10 17 95 34 24 43 80 62 50 73
REMARK Flexibility Score: inf
ROOT
ATOM      1  C   UNL A   1      34.215  30.167  27.361  1.00  0.00     0.002 C 
ENDROOT
BRANCH   1   2
ATOM      2  C   UNL A   1      32.927  30.977  27.165  1.00  0.00     0.021 C 
BRANCH   2   3
ATOM      3  C   UNL A   1      31.835  30.276  26.359  1.00  0.00     0.116 C 
BRANCH   3   4
ATOM      4  N   UNL A   1      32.235  30.072  24.980  1.00  0.00    -0.356 N 
ATOM      5  C   UNL A   1      31.986  29.046  24.117  1.00  0.00     0.224 C 
ATOM      6  O   UNL A   1      32.506  29.101  23.001  1.00  0.00    -0.275 OA
ATOM      7  H   UNL A   1      32.780  30.799  24.602  1.00  0.00     0.163 HD
BRANCH   5   8
ATOM      8  C   UNL A   1      30.979  27.966  24.506  1.00  0.00     0.098 C 
ATOM      9  C   UNL A   1      31.496  26.539  24.943  1.00  0.00     0.099 C 
ATOM     10  C   UNL A   1      30.829  25.637  23.867  1.00  0.00     0.025 C 
ATOM     11  C   UNL A   1      30.066  27.648  23.284  1.00  0.00     0.025 C 
ATOM     12  C   UNL A   1      31.383  25.931  22.501  1.00  0.00    -0.027 C 
ATOM     13  C   UNL A   1      29.459  26.321  23.725  1.00  0.00     0.017 C 
ATOM     14  C   UNL A   1      30.896  27.123  22.131  1.00  0.00    -0.027 C 
BRANCH   9  15
ATOM     15  C   UNL A   1      33.000  26.456  25.209  1.00  0.00     0.229 C 
ATOM     16  N   UNL A   1      33.688  25.280  25.180  1.00  0.00    -0.317 N 
ATOM     17  H   UNL A   1      34.652  25.369  24.999  1.00  0.00     0.170 HD
ATOM     18  O   UNL A   1      33.636  27.465  25.532  1.00  0.00    -0.274 OA
BRANCH  16  19
ATOM     19  C   UNL A   1      33.251  23.984  25.365  1.00  0.00     0.108 A 
ATOM     20  C   UNL A   1      32.803  21.723  25.108  1.00  0.00     0.007 A 
ATOM     21  C   UNL A   1      31.998  22.079  26.179  1.00  0.00     0.076 A 
ATOM     22  C   UNL A   1      33.626  22.842  24.648  1.00  0.00     0.082 A 
ATOM     23  S   UNL A   1      32.322  23.641  26.745  1.00  0.00    -0.125 S 
BRANCH  20  24
ATOM     24  C   UNL A   1      32.726  20.323  24.705  1.00  0.00    -0.017 A 
ATOM     25  C   UNL A   1      33.339  16.213  23.643  1.00  0.00     0.044 C 
ATOM     26  C   UNL A   1      32.941  17.606  24.029  1.00  0.00    -0.051 A 
ATOM     27  C   UNL A   1      33.091  18.008  25.357  1.00  0.00     0.004 A 
ATOM     28  C   UNL A   1      32.565  18.556  23.064  1.00  0.00     0.004 A 
ATOM     29  C   UNL A   1      32.952  19.349  25.694  1.00  0.00     0.009 A 
ATOM     30  C   UNL A   1      32.455  19.916  23.399  1.00  0.00     0.009 A 
ENDBRANCH  20  24
BRANCH  22  31
ATOM     31  C   UNL A   1      34.536  23.027  23.506  1.00  0.00     0.255 C 
ATOM     32  O   UNL A   1      34.144  23.668  22.522  1.00  0.00    -0.269 OA
ATOM     33  N   UNL A   1      35.867  22.690  23.429  1.00  0.00    -0.349 N 
ATOM     34  H   UNL A   1      36.268  23.056  22.608  1.00  0.00     0.164 HD
BRANCH  33  35
ATOM     35  C   UNL A   1      36.837  21.974  24.178  1.00  0.00     0.082 C 
ATOM     36  C   UNL A   1      37.205  22.145  25.605  1.00  0.00     0.027 C 
ATOM     37  C   UNL A   1      36.352  20.977  25.183  1.00  0.00     0.027 C 
ENDBRANCH  33  35
ENDBRANCH  22  31
ENDBRANCH  16  19
ENDBRANCH   9  15
ENDBRANCH   5   8
ENDBRANCH   3   4
ENDBRANCH   2   3
ENDBRANCH   1   2
BRANCH   1  38
ATOM     38  C   UNL A   1      35.507  30.969  27.585  1.00  0.00     0.002 C 
BRANCH  38  39
ATOM     39  C   UNL A   1      35.338  32.397  28.101  1.00  0.00     0.021 C 
BRANCH  39  40
ATOM     40  C   UNL A   1      36.481  32.873  28.986  1.00  0.00     0.116 C 
BRANCH  40  41
ATOM     41  N   UNL A   1      36.324  32.561  30.406  1.00  0.00    -0.352 N 
ATOM     42  C   UNL A   1      36.646  31.387  31.067  1.00  0.00     0.251 C 
ATOM     43  H   UNL A   1      35.939  33.276  30.963  1.00  0.00     0.163 HD
ATOM     44  O   UNL A   1      36.334  31.153  32.233  1.00  0.00    -0.269 OA
BRANCH  42  45
ATOM     45  C   UNL A   1      37.562  30.463  30.378  1.00  0.00     0.039 A 
ATOM     46  C   UNL A   1      37.687  29.184  30.936  1.00  0.00     0.014 A 
ATOM     47  C   UNL A   1      38.519  30.979  29.511  1.00  0.00     0.014 A 
ATOM     48  C   UNL A   1      38.901  28.528  30.826  1.00  0.00     0.010 A 
ATOM     49  C   UNL A   1      39.765  30.404  29.526  1.00  0.00     0.010 A 
ATOM     50  C   UNL A   1      39.956  29.211  30.224  1.00  0.00    -0.014 A 
BRANCH  50  51
ATOM     51  C   UNL A   1      41.312  28.708  30.232  1.00  0.00     0.031 A 
ATOM     52  C   UNL A   1      41.519  27.401  29.597  1.00  0.00     0.074 A 
ATOM     53  C   UNL A   1      42.290  29.397  30.851  1.00  0.00     0.049 A 
ATOM     54  N   UNL A   1      42.328  26.504  30.032  1.00  0.00    -0.248 NA
ATOM     55  C   UNL A   1      40.719  26.964  28.453  1.00  0.00     0.031 C 
ATOM     56  C   UNL A   1      43.714  29.092  30.894  1.00  0.00     0.029 A 
ATOM     57  N   UNL A   1      42.139  30.422  31.772  1.00  0.00    -0.354 N 
ATOM     58  C   UNL A   1      42.376  25.521  29.070  1.00  0.00     0.074 A 
ATOM     59  C   UNL A   1      41.276  25.784  28.177  1.00  0.00     0.031 C 
ATOM     60  C   UNL A   1      44.254  29.718  31.956  1.00  0.00     0.029 A 
ATOM     61  C   UNL A   1      43.172  30.351  32.703  1.00  0.00     0.049 A 
ATOM     62  H   UNL A   1      41.417  31.091  31.768  1.00  0.00     0.167 HD
ATOM     63  C   UNL A   1      43.455  24.697  29.012  1.00  0.00     0.031 A 
ATOM     64  C   UNL A   1      42.884  30.083  34.011  1.00  0.00     0.031 A 
ATOM     65  C   UNL A   1      44.397  25.015  30.080  1.00  0.00     0.049 A 
ATOM     66  C   UNL A   1      43.372  28.711  34.442  1.00  0.00     0.074 A 
ATOM     67  C   UNL A   1      45.513  25.836  30.112  1.00  0.00     0.029 A 
ATOM     68  N   UNL A   1      44.014  24.817  31.402  1.00  0.00    -0.354 N 
ATOM     69  N   UNL A   1      43.623  27.727  33.618  1.00  0.00    -0.248 NA
ATOM     70  C   UNL A   1      43.678  28.360  35.826  1.00  0.00     0.031 C 
ATOM     71  C   UNL A   1      45.739  26.212  31.463  1.00  0.00     0.029 A 
ATOM     72  C   UNL A   1      44.787  25.589  32.252  1.00  0.00     0.049 A 
ATOM     73  H   UNL A   1      43.293  24.214  31.693  1.00  0.00     0.167 HD
ATOM     74  C   UNL A   1      44.159  26.666  34.307  1.00  0.00     0.074 A 
ATOM     75  C   UNL A   1      44.162  27.112  35.690  1.00  0.00     0.031 C 
ATOM     76  C   UNL A   1      44.588  25.518  33.694  1.00  0.00     0.031 A 
BRANCH  63  77
ATOM     77  C   UNL A   1      43.775  23.912  27.769  1.00  0.00    -0.014 A 
ATOM     78  C   UNL A   1      43.057  22.733  27.495  1.00  0.00     0.010 A 
ATOM     79  C   UNL A   1      44.809  24.248  26.872  1.00  0.00     0.010 A 
ATOM     80  C   UNL A   1      43.401  21.890  26.430  1.00  0.00     0.020 A 
ATOM     81  C   UNL A   1      45.190  23.393  25.827  1.00  0.00     0.020 A 
ATOM     82  C   UNL A   1      44.480  22.215  25.613  1.00  0.00     0.054 A 
BRANCH  82  83
ATOM     83  S   UNL A   1      44.925  21.088  24.265  1.00  0.00     0.124 S 
ATOM     84  O   UNL A   1      44.103  19.914  24.549  1.00  0.00    -0.237 OA
ATOM     85  O   UNL A   1      44.543  21.854  23.082  1.00  0.00    -0.237 OA
ATOM     86  O   UNL A   1      46.363  20.889  24.439  1.00  0.00    -0.744 OA
ENDBRANCH  82  83
ENDBRANCH  63  77
BRANCH  64  87
ATOM     87  C   UNL A   1      41.716  30.854  34.545  1.00  0.00    -0.014 A 
ATOM     88  C   UNL A   1      41.943  32.209  34.876  1.00  0.00     0.010 A 
ATOM     89  C   UNL A   1      40.384  30.442  34.349  1.00  0.00     0.010 A 
ATOM     90  C   UNL A   1      40.896  33.142  34.899  1.00  0.00     0.020 A 
ATOM     91  C   UNL A   1      39.329  31.381  34.357  1.00  0.00     0.020 A 
ATOM     92  C   UNL A   1      39.598  32.732  34.602  1.00  0.00     0.054 A 
BRANCH  92  93
ATOM     93  S   UNL A   1      38.292  33.988  34.381  1.00  0.00     0.124 S 
ATOM     94  O   UNL A   1      38.927  35.193  34.902  1.00  0.00    -0.237 OA
ATOM     95  O   UNL A   1      38.053  33.981  32.939  1.00  0.00    -0.237 OA
ATOM     96  O   UNL A   1      37.181  33.456  35.166  1.00  0.00    -0.744 OA
ENDBRANCH  92  93
ENDBRANCH  64  87
BRANCH  76  97
ATOM     97  C   UNL A   1      44.964  24.214  34.372  1.00  0.00    -0.014 A 
ATOM     98  C   UNL A   1      44.132  23.090  34.456  1.00  0.00     0.010 A 
ATOM     99  C   UNL A   1      46.297  24.049  34.834  1.00  0.00     0.010 A 
ATOM    100  C   UNL A   1      44.588  21.884  35.010  1.00  0.00     0.020 A 
ATOM    101  C   UNL A   1      46.780  22.838  35.332  1.00  0.00     0.020 A 
ATOM    102  C   UNL A   1      45.910  21.764  35.439  1.00  0.00     0.054 A 
BRANCH 102 103
ATOM    103  S   UNL A   1      46.506  20.179  36.074  1.00  0.00     0.124 S 
ATOM    104  O   UNL A   1      46.034  19.251  35.049  1.00  0.00    -0.237 OA
ATOM    105  O   UNL A   1      47.953  20.373  36.125  1.00  0.00    -0.237 OA
ATOM    106  O   UNL A   1      45.854  20.061  37.376  1.00  0.00    -0.744 OA
ENDBRANCH 102 103
ENDBRANCH  76  97
ENDBRANCH  50  51
ENDBRANCH  42  45
ENDBRANCH  40  41
ENDBRANCH  39  40
ENDBRANCH  38  39
ENDBRANCH   1  38
TORSDOF 21
ENDMDL
