MODEL 1
REMARK VINA RESULT:     -12.1      0.000      0.000
REMARK SMILES CC1=C(CC(=O)NCCCCCCNC(=O)c2ccc(-c3c4nc(c(-c5ccc(S(=O)(=O)[O-])cc5)c5ccc([nH]5)c(-c5ccc(S(=O)(=O)[O-])cc5)c5nc(c(-c6ccc(S(=O)(=O)[O-])cc6)c6ccc3[nH]6)C=C5)C=C4)cc2)c2cc(F)ccc2/C1=C\c1ccc([S@@+](C)[O-])cc1
REMARK SMILES IDX 10 1 9 2 8 3 7 4 5 5 6 6 4 8 3 9 1 10 2 11 84 12 77 13 83 14
REMARK SMILES IDX 85 15 78 16 82 17 79 18 81 19 80 20 86 21 87 22 94 23 88 24
REMARK SMILES IDX 93 25 89 26 90 27 91 28 92 29 11 30 12 31 13 32 14 33 15 34
REMARK SMILES IDX 16 36 17 37 18 38 76 39 19 40 75 41 20 42 21 43 22 44 69 45
REMARK SMILES IDX 23 46 74 47 68 48 70 49 24 50 73 51 67 52 66 53 25 55 55 56
REMARK SMILES IDX 36 57 54 58 37 59 40 60 53 61 71 62 38 63 39 64 52 66 72 67
REMARK SMILES IDX 41 68 26 69 27 70 35 71 28 72 34 73 29 74 30 75 31 76 32 77
REMARK SMILES IDX 33 78 56 79 57 80 65 81 58 82 64 83 59 84 60 85 61 86 62 87
REMARK SMILES IDX 63 88 42 89 43 90 51 91 44 92 50 93 45 94 46 95 47 96 48 97
REMARK SMILES IDX 49 98
REMARK H PARENT 7 7 14 35 70 54 40 65
REMARK Flexibility Score: inf
ROOT
ATOM      1  C   UNL A   1      35.629  23.027  25.897  1.00  0.00     0.002 C 
ENDROOT
BRANCH   1   2
ATOM      2  C   UNL A   1      35.811  21.507  26.013  1.00  0.00     0.021 C 
BRANCH   2   3
ATOM      3  C   UNL A   1      35.261  20.719  24.823  1.00  0.00     0.116 C 
BRANCH   3   4
ATOM      4  N   UNL A   1      34.170  19.854  25.221  1.00  0.00    -0.356 N 
ATOM      5  C   UNL A   1      32.873  19.862  24.800  1.00  0.00     0.224 C 
ATOM      6  O   UNL A   1      32.080  19.082  25.336  1.00  0.00    -0.275 OA
ATOM      7  H   UNL A   1      34.395  19.166  25.889  1.00  0.00     0.163 HD
BRANCH   5   8
ATOM      8  C   UNL A   1      32.435  20.777  23.659  1.00  0.00     0.136 C 
BRANCH   8   9
ATOM      9  C   UNL A   1      32.510  22.237  23.976  1.00  0.00    -0.027 C 
ATOM     10  C   UNL A   1      34.157  23.071  22.200  1.00  0.00     0.045 C 
ATOM     11  C   UNL A   1      33.247  23.205  23.379  1.00  0.00    -0.039 C 
ATOM     12  C   UNL A   1      33.016  24.492  24.054  1.00  0.00    -0.014 C 
ATOM     13  C   UNL A   1      31.697  22.876  25.027  1.00  0.00    -0.011 A 
ATOM     14  C   UNL A   1      31.955  24.260  25.053  1.00  0.00    -0.010 A 
ATOM     15  C   UNL A   1      33.719  25.616  23.807  1.00  0.00     0.017 C 
ATOM     16  C   UNL A   1      30.764  22.314  25.889  1.00  0.00     0.048 A 
ATOM     17  C   UNL A   1      31.233  25.095  25.897  1.00  0.00     0.012 A 
ATOM     18  C   UNL A   1      30.090  23.154  26.769  1.00  0.00     0.123 A 
ATOM     19  C   UNL A   1      30.306  24.531  26.774  1.00  0.00     0.040 A 
ATOM     20  F   UNL A   1      29.196  22.633  27.623  1.00  0.00    -0.207 F 
BRANCH  15  21
ATOM     21  C   UNL A   1      33.540  26.896  24.496  1.00  0.00    -0.025 A 
ATOM     22  C   UNL A   1      34.037  27.092  25.789  1.00  0.00     0.013 A 
ATOM     23  C   UNL A   1      32.772  27.895  23.894  1.00  0.00     0.013 A 
ATOM     24  C   UNL A   1      33.654  28.219  26.524  1.00  0.00     0.061 A 
ATOM     25  C   UNL A   1      32.408  29.030  24.622  1.00  0.00     0.061 A 
ATOM     26  C   UNL A   1      32.811  29.180  25.954  1.00  0.00     0.152 A 
BRANCH  26  27
ATOM     27  S   UNL A   1      32.095  30.498  26.968  1.00  0.00    -0.018 S 
ATOM     28  C   UNL A   1      33.609  31.306  27.523  1.00  0.00     0.346 C 
ATOM     29  O   UNL A   1      31.339  31.475  25.999  1.00  0.00    -0.612 OA
ENDBRANCH  26  27
ENDBRANCH  15  21
ENDBRANCH   8   9
ENDBRANCH   5   8
ENDBRANCH   3   4
ENDBRANCH   2   3
ENDBRANCH   1   2
BRANCH   1  30
ATOM     30  C   UNL A   1      36.889  23.863  26.151  1.00  0.00     0.002 C 
BRANCH  30  31
ATOM     31  C   UNL A   1      38.212  23.108  26.024  1.00  0.00     0.021 C 
BRANCH  31  32
ATOM     32  C   UNL A   1      39.322  23.602  26.945  1.00  0.00     0.116 C 
BRANCH  32  33
ATOM     33  N   UNL A   1      40.551  23.909  26.227  1.00  0.00    -0.352 N 
ATOM     34  C   UNL A   1      41.337  25.035  26.298  1.00  0.00     0.251 C 
ATOM     35  H   UNL A   1      40.861  23.213  25.603  1.00  0.00     0.163 HD
ATOM     36  O   UNL A   1      42.259  25.195  25.504  1.00  0.00    -0.269 OA
BRANCH  34  37
ATOM     37  C   UNL A   1      41.041  26.067  27.315  1.00  0.00     0.039 A 
ATOM     38  C   UNL A   1      41.676  27.311  27.269  1.00  0.00     0.014 A 
ATOM     39  C   UNL A   1      40.142  25.775  28.346  1.00  0.00     0.014 A 
ATOM     40  C   UNL A   1      41.540  28.193  28.336  1.00  0.00     0.010 A 
ATOM     41  C   UNL A   1      39.947  26.698  29.378  1.00  0.00     0.010 A 
ATOM     42  C   UNL A   1      40.682  27.894  29.408  1.00  0.00    -0.014 A 
BRANCH  42  43
ATOM     43  C   UNL A   1      40.576  28.844  30.546  1.00  0.00     0.031 A 
ATOM     44  C   UNL A   1      39.499  29.897  30.572  1.00  0.00     0.074 A 
ATOM     45  C   UNL A   1      41.418  28.717  31.590  1.00  0.00     0.049 A 
ATOM     46  N   UNL A   1      39.242  30.780  31.504  1.00  0.00    -0.248 NA
ATOM     47  C   UNL A   1      38.595  29.973  29.413  1.00  0.00     0.031 C 
ATOM     48  C   UNL A   1      42.491  27.724  31.685  1.00  0.00     0.029 A 
ATOM     49  N   UNL A   1      41.490  29.399  32.778  1.00  0.00    -0.354 N 
ATOM     50  C   UNL A   1      38.163  31.523  31.040  1.00  0.00     0.074 A 
ATOM     51  C   UNL A   1      37.825  31.006  29.731  1.00  0.00     0.031 C 
ATOM     52  C   UNL A   1      43.076  27.825  32.887  1.00  0.00     0.029 A 
ATOM     53  C   UNL A   1      42.465  28.928  33.625  1.00  0.00     0.049 A 
ATOM     54  H   UNL A   1      40.899  30.153  33.003  1.00  0.00     0.167 HD
ATOM     55  C   UNL A   1      37.505  32.533  31.655  1.00  0.00     0.031 A 
ATOM     56  C   UNL A   1      42.841  29.336  34.854  1.00  0.00     0.031 A 
ATOM     57  C   UNL A   1      37.831  33.030  32.967  1.00  0.00     0.049 A 
ATOM     58  C   UNL A   1      42.118  30.481  35.501  1.00  0.00     0.074 A 
ATOM     59  C   UNL A   1      37.200  34.037  33.678  1.00  0.00     0.029 A 
ATOM     60  N   UNL A   1      38.862  32.561  33.764  1.00  0.00    -0.354 N 
ATOM     61  N   UNL A   1      41.095  31.162  35.046  1.00  0.00    -0.248 NA
ATOM     62  C   UNL A   1      42.594  30.913  36.822  1.00  0.00     0.031 C 
ATOM     63  C   UNL A   1      37.886  34.216  34.880  1.00  0.00     0.029 A 
ATOM     64  C   UNL A   1      38.903  33.277  34.949  1.00  0.00     0.049 A 
ATOM     65  H   UNL A   1      39.476  31.830  33.524  1.00  0.00     0.167 HD
ATOM     66  C   UNL A   1      40.803  32.104  36.025  1.00  0.00     0.074 A 
ATOM     67  C   UNL A   1      41.740  31.889  37.108  1.00  0.00     0.031 C 
ATOM     68  C   UNL A   1      39.845  33.063  36.019  1.00  0.00     0.031 A 
BRANCH  55  69
ATOM     69  C   UNL A   1      36.354  33.187  30.936  1.00  0.00    -0.014 A 
ATOM     70  C   UNL A   1      36.569  33.797  29.686  1.00  0.00     0.010 A 
ATOM     71  C   UNL A   1      35.099  33.320  31.556  1.00  0.00     0.010 A 
ATOM     72  C   UNL A   1      35.563  34.557  29.085  1.00  0.00     0.020 A 
ATOM     73  C   UNL A   1      34.082  34.061  30.947  1.00  0.00     0.020 A 
ATOM     74  C   UNL A   1      34.329  34.695  29.726  1.00  0.00     0.054 A 
BRANCH  74  75
ATOM     75  S   UNL A   1      33.046  35.718  28.951  1.00  0.00     0.124 S 
ATOM     76  O   UNL A   1      33.834  36.744  28.278  1.00  0.00    -0.237 OA
ATOM     77  O   UNL A   1      32.365  34.766  28.075  1.00  0.00    -0.237 OA
ATOM     78  O   UNL A   1      32.250  36.181  30.087  1.00  0.00    -0.744 OA
ENDBRANCH  74  75
ENDBRANCH  55  69
BRANCH  56  79
ATOM     79  C   UNL A   1      43.960  28.629  35.534  1.00  0.00    -0.014 A 
ATOM     80  C   UNL A   1      45.293  29.000  35.273  1.00  0.00     0.010 A 
ATOM     81  C   UNL A   1      43.708  27.519  36.358  1.00  0.00     0.010 A 
ATOM     82  C   UNL A   1      46.352  28.235  35.765  1.00  0.00     0.020 A 
ATOM     83  C   UNL A   1      44.767  26.767  36.877  1.00  0.00     0.020 A 
ATOM     84  C   UNL A   1      46.081  27.111  36.548  1.00  0.00     0.054 A 
BRANCH  84  85
ATOM     85  S   UNL A   1      47.466  26.088  37.119  1.00  0.00     0.124 S 
ATOM     86  O   UNL A   1      46.801  25.185  38.055  1.00  0.00    -0.237 OA
ATOM     87  O   UNL A   1      47.945  25.474  35.884  1.00  0.00    -0.237 OA
ATOM     88  O   UNL A   1      48.376  27.057  37.724  1.00  0.00    -0.744 OA
ENDBRANCH  84  85
ENDBRANCH  56  79
BRANCH  68  89
ATOM     89  C   UNL A   1      39.748  33.979  37.209  1.00  0.00    -0.014 A 
ATOM     90  C   UNL A   1      40.569  35.120  37.281  1.00  0.00     0.010 A 
ATOM     91  C   UNL A   1      38.952  33.634  38.315  1.00  0.00     0.010 A 
ATOM     92  C   UNL A   1      40.628  35.878  38.452  1.00  0.00     0.020 A 
ATOM     93  C   UNL A   1      38.989  34.406  39.480  1.00  0.00     0.020 A 
ATOM     94  C   UNL A   1      39.847  35.507  39.550  1.00  0.00     0.054 A 
BRANCH  94  95
ATOM     95  S   UNL A   1      39.967  36.476  41.079  1.00  0.00     0.124 S 
ATOM     96  O   UNL A   1      40.190  37.826  40.570  1.00  0.00    -0.237 OA
ATOM     97  O   UNL A   1      38.668  36.247  41.708  1.00  0.00    -0.237 OA
ATOM     98  O   UNL A   1      41.101  35.875  41.777  1.00  0.00    -0.744 OA
ENDBRANCH  94  95
ENDBRANCH  68  89
ENDBRANCH  42  43
ENDBRANCH  34  37
ENDBRANCH  32  33
ENDBRANCH  31  32
ENDBRANCH  30  31
ENDBRANCH   1  30
TORSDOF 19
ENDMDL
MODEL 2
REMARK VINA RESULT:     -11.6      3.419      9.503
REMARK SMILES CC1=C(CC(=O)NCCCCCCNC(=O)c2ccc(-c3c4nc(c(-c5ccc(S(=O)(=O)[O-])cc5)c5ccc([nH]5)c(-c5ccc(S(=O)(=O)[O-])cc5)c5nc(c(-c6ccc(S(=O)(=O)[O-])cc6)c6ccc3[nH]6)C=C5)C=C4)cc2)c2cc(F)ccc2/C1=C\c1ccc([S@@+](C)[O-])cc1
REMARK SMILES IDX 10 1 9 2 8 3 7 4 5 5 6 6 4 8 3 9 1 10 2 11 84 12 77 13 83 14
REMARK SMILES IDX 85 15 78 16 82 17 79 18 81 19 80 20 86 21 87 22 94 23 88 24
REMARK SMILES IDX 93 25 89 26 90 27 91 28 92 29 11 30 12 31 13 32 14 33 15 34
REMARK SMILES IDX 16 36 17 37 18 38 76 39 19 40 75 41 20 42 21 43 22 44 69 45
REMARK SMILES IDX 23 46 74 47 68 48 70 49 24 50 73 51 67 52 66 53 25 55 55 56
REMARK SMILES IDX 36 57 54 58 37 59 40 60 53 61 71 62 38 63 39 64 52 66 72 67
REMARK SMILES IDX 41 68 26 69 27 70 35 71 28 72 34 73 29 74 30 75 31 76 32 77
REMARK SMILES IDX 33 78 56 79 57 80 65 81 58 82 64 83 59 84 60 85 61 86 62 87
REMARK SMILES IDX 63 88 42 89 43 90 51 91 44 92 50 93 45 94 46 95 47 96 48 97
REMARK SMILES IDX 49 98
REMARK H PARENT 7 7 14 35 70 54 40 65
REMARK Flexibility Score: inf
ROOT
ATOM      1  C   UNL A   1      33.890  28.066  25.212  1.00  0.00     0.002 C 
ENDROOT
BRANCH   1   2
ATOM      2  C   UNL A   1      33.133  28.831  24.118  1.00  0.00     0.021 C 
BRANCH   2   3
ATOM      3  C   UNL A   1      31.672  29.129  24.459  1.00  0.00     0.116 C 
BRANCH   3   4
ATOM      4  N   UNL A   1      30.889  29.369  23.264  1.00  0.00    -0.356 N 
ATOM      5  C   UNL A   1      29.903  28.603  22.717  1.00  0.00     0.224 C 
ATOM      6  O   UNL A   1      29.418  28.957  21.638  1.00  0.00    -0.275 OA
ATOM      7  H   UNL A   1      31.098  30.201  22.780  1.00  0.00     0.163 HD
BRANCH   5   8
ATOM      8  C   UNL A   1      29.383  27.370  23.452  1.00  0.00     0.136 C 
BRANCH   8   9
ATOM      9  C   UNL A   1      30.441  26.382  23.824  1.00  0.00    -0.027 C 
ATOM     10  C   UNL A   1      29.905  25.950  26.292  1.00  0.00     0.045 C 
ATOM     11  C   UNL A   1      30.679  25.794  25.023  1.00  0.00    -0.039 C 
ATOM     12  C   UNL A   1      31.851  24.910  24.918  1.00  0.00    -0.014 C 
ATOM     13  C   UNL A   1      31.410  25.836  22.857  1.00  0.00    -0.011 A 
ATOM     14  C   UNL A   1      32.244  24.898  23.495  1.00  0.00    -0.010 A 
ATOM     15  C   UNL A   1      32.444  24.307  25.968  1.00  0.00     0.017 C 
ATOM     16  C   UNL A   1      31.551  26.099  21.501  1.00  0.00     0.048 A 
ATOM     17  C   UNL A   1      33.177  24.173  22.764  1.00  0.00     0.012 A 
ATOM     18  C   UNL A   1      32.528  25.408  20.792  1.00  0.00     0.123 A 
ATOM     19  C   UNL A   1      33.330  24.446  21.404  1.00  0.00     0.040 A 
ATOM     20  F   UNL A   1      32.694  25.657  19.485  1.00  0.00    -0.207 F 
BRANCH  15  21
ATOM     21  C   UNL A   1      33.636  23.459  25.896  1.00  0.00    -0.025 A 
ATOM     22  C   UNL A   1      34.917  24.009  26.021  1.00  0.00     0.013 A 
ATOM     23  C   UNL A   1      33.494  22.103  25.594  1.00  0.00     0.013 A 
ATOM     24  C   UNL A   1      36.043  23.238  25.711  1.00  0.00     0.061 A 
ATOM     25  C   UNL A   1      34.621  21.330  25.305  1.00  0.00     0.061 A 
ATOM     26  C   UNL A   1      35.899  21.902  25.321  1.00  0.00     0.152 A 
BRANCH  26  27
ATOM     27  S   UNL A   1      37.308  20.975  24.664  1.00  0.00    -0.018 S 
ATOM     28  C   UNL A   1      38.609  21.597  25.749  1.00  0.00     0.346 C 
ATOM     29  O   UNL A   1      37.067  19.460  25.000  1.00  0.00    -0.612 OA
ENDBRANCH  26  27
ENDBRANCH  15  21
ENDBRANCH   8   9
ENDBRANCH   5   8
ENDBRANCH   3   4
ENDBRANCH   2   3
ENDBRANCH   1   2
BRANCH   1  30
ATOM     30  C   UNL A   1      33.150  27.923  26.548  1.00  0.00     0.002 C 
BRANCH  30  31
ATOM     31  C   UNL A   1      33.528  28.947  27.618  1.00  0.00     0.021 C 
BRANCH  31  32
ATOM     32  C   UNL A   1      34.370  30.115  27.118  1.00  0.00     0.116 C 
BRANCH  32  33
ATOM     33  N   UNL A   1      34.154  31.331  27.889  1.00  0.00    -0.352 N 
ATOM     34  C   UNL A   1      34.882  31.829  28.944  1.00  0.00     0.251 C 
ATOM     35  H   UNL A   1      33.378  31.873  27.616  1.00  0.00     0.163 HD
ATOM     36  O   UNL A   1      34.468  32.792  29.581  1.00  0.00    -0.269 OA
BRANCH  34  37
ATOM     37  C   UNL A   1      36.151  31.172  29.328  1.00  0.00     0.039 A 
ATOM     38  C   UNL A   1      36.141  30.003  30.092  1.00  0.00     0.014 A 
ATOM     39  C   UNL A   1      37.364  31.752  28.945  1.00  0.00     0.014 A 
ATOM     40  C   UNL A   1      37.335  29.510  30.610  1.00  0.00     0.010 A 
ATOM     41  C   UNL A   1      38.568  31.207  29.403  1.00  0.00     0.010 A 
ATOM     42  C   UNL A   1      38.561  30.110  30.281  1.00  0.00    -0.014 A 
BRANCH  42  43
ATOM     43  C   UNL A   1      39.818  29.577  30.869  1.00  0.00     0.031 A 
ATOM     44  C   UNL A   1      40.566  28.455  30.200  1.00  0.00     0.074 A 
ATOM     45  C   UNL A   1      40.318  30.150  31.981  1.00  0.00     0.049 A 
ATOM     46  N   UNL A   1      41.694  27.896  30.558  1.00  0.00    -0.248 NA
ATOM     47  C   UNL A   1      39.981  27.883  28.975  1.00  0.00     0.031 C 
ATOM     48  C   UNL A   1      39.692  31.255  32.710  1.00  0.00     0.029 A 
ATOM     49  N   UNL A   1      41.476  29.908  32.676  1.00  0.00    -0.354 N 
ATOM     50  C   UNL A   1      41.946  26.903  29.617  1.00  0.00     0.074 A 
ATOM     51  C   UNL A   1      40.841  26.916  28.684  1.00  0.00     0.031 C 
ATOM     52  C   UNL A   1      40.497  31.631  33.713  1.00  0.00     0.029 A 
ATOM     53  C   UNL A   1      41.665  30.756  33.742  1.00  0.00     0.049 A 
ATOM     54  H   UNL A   1      42.110  29.195  32.436  1.00  0.00     0.167 HD
ATOM     55  C   UNL A   1      43.008  26.069  29.533  1.00  0.00     0.031 A 
ATOM     56  C   UNL A   1      42.659  30.825  34.651  1.00  0.00     0.031 A 
ATOM     57  C   UNL A   1      44.116  26.075  30.452  1.00  0.00     0.049 A 
ATOM     58  C   UNL A   1      43.810  29.866  34.556  1.00  0.00     0.074 A 
ATOM     59  C   UNL A   1      45.249  25.279  30.428  1.00  0.00     0.029 A 
ATOM     60  N   UNL A   1      44.239  26.912  31.549  1.00  0.00    -0.354 N 
ATOM     61  N   UNL A   1      44.030  28.941  33.653  1.00  0.00    -0.248 NA
ATOM     62  C   UNL A   1      44.844  29.955  35.595  1.00  0.00     0.031 C 
ATOM     63  C   UNL A   1      46.028  25.594  31.541  1.00  0.00     0.029 A 
ATOM     64  C   UNL A   1      45.416  26.634  32.224  1.00  0.00     0.049 A 
ATOM     65  H   UNL A   1      43.587  27.602  31.810  1.00  0.00     0.167 HD
ATOM     66  C   UNL A   1      45.229  28.339  34.013  1.00  0.00     0.074 A 
ATOM     67  C   UNL A   1      45.700  29.019  35.202  1.00  0.00     0.031 C 
ATOM     68  C   UNL A   1      45.874  27.310  33.412  1.00  0.00     0.031 A 
BRANCH  55  69
ATOM     69  C   UNL A   1      43.050  25.067  28.408  1.00  0.00    -0.014 A 
ATOM     70  C   UNL A   1      42.660  23.736  28.647  1.00  0.00     0.010 A 
ATOM     71  C   UNL A   1      43.603  25.407  27.161  1.00  0.00     0.010 A 
ATOM     72  C   UNL A   1      42.856  22.754  27.671  1.00  0.00     0.020 A 
ATOM     73  C   UNL A   1      43.779  24.432  26.175  1.00  0.00     0.020 A 
ATOM     74  C   UNL A   1      43.426  23.107  26.446  1.00  0.00     0.054 A 
BRANCH  74  75
ATOM     75  S   UNL A   1      43.709  21.814  25.204  1.00  0.00     0.124 S 
ATOM     76  O   UNL A   1      43.704  22.574  23.960  1.00  0.00    -0.237 OA
ATOM     77  O   UNL A   1      45.003  21.264  25.605  1.00  0.00    -0.237 OA
ATOM     78  O   UNL A   1      42.576  20.909  25.392  1.00  0.00    -0.744 OA
ENDBRANCH  74  75
ENDBRANCH  55  69
BRANCH  56  79
ATOM     79  C   UNL A   1      42.585  31.859  35.718  1.00  0.00    -0.014 A 
ATOM     80  C   UNL A   1      41.896  31.591  36.916  1.00  0.00     0.010 A 
ATOM     81  C   UNL A   1      43.107  33.145  35.502  1.00  0.00     0.010 A 
ATOM     82  C   UNL A   1      41.669  32.606  37.847  1.00  0.00     0.020 A 
ATOM     83  C   UNL A   1      42.907  34.158  36.447  1.00  0.00     0.020 A 
ATOM     84  C   UNL A   1      42.160  33.889  37.597  1.00  0.00     0.054 A 
BRANCH  84  85
ATOM     85  S   UNL A   1      41.794  35.212  38.783  1.00  0.00     0.124 S 
ATOM     86  O   UNL A   1      42.454  36.358  38.161  1.00  0.00    -0.237 OA
ATOM     87  O   UNL A   1      40.335  35.251  38.784  1.00  0.00    -0.237 OA
ATOM     88  O   UNL A   1      42.403  34.735  40.021  1.00  0.00    -0.744 OA
ENDBRANCH  84  85
ENDBRANCH  56  79
BRANCH  68  89
ATOM     89  C   UNL A   1      47.163  26.826  34.019  1.00  0.00    -0.014 A 
ATOM     90  C   UNL A   1      48.391  27.308  33.527  1.00  0.00     0.010 A 
ATOM     91  C   UNL A   1      47.162  25.792  34.972  1.00  0.00     0.010 A 
ATOM     92  C   UNL A   1      49.595  26.738  33.947  1.00  0.00     0.020 A 
ATOM     93  C   UNL A   1      48.367  25.237  35.413  1.00  0.00     0.020 A 
ATOM     94  C   UNL A   1      49.574  25.696  34.878  1.00  0.00     0.054 A 
BRANCH  94  95
ATOM     95  S   UNL A   1      51.143  24.937  35.381  1.00  0.00     0.124 S 
ATOM     96  O   UNL A   1      51.948  25.065  34.170  1.00  0.00    -0.237 OA
ATOM     97  O   UNL A   1      51.560  25.774  36.505  1.00  0.00    -0.237 OA
ATOM     98  O   UNL A   1      50.764  23.572  35.739  1.00  0.00    -0.744 OA
ENDBRANCH  94  95
ENDBRANCH  68  89
ENDBRANCH  42  43
ENDBRANCH  34  37
ENDBRANCH  32  33
ENDBRANCH  31  32
ENDBRANCH  30  31
ENDBRANCH   1  30
TORSDOF 19
ENDMDL
MODEL 3
REMARK VINA RESULT:     -11.5      1.766      8.133
REMARK SMILES CC1=C(CC(=O)NCCCCCCNC(=O)c2ccc(-c3c4nc(c(-c5ccc(S(=O)(=O)[O-])cc5)c5ccc([nH]5)c(-c5ccc(S(=O)(=O)[O-])cc5)c5nc(c(-c6ccc(S(=O)(=O)[O-])cc6)c6ccc3[nH]6)C=C5)C=C4)cc2)c2cc(F)ccc2/C1=C\c1ccc([S@@+](C)[O-])cc1
REMARK SMILES IDX 10 1 9 2 8 3 7 4 5 5 6 6 4 8 3 9 1 10 2 11 84 12 77 13 83 14
REMARK SMILES IDX 85 15 78 16 82 17 79 18 81 19 80 20 86 21 87 22 94 23 88 24
REMARK SMILES IDX 93 25 89 26 90 27 91 28 92 29 11 30 12 31 13 32 14 33 15 34
REMARK SMILES IDX 16 36 17 37 18 38 76 39 19 40 75 41 20 42 21 43 22 44 69 45
REMARK SMILES IDX 23 46 74 47 68 48 70 49 24 50 73 51 67 52 66 53 25 55 55 56
REMARK SMILES IDX 36 57 54 58 37 59 40 60 53 61 71 62 38 63 39 64 52 66 72 67
REMARK SMILES IDX 41 68 26 69 27 70 35 71 28 72 34 73 29 74 30 75 31 76 32 77
REMARK SMILES IDX 33 78 56 79 57 80 65 81 58 82 64 83 59 84 60 85 61 86 62 87
REMARK SMILES IDX 63 88 42 89 43 90 51 91 44 92 50 93 45 94 46 95 47 96 48 97
REMARK SMILES IDX 49 98
REMARK H PARENT 7 7 14 35 70 54 40 65
REMARK Flexibility Score: inf
ROOT
ATOM      1  C   UNL A   1      36.110  23.729  25.542  1.00  0.00     0.002 C 
ENDROOT
BRANCH   1   2
ATOM      2  C   UNL A   1      36.150  22.730  24.377  1.00  0.00     0.021 C 
BRANCH   2   3
ATOM      3  C   UNL A   1      35.506  21.379  24.689  1.00  0.00     0.116 C 
BRANCH   3   4
ATOM      4  N   UNL A   1      34.935  21.361  26.020  1.00  0.00    -0.356 N 
ATOM      5  C   UNL A   1      33.625  21.426  26.392  1.00  0.00     0.224 C 
ATOM      6  O   UNL A   1      33.361  21.479  27.596  1.00  0.00    -0.275 OA
ATOM      7  H   UNL A   1      35.583  21.293  26.759  1.00  0.00     0.163 HD
BRANCH   5   8
ATOM      8  C   UNL A   1      32.518  21.381  25.340  1.00  0.00     0.136 C 
BRANCH   8   9
ATOM      9  C   UNL A   1      32.026  22.724  24.906  1.00  0.00    -0.027 C 
ATOM     10  C   UNL A   1      30.949  23.604  27.057  1.00  0.00     0.045 C 
ATOM     11  C   UNL A   1      31.348  23.658  25.617  1.00  0.00    -0.039 C 
ATOM     12  C   UNL A   1      31.049  24.816  24.759  1.00  0.00    -0.014 C 
ATOM     13  C   UNL A   1      32.271  23.276  23.561  1.00  0.00    -0.011 A 
ATOM     14  C   UNL A   1      31.728  24.572  23.471  1.00  0.00    -0.010 A 
ATOM     15  C   UNL A   1      30.249  25.840  25.117  1.00  0.00     0.017 C 
ATOM     16  C   UNL A   1      32.950  22.718  22.485  1.00  0.00     0.048 A 
ATOM     17  C   UNL A   1      31.918  25.338  22.327  1.00  0.00     0.012 A 
ATOM     18  C   UNL A   1      33.084  23.473  21.325  1.00  0.00     0.123 A 
ATOM     19  C   UNL A   1      32.587  24.774  21.240  1.00  0.00     0.040 A 
ATOM     20  F   UNL A   1      33.721  22.950  20.268  1.00  0.00    -0.207 F 
BRANCH  15  21
ATOM     21  C   UNL A   1      29.900  26.980  24.266  1.00  0.00    -0.025 A 
ATOM     22  C   UNL A   1      30.718  28.114  24.214  1.00  0.00     0.013 A 
ATOM     23  C   UNL A   1      28.682  26.977  23.583  1.00  0.00     0.013 A 
ATOM     24  C   UNL A   1      30.259  29.282  23.595  1.00  0.00     0.061 A 
ATOM     25  C   UNL A   1      28.234  28.138  22.949  1.00  0.00     0.061 A 
ATOM     26  C   UNL A   1      28.999  29.310  22.986  1.00  0.00     0.152 A 
BRANCH  26  27
ATOM     27  S   UNL A   1      28.281  30.872  22.420  1.00  0.00    -0.018 S 
ATOM     28  C   UNL A   1      27.281  31.283  23.864  1.00  0.00     0.346 C 
ATOM     29  O   UNL A   1      29.452  31.914  22.318  1.00  0.00    -0.612 OA
ENDBRANCH  26  27
ENDBRANCH  15  21
ENDBRANCH   8   9
ENDBRANCH   5   8
ENDBRANCH   3   4
ENDBRANCH   2   3
ENDBRANCH   1   2
BRANCH   1  30
ATOM     30  C   UNL A   1      37.476  24.127  26.116  1.00  0.00     0.002 C 
BRANCH  30  31
ATOM     31  C   UNL A   1      38.539  23.029  26.095  1.00  0.00     0.021 C 
BRANCH  31  32
ATOM     32  C   UNL A   1      39.748  23.291  26.987  1.00  0.00     0.116 C 
BRANCH  32  33
ATOM     33  N   UNL A   1      40.921  23.707  26.232  1.00  0.00    -0.352 N 
ATOM     34  C   UNL A   1      41.600  24.902  26.274  1.00  0.00     0.251 C 
ATOM     35  H   UNL A   1      41.278  23.038  25.603  1.00  0.00     0.163 HD
ATOM     36  O   UNL A   1      42.480  25.142  25.454  1.00  0.00    -0.269 OA
BRANCH  34  37
ATOM     37  C   UNL A   1      41.237  25.910  27.294  1.00  0.00     0.039 A 
ATOM     38  C   UNL A   1      41.944  27.112  27.386  1.00  0.00     0.014 A 
ATOM     39  C   UNL A   1      40.198  25.635  28.189  1.00  0.00     0.014 A 
ATOM     40  C   UNL A   1      41.724  27.958  28.469  1.00  0.00     0.010 A 
ATOM     41  C   UNL A   1      39.927  26.527  29.232  1.00  0.00     0.010 A 
ATOM     42  C   UNL A   1      40.720  27.672  29.409  1.00  0.00    -0.014 A 
BRANCH  42  43
ATOM     43  C   UNL A   1      40.525  28.581  30.569  1.00  0.00     0.031 A 
ATOM     44  C   UNL A   1      41.449  28.524  31.756  1.00  0.00     0.074 A 
ATOM     45  C   UNL A   1      39.544  29.504  30.523  1.00  0.00     0.049 A 
ATOM     46  N   UNL A   1      41.443  29.268  32.834  1.00  0.00    -0.248 NA
ATOM     47  C   UNL A   1      42.516  27.509  31.739  1.00  0.00     0.031 C 
ATOM     48  C   UNL A   1      38.596  29.666  29.418  1.00  0.00     0.029 A 
ATOM     49  N   UNL A   1      39.198  30.495  31.406  1.00  0.00    -0.354 N 
ATOM     50  C   UNL A   1      42.488  28.805  33.625  1.00  0.00     0.074 A 
ATOM     51  C   UNL A   1      43.094  27.697  32.918  1.00  0.00     0.031 C 
ATOM     52  C   UNL A   1      37.814  30.727  29.663  1.00  0.00     0.029 A 
ATOM     53  C   UNL A   1      38.160  31.283  30.969  1.00  0.00     0.049 A 
ATOM     54  H   UNL A   1      39.649  30.629  32.271  1.00  0.00     0.167 HD
ATOM     55  C   UNL A   1      42.910  29.269  34.823  1.00  0.00     0.031 A 
ATOM     56  C   UNL A   1      37.542  32.333  31.549  1.00  0.00     0.031 A 
ATOM     57  C   UNL A   1      42.317  30.386  35.513  1.00  0.00     0.049 A 
ATOM     58  C   UNL A   1      38.008  32.809  32.894  1.00  0.00     0.074 A 
ATOM     59  C   UNL A   1      42.698  30.941  36.723  1.00  0.00     0.029 A 
ATOM     60  N   UNL A   1      41.232  31.119  35.060  1.00  0.00    -0.354 N 
ATOM     61  N   UNL A   1      39.003  32.359  33.619  1.00  0.00    -0.248 NA
ATOM     62  C   UNL A   1      37.273  33.927  33.500  1.00  0.00     0.031 C 
ATOM     63  C   UNL A   1      41.809  31.972  37.030  1.00  0.00     0.029 A 
ATOM     64  C   UNL A   1      40.913  32.104  35.980  1.00  0.00     0.049 A 
ATOM     65  H   UNL A   1      40.758  30.962  34.212  1.00  0.00     0.167 HD
ATOM     66  C   UNL A   1      39.016  33.141  34.768  1.00  0.00     0.074 A 
ATOM     67  C   UNL A   1      37.946  34.108  34.631  1.00  0.00     0.031 C 
ATOM     68  C   UNL A   1      39.841  33.057  35.840  1.00  0.00     0.031 A 
BRANCH  55  69
ATOM     69  C   UNL A   1      44.078  28.588  35.489  1.00  0.00    -0.014 A 
ATOM     70  C   UNL A   1      43.845  27.586  36.449  1.00  0.00     0.010 A 
ATOM     71  C   UNL A   1      45.393  29.035  35.271  1.00  0.00     0.010 A 
ATOM     72  C   UNL A   1      44.900  27.067  37.204  1.00  0.00     0.020 A 
ATOM     73  C   UNL A   1      46.455  28.501  36.007  1.00  0.00     0.020 A 
ATOM     74  C   UNL A   1      46.197  27.537  36.986  1.00  0.00     0.054 A 
BRANCH  74  75
ATOM     75  S   UNL A   1      47.551  26.880  38.000  1.00  0.00     0.124 S 
ATOM     76  O   UNL A   1      48.006  25.743  37.209  1.00  0.00    -0.237 OA
ATOM     77  O   UNL A   1      48.474  28.012  38.071  1.00  0.00    -0.237 OA
ATOM     78  O   UNL A   1      46.897  26.545  39.264  1.00  0.00    -0.744 OA
ENDBRANCH  74  75
ENDBRANCH  55  69
BRANCH  56  79
ATOM     79  C   UNL A   1      36.419  32.992  30.829  1.00  0.00    -0.014 A 
ATOM     80  C   UNL A   1      36.661  33.695  29.634  1.00  0.00     0.010 A 
ATOM     81  C   UNL A   1      35.128  33.011  31.384  1.00  0.00     0.010 A 
ATOM     82  C   UNL A   1      35.655  34.462  29.045  1.00  0.00     0.020 A 
ATOM     83  C   UNL A   1      34.108  33.755  30.781  1.00  0.00     0.020 A 
ATOM     84  C   UNL A   1      34.389  34.503  29.634  1.00  0.00     0.054 A 
BRANCH  84  85
ATOM     85  S   UNL A   1      33.114  35.561  28.895  1.00  0.00     0.124 S 
ATOM     86  O   UNL A   1      33.924  36.536  28.168  1.00  0.00    -0.237 OA
ATOM     87  O   UNL A   1      32.360  34.626  28.065  1.00  0.00    -0.237 OA
ATOM     88  O   UNL A   1      32.394  36.084  30.052  1.00  0.00    -0.744 OA
ENDBRANCH  84  85
ENDBRANCH  56  79
BRANCH  68  89
ATOM     89  C   UNL A   1      39.632  34.022  36.976  1.00  0.00    -0.014 A 
ATOM     90  C   UNL A   1      40.338  35.240  36.996  1.00  0.00     0.010 A 
ATOM     91  C   UNL A   1      38.853  33.660  38.088  1.00  0.00     0.010 A 
ATOM     92  C   UNL A   1      40.299  36.062  38.125  1.00  0.00     0.020 A 
ATOM     93  C   UNL A   1      38.793  34.493  39.210  1.00  0.00     0.020 A 
ATOM     94  C   UNL A   1      39.538  35.675  39.230  1.00  0.00     0.054 A 
BRANCH  94  95
ATOM     95  S   UNL A   1      39.533  36.732  40.705  1.00  0.00     0.124 S 
ATOM     96  O   UNL A   1      39.266  38.050  40.137  1.00  0.00    -0.237 OA
ATOM     97  O   UNL A   1      38.452  36.161  41.506  1.00  0.00    -0.237 OA
ATOM     98  O   UNL A   1      40.872  36.549  41.261  1.00  0.00    -0.744 OA
ENDBRANCH  94  95
ENDBRANCH  68  89
ENDBRANCH  42  43
ENDBRANCH  34  37
ENDBRANCH  32  33
ENDBRANCH  31  32
ENDBRANCH  30  31
ENDBRANCH   1  30
TORSDOF 19
ENDMDL
