MODEL 1
REMARK VINA RESULT:      -9.9      0.000      0.000
REMARK SMILES CCCC[C@H](C(=O)NCCCCCCNC(=O)c1ccc(-c2c3nc(c(-c4ccc(S(=O)(=O)[O-])cc4)c4ccc([nH]4)c(-c4ccc(S(=O)(=O)[O-])cc4)c4nc(c(-c5ccc(S(=O)(=O)[O-])cc5)c5ccc2[nH]5)C=C4)C=C3)cc1)[C@H](O)c1ccc(C(F)(F)F)cc1
REMARK SMILES IDX 11 1 10 2 9 3 8 4 6 5 7 6 5 8 4 9 3 10 2 11 1 12 78 13 80 14
REMARK SMILES IDX 81 15 89 16 82 17 88 18 83 19 84 20 85 21 86 22 87 23 79 24
REMARK SMILES IDX 12 26 13 27 14 28 15 29 16 30 17 32 18 33 19 34 77 35 20 36
REMARK SMILES IDX 76 37 21 38 22 39 23 40 70 41 24 42 75 43 69 44 71 45 25 46
REMARK SMILES IDX 74 47 68 48 67 49 26 51 56 52 37 53 55 54 38 55 41 56 54 57
REMARK SMILES IDX 72 58 39 59 40 60 53 62 73 63 42 64 27 65 28 66 36 67 29 68
REMARK SMILES IDX 35 69 30 70 31 71 32 72 33 73 34 74 57 75 58 76 66 77 59 78
REMARK SMILES IDX 65 79 60 80 61 81 62 82 63 83 64 84 43 85 44 86 52 87 45 88
REMARK SMILES IDX 51 89 46 90 47 91 48 92 49 93 50 94
REMARK H PARENT 8 7 79 25 15 31 71 50 41 61
REMARK Flexibility Score: inf
ROOT
ATOM      1  C   UNL A   1      33.660  21.621  26.387  1.00  0.00     0.002 C 
ENDROOT
BRANCH   1   2
ATOM      2  C   UNL A   1      33.022  20.915  25.184  1.00  0.00     0.021 C 
BRANCH   2   3
ATOM      3  C   UNL A   1      32.156  21.803  24.297  1.00  0.00     0.116 C 
BRANCH   3   4
ATOM      4  N   UNL A   1      32.886  22.367  23.174  1.00  0.00    -0.356 N 
ATOM      5  C   UNL A   1      33.081  23.665  22.816  1.00  0.00     0.226 C 
ATOM      6  O   UNL A   1      33.918  23.900  21.940  1.00  0.00    -0.275 OA
ATOM      7  H   UNL A   1      33.305  21.704  22.579  1.00  0.00     0.163 HD
BRANCH   5   8
ATOM      8  C   UNL A   1      32.298  24.779  23.486  1.00  0.00     0.111 C 
BRANCH   8   9
ATOM      9  C   UNL A   1      33.327  25.820  24.010  1.00  0.00     0.016 C 
BRANCH   9  10
ATOM     10  C   UNL A   1      33.562  25.818  25.528  1.00  0.00     0.001 C 
BRANCH  10  11
ATOM     11  C   UNL A   1      32.307  25.779  26.406  1.00  0.00    -0.003 C 
ATOM     12  C   UNL A   1      31.471  27.046  26.343  1.00  0.00     0.004 C 
ENDBRANCH  10  11
ENDBRANCH   9  10
ENDBRANCH   8   9
BRANCH   8  13
ATOM     13  C   UNL A   1      31.175  25.459  22.651  1.00  0.00     0.157 C 
BRANCH  13  14
ATOM     14  C   UNL A   1      30.528  26.818  22.909  1.00  0.00    -0.019 A 
ATOM     15  C   UNL A   1      29.204  27.030  23.299  1.00  0.00     0.007 A 
ATOM     16  C   UNL A   1      31.284  27.975  22.607  1.00  0.00     0.007 A 
ATOM     17  C   UNL A   1      28.676  28.322  23.444  1.00  0.00     0.013 A 
ATOM     18  C   UNL A   1      30.761  29.267  22.731  1.00  0.00     0.013 A 
ATOM     19  C   UNL A   1      29.448  29.454  23.160  1.00  0.00     0.056 A 
BRANCH  19  20
ATOM     20  C   UNL A   1      28.853  30.831  23.303  1.00  0.00     0.416 C 
ATOM     21  F   UNL A   1      28.894  31.540  22.139  1.00  0.00    -0.166 F 
ATOM     22  F   UNL A   1      27.542  30.801  23.672  1.00  0.00    -0.166 F 
ATOM     23  F   UNL A   1      29.483  31.608  24.229  1.00  0.00    -0.166 F 
ENDBRANCH  19  20
ENDBRANCH  13  14
BRANCH  13  24
ATOM     24  O   UNL A   1      31.686  25.522  21.298  1.00  0.00    -0.388 OA
ATOM     25  H   UNL A   1      31.745  24.625  20.933  1.00  0.00     0.211 HD
ENDBRANCH  13  24
ENDBRANCH   8  13
ENDBRANCH   5   8
ENDBRANCH   3   4
ENDBRANCH   2   3
ENDBRANCH   1   2
BRANCH   1  26
ATOM     26  C   UNL A   1      35.167  21.883  26.291  1.00  0.00     0.002 C 
BRANCH  26  27
ATOM     27  C   UNL A   1      35.597  22.916  25.247  1.00  0.00     0.021 C 
BRANCH  27  28
ATOM     28  C   UNL A   1      36.922  23.613  25.532  1.00  0.00     0.116 C 
BRANCH  28  29
ATOM     29  N   UNL A   1      37.980  22.677  25.875  1.00  0.00    -0.352 N 
ATOM     30  C   UNL A   1      39.195  22.915  26.474  1.00  0.00     0.251 C 
ATOM     31  H   UNL A   1      37.800  21.736  25.646  1.00  0.00     0.163 HD
ATOM     32  O   UNL A   1      40.037  22.026  26.525  1.00  0.00    -0.269 OA
BRANCH  30  33
ATOM     33  C   UNL A   1      39.492  24.254  27.032  1.00  0.00     0.039 A 
ATOM     34  C   UNL A   1      39.108  24.543  28.344  1.00  0.00     0.014 A 
ATOM     35  C   UNL A   1      40.151  25.219  26.267  1.00  0.00     0.014 A 
ATOM     36  C   UNL A   1      39.448  25.775  28.911  1.00  0.00     0.010 A 
ATOM     37  C   UNL A   1      40.556  26.413  26.857  1.00  0.00     0.010 A 
ATOM     38  C   UNL A   1      40.210  26.705  28.185  1.00  0.00    -0.014 A 
BRANCH  38  39
ATOM     39  C   UNL A   1      40.661  27.985  28.793  1.00  0.00     0.031 A 
ATOM     40  C   UNL A   1      42.049  28.102  29.364  1.00  0.00     0.074 A 
ATOM     41  C   UNL A   1      39.801  29.017  28.897  1.00  0.00     0.049 A 
ATOM     42  N   UNL A   1      42.594  29.100  30.011  1.00  0.00    -0.248 NA
ATOM     43  C   UNL A   1      42.931  26.934  29.210  1.00  0.00     0.031 C 
ATOM     44  C   UNL A   1      38.420  29.024  28.407  1.00  0.00     0.029 A 
ATOM     45  N   UNL A   1      39.957  30.260  29.460  1.00  0.00    -0.354 N 
ATOM     46  C   UNL A   1      43.872  28.677  30.354  1.00  0.00     0.074 A 
ATOM     47  C   UNL A   1      44.003  27.313  29.890  1.00  0.00     0.031 C 
ATOM     48  C   UNL A   1      37.866  30.219  28.668  1.00  0.00     0.029 A 
ATOM     49  C   UNL A   1      38.829  31.046  29.387  1.00  0.00     0.049 A 
ATOM     50  H   UNL A   1      40.796  30.562  29.875  1.00  0.00     0.167 HD
ATOM     51  C   UNL A   1      44.855  29.365  30.983  1.00  0.00     0.031 A 
ATOM     52  C   UNL A   1      38.590  32.286  29.857  1.00  0.00     0.031 A 
ATOM     53  C   UNL A   1      44.721  30.723  31.442  1.00  0.00     0.049 A 
ATOM     54  C   UNL A   1      39.685  33.018  30.586  1.00  0.00     0.074 A 
ATOM     55  C   UNL A   1      45.673  31.524  32.049  1.00  0.00     0.029 A 
ATOM     56  N   UNL A   1      43.563  31.480  31.350  1.00  0.00    -0.354 N 
ATOM     57  N   UNL A   1      40.906  32.622  30.851  1.00  0.00    -0.248 NA
ATOM     58  C   UNL A   1      39.371  34.369  31.072  1.00  0.00     0.031 C 
ATOM     59  C   UNL A   1      45.073  32.742  32.379  1.00  0.00     0.029 A 
ATOM     60  C   UNL A   1      43.767  32.728  31.915  1.00  0.00     0.049 A 
ATOM     61  H   UNL A   1      42.719  31.175  30.944  1.00  0.00     0.167 HD
ATOM     62  C   UNL A   1      41.518  33.686  31.504  1.00  0.00     0.074 A 
ATOM     63  C   UNL A   1      40.534  34.747  31.586  1.00  0.00     0.031 C 
ATOM     64  C   UNL A   1      42.782  33.778  31.987  1.00  0.00     0.031 A 
BRANCH  51  65
ATOM     65  C   UNL A   1      46.162  28.653  31.223  1.00  0.00    -0.014 A 
ATOM     66  C   UNL A   1      47.166  28.620  30.237  1.00  0.00     0.010 A 
ATOM     67  C   UNL A   1      46.404  28.035  32.463  1.00  0.00     0.010 A 
ATOM     68  C   UNL A   1      48.366  27.942  30.470  1.00  0.00     0.020 A 
ATOM     69  C   UNL A   1      47.616  27.384  32.713  1.00  0.00     0.020 A 
ATOM     70  C   UNL A   1      48.581  27.324  31.706  1.00  0.00     0.054 A 
BRANCH  70  71
ATOM     71  S   UNL A   1      50.152  26.461  31.982  1.00  0.00     0.124 S 
ATOM     72  O   UNL A   1      51.124  27.529  31.762  1.00  0.00    -0.237 OA
ATOM     73  O   UNL A   1      50.026  26.002  33.363  1.00  0.00    -0.237 OA
ATOM     74  O   UNL A   1      50.150  25.405  30.974  1.00  0.00    -0.744 OA
ENDBRANCH  70  71
ENDBRANCH  51  65
BRANCH  52  75
ATOM     75  C   UNL A   1      37.259  32.919  29.644  1.00  0.00    -0.014 A 
ATOM     76  C   UNL A   1      36.957  33.554  28.426  1.00  0.00     0.010 A 
ATOM     77  C   UNL A   1      36.277  32.875  30.651  1.00  0.00     0.010 A 
ATOM     78  C   UNL A   1      35.707  34.147  28.225  1.00  0.00     0.020 A 
ATOM     79  C   UNL A   1      35.015  33.439  30.443  1.00  0.00     0.020 A 
ATOM     80  C   UNL A   1      34.742  34.082  29.235  1.00  0.00     0.054 A 
BRANCH  80  81
ATOM     81  S   UNL A   1      33.108  34.811  28.930  1.00  0.00     0.124 S 
ATOM     82  O   UNL A   1      32.517  34.798  30.264  1.00  0.00    -0.237 OA
ATOM     83  O   UNL A   1      33.447  36.129  28.400  1.00  0.00    -0.237 OA
ATOM     84  O   UNL A   1      32.501  33.896  27.966  1.00  0.00    -0.744 OA
ENDBRANCH  80  81
ENDBRANCH  52  75
BRANCH  64  85
ATOM     85  C   UNL A   1      43.201  35.083  32.612  1.00  0.00    -0.014 A 
ATOM     86  C   UNL A   1      43.884  36.064  31.874  1.00  0.00     0.010 A 
ATOM     87  C   UNL A   1      42.833  35.359  33.943  1.00  0.00     0.010 A 
ATOM     88  C   UNL A   1      44.210  37.291  32.461  1.00  0.00     0.020 A 
ATOM     89  C   UNL A   1      43.130  36.594  34.524  1.00  0.00     0.020 A 
ATOM     90  C   UNL A   1      43.825  37.550  33.781  1.00  0.00     0.054 A 
BRANCH  90  91
ATOM     91  S   UNL A   1      44.201  39.174  34.496  1.00  0.00     0.124 S 
ATOM     92  O   UNL A   1      45.484  39.490  33.876  1.00  0.00    -0.237 OA
ATOM     93  O   UNL A   1      43.071  39.987  34.052  1.00  0.00    -0.237 OA
ATOM     94  O   UNL A   1      44.250  38.918  35.934  1.00  0.00    -0.744 OA
ENDBRANCH  90  91
ENDBRANCH  64  85
ENDBRANCH  38  39
ENDBRANCH  30  33
ENDBRANCH  28  29
ENDBRANCH  27  28
ENDBRANCH  26  27
ENDBRANCH   1  26
TORSDOF 23
ENDMDL
MODEL 2
REMARK VINA RESULT:      -9.7      1.433      2.276
REMARK SMILES CCCC[C@H](C(=O)NCCCCCCNC(=O)c1ccc(-c2c3nc(c(-c4ccc(S(=O)(=O)[O-])cc4)c4ccc([nH]4)c(-c4ccc(S(=O)(=O)[O-])cc4)c4nc(c(-c5ccc(S(=O)(=O)[O-])cc5)c5ccc2[nH]5)C=C4)C=C3)cc1)[C@H](O)c1ccc(C(F)(F)F)cc1
REMARK SMILES IDX 11 1 10 2 9 3 8 4 6 5 7 6 5 8 4 9 3 10 2 11 1 12 78 13 80 14
REMARK SMILES IDX 81 15 89 16 82 17 88 18 83 19 84 20 85 21 86 22 87 23 79 24
REMARK SMILES IDX 12 26 13 27 14 28 15 29 16 30 17 32 18 33 19 34 77 35 20 36
REMARK SMILES IDX 76 37 21 38 22 39 23 40 70 41 24 42 75 43 69 44 71 45 25 46
REMARK SMILES IDX 74 47 68 48 67 49 26 51 56 52 37 53 55 54 38 55 41 56 54 57
REMARK SMILES IDX 72 58 39 59 40 60 53 62 73 63 42 64 27 65 28 66 36 67 29 68
REMARK SMILES IDX 35 69 30 70 31 71 32 72 33 73 34 74 57 75 58 76 66 77 59 78
REMARK SMILES IDX 65 79 60 80 61 81 62 82 63 83 64 84 43 85 44 86 52 87 45 88
REMARK SMILES IDX 51 89 46 90 47 91 48 92 49 93 50 94
REMARK H PARENT 8 7 79 25 15 31 71 50 41 61
REMARK Flexibility Score: inf
ROOT
ATOM      1  C   UNL A   1      33.326  22.339  27.106  1.00  0.00     0.002 C 
ENDROOT
BRANCH   1   2
ATOM      2  C   UNL A   1      32.867  23.676  26.510  1.00  0.00     0.021 C 
BRANCH   2   3
ATOM      3  C   UNL A   1      31.652  23.593  25.593  1.00  0.00     0.116 C 
BRANCH   3   4
ATOM      4  N   UNL A   1      31.930  22.904  24.345  1.00  0.00    -0.356 N 
ATOM      5  C   UNL A   1      32.194  23.403  23.106  1.00  0.00     0.226 C 
ATOM      6  O   UNL A   1      32.610  22.619  22.248  1.00  0.00    -0.275 OA
ATOM      7  H   UNL A   1      31.925  21.922  24.405  1.00  0.00     0.163 HD
BRANCH   5   8
ATOM      8  C   UNL A   1      31.992  24.877  22.805  1.00  0.00     0.111 C 
BRANCH   8   9
ATOM      9  C   UNL A   1      30.796  25.367  23.670  1.00  0.00     0.016 C 
BRANCH   9  10
ATOM     10  C   UNL A   1      30.087  26.634  23.169  1.00  0.00     0.001 C 
BRANCH  10  11
ATOM     11  C   UNL A   1      28.738  26.955  23.820  1.00  0.00    -0.003 C 
ATOM     12  C   UNL A   1      28.012  28.129  23.185  1.00  0.00     0.004 C 
ENDBRANCH  10  11
ENDBRANCH   9  10
ENDBRANCH   8   9
BRANCH   8  13
ATOM     13  C   UNL A   1      33.228  25.809  22.962  1.00  0.00     0.157 C 
BRANCH  13  14
ATOM     14  C   UNL A   1      33.497  26.801  24.091  1.00  0.00    -0.019 A 
ATOM     15  C   UNL A   1      33.876  26.470  25.394  1.00  0.00     0.007 A 
ATOM     16  C   UNL A   1      33.219  28.167  23.848  1.00  0.00     0.007 A 
ATOM     17  C   UNL A   1      34.032  27.450  26.387  1.00  0.00     0.013 A 
ATOM     18  C   UNL A   1      33.354  29.148  24.837  1.00  0.00     0.013 A 
ATOM     19  C   UNL A   1      33.772  28.798  26.121  1.00  0.00     0.056 A 
BRANCH  19  20
ATOM     20  C   UNL A   1      33.926  29.829  27.208  1.00  0.00     0.416 C 
ATOM     21  F   UNL A   1      34.659  30.905  26.805  1.00  0.00    -0.166 F 
ATOM     22  F   UNL A   1      32.732  30.331  27.630  1.00  0.00    -0.166 F 
ATOM     23  F   UNL A   1      34.548  29.358  28.326  1.00  0.00    -0.166 F 
ENDBRANCH  19  20
ENDBRANCH  13  14
BRANCH  13  24
ATOM     24  O   UNL A   1      34.379  24.932  22.932  1.00  0.00    -0.388 OA
ATOM     25  H   UNL A   1      34.978  25.160  23.661  1.00  0.00     0.211 HD
ENDBRANCH  13  24
ENDBRANCH   8  13
ENDBRANCH   5   8
ENDBRANCH   3   4
ENDBRANCH   2   3
ENDBRANCH   1   2
BRANCH   1  26
ATOM     26  C   UNL A   1      34.681  21.816  26.617  1.00  0.00     0.002 C 
BRANCH  26  27
ATOM     27  C   UNL A   1      35.340  22.622  25.496  1.00  0.00     0.021 C 
BRANCH  27  28
ATOM     28  C   UNL A   1      36.598  23.384  25.898  1.00  0.00     0.116 C 
BRANCH  28  29
ATOM     29  N   UNL A   1      37.760  22.517  26.010  1.00  0.00    -0.352 N 
ATOM     30  C   UNL A   1      39.044  22.825  26.392  1.00  0.00     0.251 C 
ATOM     31  H   UNL A   1      37.604  21.573  25.778  1.00  0.00     0.163 HD
ATOM     32  O   UNL A   1      39.939  21.998  26.256  1.00  0.00    -0.269 OA
BRANCH  30  33
ATOM     33  C   UNL A   1      39.349  24.167  26.942  1.00  0.00     0.039 A 
ATOM     34  C   UNL A   1      38.967  24.465  28.252  1.00  0.00     0.014 A 
ATOM     35  C   UNL A   1      40.012  25.124  26.170  1.00  0.00     0.014 A 
ATOM     36  C   UNL A   1      39.313  25.698  28.811  1.00  0.00     0.010 A 
ATOM     37  C   UNL A   1      40.422  26.319  26.754  1.00  0.00     0.010 A 
ATOM     38  C   UNL A   1      40.079  26.621  28.080  1.00  0.00    -0.014 A 
BRANCH  38  39
ATOM     39  C   UNL A   1      40.537  27.902  28.679  1.00  0.00     0.031 A 
ATOM     40  C   UNL A   1      41.930  28.020  29.237  1.00  0.00     0.074 A 
ATOM     41  C   UNL A   1      39.678  28.935  28.789  1.00  0.00     0.049 A 
ATOM     42  N   UNL A   1      42.482  29.020  29.875  1.00  0.00    -0.248 NA
ATOM     43  C   UNL A   1      42.811  26.851  29.077  1.00  0.00     0.031 C 
ATOM     44  C   UNL A   1      38.292  28.941  28.313  1.00  0.00     0.029 A 
ATOM     45  N   UNL A   1      39.840  30.179  29.347  1.00  0.00    -0.354 N 
ATOM     46  C   UNL A   1      43.764  28.597  30.207  1.00  0.00     0.074 A 
ATOM     47  C   UNL A   1      43.889  27.232  29.745  1.00  0.00     0.031 C 
ATOM     48  C   UNL A   1      37.741  30.137  28.576  1.00  0.00     0.029 A 
ATOM     49  C   UNL A   1      38.712  30.965  29.283  1.00  0.00     0.049 A 
ATOM     50  H   UNL A   1      40.683  30.482  29.754  1.00  0.00     0.167 HD
ATOM     51  C   UNL A   1      44.753  29.287  30.824  1.00  0.00     0.031 A 
ATOM     52  C   UNL A   1      38.478  32.207  29.753  1.00  0.00     0.031 A 
ATOM     53  C   UNL A   1      44.624  30.646  31.281  1.00  0.00     0.049 A 
ATOM     54  C   UNL A   1      39.580  32.941  30.469  1.00  0.00     0.074 A 
ATOM     55  C   UNL A   1      45.582  31.447  31.876  1.00  0.00     0.029 A 
ATOM     56  N   UNL A   1      43.465  31.403  31.199  1.00  0.00    -0.354 N 
ATOM     57  N   UNL A   1      40.804  32.544  30.723  1.00  0.00    -0.248 NA
ATOM     58  C   UNL A   1      39.272  34.293  30.955  1.00  0.00     0.031 C 
ATOM     59  C   UNL A   1      44.986  32.667  32.209  1.00  0.00     0.029 A 
ATOM     60  C   UNL A   1      43.675  32.652  31.758  1.00  0.00     0.049 A 
ATOM     61  H   UNL A   1      42.617  31.098  30.802  1.00  0.00     0.167 HD
ATOM     62  C   UNL A   1      41.422  33.610  31.367  1.00  0.00     0.074 A 
ATOM     63  C   UNL A   1      40.440  34.672  31.456  1.00  0.00     0.031 C 
ATOM     64  C   UNL A   1      42.691  33.703  31.837  1.00  0.00     0.031 A 
BRANCH  51  65
ATOM     65  C   UNL A   1      46.062  28.574  31.053  1.00  0.00    -0.014 A 
ATOM     66  C   UNL A   1      47.102  28.638  30.107  1.00  0.00     0.010 A 
ATOM     67  C   UNL A   1      46.268  27.858  32.246  1.00  0.00     0.010 A 
ATOM     68  C   UNL A   1      48.303  27.959  30.327  1.00  0.00     0.020 A 
ATOM     69  C   UNL A   1      47.481  27.204  32.485  1.00  0.00     0.020 A 
ATOM     70  C   UNL A   1      48.483  27.243  31.514  1.00  0.00     0.054 A 
BRANCH  70  71
ATOM     71  S   UNL A   1      50.057  26.381  31.777  1.00  0.00     0.124 S 
ATOM     72  O   UNL A   1      50.955  27.119  30.892  1.00  0.00    -0.237 OA
ATOM     73  O   UNL A   1      50.290  26.569  33.207  1.00  0.00    -0.237 OA
ATOM     74  O   UNL A   1      49.773  25.007  31.370  1.00  0.00    -0.744 OA
ENDBRANCH  70  71
ENDBRANCH  51  65
BRANCH  52  75
ATOM     75  C   UNL A   1      37.145  32.839  29.551  1.00  0.00    -0.014 A 
ATOM     76  C   UNL A   1      36.147  32.732  30.536  1.00  0.00     0.010 A 
ATOM     77  C   UNL A   1      36.870  33.567  28.378  1.00  0.00     0.010 A 
ATOM     78  C   UNL A   1      34.896  33.326  30.346  1.00  0.00     0.020 A 
ATOM     79  C   UNL A   1      35.630  34.189  28.198  1.00  0.00     0.020 A 
ATOM     80  C   UNL A   1      34.647  34.055  29.179  1.00  0.00     0.054 A 
BRANCH  80  81
ATOM     81  S   UNL A   1      33.034  34.863  28.980  1.00  0.00     0.124 S 
ATOM     82  O   UNL A   1      32.509  34.833  30.342  1.00  0.00    -0.237 OA
ATOM     83  O   UNL A   1      33.405  36.182  28.473  1.00  0.00    -0.237 OA
ATOM     84  O   UNL A   1      32.340  34.007  28.021  1.00  0.00    -0.744 OA
ENDBRANCH  80  81
ENDBRANCH  52  75
BRANCH  64  85
ATOM     85  C   UNL A   1      43.117  35.010  32.454  1.00  0.00    -0.014 A 
ATOM     86  C   UNL A   1      43.637  36.055  31.673  1.00  0.00     0.010 A 
ATOM     87  C   UNL A   1      42.919  35.217  33.833  1.00  0.00     0.010 A 
ATOM     88  C   UNL A   1      43.970  37.280  32.262  1.00  0.00     0.020 A 
ATOM     89  C   UNL A   1      43.222  36.448  34.420  1.00  0.00     0.020 A 
ATOM     90  C   UNL A   1      43.754  37.470  33.631  1.00  0.00     0.054 A 
BRANCH  90  91
ATOM     91  S   UNL A   1      44.131  39.088  34.357  1.00  0.00     0.124 S 
ATOM     92  O   UNL A   1      44.111  38.793  35.786  1.00  0.00    -0.237 OA
ATOM     93  O   UNL A   1      45.445  39.391  33.795  1.00  0.00    -0.237 OA
ATOM     94  O   UNL A   1      43.045  39.944  33.882  1.00  0.00    -0.744 OA
ENDBRANCH  90  91
ENDBRANCH  64  85
ENDBRANCH  38  39
ENDBRANCH  30  33
ENDBRANCH  28  29
ENDBRANCH  27  28
ENDBRANCH  26  27
ENDBRANCH   1  26
TORSDOF 23
ENDMDL
MODEL 3
REMARK VINA RESULT:      -9.4      2.466      3.466
REMARK SMILES CCCC[C@H](C(=O)NCCCCCCNC(=O)c1ccc(-c2c3nc(c(-c4ccc(S(=O)(=O)[O-])cc4)c4ccc([nH]4)c(-c4ccc(S(=O)(=O)[O-])cc4)c4nc(c(-c5ccc(S(=O)(=O)[O-])cc5)c5ccc2[nH]5)C=C4)C=C3)cc1)[C@H](O)c1ccc(C(F)(F)F)cc1
REMARK SMILES IDX 11 1 10 2 9 3 8 4 6 5 7 6 5 8 4 9 3 10 2 11 1 12 78 13 80 14
REMARK SMILES IDX 81 15 89 16 82 17 88 18 83 19 84 20 85 21 86 22 87 23 79 24
REMARK SMILES IDX 12 26 13 27 14 28 15 29 16 30 17 32 18 33 19 34 77 35 20 36
REMARK SMILES IDX 76 37 21 38 22 39 23 40 70 41 24 42 75 43 69 44 71 45 25 46
REMARK SMILES IDX 74 47 68 48 67 49 26 51 56 52 37 53 55 54 38 55 41 56 54 57
REMARK SMILES IDX 72 58 39 59 40 60 53 62 73 63 42 64 27 65 28 66 36 67 29 68
REMARK SMILES IDX 35 69 30 70 31 71 32 72 33 73 34 74 57 75 58 76 66 77 59 78
REMARK SMILES IDX 65 79 60 80 61 81 62 82 63 83 64 84 43 85 44 86 52 87 45 88
REMARK SMILES IDX 51 89 46 90 47 91 48 92 49 93 50 94
REMARK H PARENT 8 7 79 25 15 31 71 50 41 61
REMARK Flexibility Score: inf
ROOT
ATOM      1  C   UNL A   1      33.051  23.038  24.356  1.00  0.00     0.002 C 
ENDROOT
BRANCH   1   2
ATOM      2  C   UNL A   1      31.621  23.397  24.778  1.00  0.00     0.021 C 
BRANCH   2   3
ATOM      3  C   UNL A   1      30.714  23.876  23.649  1.00  0.00     0.116 C 
BRANCH   3   4
ATOM      4  N   UNL A   1      31.425  24.632  22.633  1.00  0.00    -0.356 N 
ATOM      5  C   UNL A   1      31.769  25.948  22.597  1.00  0.00     0.226 C 
ATOM      6  O   UNL A   1      32.559  26.312  21.722  1.00  0.00    -0.275 OA
ATOM      7  H   UNL A   1      31.701  24.109  21.846  1.00  0.00     0.163 HD
BRANCH   5   8
ATOM      8  C   UNL A   1      31.201  26.924  23.611  1.00  0.00     0.111 C 
BRANCH   8   9
ATOM      9  C   UNL A   1      29.653  26.792  23.566  1.00  0.00     0.016 C 
BRANCH   9  10
ATOM     10  C   UNL A   1      28.882  28.090  23.283  1.00  0.00     0.001 C 
BRANCH  10  11
ATOM     11  C   UNL A   1      29.710  29.379  23.268  1.00  0.00    -0.003 C 
ATOM     12  C   UNL A   1      29.801  30.036  21.901  1.00  0.00     0.004 C 
ENDBRANCH  10  11
ENDBRANCH   9  10
ENDBRANCH   8   9
BRANCH   8  13
ATOM     13  C   UNL A   1      31.739  26.827  25.068  1.00  0.00     0.157 C 
BRANCH  13  14
ATOM     14  C   UNL A   1      32.492  27.903  25.846  1.00  0.00    -0.019 A 
ATOM     15  C   UNL A   1      31.961  29.123  26.274  1.00  0.00     0.007 A 
ATOM     16  C   UNL A   1      33.881  27.722  26.045  1.00  0.00     0.007 A 
ATOM     17  C   UNL A   1      32.752  30.083  26.923  1.00  0.00     0.013 A 
ATOM     18  C   UNL A   1      34.681  28.682  26.674  1.00  0.00     0.013 A 
ATOM     19  C   UNL A   1      34.120  29.875  27.129  1.00  0.00     0.056 A 
BRANCH  19  20
ATOM     20  C   UNL A   1      34.952  30.930  27.809  1.00  0.00     0.416 C 
ATOM     21  F   UNL A   1      35.067  30.717  29.151  1.00  0.00    -0.166 F 
ATOM     22  F   UNL A   1      36.227  30.981  27.332  1.00  0.00    -0.166 F 
ATOM     23  F   UNL A   1      34.454  32.192  27.679  1.00  0.00    -0.166 F 
ENDBRANCH  19  20
ENDBRANCH  13  14
BRANCH  13  24
ATOM     24  O   UNL A   1      30.590  26.492  25.881  1.00  0.00    -0.388 OA
ATOM     25  H   UNL A   1      29.803  26.938  25.528  1.00  0.00     0.211 HD
ENDBRANCH  13  24
ENDBRANCH   8  13
ENDBRANCH   5   8
ENDBRANCH   3   4
ENDBRANCH   2   3
ENDBRANCH   1   2
BRANCH   1  26
ATOM     26  C   UNL A   1      34.167  23.895  24.966  1.00  0.00     0.002 C 
BRANCH  26  27
ATOM     27  C   UNL A   1      35.590  23.370  24.773  1.00  0.00     0.021 C 
BRANCH  27  28
ATOM     28  C   UNL A   1      36.565  23.710  25.894  1.00  0.00     0.116 C 
BRANCH  28  29
ATOM     29  N   UNL A   1      37.589  22.692  26.069  1.00  0.00    -0.352 N 
ATOM     30  C   UNL A   1      38.911  22.835  26.415  1.00  0.00     0.251 C 
ATOM     31  H   UNL A   1      37.291  21.766  25.916  1.00  0.00     0.163 HD
ATOM     32  O   UNL A   1      39.672  21.876  26.342  1.00  0.00    -0.269 OA
BRANCH  30  33
ATOM     33  C   UNL A   1      39.421  24.156  26.850  1.00  0.00     0.039 A 
ATOM     34  C   UNL A   1      39.334  24.505  28.200  1.00  0.00     0.014 A 
ATOM     35  C   UNL A   1      39.986  25.044  25.932  1.00  0.00     0.014 A 
ATOM     36  C   UNL A   1      39.877  25.715  28.640  1.00  0.00     0.010 A 
ATOM     37  C   UNL A   1      40.595  26.212  26.384  1.00  0.00     0.010 A 
ATOM     38  C   UNL A   1      40.549  26.561  27.742  1.00  0.00    -0.014 A 
BRANCH  38  39
ATOM     39  C   UNL A   1      41.214  27.811  28.197  1.00  0.00     0.031 A 
ATOM     40  C   UNL A   1      42.716  27.914  28.188  1.00  0.00     0.074 A 
ATOM     41  C   UNL A   1      40.472  28.824  28.686  1.00  0.00     0.049 A 
ATOM     42  N   UNL A   1      43.479  28.881  28.627  1.00  0.00    -0.248 NA
ATOM     43  C   UNL A   1      43.457  26.768  27.636  1.00  0.00     0.031 C 
ATOM     44  C   UNL A   1      39.010  28.840  28.775  1.00  0.00     0.029 A 
ATOM     45  N   UNL A   1      40.847  30.035  29.214  1.00  0.00    -0.354 N 
ATOM     46  C   UNL A   1      44.786  28.456  28.420  1.00  0.00     0.074 A 
ATOM     47  C   UNL A   1      44.713  27.122  27.865  1.00  0.00     0.031 C 
ATOM     48  C   UNL A   1      38.613  30.011  29.298  1.00  0.00     0.029 A 
ATOM     49  C   UNL A   1      39.788  30.809  29.631  1.00  0.00     0.049 A 
ATOM     50  H   UNL A   1      41.785  30.324  29.286  1.00  0.00     0.167 HD
ATOM     51  C   UNL A   1      45.943  29.121  28.654  1.00  0.00     0.031 A 
ATOM     52  C   UNL A   1      39.764  32.018  30.227  1.00  0.00     0.031 A 
ATOM     53  C   UNL A   1      46.012  30.449  29.206  1.00  0.00     0.049 A 
ATOM     54  C   UNL A   1      41.063  32.722  30.512  1.00  0.00     0.074 A 
ATOM     55  C   UNL A   1      47.133  31.226  29.438  1.00  0.00     0.029 A 
ATOM     56  N   UNL A   1      44.917  31.194  29.616  1.00  0.00    -0.354 N 
ATOM     57  N   UNL A   1      42.287  32.327  30.257  1.00  0.00    -0.248 NA
ATOM     58  C   UNL A   1      40.977  34.039  31.158  1.00  0.00     0.031 C 
ATOM     59  C   UNL A   1      46.721  32.416  30.045  1.00  0.00     0.029 A 
ATOM     60  C   UNL A   1      45.337  32.411  30.127  1.00  0.00     0.049 A 
ATOM     61  H   UNL A   1      43.978  30.902  29.555  1.00  0.00     0.167 HD
ATOM     62  C   UNL A   1      43.115  33.362  30.680  1.00  0.00     0.074 A 
ATOM     63  C   UNL A   1      42.252  34.403  31.199  1.00  0.00     0.031 C 
ATOM     64  C   UNL A   1      44.468  33.443  30.636  1.00  0.00     0.031 A 
BRANCH  51  65
ATOM     65  C   UNL A   1      47.233  28.413  28.325  1.00  0.00    -0.014 A 
ATOM     66  C   UNL A   1      47.853  27.558  29.255  1.00  0.00     0.010 A 
ATOM     67  C   UNL A   1      47.818  28.580  27.056  1.00  0.00     0.010 A 
ATOM     68  C   UNL A   1      49.057  26.922  28.940  1.00  0.00     0.020 A 
ATOM     69  C   UNL A   1      49.005  27.919  26.725  1.00  0.00     0.020 A 
ATOM     70  C   UNL A   1      49.627  27.111  27.677  1.00  0.00     0.054 A 
BRANCH  70  71
ATOM     71  S   UNL A   1      51.184  26.263  27.294  1.00  0.00     0.124 S 
ATOM     72  O   UNL A   1      51.441  26.711  25.928  1.00  0.00    -0.237 OA
ATOM     73  O   UNL A   1      52.093  26.790  28.309  1.00  0.00    -0.237 OA
ATOM     74  O   UNL A   1      50.852  24.847  27.432  1.00  0.00    -0.744 OA
ENDBRANCH  70  71
ENDBRANCH  51  65
BRANCH  52  75
ATOM     75  C   UNL A   1      38.461  32.644  30.585  1.00  0.00    -0.014 A 
ATOM     76  C   UNL A   1      37.682  33.284  29.605  1.00  0.00     0.010 A 
ATOM     77  C   UNL A   1      37.981  32.588  31.907  1.00  0.00     0.010 A 
ATOM     78  C   UNL A   1      36.459  33.871  29.941  1.00  0.00     0.020 A 
ATOM     79  C   UNL A   1      36.744  33.147  32.241  1.00  0.00     0.020 A 
ATOM     80  C   UNL A   1      35.996  33.794  31.258  1.00  0.00     0.054 A 
BRANCH  80  81
ATOM     81  S   UNL A   1      34.379  34.515  31.659  1.00  0.00     0.124 S 
ATOM     82  O   UNL A   1      34.750  35.628  32.528  1.00  0.00    -0.237 OA
ATOM     83  O   UNL A   1      33.865  34.884  30.342  1.00  0.00    -0.237 OA
ATOM     84  O   UNL A   1      33.669  33.419  32.313  1.00  0.00    -0.744 OA
ENDBRANCH  80  81
ENDBRANCH  52  75
BRANCH  64  85
ATOM     85  C   UNL A   1      45.110  34.716  31.122  1.00  0.00    -0.014 A 
ATOM     86  C   UNL A   1      45.411  35.768  30.241  1.00  0.00     0.010 A 
ATOM     87  C   UNL A   1      45.345  34.887  32.500  1.00  0.00     0.010 A 
ATOM     88  C   UNL A   1      45.954  36.963  30.726  1.00  0.00     0.020 A 
ATOM     89  C   UNL A   1      45.858  36.090  32.992  1.00  0.00     0.020 A 
ATOM     90  C   UNL A   1      46.168  37.118  32.099  1.00  0.00     0.054 A 
BRANCH  90  91
ATOM     91  S   UNL A   1      46.808  38.701  32.709  1.00  0.00     0.124 S 
ATOM     92  O   UNL A   1      47.545  39.198  31.551  1.00  0.00    -0.237 OA
ATOM     93  O   UNL A   1      45.587  39.433  33.038  1.00  0.00    -0.237 OA
ATOM     94  O   UNL A   1      47.631  38.325  33.856  1.00  0.00    -0.744 OA
ENDBRANCH  90  91
ENDBRANCH  64  85
ENDBRANCH  38  39
ENDBRANCH  30  33
ENDBRANCH  28  29
ENDBRANCH  27  28
ENDBRANCH  26  27
ENDBRANCH   1  26
TORSDOF 23
ENDMDL
