MODEL 1
REMARK VINA RESULT:     -11.5      0.000      0.000
REMARK SMILES O=C(Cn1cnc(-c2ccccc2)c1-c1ccccc1)NCCCCCCNC(=O)c1ccc(-c2c3nc(c(-c4ccc(S(=O)(=O)[O-])cc4)c4ccc([nH]4)c(-c4ccc(S(=O)(=O)[O-])cc4)c4nc(c(-c5ccc(S(=O)(=O)[O-])cc5)c5ccc2[nH]5)C=C4)C=C3)cc1
REMARK SMILES IDX 25 1 24 2 23 3 22 4 21 5 1 6 2 7 3 9 4 10 5 11 14 12 6 13
REMARK SMILES IDX 7 14 15 15 16 16 20 17 17 18 19 19 18 20 8 21 9 22 13 23
REMARK SMILES IDX 10 24 12 25 11 26 26 27 27 28 28 29 29 30 30 32 31 33 32 34
REMARK SMILES IDX 90 35 33 36 89 37 34 38 35 39 36 40 83 41 37 42 88 43 82 44
REMARK SMILES IDX 84 45 38 46 87 47 81 48 80 49 39 51 69 52 50 53 68 54 51 55
REMARK SMILES IDX 54 56 67 57 85 58 52 59 53 60 66 62 86 63 55 64 40 65 41 66
REMARK SMILES IDX 49 67 42 68 48 69 43 70 44 71 45 72 46 73 47 74 70 75 71 76
REMARK SMILES IDX 79 77 72 78 78 79 73 80 74 81 75 82 76 83 77 84 56 85 57 86
REMARK SMILES IDX 65 87 58 88 64 89 59 90 60 91 61 92 62 93 63 94
REMARK H PARENT 21 8 28 31 84 50 54 61
REMARK Flexibility Score: inf
ROOT
ATOM      1  C   UNL A   1      34.871  30.185  27.639  1.00  0.00     0.002 C 
ENDROOT
BRANCH   1   2
ATOM      2  C   UNL A   1      34.134  28.992  27.014  1.00  0.00     0.002 C 
BRANCH   2   3
ATOM      3  C   UNL A   1      32.606  28.991  27.151  1.00  0.00     0.021 C 
BRANCH   3   4
ATOM      4  C   UNL A   1      31.939  27.630  26.947  1.00  0.00     0.116 C 
BRANCH   4   5
ATOM      5  N   UNL A   1      32.542  26.893  25.853  1.00  0.00    -0.355 N 
ATOM      6  O   UNL A   1      31.501  28.059  24.175  1.00  0.00    -0.273 OA
ATOM      7  C   UNL A   1      32.265  27.162  24.528  1.00  0.00     0.239 C 
ATOM      8  H   UNL A   1      33.177  26.171  26.064  1.00  0.00     0.163 HD
BRANCH   7   9
ATOM      9  C   UNL A   1      32.904  26.226  23.522  1.00  0.00     0.223 C 
BRANCH   9  10
ATOM     10  N   UNL A   1      32.373  24.874  23.585  1.00  0.00    -0.321 N 
ATOM     11  C   UNL A   1      31.100  24.534  23.211  1.00  0.00     0.201 A 
ATOM     12  C   UNL A   1      33.043  23.713  23.912  1.00  0.00     0.076 A 
ATOM     13  N   UNL A   1      30.889  23.243  23.313  1.00  0.00    -0.236 NA
ATOM     14  C   UNL A   1      32.079  22.723  23.761  1.00  0.00     0.096 A 
BRANCH  12  15
ATOM     15  C   UNL A   1      34.463  23.606  24.248  1.00  0.00     0.000 A 
ATOM     16  C   UNL A   1      35.371  23.153  23.280  1.00  0.00     0.010 A 
ATOM     17  C   UNL A   1      34.926  23.873  25.539  1.00  0.00     0.010 A 
ATOM     18  C   UNL A   1      36.718  22.968  23.598  1.00  0.00     0.001 A 
ATOM     19  C   UNL A   1      36.276  23.699  25.854  1.00  0.00     0.001 A 
ATOM     20  C   UNL A   1      37.169  23.243  24.887  1.00  0.00     0.000 A 
ENDBRANCH  12  15
BRANCH  14  21
ATOM     21  C   UNL A   1      32.290  21.305  23.981  1.00  0.00     0.002 A 
ATOM     22  C   UNL A   1      32.159  20.408  22.916  1.00  0.00     0.010 A 
ATOM     23  C   UNL A   1      32.667  20.823  25.242  1.00  0.00     0.010 A 
ATOM     24  C   UNL A   1      32.438  19.051  23.101  1.00  0.00     0.001 A 
ATOM     25  C   UNL A   1      32.940  19.467  25.427  1.00  0.00     0.001 A 
ATOM     26  C   UNL A   1      32.833  18.584  24.355  1.00  0.00     0.000 A 
ENDBRANCH  14  21
ENDBRANCH   9  10
ENDBRANCH   7   9
ENDBRANCH   4   5
ENDBRANCH   3   4
ENDBRANCH   2   3
ENDBRANCH   1   2
BRANCH   1  27
ATOM     27  C   UNL A   1      34.048  31.462  27.853  1.00  0.00     0.021 C 
BRANCH  27  28
ATOM     28  C   UNL A   1      34.855  32.652  28.358  1.00  0.00     0.116 C 
BRANCH  28  29
ATOM     29  N   UNL A   1      34.411  33.119  29.669  1.00  0.00    -0.352 N 
ATOM     30  C   UNL A   1      34.779  32.642  30.914  1.00  0.00     0.251 C 
ATOM     31  H   UNL A   1      33.770  33.867  29.666  1.00  0.00     0.163 HD
ATOM     32  O   UNL A   1      34.081  32.850  31.893  1.00  0.00    -0.269 OA
BRANCH  30  33
ATOM     33  C   UNL A   1      36.034  31.874  31.034  1.00  0.00     0.039 A 
ATOM     34  C   UNL A   1      36.023  30.477  31.085  1.00  0.00     0.014 A 
ATOM     35  C   UNL A   1      37.235  32.577  31.074  1.00  0.00     0.014 A 
ATOM     36  C   UNL A   1      37.237  29.791  31.085  1.00  0.00     0.010 A 
ATOM     37  C   UNL A   1      38.424  31.902  30.943  1.00  0.00     0.010 A 
ATOM     38  C   UNL A   1      38.437  30.510  30.992  1.00  0.00    -0.014 A 
BRANCH  38  39
ATOM     39  C   UNL A   1      39.716  29.820  30.831  1.00  0.00     0.031 A 
ATOM     40  C   UNL A   1      40.504  29.638  32.083  1.00  0.00     0.074 A 
ATOM     41  C   UNL A   1      40.048  29.157  29.702  1.00  0.00     0.049 A 
ATOM     42  N   UNL A   1      41.659  30.137  32.378  1.00  0.00    -0.248 NA
ATOM     43  C   UNL A   1      39.879  28.896  33.191  1.00  0.00     0.031 C 
ATOM     44  C   UNL A   1      39.226  28.956  28.501  1.00  0.00     0.029 A 
ATOM     45  N   UNL A   1      41.146  28.395  29.444  1.00  0.00    -0.354 N 
ATOM     46  C   UNL A   1      42.007  29.605  33.618  1.00  0.00     0.074 A 
ATOM     47  C   UNL A   1      40.807  29.002  34.144  1.00  0.00     0.031 C 
ATOM     48  C   UNL A   1      39.733  27.936  27.775  1.00  0.00     0.029 A 
ATOM     49  C   UNL A   1      41.002  27.541  28.356  1.00  0.00     0.049 A 
ATOM     50  H   UNL A   1      41.969  28.443  29.981  1.00  0.00     0.167 HD
ATOM     51  C   UNL A   1      43.306  29.492  34.016  1.00  0.00     0.031 A 
ATOM     52  C   UNL A   1      41.847  26.552  27.973  1.00  0.00     0.031 A 
ATOM     53  C   UNL A   1      44.189  30.242  33.160  1.00  0.00     0.049 A 
ATOM     54  C   UNL A   1      43.161  26.840  28.595  1.00  0.00     0.074 A 
ATOM     55  C   UNL A   1      44.320  31.572  32.816  1.00  0.00     0.029 A 
ATOM     56  N   UNL A   1      44.876  29.529  32.204  1.00  0.00    -0.354 N 
ATOM     57  N   UNL A   1      43.886  27.880  28.291  1.00  0.00    -0.248 NA
ATOM     58  C   UNL A   1      43.480  26.210  29.866  1.00  0.00     0.031 C 
ATOM     59  C   UNL A   1      44.669  31.560  31.433  1.00  0.00     0.029 A 
ATOM     60  C   UNL A   1      44.798  30.228  31.028  1.00  0.00     0.049 A 
ATOM     61  H   UNL A   1      45.339  28.672  32.341  1.00  0.00     0.167 HD
ATOM     62  C   UNL A   1      44.433  28.296  29.496  1.00  0.00     0.074 A 
ATOM     63  C   UNL A   1      44.246  27.165  30.402  1.00  0.00     0.031 C 
ATOM     64  C   UNL A   1      44.730  29.611  29.719  1.00  0.00     0.031 A 
BRANCH  51  65
ATOM     65  C   UNL A   1      43.831  28.393  34.915  1.00  0.00    -0.014 A 
ATOM     66  C   UNL A   1      44.580  28.749  36.058  1.00  0.00     0.010 A 
ATOM     67  C   UNL A   1      43.862  27.036  34.536  1.00  0.00     0.010 A 
ATOM     68  C   UNL A   1      45.381  27.815  36.728  1.00  0.00     0.020 A 
ATOM     69  C   UNL A   1      44.621  26.086  35.224  1.00  0.00     0.020 A 
ATOM     70  C   UNL A   1      45.408  26.491  36.293  1.00  0.00     0.054 A 
BRANCH  70  71
ATOM     71  S   UNL A   1      46.536  25.318  37.084  1.00  0.00     0.124 S 
ATOM     72  O   UNL A   1      47.289  24.808  35.941  1.00  0.00    -0.237 OA
ATOM     73  O   UNL A   1      47.281  26.174  38.003  1.00  0.00    -0.237 OA
ATOM     74  O   UNL A   1      45.639  24.358  37.721  1.00  0.00    -0.744 OA
ENDBRANCH  70  71
ENDBRANCH  51  65
BRANCH  52  75
ATOM     75  C   UNL A   1      41.514  25.253  27.342  1.00  0.00    -0.014 A 
ATOM     76  C   UNL A   1      42.475  24.529  26.614  1.00  0.00     0.010 A 
ATOM     77  C   UNL A   1      40.317  24.590  27.689  1.00  0.00     0.010 A 
ATOM     78  C   UNL A   1      42.272  23.174  26.297  1.00  0.00     0.020 A 
ATOM     79  C   UNL A   1      40.105  23.243  27.371  1.00  0.00     0.020 A 
ATOM     80  C   UNL A   1      41.095  22.534  26.696  1.00  0.00     0.054 A 
BRANCH  80  81
ATOM     81  S   UNL A   1      40.919  20.742  26.442  1.00  0.00     0.124 S 
ATOM     82  O   UNL A   1      42.115  20.419  25.671  1.00  0.00    -0.237 OA
ATOM     83  O   UNL A   1      40.888  20.228  27.808  1.00  0.00    -0.237 OA
ATOM     84  O   UNL A   1      39.658  20.621  25.710  1.00  0.00    -0.744 OA
ENDBRANCH  80  81
ENDBRANCH  52  75
BRANCH  64  85
ATOM     85  C   UNL A   1      44.760  30.553  28.535  1.00  0.00    -0.014 A 
ATOM     86  C   UNL A   1      43.607  31.063  27.905  1.00  0.00     0.010 A 
ATOM     87  C   UNL A   1      46.012  31.061  28.149  1.00  0.00     0.010 A 
ATOM     88  C   UNL A   1      43.711  32.034  26.897  1.00  0.00     0.020 A 
ATOM     89  C   UNL A   1      46.121  32.042  27.161  1.00  0.00     0.020 A 
ATOM     90  C   UNL A   1      44.971  32.518  26.532  1.00  0.00     0.054 A 
BRANCH  90  91
ATOM     91  S   UNL A   1      45.102  33.809  25.263  1.00  0.00     0.124 S 
ATOM     92  O   UNL A   1      44.292  34.888  25.824  1.00  0.00    -0.237 OA
ATOM     93  O   UNL A   1      46.539  34.066  25.206  1.00  0.00    -0.237 OA
ATOM     94  O   UNL A   1      44.546  33.179  24.065  1.00  0.00    -0.744 OA
ENDBRANCH  90  91
ENDBRANCH  64  85
ENDBRANCH  38  39
ENDBRANCH  30  33
ENDBRANCH  28  29
ENDBRANCH  27  28
ENDBRANCH   1  27
TORSDOF 19
ENDMDL
MODEL 2
REMARK VINA RESULT:     -11.0      2.706      9.007
REMARK SMILES O=C(Cn1cnc(-c2ccccc2)c1-c1ccccc1)NCCCCCCNC(=O)c1ccc(-c2c3nc(c(-c4ccc(S(=O)(=O)[O-])cc4)c4ccc([nH]4)c(-c4ccc(S(=O)(=O)[O-])cc4)c4nc(c(-c5ccc(S(=O)(=O)[O-])cc5)c5ccc2[nH]5)C=C4)C=C3)cc1
REMARK SMILES IDX 25 1 24 2 23 3 22 4 21 5 1 6 2 7 3 9 4 10 5 11 14 12 6 13
REMARK SMILES IDX 7 14 15 15 16 16 20 17 17 18 19 19 18 20 8 21 9 22 13 23
REMARK SMILES IDX 10 24 12 25 11 26 26 27 27 28 28 29 29 30 30 32 31 33 32 34
REMARK SMILES IDX 90 35 33 36 89 37 34 38 35 39 36 40 83 41 37 42 88 43 82 44
REMARK SMILES IDX 84 45 38 46 87 47 81 48 80 49 39 51 69 52 50 53 68 54 51 55
REMARK SMILES IDX 54 56 67 57 85 58 52 59 53 60 66 62 86 63 55 64 40 65 41 66
REMARK SMILES IDX 49 67 42 68 48 69 43 70 44 71 45 72 46 73 47 74 70 75 71 76
REMARK SMILES IDX 79 77 72 78 78 79 73 80 74 81 75 82 76 83 77 84 56 85 57 86
REMARK SMILES IDX 65 87 58 88 64 89 59 90 60 91 61 92 62 93 63 94
REMARK H PARENT 21 8 28 31 84 50 54 61
REMARK Flexibility Score: inf
ROOT
ATOM      1  C   UNL A   1      40.117  22.938  27.747  1.00  0.00     0.002 C 
ENDROOT
BRANCH   1   2
ATOM      2  C   UNL A   1      39.559  23.621  26.490  1.00  0.00     0.002 C 
BRANCH   2   3
ATOM      3  C   UNL A   1      38.074  24.005  26.530  1.00  0.00     0.021 C 
BRANCH   3   4
ATOM      4  C   UNL A   1      37.188  23.268  25.525  1.00  0.00     0.116 C 
BRANCH   4   5
ATOM      5  N   UNL A   1      35.797  23.258  25.939  1.00  0.00    -0.355 N 
ATOM      6  O   UNL A   1      34.922  23.573  23.843  1.00  0.00    -0.273 OA
ATOM      7  C   UNL A   1      34.753  23.424  25.052  1.00  0.00     0.239 C 
ATOM      8  H   UNL A   1      35.590  23.127  26.892  1.00  0.00     0.163 HD
BRANCH   7   9
ATOM      9  C   UNL A   1      33.372  23.491  25.672  1.00  0.00     0.223 C 
BRANCH   9  10
ATOM     10  N   UNL A   1      32.384  24.101  24.798  1.00  0.00    -0.321 N 
ATOM     11  C   UNL A   1      31.639  23.406  23.882  1.00  0.00     0.201 A 
ATOM     12  C   UNL A   1      31.948  25.410  24.795  1.00  0.00     0.076 A 
ATOM     13  N   UNL A   1      30.783  24.182  23.260  1.00  0.00    -0.236 NA
ATOM     14  C   UNL A   1      30.973  25.429  23.803  1.00  0.00     0.096 A 
BRANCH  12  15
ATOM     15  C   UNL A   1      32.387  26.466  25.707  1.00  0.00     0.000 A 
ATOM     16  C   UNL A   1      31.514  26.932  26.699  1.00  0.00     0.010 A 
ATOM     17  C   UNL A   1      33.637  27.076  25.564  1.00  0.00     0.010 A 
ATOM     18  C   UNL A   1      31.881  27.991  27.532  1.00  0.00     0.001 A 
ATOM     19  C   UNL A   1      34.009  28.128  26.404  1.00  0.00     0.001 A 
ATOM     20  C   UNL A   1      33.130  28.588  27.383  1.00  0.00     0.000 A 
ENDBRANCH  12  15
BRANCH  14  21
ATOM     21  C   UNL A   1      30.195  26.590  23.412  1.00  0.00     0.002 A 
ATOM     22  C   UNL A   1      28.841  26.667  23.753  1.00  0.00     0.010 A 
ATOM     23  C   UNL A   1      30.794  27.659  22.732  1.00  0.00     0.010 A 
ATOM     24  C   UNL A   1      28.104  27.815  23.451  1.00  0.00     0.001 A 
ATOM     25  C   UNL A   1      30.056  28.802  22.425  1.00  0.00     0.001 A 
ATOM     26  C   UNL A   1      28.715  28.884  22.792  1.00  0.00     0.000 A 
ENDBRANCH  14  21
ENDBRANCH   9  10
ENDBRANCH   7   9
ENDBRANCH   4   5
ENDBRANCH   3   4
ENDBRANCH   2   3
ENDBRANCH   1   2
BRANCH   1  27
ATOM     27  C   UNL A   1      40.818  21.590  27.540  1.00  0.00     0.021 C 
BRANCH  27  28
ATOM     28  C   UNL A   1      41.022  21.205  26.080  1.00  0.00     0.116 C 
BRANCH  28  29
ATOM     29  N   UNL A   1      42.375  20.726  25.807  1.00  0.00    -0.352 N 
ATOM     30  C   UNL A   1      43.530  21.471  25.657  1.00  0.00     0.251 C 
ATOM     31  H   UNL A   1      42.476  19.750  25.719  1.00  0.00     0.163 HD
ATOM     32  O   UNL A   1      44.499  21.010  25.076  1.00  0.00    -0.269 OA
BRANCH  30  33
ATOM     33  C   UNL A   1      43.566  22.838  26.212  1.00  0.00     0.039 A 
ATOM     34  C   UNL A   1      43.039  23.921  25.501  1.00  0.00     0.014 A 
ATOM     35  C   UNL A   1      44.122  23.021  27.476  1.00  0.00     0.014 A 
ATOM     36  C   UNL A   1      42.994  25.173  26.112  1.00  0.00     0.010 A 
ATOM     37  C   UNL A   1      43.959  24.221  28.124  1.00  0.00     0.010 A 
ATOM     38  C   UNL A   1      43.437  25.313  27.435  1.00  0.00    -0.014 A 
BRANCH  38  39
ATOM     39  C   UNL A   1      43.259  26.572  28.157  1.00  0.00     0.031 A 
ATOM     40  C   UNL A   1      44.308  27.602  27.912  1.00  0.00     0.074 A 
ATOM     41  C   UNL A   1      42.108  26.893  28.787  1.00  0.00     0.049 A 
ATOM     42  N   UNL A   1      45.151  28.099  28.755  1.00  0.00    -0.248 NA
ATOM     43  C   UNL A   1      44.518  28.056  26.526  1.00  0.00     0.031 C 
ATOM     44  C   UNL A   1      40.858  26.123  28.826  1.00  0.00     0.029 A 
ATOM     45  N   UNL A   1      41.764  28.054  29.409  1.00  0.00    -0.354 N 
ATOM     46  C   UNL A   1      45.858  29.082  28.065  1.00  0.00     0.074 A 
ATOM     47  C   UNL A   1      45.555  28.884  26.669  1.00  0.00     0.031 C 
ATOM     48  C   UNL A   1      39.842  26.932  29.201  1.00  0.00     0.029 A 
ATOM     49  C   UNL A   1      40.396  28.211  29.601  1.00  0.00     0.049 A 
ATOM     50  H   UNL A   1      42.425  28.723  29.696  1.00  0.00     0.167 HD
ATOM     51  C   UNL A   1      46.451  30.129  28.706  1.00  0.00     0.031 A 
ATOM     52  C   UNL A   1      39.751  29.326  30.027  1.00  0.00     0.031 A 
ATOM     53  C   UNL A   1      46.507  29.915  30.129  1.00  0.00     0.049 A 
ATOM     54  C   UNL A   1      40.756  30.175  30.708  1.00  0.00     0.074 A 
ATOM     55  C   UNL A   1      47.084  28.971  30.954  1.00  0.00     0.029 A 
ATOM     56  N   UNL A   1      45.555  30.556  30.888  1.00  0.00    -0.354 N 
ATOM     57  N   UNL A   1      41.356  29.831  31.813  1.00  0.00    -0.248 NA
ATOM     58  C   UNL A   1      41.420  31.216  29.940  1.00  0.00     0.031 C 
ATOM     59  C   UNL A   1      46.138  28.773  32.003  1.00  0.00     0.029 A 
ATOM     60  C   UNL A   1      45.072  29.653  31.799  1.00  0.00     0.049 A 
ATOM     61  H   UNL A   1      45.272  31.493  30.793  1.00  0.00     0.167 HD
ATOM     62  C   UNL A   1      42.661  30.275  31.663  1.00  0.00     0.074 A 
ATOM     63  C   UNL A   1      42.609  31.220  30.550  1.00  0.00     0.031 C 
ATOM     64  C   UNL A   1      43.701  29.627  32.268  1.00  0.00     0.031 A 
BRANCH  51  65
ATOM     65  C   UNL A   1      46.611  31.512  28.113  1.00  0.00    -0.014 A 
ATOM     66  C   UNL A   1      47.859  32.164  28.235  1.00  0.00     0.010 A 
ATOM     67  C   UNL A   1      45.522  32.304  27.697  1.00  0.00     0.010 A 
ATOM     68  C   UNL A   1      47.985  33.545  28.036  1.00  0.00     0.020 A 
ATOM     69  C   UNL A   1      45.646  33.674  27.452  1.00  0.00     0.020 A 
ATOM     70  C   UNL A   1      46.870  34.293  27.662  1.00  0.00     0.054 A 
BRANCH  70  71
ATOM     71  S   UNL A   1      47.010  36.092  27.526  1.00  0.00     0.124 S 
ATOM     72  O   UNL A   1      48.364  36.326  28.017  1.00  0.00    -0.237 OA
ATOM     73  O   UNL A   1      46.806  36.312  26.096  1.00  0.00    -0.237 OA
ATOM     74  O   UNL A   1      45.937  36.584  28.386  1.00  0.00    -0.744 OA
ENDBRANCH  70  71
ENDBRANCH  51  65
BRANCH  52  75
ATOM     75  C   UNL A   1      38.405  29.812  29.641  1.00  0.00    -0.014 A 
ATOM     76  C   UNL A   1      37.412  30.054  30.607  1.00  0.00     0.010 A 
ATOM     77  C   UNL A   1      38.183  30.302  28.336  1.00  0.00     0.010 A 
ATOM     78  C   UNL A   1      36.267  30.809  30.296  1.00  0.00     0.020 A 
ATOM     79  C   UNL A   1      37.043  31.049  28.016  1.00  0.00     0.020 A 
ATOM     80  C   UNL A   1      36.101  31.319  29.005  1.00  0.00     0.054 A 
BRANCH  80  81
ATOM     81  S   UNL A   1      34.713  32.443  28.658  1.00  0.00     0.124 S 
ATOM     82  O   UNL A   1      33.653  31.517  28.275  1.00  0.00    -0.237 OA
ATOM     83  O   UNL A   1      34.529  33.124  29.937  1.00  0.00    -0.237 OA
ATOM     84  O   UNL A   1      35.218  33.289  27.577  1.00  0.00    -0.744 OA
ENDBRANCH  80  81
ENDBRANCH  52  75
BRANCH  64  85
ATOM     85  C   UNL A   1      43.388  28.623  33.356  1.00  0.00    -0.014 A 
ATOM     86  C   UNL A   1      43.132  28.970  34.698  1.00  0.00     0.010 A 
ATOM     87  C   UNL A   1      43.195  27.287  32.963  1.00  0.00     0.010 A 
ATOM     88  C   UNL A   1      42.720  27.998  35.623  1.00  0.00     0.020 A 
ATOM     89  C   UNL A   1      42.766  26.320  33.874  1.00  0.00     0.020 A 
ATOM     90  C   UNL A   1      42.539  26.677  35.203  1.00  0.00     0.054 A 
BRANCH  90  91
ATOM     91  S   UNL A   1      41.960  25.431  36.389  1.00  0.00     0.124 S 
ATOM     92  O   UNL A   1      40.714  26.016  36.880  1.00  0.00    -0.237 OA
ATOM     93  O   UNL A   1      41.810  24.236  35.561  1.00  0.00    -0.237 OA
ATOM     94  O   UNL A   1      43.039  25.359  37.375  1.00  0.00    -0.744 OA
ENDBRANCH  90  91
ENDBRANCH  64  85
ENDBRANCH  38  39
ENDBRANCH  30  33
ENDBRANCH  28  29
ENDBRANCH  27  28
ENDBRANCH   1  27
TORSDOF 19
ENDMDL
MODEL 3
REMARK VINA RESULT:     -11.0      2.863      7.640
REMARK SMILES O=C(Cn1cnc(-c2ccccc2)c1-c1ccccc1)NCCCCCCNC(=O)c1ccc(-c2c3nc(c(-c4ccc(S(=O)(=O)[O-])cc4)c4ccc([nH]4)c(-c4ccc(S(=O)(=O)[O-])cc4)c4nc(c(-c5ccc(S(=O)(=O)[O-])cc5)c5ccc2[nH]5)C=C4)C=C3)cc1
REMARK SMILES IDX 25 1 24 2 23 3 22 4 21 5 1 6 2 7 3 9 4 10 5 11 14 12 6 13
REMARK SMILES IDX 7 14 15 15 16 16 20 17 17 18 19 19 18 20 8 21 9 22 13 23
REMARK SMILES IDX 10 24 12 25 11 26 26 27 27 28 28 29 29 30 30 32 31 33 32 34
REMARK SMILES IDX 90 35 33 36 89 37 34 38 35 39 36 40 83 41 37 42 88 43 82 44
REMARK SMILES IDX 84 45 38 46 87 47 81 48 80 49 39 51 69 52 50 53 68 54 51 55
REMARK SMILES IDX 54 56 67 57 85 58 52 59 53 60 66 62 86 63 55 64 40 65 41 66
REMARK SMILES IDX 49 67 42 68 48 69 43 70 44 71 45 72 46 73 47 74 70 75 71 76
REMARK SMILES IDX 79 77 72 78 78 79 73 80 74 81 75 82 76 83 77 84 56 85 57 86
REMARK SMILES IDX 65 87 58 88 64 89 59 90 60 91 61 92 62 93 63 94
REMARK H PARENT 21 8 28 31 84 50 54 61
REMARK Flexibility Score: inf
ROOT
ATOM      1  C   UNL A   1      34.118  30.886  27.453  1.00  0.00     0.002 C 
ENDROOT
BRANCH   1   2
ATOM      2  C   UNL A   1      33.558  29.835  26.484  1.00  0.00     0.002 C 
BRANCH   2   3
ATOM      3  C   UNL A   1      33.304  28.439  27.069  1.00  0.00     0.021 C 
BRANCH   3   4
ATOM      4  C   UNL A   1      31.853  28.152  27.453  1.00  0.00     0.116 C 
BRANCH   4   5
ATOM      5  N   UNL A   1      31.477  26.783  27.153  1.00  0.00    -0.355 N 
ATOM      6  O   UNL A   1      30.563  27.230  25.099  1.00  0.00    -0.273 OA
ATOM      7  C   UNL A   1      30.841  26.423  25.983  1.00  0.00     0.239 C 
ATOM      8  H   UNL A   1      31.685  26.082  27.812  1.00  0.00     0.163 HD
BRANCH   7   9
ATOM      9  C   UNL A   1      30.430  24.967  25.883  1.00  0.00     0.223 C 
BRANCH   9  10
ATOM     10  N   UNL A   1      31.556  24.051  25.956  1.00  0.00    -0.321 N 
ATOM     11  C   UNL A   1      31.616  22.978  26.805  1.00  0.00     0.201 A 
ATOM     12  C   UNL A   1      32.677  24.019  25.151  1.00  0.00     0.076 A 
ATOM     13  N   UNL A   1      32.715  22.281  26.634  1.00  0.00    -0.236 NA
ATOM     14  C   UNL A   1      33.390  22.923  25.624  1.00  0.00     0.096 A 
BRANCH  12  15
ATOM     15  C   UNL A   1      32.952  24.910  24.024  1.00  0.00     0.000 A 
ATOM     16  C   UNL A   1      33.693  26.082  24.233  1.00  0.00     0.010 A 
ATOM     17  C   UNL A   1      32.428  24.657  22.753  1.00  0.00     0.010 A 
ATOM     18  C   UNL A   1      33.903  26.987  23.190  1.00  0.00     0.001 A 
ATOM     19  C   UNL A   1      32.649  25.557  21.707  1.00  0.00     0.001 A 
ATOM     20  C   UNL A   1      33.381  26.721  21.927  1.00  0.00     0.000 A 
ENDBRANCH  12  15
BRANCH  14  21
ATOM     21  C   UNL A   1      34.657  22.455  25.096  1.00  0.00     0.002 A 
ATOM     22  C   UNL A   1      35.361  23.240  24.178  1.00  0.00     0.010 A 
ATOM     23  C   UNL A   1      35.210  21.242  25.528  1.00  0.00     0.010 A 
ATOM     24  C   UNL A   1      36.620  22.836  23.726  1.00  0.00     0.001 A 
ATOM     25  C   UNL A   1      36.465  20.835  25.071  1.00  0.00     0.001 A 
ATOM     26  C   UNL A   1      37.172  21.636  24.178  1.00  0.00     0.000 A 
ENDBRANCH  14  21
ENDBRANCH   9  10
ENDBRANCH   7   9
ENDBRANCH   4   5
ENDBRANCH   3   4
ENDBRANCH   2   3
ENDBRANCH   1   2
BRANCH   1  27
ATOM     27  C   UNL A   1      33.107  31.868  28.057  1.00  0.00     0.021 C 
BRANCH  27  28
ATOM     28  C   UNL A   1      32.741  33.033  27.145  1.00  0.00     0.116 C 
BRANCH  28  29
ATOM     29  N   UNL A   1      32.449  34.259  27.886  1.00  0.00    -0.352 N 
ATOM     30  C   UNL A   1      33.075  34.738  29.023  1.00  0.00     0.251 C 
ATOM     31  H   UNL A   1      31.715  34.812  27.532  1.00  0.00     0.163 HD
ATOM     32  O   UNL A   1      32.518  35.548  29.746  1.00  0.00    -0.269 OA
BRANCH  30  33
ATOM     33  C   UNL A   1      34.430  34.248  29.344  1.00  0.00     0.039 A 
ATOM     34  C   UNL A   1      34.689  33.575  30.541  1.00  0.00     0.014 A 
ATOM     35  C   UNL A   1      35.443  34.456  28.411  1.00  0.00     0.014 A 
ATOM     36  C   UNL A   1      35.956  33.033  30.751  1.00  0.00     0.010 A 
ATOM     37  C   UNL A   1      36.647  33.812  28.560  1.00  0.00     0.010 A 
ATOM     38  C   UNL A   1      36.927  33.136  29.745  1.00  0.00    -0.014 A 
BRANCH  38  39
ATOM     39  C   UNL A   1      38.211  32.446  29.867  1.00  0.00     0.031 A 
ATOM     40  C   UNL A   1      38.205  31.013  29.455  1.00  0.00     0.074 A 
ATOM     41  C   UNL A   1      39.373  33.101  30.075  1.00  0.00     0.049 A 
ATOM     42  N   UNL A   1      38.420  29.971  30.189  1.00  0.00    -0.248 NA
ATOM     43  C   UNL A   1      37.800  30.693  28.075  1.00  0.00     0.031 C 
ATOM     44  C   UNL A   1      39.586  34.552  30.160  1.00  0.00     0.029 A 
ATOM     45  N   UNL A   1      40.642  32.610  30.112  1.00  0.00    -0.354 N 
ATOM     46  C   UNL A   1      38.390  28.876  29.327  1.00  0.00     0.074 A 
ATOM     47  C   UNL A   1      37.830  29.359  28.089  1.00  0.00     0.031 C 
ATOM     48  C   UNL A   1      40.896  34.827  29.976  1.00  0.00     0.029 A 
ATOM     49  C   UNL A   1      41.629  33.575  29.948  1.00  0.00     0.049 A 
ATOM     50  H   UNL A   1      40.843  31.656  30.242  1.00  0.00     0.167 HD
ATOM     51  C   UNL A   1      39.043  27.715  29.614  1.00  0.00     0.031 A 
ATOM     52  C   UNL A   1      42.957  33.366  29.766  1.00  0.00     0.031 A 
ATOM     53  C   UNL A   1      39.476  27.675  30.987  1.00  0.00     0.049 A 
ATOM     54  C   UNL A   1      43.251  31.997  30.249  1.00  0.00     0.074 A 
ATOM     55  C   UNL A   1      38.843  27.723  32.213  1.00  0.00     0.029 A 
ATOM     56  N   UNL A   1      40.798  27.968  31.227  1.00  0.00    -0.354 N 
ATOM     57  N   UNL A   1      43.140  31.636  31.497  1.00  0.00    -0.248 NA
ATOM     58  C   UNL A   1      43.253  30.907  29.286  1.00  0.00     0.031 C 
ATOM     59  C   UNL A   1      39.708  28.496  33.041  1.00  0.00     0.029 A 
ATOM     60  C   UNL A   1      40.848  28.818  32.300  1.00  0.00     0.049 A 
ATOM     61  H   UNL A   1      41.569  27.628  30.719  1.00  0.00     0.167 HD
ATOM     62  C   UNL A   1      42.622  30.350  31.451  1.00  0.00     0.074 A 
ATOM     63  C   UNL A   1      42.826  29.914  30.072  1.00  0.00     0.031 C 
ATOM     64  C   UNL A   1      41.830  29.873  32.456  1.00  0.00     0.031 A 
BRANCH  51  65
ATOM     65  C   UNL A   1      39.650  26.797  28.573  1.00  0.00    -0.014 A 
ATOM     66  C   UNL A   1      39.270  25.437  28.562  1.00  0.00     0.010 A 
ATOM     67  C   UNL A   1      40.774  27.147  27.799  1.00  0.00     0.010 A 
ATOM     68  C   UNL A   1      40.027  24.472  27.884  1.00  0.00     0.020 A 
ATOM     69  C   UNL A   1      41.510  26.200  27.082  1.00  0.00     0.020 A 
ATOM     70  C   UNL A   1      41.154  24.861  27.162  1.00  0.00     0.054 A 
BRANCH  70  71
ATOM     71  S   UNL A   1      42.196  23.599  26.391  1.00  0.00     0.124 S 
ATOM     72  O   UNL A   1      42.687  24.297  25.207  1.00  0.00    -0.237 OA
ATOM     73  O   UNL A   1      43.188  23.337  27.430  1.00  0.00    -0.237 OA
ATOM     74  O   UNL A   1      41.268  22.501  26.132  1.00  0.00    -0.744 OA
ENDBRANCH  70  71
ENDBRANCH  51  65
BRANCH  52  75
ATOM     75  C   UNL A   1      43.910  34.164  28.958  1.00  0.00    -0.014 A 
ATOM     76  C   UNL A   1      45.156  34.556  29.478  1.00  0.00     0.010 A 
ATOM     77  C   UNL A   1      43.704  34.310  27.569  1.00  0.00     0.010 A 
ATOM     78  C   UNL A   1      46.180  35.020  28.633  1.00  0.00     0.020 A 
ATOM     79  C   UNL A   1      44.715  34.777  26.722  1.00  0.00     0.020 A 
ATOM     80  C   UNL A   1      45.958  35.108  27.255  1.00  0.00     0.054 A 
BRANCH  80  81
ATOM     81  S   UNL A   1      47.339  35.534  26.151  1.00  0.00     0.124 S 
ATOM     82  O   UNL A   1      47.035  36.915  25.793  1.00  0.00    -0.237 OA
ATOM     83  O   UNL A   1      48.504  35.345  27.011  1.00  0.00    -0.237 OA
ATOM     84  O   UNL A   1      47.216  34.569  25.059  1.00  0.00    -0.744 OA
ENDBRANCH  80  81
ENDBRANCH  52  75
BRANCH  64  85
ATOM     85  C   UNL A   1      41.787  30.635  33.763  1.00  0.00    -0.014 A 
ATOM     86  C   UNL A   1      40.932  31.728  34.010  1.00  0.00     0.010 A 
ATOM     87  C   UNL A   1      42.537  30.119  34.833  1.00  0.00     0.010 A 
ATOM     88  C   UNL A   1      40.854  32.302  35.288  1.00  0.00     0.020 A 
ATOM     89  C   UNL A   1      42.449  30.672  36.112  1.00  0.00     0.020 A 
ATOM     90  C   UNL A   1      41.615  31.768  36.333  1.00  0.00     0.054 A 
BRANCH  90  91
ATOM     91  S   UNL A   1      41.476  32.481  37.997  1.00  0.00     0.124 S 
ATOM     92  O   UNL A   1      42.300  31.579  38.797  1.00  0.00    -0.237 OA
ATOM     93  O   UNL A   1      42.009  33.830  37.820  1.00  0.00    -0.237 OA
ATOM     94  O   UNL A   1      40.042  32.424  38.282  1.00  0.00    -0.744 OA
ENDBRANCH  90  91
ENDBRANCH  64  85
ENDBRANCH  38  39
ENDBRANCH  30  33
ENDBRANCH  28  29
ENDBRANCH  27  28
ENDBRANCH   1  27
TORSDOF 19
ENDMDL
