MODEL 1
REMARK VINA RESULT:     -10.3      0.000      0.000
REMARK SMILES CC[C@]1(C(=O)NCCCCCCNC(=O)c2ccc(-c3c4nc(c(-c5ccc(S(=O)(=O)[O-])cc5)c5ccc([nH]5)c(-c5ccc(S(=O)(=O)[O-])cc5)c5nc(c(-c6ccc(S(=O)(=O)[O-])cc6)c6ccc3[nH]6)C=C5)C=C4)cc2)CCN(C(=O)[C@]2(C)CCCO2)C1
REMARK SMILES IDX 10 1 9 2 8 3 7 4 6 5 4 6 5 7 3 9 76 10 87 11 77 12 78 13
REMARK SMILES IDX 2 14 1 15 79 16 80 17 81 18 83 19 86 20 82 21 84 22 85 23
REMARK SMILES IDX 11 24 12 25 13 26 14 27 15 29 16 30 17 31 75 32 18 33 74 34
REMARK SMILES IDX 19 35 20 36 21 37 68 38 22 39 73 40 67 41 69 42 23 43 72 44
REMARK SMILES IDX 66 45 65 46 24 48 54 49 35 50 53 51 36 52 39 53 52 54 70 55
REMARK SMILES IDX 37 56 38 57 51 59 71 60 40 61 25 62 26 63 34 64 27 65 33 66
REMARK SMILES IDX 28 67 29 68 30 69 31 70 32 71 55 72 56 73 64 74 57 75 63 76
REMARK SMILES IDX 58 77 59 78 60 79 61 80 62 81 41 82 42 83 50 84 43 85 49 86
REMARK SMILES IDX 44 87 45 88 46 89 47 90 48 91
REMARK H PARENT 6 8 13 28 69 47 39 58
REMARK Flexibility Score: inf
ROOT
ATOM      1  C   UNL A   1      33.471  29.178  24.766  1.00  0.00     0.002 C 
ENDROOT
BRANCH   1   2
ATOM      2  C   UNL A   1      33.140  28.883  23.300  1.00  0.00     0.002 C 
BRANCH   2   3
ATOM      3  C   UNL A   1      31.648  28.884  22.947  1.00  0.00     0.021 C 
BRANCH   3   4
ATOM      4  C   UNL A   1      31.108  27.550  22.436  1.00  0.00     0.116 C 
BRANCH   4   5
ATOM      5  N   UNL A   1      32.148  26.753  21.809  1.00  0.00    -0.356 N 
ATOM      6  C   UNL A   1      32.650  25.517  22.071  1.00  0.00     0.228 C 
ATOM      7  O   UNL A   1      33.570  25.151  21.331  1.00  0.00    -0.274 OA
ATOM      8  H   UNL A   1      32.574  27.196  21.039  1.00  0.00     0.163 HD
BRANCH   6   9
ATOM      9  C   UNL A   1      32.149  24.624  23.227  1.00  0.00     0.068 C 
ATOM     10  C   UNL A   1      32.303  23.131  22.865  1.00  0.00     0.040 C 
ATOM     11  C   UNL A   1      33.017  24.821  24.483  1.00  0.00     0.136 C 
ATOM     12  C   UNL A   1      32.821  22.461  24.124  1.00  0.00     0.121 C 
ATOM     13  N   UNL A   1      33.524  23.499  24.839  1.00  0.00    -0.339 N 
BRANCH   9  14
ATOM     14  C   UNL A   1      30.646  24.958  23.477  1.00  0.00     0.015 C 
ATOM     15  C   UNL A   1      30.208  25.225  24.913  1.00  0.00     0.005 C 
ENDBRANCH   9  14
BRANCH  13  16
ATOM     16  C   UNL A   1      34.490  23.355  25.817  1.00  0.00     0.254 C 
ATOM     17  O   UNL A   1      34.167  23.447  27.008  1.00  0.00    -0.272 OA
BRANCH  16  18
ATOM     18  C   UNL A   1      35.989  23.169  25.408  1.00  0.00     0.144 C 
ATOM     19  C   UNL A   1      36.227  23.595  23.951  1.00  0.00     0.048 C 
ATOM     20  O   UNL A   1      36.453  21.815  25.531  1.00  0.00    -0.365 OA
ATOM     21  C   UNL A   1      36.856  24.029  26.344  1.00  0.00     0.053 C 
ATOM     22  C   UNL A   1      36.798  22.376  23.263  1.00  0.00     0.032 C 
ATOM     23  C   UNL A   1      37.271  21.502  24.401  1.00  0.00     0.162 C 
ENDBRANCH  16  18
ENDBRANCH  13  16
ENDBRANCH   6   9
ENDBRANCH   4   5
ENDBRANCH   3   4
ENDBRANCH   2   3
ENDBRANCH   1   2
BRANCH   1  24
ATOM     24  C   UNL A   1      33.201  28.033  25.745  1.00  0.00     0.021 C 
BRANCH  24  25
ATOM     25  C   UNL A   1      33.536  28.340  27.200  1.00  0.00     0.116 C 
BRANCH  25  26
ATOM     26  N   UNL A   1      33.423  29.756  27.511  1.00  0.00    -0.352 N 
ATOM     27  C   UNL A   1      34.352  30.584  28.097  1.00  0.00     0.251 C 
ATOM     28  H   UNL A   1      32.567  30.178  27.269  1.00  0.00     0.163 HD
ATOM     29  O   UNL A   1      34.045  31.717  28.442  1.00  0.00    -0.269 OA
BRANCH  27  30
ATOM     30  C   UNL A   1      35.723  30.078  28.327  1.00  0.00     0.039 A 
ATOM     31  C   UNL A   1      36.641  30.090  27.275  1.00  0.00     0.014 A 
ATOM     32  C   UNL A   1      36.102  29.617  29.591  1.00  0.00     0.014 A 
ATOM     33  C   UNL A   1      37.963  29.701  27.505  1.00  0.00     0.010 A 
ATOM     34  C   UNL A   1      37.432  29.290  29.833  1.00  0.00     0.010 A 
ATOM     35  C   UNL A   1      38.377  29.330  28.795  1.00  0.00    -0.014 A 
BRANCH  35  36
ATOM     36  C   UNL A   1      39.784  28.964  29.098  1.00  0.00     0.031 A 
ATOM     37  C   UNL A   1      40.716  30.004  29.656  1.00  0.00     0.074 A 
ATOM     38  C   UNL A   1      40.247  27.740  28.779  1.00  0.00     0.049 A 
ATOM     39  N   UNL A   1      42.011  29.947  29.827  1.00  0.00    -0.248 NA
ATOM     40  C   UNL A   1      40.113  31.290  30.044  1.00  0.00     0.031 C 
ATOM     41  C   UNL A   1      39.449  26.647  28.221  1.00  0.00     0.029 A 
ATOM     42  N   UNL A   1      41.514  27.216  28.862  1.00  0.00    -0.354 N 
ATOM     43  C   UNL A   1      42.383  31.195  30.312  1.00  0.00     0.074 A 
ATOM     44  C   UNL A   1      41.182  32.000  30.371  1.00  0.00     0.031 C 
ATOM     45  C   UNL A   1      40.241  25.580  28.022  1.00  0.00     0.029 A 
ATOM     46  C   UNL A   1      41.610  25.928  28.391  1.00  0.00     0.049 A 
ATOM     47  H   UNL A   1      42.281  27.715  29.225  1.00  0.00     0.167 HD
ATOM     48  C   UNL A   1      43.610  31.628  30.685  1.00  0.00     0.031 A 
ATOM     49  C   UNL A   1      42.682  25.123  28.252  1.00  0.00     0.031 A 
ATOM     50  C   UNL A   1      44.798  30.819  30.640  1.00  0.00     0.049 A 
ATOM     51  C   UNL A   1      44.040  25.630  28.657  1.00  0.00     0.074 A 
ATOM     52  C   UNL A   1      46.082  31.152  31.032  1.00  0.00     0.029 A 
ATOM     53  N   UNL A   1      44.846  29.512  30.179  1.00  0.00    -0.354 N 
ATOM     54  N   UNL A   1      44.369  26.806  29.140  1.00  0.00    -0.248 NA
ATOM     55  C   UNL A   1      45.170  24.702  28.507  1.00  0.00     0.031 C 
ATOM     56  C   UNL A   1      46.916  30.060  30.769  1.00  0.00     0.029 A 
ATOM     57  C   UNL A   1      46.139  29.028  30.265  1.00  0.00     0.049 A 
ATOM     58  H   UNL A   1      44.075  29.003  29.840  1.00  0.00     0.167 HD
ATOM     59  C   UNL A   1      45.736  26.744  29.385  1.00  0.00     0.074 A 
ATOM     60  C   UNL A   1      46.173  25.418  28.998  1.00  0.00     0.031 C 
ATOM     61  C   UNL A   1      46.554  27.700  29.891  1.00  0.00     0.031 A 
BRANCH  48  62
ATOM     62  C   UNL A   1      43.727  33.051  31.164  1.00  0.00    -0.014 A 
ATOM     63  C   UNL A   1      43.953  34.106  30.261  1.00  0.00     0.010 A 
ATOM     64  C   UNL A   1      43.590  33.341  32.534  1.00  0.00     0.010 A 
ATOM     65  C   UNL A   1      44.092  35.417  30.724  1.00  0.00     0.020 A 
ATOM     66  C   UNL A   1      43.699  34.655  32.998  1.00  0.00     0.020 A 
ATOM     67  C   UNL A   1      43.972  35.681  32.092  1.00  0.00     0.054 A 
BRANCH  67  68
ATOM     68  S   UNL A   1      44.154  37.392  32.666  1.00  0.00     0.124 S 
ATOM     69  O   UNL A   1      45.486  37.366  33.266  1.00  0.00    -0.237 OA
ATOM     70  O   UNL A   1      44.036  38.162  31.431  1.00  0.00    -0.237 OA
ATOM     71  O   UNL A   1      43.051  37.560  33.609  1.00  0.00    -0.744 OA
ENDBRANCH  67  68
ENDBRANCH  48  62
BRANCH  49  72
ATOM     72  C   UNL A   1      42.512  23.745  27.716  1.00  0.00    -0.014 A 
ATOM     73  C   UNL A   1      42.449  22.647  28.592  1.00  0.00     0.010 A 
ATOM     74  C   UNL A   1      42.395  23.524  26.332  1.00  0.00     0.010 A 
ATOM     75  C   UNL A   1      42.285  21.352  28.093  1.00  0.00     0.020 A 
ATOM     76  C   UNL A   1      42.206  22.232  25.831  1.00  0.00     0.020 A 
ATOM     77  C   UNL A   1      42.163  21.153  26.715  1.00  0.00     0.054 A 
BRANCH  77  78
ATOM     78  S   UNL A   1      41.897  19.467  26.096  1.00  0.00     0.124 S 
ATOM     79  O   UNL A   1      42.309  18.658  27.238  1.00  0.00    -0.237 OA
ATOM     80  O   UNL A   1      40.467  19.462  25.799  1.00  0.00    -0.237 OA
ATOM     81  O   UNL A   1      42.770  19.393  24.927  1.00  0.00    -0.744 OA
ENDBRANCH  77  78
ENDBRANCH  49  72
BRANCH  61  82
ATOM     82  C   UNL A   1      47.997  27.337  30.116  1.00  0.00    -0.014 A 
ATOM     83  C   UNL A   1      48.976  27.590  29.140  1.00  0.00     0.010 A 
ATOM     84  C   UNL A   1      48.388  26.814  31.364  1.00  0.00     0.010 A 
ATOM     85  C   UNL A   1      50.321  27.313  29.404  1.00  0.00     0.020 A 
ATOM     86  C   UNL A   1      49.733  26.559  31.637  1.00  0.00     0.020 A 
ATOM     87  C   UNL A   1      50.691  26.802  30.652  1.00  0.00     0.054 A 
BRANCH  87  88
ATOM     88  S   UNL A   1      52.450  26.521  30.996  1.00  0.00     0.124 S 
ATOM     89  O   UNL A   1      52.414  25.281  31.766  1.00  0.00    -0.237 OA
ATOM     90  O   UNL A   1      53.025  26.413  29.658  1.00  0.00    -0.237 OA
ATOM     91  O   UNL A   1      52.850  27.709  31.747  1.00  0.00    -0.744 OA
ENDBRANCH  87  88
ENDBRANCH  61  82
ENDBRANCH  35  36
ENDBRANCH  27  30
ENDBRANCH  25  26
ENDBRANCH  24  25
ENDBRANCH   1  24
TORSDOF 19
ENDMDL
MODEL 2
REMARK VINA RESULT:      -9.9      2.752      9.250
REMARK SMILES CC[C@]1(C(=O)NCCCCCCNC(=O)c2ccc(-c3c4nc(c(-c5ccc(S(=O)(=O)[O-])cc5)c5ccc([nH]5)c(-c5ccc(S(=O)(=O)[O-])cc5)c5nc(c(-c6ccc(S(=O)(=O)[O-])cc6)c6ccc3[nH]6)C=C5)C=C4)cc2)CCN(C(=O)[C@]2(C)CCCO2)C1
REMARK SMILES IDX 10 1 9 2 8 3 7 4 6 5 4 6 5 7 3 9 76 10 87 11 77 12 78 13
REMARK SMILES IDX 2 14 1 15 79 16 80 17 81 18 83 19 86 20 82 21 84 22 85 23
REMARK SMILES IDX 11 24 12 25 13 26 14 27 15 29 16 30 17 31 75 32 18 33 74 34
REMARK SMILES IDX 19 35 20 36 21 37 68 38 22 39 73 40 67 41 69 42 23 43 72 44
REMARK SMILES IDX 66 45 65 46 24 48 54 49 35 50 53 51 36 52 39 53 52 54 70 55
REMARK SMILES IDX 37 56 38 57 51 59 71 60 40 61 25 62 26 63 34 64 27 65 33 66
REMARK SMILES IDX 28 67 29 68 30 69 31 70 32 71 55 72 56 73 64 74 57 75 63 76
REMARK SMILES IDX 58 77 59 78 60 79 61 80 62 81 41 82 42 83 50 84 43 85 49 86
REMARK SMILES IDX 44 87 45 88 46 89 47 90 48 91
REMARK H PARENT 6 8 13 28 69 47 39 58
REMARK Flexibility Score: inf
ROOT
ATOM      1  C   UNL A   1      34.744  22.872  26.600  1.00  0.00     0.002 C 
ENDROOT
BRANCH   1   2
ATOM      2  C   UNL A   1      34.001  21.557  26.862  1.00  0.00     0.002 C 
BRANCH   2   3
ATOM      3  C   UNL A   1      33.408  20.876  25.623  1.00  0.00     0.021 C 
BRANCH   3   4
ATOM      4  C   UNL A   1      32.124  21.510  25.094  1.00  0.00     0.116 C 
BRANCH   4   5
ATOM      5  N   UNL A   1      31.334  22.099  26.162  1.00  0.00    -0.356 N 
ATOM      6  C   UNL A   1      30.787  23.331  26.334  1.00  0.00     0.228 C 
ATOM      7  O   UNL A   1      30.182  23.498  27.400  1.00  0.00    -0.274 OA
ATOM      8  H   UNL A   1      31.160  21.482  26.909  1.00  0.00     0.163 HD
BRANCH   6   9
ATOM      9  C   UNL A   1      30.923  24.474  25.304  1.00  0.00     0.068 C 
ATOM     10  C   UNL A   1      29.941  25.620  25.633  1.00  0.00     0.040 C 
ATOM     11  C   UNL A   1      32.320  25.113  25.381  1.00  0.00     0.136 C 
ATOM     12  C   UNL A   1      30.725  26.900  25.415  1.00  0.00     0.121 C 
ATOM     13  N   UNL A   1      32.105  26.535  25.631  1.00  0.00    -0.339 N 
BRANCH   9  14
ATOM     14  C   UNL A   1      30.605  23.890  23.893  1.00  0.00     0.015 C 
ATOM     15  C   UNL A   1      31.034  24.703  22.677  1.00  0.00     0.005 C 
ENDBRANCH   9  14
BRANCH  13  16
ATOM     16  C   UNL A   1      33.167  27.365  25.939  1.00  0.00     0.254 C 
ATOM     17  O   UNL A   1      34.189  26.881  26.442  1.00  0.00    -0.272 OA
BRANCH  16  18
ATOM     18  C   UNL A   1      33.032  28.910  25.735  1.00  0.00     0.144 C 
ATOM     19  C   UNL A   1      34.191  29.666  26.402  1.00  0.00     0.048 C 
ATOM     20  O   UNL A   1      31.813  29.454  26.268  1.00  0.00    -0.365 OA
ATOM     21  C   UNL A   1      33.030  29.200  24.224  1.00  0.00     0.053 C 
ATOM     22  C   UNL A   1      33.541  30.620  27.377  1.00  0.00     0.032 C 
ATOM     23  C   UNL A   1      32.105  30.695  26.915  1.00  0.00     0.162 C 
ENDBRANCH  16  18
ENDBRANCH  13  16
ENDBRANCH   6   9
ENDBRANCH   4   5
ENDBRANCH   3   4
ENDBRANCH   2   3
ENDBRANCH   1   2
BRANCH   1  24
ATOM     24  C   UNL A   1      35.579  22.911  25.319  1.00  0.00     0.021 C 
BRANCH  24  25
ATOM     25  C   UNL A   1      36.917  23.631  25.447  1.00  0.00     0.116 C 
BRANCH  25  26
ATOM     26  N   UNL A   1      38.035  22.710  25.566  1.00  0.00    -0.352 N 
ATOM     27  C   UNL A   1      39.286  22.940  26.093  1.00  0.00     0.251 C 
ATOM     28  H   UNL A   1      37.876  21.800  25.226  1.00  0.00     0.163 HD
ATOM     29  O   UNL A   1      40.173  22.107  25.973  1.00  0.00    -0.269 OA
BRANCH  27  30
ATOM     30  C   UNL A   1      39.550  24.219  26.787  1.00  0.00     0.039 A 
ATOM     31  C   UNL A   1      39.053  24.410  28.079  1.00  0.00     0.014 A 
ATOM     32  C   UNL A   1      40.310  25.215  26.167  1.00  0.00     0.014 A 
ATOM     33  C   UNL A   1      39.374  25.577  28.777  1.00  0.00     0.010 A 
ATOM     34  C   UNL A   1      40.680  26.345  26.886  1.00  0.00     0.010 A 
ATOM     35  C   UNL A   1      40.218  26.539  28.198  1.00  0.00    -0.014 A 
BRANCH  35  36
ATOM     36  C   UNL A   1      40.632  27.766  28.926  1.00  0.00     0.031 A 
ATOM     37  C   UNL A   1      41.949  27.788  29.652  1.00  0.00     0.074 A 
ATOM     38  C   UNL A   1      39.789  28.812  29.019  1.00  0.00     0.049 A 
ATOM     39  N   UNL A   1      42.420  28.681  30.482  1.00  0.00    -0.248 NA
ATOM     40  C   UNL A   1      42.840  26.635  29.437  1.00  0.00     0.031 C 
ATOM     41  C   UNL A   1      38.479  28.910  28.373  1.00  0.00     0.029 A 
ATOM     42  N   UNL A   1      39.903  29.990  29.716  1.00  0.00    -0.354 N 
ATOM     43  C   UNL A   1      43.646  28.187  30.912  1.00  0.00     0.074 A 
ATOM     44  C   UNL A   1      43.826  26.898  30.281  1.00  0.00     0.031 C 
ATOM     45  C   UNL A   1      37.916  30.087  28.694  1.00  0.00     0.029 A 
ATOM     46  C   UNL A   1      38.801  30.805  29.607  1.00  0.00     0.049 A 
ATOM     47  H   UNL A   1      40.699  30.229  30.243  1.00  0.00     0.167 HD
ATOM     48  C   UNL A   1      44.544  28.759  31.748  1.00  0.00     0.031 A 
ATOM     49  C   UNL A   1      38.524  31.988  30.190  1.00  0.00     0.031 A 
ATOM     50  C   UNL A   1      44.367  30.048  32.361  1.00  0.00     0.049 A 
ATOM     51  C   UNL A   1      39.530  32.598  31.129  1.00  0.00     0.074 A 
ATOM     52  C   UNL A   1      45.235  30.732  33.193  1.00  0.00     0.029 A 
ATOM     53  N   UNL A   1      43.247  30.850  32.204  1.00  0.00    -0.354 N 
ATOM     54  N   UNL A   1      40.696  32.128  31.505  1.00  0.00    -0.248 NA
ATOM     55  C   UNL A   1      39.186  33.900  31.718  1.00  0.00     0.031 C 
ATOM     56  C   UNL A   1      44.622  31.931  33.572  1.00  0.00     0.029 A 
ATOM     57  C   UNL A   1      43.396  32.017  32.932  1.00  0.00     0.049 A 
ATOM     58  H   UNL A   1      42.462  30.623  31.655  1.00  0.00     0.167 HD
ATOM     59  C   UNL A   1      41.241  33.095  32.343  1.00  0.00     0.074 A 
ATOM     60  C   UNL A   1      40.277  34.174  32.421  1.00  0.00     0.031 C 
ATOM     61  C   UNL A   1      42.434  33.089  32.986  1.00  0.00     0.031 A 
BRANCH  48  62
ATOM     62  C   UNL A   1      45.796  27.981  32.057  1.00  0.00    -0.014 A 
ATOM     63  C   UNL A   1      46.955  28.126  31.272  1.00  0.00     0.010 A 
ATOM     64  C   UNL A   1      45.821  27.107  33.159  1.00  0.00     0.010 A 
ATOM     65  C   UNL A   1      48.098  27.372  31.551  1.00  0.00     0.020 A 
ATOM     66  C   UNL A   1      46.972  26.373  33.460  1.00  0.00     0.020 A 
ATOM     67  C   UNL A   1      48.096  26.494  32.640  1.00  0.00     0.054 A 
BRANCH  67  68
ATOM     68  S   UNL A   1      49.593  25.529  32.982  1.00  0.00     0.124 S 
ATOM     69  O   UNL A   1      50.335  26.430  33.860  1.00  0.00    -0.237 OA
ATOM     70  O   UNL A   1      49.064  24.326  33.619  1.00  0.00    -0.237 OA
ATOM     71  O   UNL A   1      50.181  25.324  31.661  1.00  0.00    -0.744 OA
ENDBRANCH  67  68
ENDBRANCH  48  62
BRANCH  49  72
ATOM     72  C   UNL A   1      37.241  32.681  29.891  1.00  0.00    -0.014 A 
ATOM     73  C   UNL A   1      36.132  32.513  30.740  1.00  0.00     0.010 A 
ATOM     74  C   UNL A   1      37.125  33.523  28.771  1.00  0.00     0.010 A 
ATOM     75  C   UNL A   1      34.927  33.165  30.466  1.00  0.00     0.020 A 
ATOM     76  C   UNL A   1      35.927  34.196  28.508  1.00  0.00     0.020 A 
ATOM     77  C   UNL A   1      34.832  34.003  29.352  1.00  0.00     0.054 A 
BRANCH  77  78
ATOM     78  S   UNL A   1      33.272  34.880  29.049  1.00  0.00     0.124 S 
ATOM     79  O   UNL A   1      33.742  36.185  28.594  1.00  0.00    -0.237 OA
ATOM     80  O   UNL A   1      32.634  34.047  28.032  1.00  0.00    -0.237 OA
ATOM     81  O   UNL A   1      32.616  34.869  30.354  1.00  0.00    -0.744 OA
ENDBRANCH  77  78
ENDBRANCH  49  72
BRANCH  61  82
ATOM     82  C   UNL A   1      42.803  34.309  33.785  1.00  0.00    -0.014 A 
ATOM     83  C   UNL A   1      42.673  34.334  35.184  1.00  0.00     0.010 A 
ATOM     84  C   UNL A   1      43.372  35.416  33.127  1.00  0.00     0.010 A 
ATOM     85  C   UNL A   1      43.093  35.452  35.911  1.00  0.00     0.020 A 
ATOM     86  C   UNL A   1      43.814  36.524  33.853  1.00  0.00     0.020 A 
ATOM     87  C   UNL A   1      43.664  36.538  35.241  1.00  0.00     0.054 A 
BRANCH  87  88
ATOM     88  S   UNL A   1      44.270  37.946  36.212  1.00  0.00     0.124 S 
ATOM     89  O   UNL A   1      45.640  37.539  36.514  1.00  0.00    -0.237 OA
ATOM     90  O   UNL A   1      44.138  39.060  35.277  1.00  0.00    -0.237 OA
ATOM     91  O   UNL A   1      43.365  37.991  37.358  1.00  0.00    -0.744 OA
ENDBRANCH  87  88
ENDBRANCH  61  82
ENDBRANCH  35  36
ENDBRANCH  27  30
ENDBRANCH  25  26
ENDBRANCH  24  25
ENDBRANCH   1  24
TORSDOF 19
ENDMDL
MODEL 3
REMARK VINA RESULT:      -9.9      4.892      6.848
REMARK SMILES CC[C@]1(C(=O)NCCCCCCNC(=O)c2ccc(-c3c4nc(c(-c5ccc(S(=O)(=O)[O-])cc5)c5ccc([nH]5)c(-c5ccc(S(=O)(=O)[O-])cc5)c5nc(c(-c6ccc(S(=O)(=O)[O-])cc6)c6ccc3[nH]6)C=C5)C=C4)cc2)CCN(C(=O)[C@]2(C)CCCO2)C1
REMARK SMILES IDX 10 1 9 2 8 3 7 4 6 5 4 6 5 7 3 9 76 10 87 11 77 12 78 13
REMARK SMILES IDX 2 14 1 15 79 16 80 17 81 18 83 19 86 20 82 21 84 22 85 23
REMARK SMILES IDX 11 24 12 25 13 26 14 27 15 29 16 30 17 31 75 32 18 33 74 34
REMARK SMILES IDX 19 35 20 36 21 37 68 38 22 39 73 40 67 41 69 42 23 43 72 44
REMARK SMILES IDX 66 45 65 46 24 48 54 49 35 50 53 51 36 52 39 53 52 54 70 55
REMARK SMILES IDX 37 56 38 57 51 59 71 60 40 61 25 62 26 63 34 64 27 65 33 66
REMARK SMILES IDX 28 67 29 68 30 69 31 70 32 71 55 72 56 73 64 74 57 75 63 76
REMARK SMILES IDX 58 77 59 78 60 79 61 80 62 81 41 82 42 83 50 84 43 85 49 86
REMARK SMILES IDX 44 87 45 88 46 89 47 90 48 91
REMARK H PARENT 6 8 13 28 69 47 39 58
REMARK Flexibility Score: inf
ROOT
ATOM      1  C   UNL A   1      35.253  31.831  27.840  1.00  0.00     0.002 C 
ENDROOT
BRANCH   1   2
ATOM      2  C   UNL A   1      35.401  30.482  28.553  1.00  0.00     0.002 C 
BRANCH   2   3
ATOM      3  C   UNL A   1      35.549  29.264  27.635  1.00  0.00     0.021 C 
BRANCH   3   4
ATOM      4  C   UNL A   1      34.376  29.027  26.687  1.00  0.00     0.116 C 
BRANCH   4   5
ATOM      5  N   UNL A   1      33.141  28.778  27.411  1.00  0.00    -0.356 N 
ATOM      6  C   UNL A   1      32.113  27.910  27.214  1.00  0.00     0.228 C 
ATOM      7  O   UNL A   1      31.189  27.989  28.032  1.00  0.00    -0.274 OA
ATOM      8  H   UNL A   1      33.026  29.353  28.202  1.00  0.00     0.163 HD
BRANCH   6   9
ATOM      9  C   UNL A   1      32.059  26.908  26.040  1.00  0.00     0.068 C 
ATOM     10  C   UNL A   1      30.730  26.122  26.060  1.00  0.00     0.040 C 
ATOM     11  C   UNL A   1      32.065  27.648  24.691  1.00  0.00     0.136 C 
ATOM     12  C   UNL A   1      30.282  26.050  24.612  1.00  0.00     0.121 C 
ATOM     13  N   UNL A   1      30.868  27.208  23.981  1.00  0.00    -0.339 N 
BRANCH   9  14
ATOM     14  C   UNL A   1      33.261  25.924  26.193  1.00  0.00     0.015 C 
ATOM     15  C   UNL A   1      34.021  25.534  24.930  1.00  0.00     0.005 C 
ENDBRANCH   9  14
BRANCH  13  16
ATOM     16  C   UNL A   1      30.478  27.829  22.809  1.00  0.00     0.254 C 
ATOM     17  O   UNL A   1      30.855  27.368  21.724  1.00  0.00    -0.272 OA
BRANCH  16  18
ATOM     18  C   UNL A   1      29.643  29.151  22.869  1.00  0.00     0.144 C 
ATOM     19  C   UNL A   1      28.192  28.877  23.292  1.00  0.00     0.048 C 
ATOM     20  O   UNL A   1      29.591  29.853  21.617  1.00  0.00    -0.365 OA
ATOM     21  C   UNL A   1      30.307  30.095  23.886  1.00  0.00     0.053 C 
ATOM     22  C   UNL A   1      27.336  29.420  22.170  1.00  0.00     0.032 C 
ATOM     23  C   UNL A   1      28.263  30.345  21.418  1.00  0.00     0.162 C 
ENDBRANCH  16  18
ENDBRANCH  13  16
ENDBRANCH   6   9
ENDBRANCH   4   5
ENDBRANCH   3   4
ENDBRANCH   2   3
ENDBRANCH   1   2
BRANCH   1  24
ATOM     24  C   UNL A   1      33.890  32.508  27.991  1.00  0.00     0.021 C 
BRANCH  24  25
ATOM     25  C   UNL A   1      33.908  34.027  27.849  1.00  0.00     0.116 C 
BRANCH  25  26
ATOM     26  N   UNL A   1      33.225  34.696  28.944  1.00  0.00    -0.352 N 
ATOM     27  C   UNL A   1      33.482  34.617  30.293  1.00  0.00     0.251 C 
ATOM     28  H   UNL A   1      32.479  35.284  28.685  1.00  0.00     0.163 HD
ATOM     29  O   UNL A   1      32.711  35.114  31.103  1.00  0.00    -0.269 OA
BRANCH  27  30
ATOM     30  C   UNL A   1      34.692  33.902  30.755  1.00  0.00     0.039 A 
ATOM     31  C   UNL A   1      35.949  34.458  30.509  1.00  0.00     0.014 A 
ATOM     32  C   UNL A   1      34.576  32.696  31.451  1.00  0.00     0.014 A 
ATOM     33  C   UNL A   1      37.092  33.837  31.019  1.00  0.00     0.010 A 
ATOM     34  C   UNL A   1      35.708  32.114  32.012  1.00  0.00     0.010 A 
ATOM     35  C   UNL A   1      36.977  32.678  31.804  1.00  0.00    -0.014 A 
BRANCH  35  36
ATOM     36  C   UNL A   1      38.159  32.018  32.415  1.00  0.00     0.031 A 
ATOM     37  C   UNL A   1      38.565  32.378  33.818  1.00  0.00     0.074 A 
ATOM     38  C   UNL A   1      38.919  31.182  31.683  1.00  0.00     0.049 A 
ATOM     39  N   UNL A   1      39.651  32.056  34.472  1.00  0.00    -0.248 NA
ATOM     40  C   UNL A   1      37.641  33.242  34.572  1.00  0.00     0.031 C 
ATOM     41  C   UNL A   1      38.640  30.762  30.308  1.00  0.00     0.029 A 
ATOM     42  N   UNL A   1      40.098  30.548  31.989  1.00  0.00    -0.354 N 
ATOM     43  C   UNL A   1      39.555  32.699  35.701  1.00  0.00     0.074 A 
ATOM     44  C   UNL A   1      38.326  33.461  35.684  1.00  0.00     0.031 C 
ATOM     45  C   UNL A   1      39.613  29.933  29.895  1.00  0.00     0.029 A 
ATOM     46  C   UNL A   1      40.609  29.801  30.954  1.00  0.00     0.049 A 
ATOM     47  H   UNL A   1      40.536  30.621  32.869  1.00  0.00     0.167 HD
ATOM     48  C   UNL A   1      40.409  32.651  36.751  1.00  0.00     0.031 A 
ATOM     49  C   UNL A   1      41.759  29.105  30.860  1.00  0.00     0.031 A 
ATOM     50  C   UNL A   1      41.622  31.880  36.768  1.00  0.00     0.049 A 
ATOM     51  C   UNL A   1      42.702  29.079  32.033  1.00  0.00     0.074 A 
ATOM     52  C   UNL A   1      42.535  31.734  37.797  1.00  0.00     0.029 A 
ATOM     53  N   UNL A   1      42.090  31.119  35.707  1.00  0.00    -0.354 N 
ATOM     54  N   UNL A   1      42.583  29.672  33.198  1.00  0.00    -0.248 NA
ATOM     55  C   UNL A   1      43.929  28.285  31.884  1.00  0.00     0.031 C 
ATOM     56  C   UNL A   1      43.577  30.918  37.344  1.00  0.00     0.029 A 
ATOM     57  C   UNL A   1      43.284  30.511  36.051  1.00  0.00     0.049 A 
ATOM     58  H   UNL A   1      41.639  31.025  34.837  1.00  0.00     0.167 HD
ATOM     59  C   UNL A   1      43.700  29.292  33.932  1.00  0.00     0.074 A 
ATOM     60  C   UNL A   1      44.484  28.420  33.081  1.00  0.00     0.031 C 
ATOM     61  C   UNL A   1      44.043  29.632  35.199  1.00  0.00     0.031 A 
BRANCH  48  62
ATOM     62  C   UNL A   1      40.060  33.470  37.965  1.00  0.00    -0.014 A 
ATOM     63  C   UNL A   1      39.419  32.890  39.075  1.00  0.00     0.010 A 
ATOM     64  C   UNL A   1      40.393  34.837  38.005  1.00  0.00     0.010 A 
ATOM     65  C   UNL A   1      39.072  33.671  40.180  1.00  0.00     0.020 A 
ATOM     66  C   UNL A   1      40.074  35.615  39.121  1.00  0.00     0.020 A 
ATOM     67  C   UNL A   1      39.395  35.032  40.192  1.00  0.00     0.054 A 
BRANCH  67  68
ATOM     68  S   UNL A   1      38.935  36.022  41.640  1.00  0.00     0.124 S 
ATOM     69  O   UNL A   1      37.657  35.425  42.017  1.00  0.00    -0.237 OA
ATOM     70  O   UNL A   1      40.040  35.777  42.563  1.00  0.00    -0.237 OA
ATOM     71  O   UNL A   1      38.855  37.384  41.117  1.00  0.00    -0.744 OA
ENDBRANCH  67  68
ENDBRANCH  48  62
BRANCH  49  72
ATOM     72  C   UNL A   1      42.078  28.363  29.610  1.00  0.00    -0.014 A 
ATOM     73  C   UNL A   1      41.515  27.096  29.376  1.00  0.00     0.010 A 
ATOM     74  C   UNL A   1      42.927  28.924  28.640  1.00  0.00     0.010 A 
ATOM     75  C   UNL A   1      41.808  26.397  28.202  1.00  0.00     0.020 A 
ATOM     76  C   UNL A   1      43.203  28.239  27.452  1.00  0.00     0.020 A 
ATOM     77  C   UNL A   1      42.650  26.974  27.246  1.00  0.00     0.054 A 
BRANCH  77  78
ATOM     78  S   UNL A   1      42.971  26.070  25.705  1.00  0.00     0.124 S 
ATOM     79  O   UNL A   1      44.151  26.757  25.192  1.00  0.00    -0.237 OA
ATOM     80  O   UNL A   1      43.189  24.705  26.180  1.00  0.00    -0.237 OA
ATOM     81  O   UNL A   1      41.746  26.265  24.935  1.00  0.00    -0.744 OA
ENDBRANCH  77  78
ENDBRANCH  49  72
BRANCH  61  82
ATOM     82  C   UNL A   1      45.289  29.017  35.775  1.00  0.00    -0.014 A 
ATOM     83  C   UNL A   1      46.535  29.659  35.678  1.00  0.00     0.010 A 
ATOM     84  C   UNL A   1      45.189  27.814  36.501  1.00  0.00     0.010 A 
ATOM     85  C   UNL A   1      47.664  29.102  36.287  1.00  0.00     0.020 A 
ATOM     86  C   UNL A   1      46.310  27.269  37.130  1.00  0.00     0.020 A 
ATOM     87  C   UNL A   1      47.543  27.912  37.012  1.00  0.00     0.054 A 
BRANCH  87  88
ATOM     88  S   UNL A   1      49.006  27.249  37.856  1.00  0.00     0.124 S 
ATOM     89  O   UNL A   1      49.978  27.179  36.767  1.00  0.00    -0.237 OA
ATOM     90  O   UNL A   1      49.275  28.262  38.874  1.00  0.00    -0.237 OA
ATOM     91  O   UNL A   1      48.553  25.960  38.372  1.00  0.00    -0.744 OA
ENDBRANCH  87  88
ENDBRANCH  61  82
ENDBRANCH  35  36
ENDBRANCH  27  30
ENDBRANCH  25  26
ENDBRANCH  24  25
ENDBRANCH   1  24
TORSDOF 19
ENDMDL
