MODEL 1
REMARK VINA RESULT:     -11.4      0.000      0.000
REMARK SMILES CC[C@](NC(=O)c1cccc(CS(C)(=O)=O)c1)(C(=O)NCCCCCCNC(=O)c1ccc(-c2c3nc(c(-c4ccc(S(=O)(=O)[O-])cc4)c4ccc([nH]4)c(-c4ccc(S(=O)(=O)[O-])cc4)c4nc(c(-c5ccc(S(=O)(=O)[O-])cc5)c5ccc2[nH]5)C=C4)C=C3)cc1)c1ccccc1
REMARK SMILES IDX 23 1 22 2 21 3 20 4 18 5 19 6 3 8 2 9 1 10 90 11 91 12 95 13
REMARK SMILES IDX 92 14 94 15 93 16 4 17 5 18 6 20 7 21 8 22 17 23 9 24 11 25
REMARK SMILES IDX 10 26 12 27 13 28 14 29 15 30 16 31 24 32 25 33 26 34 27 35
REMARK SMILES IDX 28 36 29 38 30 39 31 40 89 41 32 42 88 43 33 44 34 45 35 46
REMARK SMILES IDX 82 47 36 48 87 49 81 50 83 51 37 52 86 53 80 54 79 55 38 57
REMARK SMILES IDX 68 58 49 59 67 60 50 61 53 62 66 63 84 64 51 65 52 66 65 68
REMARK SMILES IDX 85 69 54 70 39 71 40 72 48 73 41 74 47 75 42 76 43 77 44 78
REMARK SMILES IDX 45 79 46 80 69 81 70 82 78 83 71 84 77 85 72 86 73 87 74 88
REMARK SMILES IDX 75 89 76 90 55 91 56 92 64 93 57 94 63 95 58 96 59 97 60 98
REMARK SMILES IDX 61 99 62 100
REMARK H PARENT 20 7 4 19 27 37 83 56 53 67
REMARK Flexibility Score: inf
ROOT
ATOM      1  C   UNL A   1      32.273  29.643  27.144  1.00  0.00     0.002 C 
ENDROOT
BRANCH   1   2
ATOM      2  C   UNL A   1      32.107  29.761  25.641  1.00  0.00     0.021 C 
BRANCH   2   3
ATOM      3  C   UNL A   1      30.910  29.119  24.927  1.00  0.00     0.116 C 
BRANCH   3   4
ATOM      4  N   UNL A   1      30.853  28.913  23.472  1.00  0.00    -0.354 N 
ATOM      5  C   UNL A   1      31.221  27.819  22.686  1.00  0.00     0.250 C 
ATOM      6  O   UNL A   1      30.684  27.698  21.581  1.00  0.00    -0.272 OA
ATOM      7  H   UNL A   1      30.494  29.677  22.967  1.00  0.00     0.163 HD
BRANCH   5   8
ATOM      8  C   UNL A   1      32.213  26.782  23.237  1.00  0.00     0.144 C 
BRANCH   8   9
ATOM      9  C   UNL A   1      33.637  27.517  23.426  1.00  0.00     0.040 C 
ATOM     10  C   UNL A   1      34.180  28.558  22.433  1.00  0.00     0.007 C 
ENDBRANCH   8   9
BRANCH   8  11
ATOM     11  C   UNL A   1      31.933  26.086  24.637  1.00  0.00    -0.013 A 
ATOM     12  C   UNL A   1      32.975  25.833  25.558  1.00  0.00     0.007 A 
ATOM     13  C   UNL A   1      30.716  25.419  24.910  1.00  0.00     0.007 A 
ATOM     14  C   UNL A   1      32.867  24.831  26.539  1.00  0.00     0.000 A 
ATOM     15  C   UNL A   1      30.590  24.455  25.921  1.00  0.00     0.000 A 
ATOM     16  C   UNL A   1      31.682  24.123  26.703  1.00  0.00     0.000 A 
ENDBRANCH   8  11
BRANCH   8  17
ATOM     17  N   UNL A   1      32.287  25.706  22.201  1.00  0.00    -0.334 N 
ATOM     18  C   UNL A   1      33.018  24.536  22.038  1.00  0.00     0.252 C 
ATOM     19  H   UNL A   1      31.667  25.865  21.452  1.00  0.00     0.165 HD
ATOM     20  O   UNL A   1      33.300  24.326  20.847  1.00  0.00    -0.269 OA
BRANCH  18  21
ATOM     21  C   UNL A   1      33.417  23.446  23.030  1.00  0.00     0.040 A 
ATOM     22  C   UNL A   1      34.795  23.437  23.344  1.00  0.00     0.014 A 
ATOM     23  C   UNL A   1      32.675  22.380  23.574  1.00  0.00     0.018 A 
ATOM     24  C   UNL A   1      35.396  22.401  24.069  1.00  0.00     0.001 A 
ATOM     25  C   UNL A   1      33.272  21.266  24.247  1.00  0.00    -0.032 A 
ATOM     26  C   UNL A   1      34.643  21.317  24.506  1.00  0.00     0.005 A 
BRANCH  25  27
ATOM     27  C   UNL A   1      32.413  20.155  24.827  1.00  0.00     0.172 C 
BRANCH  27  28
ATOM     28  S   UNL A   1      32.819  18.453  24.401  1.00  0.00     0.151 S 
ATOM     29  C   UNL A   1      32.434  18.146  22.688  1.00  0.00     0.158 C 
ATOM     30  O   UNL A   1      34.266  18.343  24.501  1.00  0.00    -0.229 OA
ATOM     31  O   UNL A   1      32.001  17.567  25.205  1.00  0.00    -0.229 OA
ENDBRANCH  27  28
ENDBRANCH  25  27
ENDBRANCH  18  21
ENDBRANCH   8  17
ENDBRANCH   5   8
ENDBRANCH   3   4
ENDBRANCH   2   3
ENDBRANCH   1   2
BRANCH   1  32
ATOM     32  C   UNL A   1      33.657  29.937  27.675  1.00  0.00     0.002 C 
BRANCH  32  33
ATOM     33  C   UNL A   1      34.795  29.227  26.965  1.00  0.00     0.021 C 
BRANCH  33  34
ATOM     34  C   UNL A   1      36.139  29.420  27.643  1.00  0.00     0.116 C 
BRANCH  34  35
ATOM     35  N   UNL A   1      36.068  29.408  29.101  1.00  0.00    -0.352 N 
ATOM     36  C   UNL A   1      37.070  29.084  29.984  1.00  0.00     0.251 C 
ATOM     37  H   UNL A   1      35.203  29.660  29.498  1.00  0.00     0.163 HD
ATOM     38  O   UNL A   1      36.860  29.029  31.191  1.00  0.00    -0.269 OA
BRANCH  36  39
ATOM     39  C   UNL A   1      38.396  28.763  29.421  1.00  0.00     0.039 A 
ATOM     40  C   UNL A   1      38.737  29.238  28.156  1.00  0.00     0.014 A 
ATOM     41  C   UNL A   1      39.338  28.119  30.225  1.00  0.00     0.014 A 
ATOM     42  C   UNL A   1      40.057  29.122  27.720  1.00  0.00     0.010 A 
ATOM     43  C   UNL A   1      40.669  28.113  29.838  1.00  0.00     0.010 A 
ATOM     44  C   UNL A   1      41.041  28.592  28.574  1.00  0.00    -0.014 A 
BRANCH  44  45
ATOM     45  C   UNL A   1      42.459  28.478  28.154  1.00  0.00     0.031 A 
ATOM     46  C   UNL A   1      43.381  29.654  28.352  1.00  0.00     0.074 A 
ATOM     47  C   UNL A   1      42.896  27.365  27.532  1.00  0.00     0.049 A 
ATOM     48  N   UNL A   1      44.630  29.796  27.989  1.00  0.00    -0.248 NA
ATOM     49  C   UNL A   1      42.810  30.846  29.001  1.00  0.00     0.031 C 
ATOM     50  C   UNL A   1      42.083  26.186  27.219  1.00  0.00     0.029 A 
ATOM     51  N   UNL A   1      44.141  27.043  27.052  1.00  0.00    -0.354 N 
ATOM     52  C   UNL A   1      44.970  31.102  28.321  1.00  0.00     0.074 A 
ATOM     53  C   UNL A   1      43.783  31.730  28.853  1.00  0.00     0.031 C 
ATOM     54  C   UNL A   1      42.862  25.253  26.646  1.00  0.00     0.029 A 
ATOM     55  C   UNL A   1      44.218  25.776  26.521  1.00  0.00     0.049 A 
ATOM     56  H   UNL A   1      44.906  27.660  27.085  1.00  0.00     0.167 HD
ATOM     57  C   UNL A   1      46.172  31.718  28.225  1.00  0.00     0.031 A 
ATOM     58  C   UNL A   1      45.270  25.110  26.007  1.00  0.00     0.031 A 
ATOM     59  C   UNL A   1      47.363  31.065  27.758  1.00  0.00     0.049 A 
ATOM     60  C   UNL A   1      46.614  25.786  25.979  1.00  0.00     0.074 A 
ATOM     61  C   UNL A   1      48.652  31.561  27.704  1.00  0.00     0.029 A 
ATOM     62  N   UNL A   1      47.410  29.764  27.280  1.00  0.00    -0.354 N 
ATOM     63  N   UNL A   1      46.935  26.999  26.364  1.00  0.00    -0.248 NA
ATOM     64  C   UNL A   1      47.741  24.998  25.464  1.00  0.00     0.031 C 
ATOM     65  C   UNL A   1      49.476  30.567  27.164  1.00  0.00     0.029 A 
ATOM     66  C   UNL A   1      48.706  29.440  26.923  1.00  0.00     0.049 A 
ATOM     67  H   UNL A   1      46.636  29.162  27.205  1.00  0.00     0.167 HD
ATOM     68  C   UNL A   1      48.308  27.106  26.171  1.00  0.00     0.074 A 
ATOM     69  C   UNL A   1      48.756  25.832  25.645  1.00  0.00     0.031 C 
ATOM     70  C   UNL A   1      49.126  28.160  26.412  1.00  0.00     0.031 A 
BRANCH  57  71
ATOM     71  C   UNL A   1      46.246  33.160  28.647  1.00  0.00    -0.014 A 
ATOM     72  C   UNL A   1      46.028  34.203  27.726  1.00  0.00     0.010 A 
ATOM     73  C   UNL A   1      46.540  33.482  29.984  1.00  0.00     0.010 A 
ATOM     74  C   UNL A   1      46.164  35.536  28.119  1.00  0.00     0.020 A 
ATOM     75  C   UNL A   1      46.644  34.816  30.389  1.00  0.00     0.020 A 
ATOM     76  C   UNL A   1      46.478  35.834  29.447  1.00  0.00     0.054 A 
BRANCH  76  77
ATOM     77  S   UNL A   1      46.645  37.574  29.933  1.00  0.00     0.124 S 
ATOM     78  O   UNL A   1      47.140  38.183  28.701  1.00  0.00    -0.237 OA
ATOM     79  O   UNL A   1      45.280  37.936  30.308  1.00  0.00    -0.237 OA
ATOM     80  O   UNL A   1      47.601  37.534  31.036  1.00  0.00    -0.744 OA
ENDBRANCH  76  77
ENDBRANCH  57  71
BRANCH  58  81
ATOM     81  C   UNL A   1      45.112  23.706  25.541  1.00  0.00    -0.014 A 
ATOM     82  C   UNL A   1      45.353  22.637  26.425  1.00  0.00     0.010 A 
ATOM     83  C   UNL A   1      44.711  23.424  24.223  1.00  0.00     0.010 A 
ATOM     84  C   UNL A   1      45.220  21.314  25.994  1.00  0.00     0.020 A 
ATOM     85  C   UNL A   1      44.551  22.101  23.796  1.00  0.00     0.020 A 
ATOM     86  C   UNL A   1      44.819  21.054  24.681  1.00  0.00     0.054 A 
BRANCH  86  87
ATOM     87  S   UNL A   1      44.608  19.329  24.157  1.00  0.00     0.124 S 
ATOM     88  O   UNL A   1      43.329  18.980  24.767  1.00  0.00    -0.237 OA
ATOM     89  O   UNL A   1      44.606  19.439  22.700  1.00  0.00    -0.237 OA
ATOM     90  O   UNL A   1      45.776  18.657  24.721  1.00  0.00    -0.744 OA
ENDBRANCH  86  87
ENDBRANCH  58  81
BRANCH  70  91
ATOM     91  C   UNL A   1      50.594  27.966  26.153  1.00  0.00    -0.014 A 
ATOM     92  C   UNL A   1      51.151  28.213  24.886  1.00  0.00     0.010 A 
ATOM     93  C   UNL A   1      51.435  27.580  27.213  1.00  0.00     0.010 A 
ATOM     94  C   UNL A   1      52.521  28.043  24.675  1.00  0.00     0.020 A 
ATOM     95  C   UNL A   1      52.809  27.435  27.012  1.00  0.00     0.020 A 
ATOM     96  C   UNL A   1      53.341  27.652  25.739  1.00  0.00     0.054 A 
BRANCH  96  97
ATOM     97  S   UNL A   1      55.122  27.474  25.452  1.00  0.00     0.124 S 
ATOM     98  O   UNL A   1      55.647  28.705  26.038  1.00  0.00    -0.237 OA
ATOM     99  O   UNL A   1      55.444  26.246  26.175  1.00  0.00    -0.237 OA
ATOM    100  O   UNL A   1      55.231  27.381  23.998  1.00  0.00    -0.744 OA
ENDBRANCH  96  97
ENDBRANCH  70  91
ENDBRANCH  44  45
ENDBRANCH  36  39
ENDBRANCH  34  35
ENDBRANCH  33  34
ENDBRANCH  32  33
ENDBRANCH   1  32
TORSDOF 22
ENDMDL
MODEL 2
REMARK VINA RESULT:     -10.4      1.326      7.855
REMARK SMILES CC[C@](NC(=O)c1cccc(CS(C)(=O)=O)c1)(C(=O)NCCCCCCNC(=O)c1ccc(-c2c3nc(c(-c4ccc(S(=O)(=O)[O-])cc4)c4ccc([nH]4)c(-c4ccc(S(=O)(=O)[O-])cc4)c4nc(c(-c5ccc(S(=O)(=O)[O-])cc5)c5ccc2[nH]5)C=C4)C=C3)cc1)c1ccccc1
REMARK SMILES IDX 23 1 22 2 21 3 20 4 18 5 19 6 3 8 2 9 1 10 90 11 91 12 95 13
REMARK SMILES IDX 92 14 94 15 93 16 4 17 5 18 6 20 7 21 8 22 17 23 9 24 11 25
REMARK SMILES IDX 10 26 12 27 13 28 14 29 15 30 16 31 24 32 25 33 26 34 27 35
REMARK SMILES IDX 28 36 29 38 30 39 31 40 89 41 32 42 88 43 33 44 34 45 35 46
REMARK SMILES IDX 82 47 36 48 87 49 81 50 83 51 37 52 86 53 80 54 79 55 38 57
REMARK SMILES IDX 68 58 49 59 67 60 50 61 53 62 66 63 84 64 51 65 52 66 65 68
REMARK SMILES IDX 85 69 54 70 39 71 40 72 48 73 41 74 47 75 42 76 43 77 44 78
REMARK SMILES IDX 45 79 46 80 69 81 70 82 78 83 71 84 77 85 72 86 73 87 74 88
REMARK SMILES IDX 75 89 76 90 55 91 56 92 64 93 57 94 63 95 58 96 59 97 60 98
REMARK SMILES IDX 61 99 62 100
REMARK H PARENT 20 7 4 19 27 37 83 56 53 67
REMARK Flexibility Score: inf
ROOT
ATOM      1  C   UNL A   1      31.916  30.323  26.521  1.00  0.00     0.002 C 
ENDROOT
BRANCH   1   2
ATOM      2  C   UNL A   1      31.974  29.836  25.086  1.00  0.00     0.021 C 
BRANCH   2   3
ATOM      3  C   UNL A   1      31.114  28.654  24.618  1.00  0.00     0.116 C 
BRANCH   3   4
ATOM      4  N   UNL A   1      31.032  28.219  23.217  1.00  0.00    -0.354 N 
ATOM      5  C   UNL A   1      31.278  26.977  22.627  1.00  0.00     0.250 C 
ATOM      6  O   UNL A   1      30.729  26.733  21.548  1.00  0.00    -0.272 OA
ATOM      7  H   UNL A   1      30.757  28.922  22.587  1.00  0.00     0.163 HD
BRANCH   5   8
ATOM      8  C   UNL A   1      32.152  25.944  23.357  1.00  0.00     0.144 C 
BRANCH   8   9
ATOM      9  C   UNL A   1      33.531  26.673  23.770  1.00  0.00     0.040 C 
ATOM     10  C   UNL A   1      34.469  26.134  24.864  1.00  0.00     0.007 C 
ENDBRANCH   8   9
BRANCH   8  11
ATOM     11  C   UNL A   1      31.633  25.278  24.702  1.00  0.00    -0.013 A 
ATOM     12  C   UNL A   1      32.428  25.255  25.870  1.00  0.00     0.007 A 
ATOM     13  C   UNL A   1      30.505  24.424  24.727  1.00  0.00     0.007 A 
ATOM     14  C   UNL A   1      32.229  24.297  26.881  1.00  0.00     0.000 A 
ATOM     15  C   UNL A   1      30.275  23.503  25.759  1.00  0.00     0.000 A 
ATOM     16  C   UNL A   1      31.166  23.404  26.812  1.00  0.00     0.000 A 
ENDBRANCH   8  11
BRANCH   8  17
ATOM     17  N   UNL A   1      32.389  24.847  22.368  1.00  0.00    -0.334 N 
ATOM     18  C   UNL A   1      33.290  23.796  22.252  1.00  0.00     0.252 C 
ATOM     19  H   UNL A   1      31.753  24.877  21.618  1.00  0.00     0.165 HD
ATOM     20  O   UNL A   1      33.601  23.579  21.070  1.00  0.00    -0.269 OA
BRANCH  18  21
ATOM     21  C   UNL A   1      33.850  22.824  23.289  1.00  0.00     0.040 A 
ATOM     22  C   UNL A   1      35.221  23.016  23.569  1.00  0.00     0.014 A 
ATOM     23  C   UNL A   1      33.268  21.700  23.905  1.00  0.00     0.018 A 
ATOM     24  C   UNL A   1      35.970  22.111  24.331  1.00  0.00     0.001 A 
ATOM     25  C   UNL A   1      34.022  20.713  24.619  1.00  0.00    -0.032 A 
ATOM     26  C   UNL A   1      35.377  20.961  24.840  1.00  0.00     0.005 A 
BRANCH  25  27
ATOM     27  C   UNL A   1      33.331  19.531  25.276  1.00  0.00     0.172 C 
BRANCH  27  28
ATOM     28  S   UNL A   1      33.394  17.936  24.441  1.00  0.00     0.151 S 
ATOM     29  C   UNL A   1      32.564  16.701  25.423  1.00  0.00     0.158 C 
ATOM     30  O   UNL A   1      32.595  18.076  23.235  1.00  0.00    -0.229 OA
ATOM     31  O   UNL A   1      34.782  17.537  24.309  1.00  0.00    -0.229 OA
ENDBRANCH  27  28
ENDBRANCH  25  27
ENDBRANCH  18  21
ENDBRANCH   8  17
ENDBRANCH   5   8
ENDBRANCH   3   4
ENDBRANCH   2   3
ENDBRANCH   1   2
BRANCH   1  32
ATOM     32  C   UNL A   1      33.076  29.916  27.399  1.00  0.00     0.002 C 
BRANCH  32  33
ATOM     33  C   UNL A   1      34.192  29.161  26.700  1.00  0.00     0.021 C 
BRANCH  33  34
ATOM     34  C   UNL A   1      35.450  29.037  27.539  1.00  0.00     0.116 C 
BRANCH  34  35
ATOM     35  N   UNL A   1      35.455  29.895  28.720  1.00  0.00    -0.352 N 
ATOM     36  C   UNL A   1      36.526  30.203  29.525  1.00  0.00     0.251 C 
ATOM     37  H   UNL A   1      34.593  30.299  28.970  1.00  0.00     0.163 HD
ATOM     38  O   UNL A   1      36.383  30.871  30.544  1.00  0.00    -0.269 OA
BRANCH  36  39
ATOM     39  C   UNL A   1      37.844  29.663  29.141  1.00  0.00     0.039 A 
ATOM     40  C   UNL A   1      38.230  29.684  27.802  1.00  0.00     0.014 A 
ATOM     41  C   UNL A   1      38.740  29.280  30.141  1.00  0.00     0.014 A 
ATOM     42  C   UNL A   1      39.551  29.379  27.470  1.00  0.00     0.010 A 
ATOM     43  C   UNL A   1      40.075  29.095  29.821  1.00  0.00     0.010 A 
ATOM     44  C   UNL A   1      40.492  29.119  28.482  1.00  0.00    -0.014 A 
BRANCH  44  45
ATOM     45  C   UNL A   1      41.911  28.818  28.168  1.00  0.00     0.031 A 
ATOM     46  C   UNL A   1      42.291  27.421  27.751  1.00  0.00     0.074 A 
ATOM     47  C   UNL A   1      42.858  29.764  28.330  1.00  0.00     0.049 A 
ATOM     48  N   UNL A   1      43.477  26.925  27.508  1.00  0.00    -0.248 NA
ATOM     49  C   UNL A   1      41.199  26.439  27.641  1.00  0.00     0.031 C 
ATOM     50  C   UNL A   1      42.625  31.135  28.796  1.00  0.00     0.029 A 
ATOM     51  N   UNL A   1      44.213  29.715  28.117  1.00  0.00    -0.354 N 
ATOM     52  C   UNL A   1      43.273  25.570  27.267  1.00  0.00     0.074 A 
ATOM     53  C   UNL A   1      41.865  25.310  27.456  1.00  0.00     0.031 C 
ATOM     54  C   UNL A   1      43.789  31.807  28.784  1.00  0.00     0.029 A 
ATOM     55  C   UNL A   1      44.853  30.911  28.343  1.00  0.00     0.049 A 
ATOM     56  H   UNL A   1      44.682  28.899  27.830  1.00  0.00     0.167 HD
ATOM     57  C   UNL A   1      44.171  24.631  26.888  1.00  0.00     0.031 A 
ATOM     58  C   UNL A   1      46.149  31.247  28.195  1.00  0.00     0.031 A 
ATOM     59  C   UNL A   1      45.556  24.912  26.636  1.00  0.00     0.049 A 
ATOM     60  C   UNL A   1      47.117  30.207  27.700  1.00  0.00     0.074 A 
ATOM     61  C   UNL A   1      46.536  24.061  26.160  1.00  0.00     0.029 A 
ATOM     62  N   UNL A   1      46.154  26.150  26.825  1.00  0.00    -0.354 N 
ATOM     63  N   UNL A   1      46.894  28.946  27.407  1.00  0.00    -0.248 NA
ATOM     64  C   UNL A   1      48.506  30.637  27.499  1.00  0.00     0.031 C 
ATOM     65  C   UNL A   1      47.736  24.778  26.090  1.00  0.00     0.029 A 
ATOM     66  C   UNL A   1      47.491  26.085  26.481  1.00  0.00     0.049 A 
ATOM     67  H   UNL A   1      45.694  26.954  27.156  1.00  0.00     0.167 HD
ATOM     68  C   UNL A   1      48.108  28.444  26.952  1.00  0.00     0.074 A 
ATOM     69  C   UNL A   1      49.057  29.539  27.001  1.00  0.00     0.031 C 
ATOM     70  C   UNL A   1      48.411  27.193  26.528  1.00  0.00     0.031 A 
BRANCH  57  71
ATOM     71  C   UNL A   1      43.668  23.223  26.714  1.00  0.00    -0.014 A 
ATOM     72  C   UNL A   1      43.026  22.542  27.765  1.00  0.00     0.010 A 
ATOM     73  C   UNL A   1      43.839  22.568  25.481  1.00  0.00     0.010 A 
ATOM     74  C   UNL A   1      42.621  21.214  27.608  1.00  0.00     0.020 A 
ATOM     75  C   UNL A   1      43.406  21.250  25.309  1.00  0.00     0.020 A 
ATOM     76  C   UNL A   1      42.821  20.574  26.382  1.00  0.00     0.054 A 
BRANCH  76  77
ATOM     77  S   UNL A   1      42.285  18.851  26.202  1.00  0.00     0.124 S 
ATOM     78  O   UNL A   1      43.273  18.327  25.262  1.00  0.00    -0.237 OA
ATOM     79  O   UNL A   1      42.384  18.339  27.567  1.00  0.00    -0.237 OA
ATOM     80  O   UNL A   1      40.926  18.965  25.680  1.00  0.00    -0.744 OA
ENDBRANCH  76  77
ENDBRANCH  57  71
BRANCH  58  81
ATOM     81  C   UNL A   1      46.594  32.644  28.453  1.00  0.00    -0.014 A 
ATOM     82  C   UNL A   1      46.937  33.046  29.757  1.00  0.00     0.010 A 
ATOM     83  C   UNL A   1      46.688  33.576  27.404  1.00  0.00     0.010 A 
ATOM     84  C   UNL A   1      47.343  34.358  30.012  1.00  0.00     0.020 A 
ATOM     85  C   UNL A   1      47.119  34.884  27.652  1.00  0.00     0.020 A 
ATOM     86  C   UNL A   1      47.432  35.270  28.957  1.00  0.00     0.054 A 
BRANCH  86  87
ATOM     87  S   UNL A   1      48.006  36.956  29.305  1.00  0.00     0.124 S 
ATOM     88  O   UNL A   1      47.428  37.209  30.621  1.00  0.00    -0.237 OA
ATOM     89  O   UNL A   1      49.459  36.810  29.268  1.00  0.00    -0.237 OA
ATOM     90  O   UNL A   1      47.440  37.741  28.210  1.00  0.00    -0.744 OA
ENDBRANCH  86  87
ENDBRANCH  58  81
BRANCH  70  91
ATOM     91  C   UNL A   1      49.812  26.952  26.038  1.00  0.00    -0.014 A 
ATOM     92  C   UNL A   1      50.814  26.475  26.900  1.00  0.00     0.010 A 
ATOM     93  C   UNL A   1      50.112  27.158  24.679  1.00  0.00     0.010 A 
ATOM     94  C   UNL A   1      52.103  26.240  26.417  1.00  0.00     0.020 A 
ATOM     95  C   UNL A   1      51.392  26.899  24.188  1.00  0.00     0.020 A 
ATOM     96  C   UNL A   1      52.386  26.457  25.065  1.00  0.00     0.054 A 
BRANCH  96  97
ATOM     97  S   UNL A   1      54.056  26.111  24.452  1.00  0.00     0.124 S 
ATOM     98  O   UNL A   1      53.904  26.336  23.017  1.00  0.00    -0.237 OA
ATOM     99  O   UNL A   1      54.870  27.097  25.160  1.00  0.00    -0.237 OA
ATOM    100  O   UNL A   1      54.288  24.724  24.845  1.00  0.00    -0.744 OA
ENDBRANCH  96  97
ENDBRANCH  70  91
ENDBRANCH  44  45
ENDBRANCH  36  39
ENDBRANCH  34  35
ENDBRANCH  33  34
ENDBRANCH  32  33
ENDBRANCH   1  32
TORSDOF 22
ENDMDL
MODEL 3
REMARK VINA RESULT:     -10.0      2.172      3.279
REMARK SMILES CC[C@](NC(=O)c1cccc(CS(C)(=O)=O)c1)(C(=O)NCCCCCCNC(=O)c1ccc(-c2c3nc(c(-c4ccc(S(=O)(=O)[O-])cc4)c4ccc([nH]4)c(-c4ccc(S(=O)(=O)[O-])cc4)c4nc(c(-c5ccc(S(=O)(=O)[O-])cc5)c5ccc2[nH]5)C=C4)C=C3)cc1)c1ccccc1
REMARK SMILES IDX 23 1 22 2 21 3 20 4 18 5 19 6 3 8 2 9 1 10 90 11 91 12 95 13
REMARK SMILES IDX 92 14 94 15 93 16 4 17 5 18 6 20 7 21 8 22 17 23 9 24 11 25
REMARK SMILES IDX 10 26 12 27 13 28 14 29 15 30 16 31 24 32 25 33 26 34 27 35
REMARK SMILES IDX 28 36 29 38 30 39 31 40 89 41 32 42 88 43 33 44 34 45 35 46
REMARK SMILES IDX 82 47 36 48 87 49 81 50 83 51 37 52 86 53 80 54 79 55 38 57
REMARK SMILES IDX 68 58 49 59 67 60 50 61 53 62 66 63 84 64 51 65 52 66 65 68
REMARK SMILES IDX 85 69 54 70 39 71 40 72 48 73 41 74 47 75 42 76 43 77 44 78
REMARK SMILES IDX 45 79 46 80 69 81 70 82 78 83 71 84 77 85 72 86 73 87 74 88
REMARK SMILES IDX 75 89 76 90 55 91 56 92 64 93 57 94 63 95 58 96 59 97 60 98
REMARK SMILES IDX 61 99 62 100
REMARK H PARENT 20 7 4 19 27 37 83 56 53 67
REMARK Flexibility Score: inf
ROOT
ATOM      1  C   UNL A   1      34.006  32.323  27.996  1.00  0.00     0.002 C 
ENDROOT
BRANCH   1   2
ATOM      2  C   UNL A   1      34.763  31.015  27.868  1.00  0.00     0.021 C 
BRANCH   2   3
ATOM      3  C   UNL A   1      34.401  29.995  26.780  1.00  0.00     0.116 C 
BRANCH   3   4
ATOM      4  N   UNL A   1      34.391  28.543  27.005  1.00  0.00    -0.354 N 
ATOM      5  C   UNL A   1      33.677  27.523  26.373  1.00  0.00     0.250 C 
ATOM      6  O   UNL A   1      34.145  26.381  26.415  1.00  0.00    -0.272 OA
ATOM      7  H   UNL A   1      34.988  28.237  27.724  1.00  0.00     0.163 HD
BRANCH   5   8
ATOM      8  C   UNL A   1      32.391  27.856  25.599  1.00  0.00     0.144 C 
BRANCH   8   9
ATOM      9  C   UNL A   1      32.080  29.425  25.817  1.00  0.00     0.040 C 
ATOM     10  C   UNL A   1      30.964  30.170  25.066  1.00  0.00     0.007 C 
ENDBRANCH   8   9
BRANCH   8  11
ATOM     11  C   UNL A   1      32.340  27.653  24.025  1.00  0.00    -0.013 A 
ATOM     12  C   UNL A   1      31.121  27.421  23.348  1.00  0.00     0.007 A 
ATOM     13  C   UNL A   1      33.506  27.393  23.267  1.00  0.00     0.007 A 
ATOM     14  C   UNL A   1      31.080  26.778  22.098  1.00  0.00     0.000 A 
ATOM     15  C   UNL A   1      33.467  26.798  21.997  1.00  0.00     0.000 A 
ATOM     16  C   UNL A   1      32.254  26.443  21.434  1.00  0.00     0.000 A 
ENDBRANCH   8  11
BRANCH   8  17
ATOM     17  N   UNL A   1      31.324  26.999  26.203  1.00  0.00    -0.334 N 
ATOM     18  C   UNL A   1      30.768  25.760  25.915  1.00  0.00     0.252 C 
ATOM     19  H   UNL A   1      30.917  27.415  26.998  1.00  0.00     0.165 HD
ATOM     20  O   UNL A   1      29.554  25.724  26.171  1.00  0.00    -0.269 OA
BRANCH  18  21
ATOM     21  C   UNL A   1      31.403  24.446  25.463  1.00  0.00     0.040 A 
ATOM     22  C   UNL A   1      30.984  23.323  26.209  1.00  0.00     0.014 A 
ATOM     23  C   UNL A   1      32.422  24.192  24.525  1.00  0.00     0.018 A 
ATOM     24  C   UNL A   1      31.593  22.068  26.091  1.00  0.00     0.001 A 
ATOM     25  C   UNL A   1      33.121  22.944  24.438  1.00  0.00    -0.032 A 
ATOM     26  C   UNL A   1      32.663  21.884  25.221  1.00  0.00     0.005 A 
BRANCH  25  27
ATOM     27  C   UNL A   1      34.200  22.728  23.392  1.00  0.00     0.172 C 
BRANCH  27  28
ATOM     28  S   UNL A   1      35.917  22.986  23.873  1.00  0.00     0.151 S 
ATOM     29  C   UNL A   1      36.519  21.566  24.766  1.00  0.00     0.158 C 
ATOM     30  O   UNL A   1      36.684  23.023  22.639  1.00  0.00    -0.229 OA
ATOM     31  O   UNL A   1      35.982  24.129  24.763  1.00  0.00    -0.229 OA
ENDBRANCH  27  28
ENDBRANCH  25  27
ENDBRANCH  18  21
ENDBRANCH   8  17
ENDBRANCH   5   8
ENDBRANCH   3   4
ENDBRANCH   2   3
ENDBRANCH   1   2
BRANCH   1  32
ATOM     32  C   UNL A   1      34.469  33.243  29.101  1.00  0.00     0.002 C 
BRANCH  32  33
ATOM     33  C   UNL A   1      35.912  33.704  29.007  1.00  0.00     0.021 C 
BRANCH  33  34
ATOM     34  C   UNL A   1      36.748  33.305  30.209  1.00  0.00     0.116 C 
BRANCH  34  35
ATOM     35  N   UNL A   1      36.196  32.182  30.962  1.00  0.00    -0.352 N 
ATOM     36  C   UNL A   1      36.776  30.954  31.175  1.00  0.00     0.251 C 
ATOM     37  H   UNL A   1      35.307  32.319  31.361  1.00  0.00     0.163 HD
ATOM     38  O   UNL A   1      36.171  30.059  31.756  1.00  0.00    -0.269 OA
BRANCH  36  39
ATOM     39  C   UNL A   1      38.135  30.740  30.642  1.00  0.00     0.039 A 
ATOM     40  C   UNL A   1      39.200  30.573  31.526  1.00  0.00     0.014 A 
ATOM     41  C   UNL A   1      38.306  30.557  29.268  1.00  0.00     0.014 A 
ATOM     42  C   UNL A   1      40.435  30.155  31.030  1.00  0.00     0.010 A 
ATOM     43  C   UNL A   1      39.497  30.029  28.797  1.00  0.00     0.010 A 
ATOM     44  C   UNL A   1      40.582  29.844  29.666  1.00  0.00    -0.014 A 
BRANCH  44  45
ATOM     45  C   UNL A   1      41.873  29.370  29.109  1.00  0.00     0.031 A 
ATOM     46  C   UNL A   1      43.022  30.337  28.994  1.00  0.00     0.074 A 
ATOM     47  C   UNL A   1      41.989  28.112  28.640  1.00  0.00     0.049 A 
ATOM     48  N   UNL A   1      44.206  30.156  28.468  1.00  0.00    -0.248 NA
ATOM     49  C   UNL A   1      42.795  31.705  29.492  1.00  0.00     0.031 C 
ATOM     50  C   UNL A   1      40.927  27.102  28.630  1.00  0.00     0.029 A 
ATOM     51  N   UNL A   1      43.062  27.466  28.079  1.00  0.00    -0.354 N 
ATOM     52  C   UNL A   1      44.837  31.393  28.530  1.00  0.00     0.074 A 
ATOM     53  C   UNL A   1      43.887  32.330  29.083  1.00  0.00     0.031 C 
ATOM     54  C   UNL A   1      41.417  25.952  28.137  1.00  0.00     0.029 A 
ATOM     55  C   UNL A   1      42.814  26.149  27.767  1.00  0.00     0.049 A 
ATOM     56  H   UNL A   1      43.928  27.903  27.916  1.00  0.00     0.167 HD
ATOM     57  C   UNL A   1      46.107  31.717  28.190  1.00  0.00     0.031 A 
ATOM     58  C   UNL A   1      43.629  25.207  27.254  1.00  0.00     0.031 A 
ATOM     59  C   UNL A   1      47.067  30.765  27.705  1.00  0.00     0.049 A 
ATOM     60  C   UNL A   1      45.059  25.569  26.954  1.00  0.00     0.074 A 
ATOM     61  C   UNL A   1      48.405  30.961  27.416  1.00  0.00     0.029 A 
ATOM     62  N   UNL A   1      46.791  29.429  27.453  1.00  0.00    -0.354 N 
ATOM     63  N   UNL A   1      45.661  26.728  27.086  1.00  0.00    -0.248 NA
ATOM     64  C   UNL A   1      45.923  24.493  26.453  1.00  0.00     0.031 C 
ATOM     65  C   UNL A   1      48.932  29.747  26.961  1.00  0.00     0.029 A 
ATOM     66  C   UNL A   1      47.931  28.788  27.008  1.00  0.00     0.049 A 
ATOM     67  H   UNL A   1      45.913  29.002  27.574  1.00  0.00     0.167 HD
ATOM     68  C   UNL A   1      46.984  26.510  26.718  1.00  0.00     0.074 A 
ATOM     69  C   UNL A   1      47.094  25.108  26.368  1.00  0.00     0.031 C 
ATOM     70  C   UNL A   1      48.016  27.388  26.677  1.00  0.00     0.031 A 
BRANCH  57  71
ATOM     71  C   UNL A   1      46.520  33.156  28.347  1.00  0.00    -0.014 A 
ATOM     72  C   UNL A   1      46.990  33.650  29.579  1.00  0.00     0.010 A 
ATOM     73  C   UNL A   1      46.436  34.030  27.249  1.00  0.00     0.010 A 
ATOM     74  C   UNL A   1      47.308  35.002  29.725  1.00  0.00     0.020 A 
ATOM     75  C   UNL A   1      46.785  35.377  27.383  1.00  0.00     0.020 A 
ATOM     76  C   UNL A   1      47.197  35.859  28.628  1.00  0.00     0.054 A 
BRANCH  76  77
ATOM     77  S   UNL A   1      47.619  37.610  28.843  1.00  0.00     0.124 S 
ATOM     78  O   UNL A   1      46.308  38.248  28.746  1.00  0.00    -0.237 OA
ATOM     79  O   UNL A   1      48.231  37.632  30.170  1.00  0.00    -0.237 OA
ATOM     80  O   UNL A   1      48.530  37.884  27.736  1.00  0.00    -0.744 OA
ENDBRANCH  76  77
ENDBRANCH  57  71
BRANCH  58  81
ATOM     81  C   UNL A   1      43.135  23.817  27.057  1.00  0.00    -0.014 A 
ATOM     82  C   UNL A   1      42.543  23.446  25.836  1.00  0.00     0.010 A 
ATOM     83  C   UNL A   1      43.260  22.856  28.076  1.00  0.00     0.010 A 
ATOM     84  C   UNL A   1      42.064  22.147  25.645  1.00  0.00     0.020 A 
ATOM     85  C   UNL A   1      42.805  21.548  27.879  1.00  0.00     0.020 A 
ATOM     86  C   UNL A   1      42.198  21.204  26.669  1.00  0.00     0.054 A 
BRANCH  86  87
ATOM     87  S   UNL A   1      41.610  19.512  26.382  1.00  0.00     0.124 S 
ATOM     88  O   UNL A   1      40.177  19.715  26.194  1.00  0.00    -0.237 OA
ATOM     89  O   UNL A   1      42.355  19.116  25.189  1.00  0.00    -0.237 OA
ATOM     90  O   UNL A   1      41.989  18.808  27.605  1.00  0.00    -0.744 OA
ENDBRANCH  86  87
ENDBRANCH  58  81
BRANCH  70  91
ATOM     91  C   UNL A   1      49.364  26.849  26.285  1.00  0.00    -0.014 A 
ATOM     92  C   UNL A   1      49.861  27.007  24.980  1.00  0.00     0.010 A 
ATOM     93  C   UNL A   1      50.165  26.222  27.257  1.00  0.00     0.010 A 
ATOM     94  C   UNL A   1      51.124  26.514  24.645  1.00  0.00     0.020 A 
ATOM     95  C   UNL A   1      51.438  25.753  26.932  1.00  0.00     0.020 A 
ATOM     96  C   UNL A   1      51.904  25.887  25.622  1.00  0.00     0.054 A 
BRANCH  96  97
ATOM     97  S   UNL A   1      53.555  25.289  25.175  1.00  0.00     0.124 S 
ATOM     98  O   UNL A   1      53.669  25.726  23.786  1.00  0.00    -0.237 OA
ATOM     99  O   UNL A   1      54.419  25.985  26.126  1.00  0.00    -0.237 OA
ATOM    100  O   UNL A   1      53.464  23.844  25.369  1.00  0.00    -0.744 OA
ENDBRANCH  96  97
ENDBRANCH  70  91
ENDBRANCH  44  45
ENDBRANCH  36  39
ENDBRANCH  34  35
ENDBRANCH  33  34
ENDBRANCH  32  33
ENDBRANCH   1  32
TORSDOF 22
ENDMDL
