MODEL 1
REMARK VINA RESULT:     -12.0      0.000      0.000
REMARK SMILES O=C(NCCCCCCNC(=O)[C@H](CO)NC(=O)[C@H](Cc1c[nH]c2ccccc12)NC(=O)c1ccc(F)cc1)c1ccc(-c2c3nc(c(-c4ccc(S(=O)(=O)[O-])cc4)c4ccc([nH]4)c(-c4ccc(S(=O)(=O)[O-])cc4)c4nc(c(-c5ccc(S(=O)(=O)[O-])cc5)c5ccc2[nH]5)C=C4)C=C3)cc1
REMARK SMILES IDX 7 1 6 2 5 3 4 4 3 5 1 6 2 7 40 9 41 10 99 11 42 12 98 13
REMARK SMILES IDX 43 14 44 15 45 16 92 17 46 18 97 19 91 20 93 21 47 22 96 23
REMARK SMILES IDX 90 24 89 25 48 27 78 28 59 29 77 30 60 31 63 32 76 33 94 34
REMARK SMILES IDX 61 35 62 36 75 38 95 39 64 40 49 41 50 42 58 43 51 44 57 45
REMARK SMILES IDX 52 46 53 47 54 48 55 49 56 50 79 51 80 52 88 53 81 54 87 55
REMARK SMILES IDX 82 56 83 57 84 58 85 59 86 60 65 61 66 62 74 63 67 64 73 65
REMARK SMILES IDX 68 66 69 67 70 68 71 69 72 70 8 71 9 72 10 73 11 74 12 76
REMARK SMILES IDX 13 77 16 78 17 79 18 81 19 82 30 83 31 84 32 86 33 87 34 88
REMARK SMILES IDX 39 89 35 90 38 91 36 92 37 93 20 94 21 95 22 96 29 97 23 98
REMARK SMILES IDX 24 99 28 100 25 102 27 103 26 104 14 105 15 106
REMARK H PARENT 3 8 93 26 63 37 10 75 16 80 30 85 23 101 15 107
REMARK Flexibility Score: inf
ROOT
ATOM      1  C   UNL A   1      33.615  28.461  27.193  1.00  0.00     0.002 C 
ENDROOT
BRANCH   1   2
ATOM      2  C   UNL A   1      33.874  29.925  27.564  1.00  0.00     0.002 C 
BRANCH   2   3
ATOM      3  C   UNL A   1      35.277  30.437  27.238  1.00  0.00     0.021 C 
BRANCH   3   4
ATOM      4  C   UNL A   1      35.887  31.325  28.312  1.00  0.00     0.116 C 
BRANCH   4   5
ATOM      5  N   UNL A   1      35.647  30.806  29.645  1.00  0.00    -0.352 N 
ATOM      6  O   UNL A   1      36.074  29.513  31.441  1.00  0.00    -0.269 OA
ATOM      7  C   UNL A   1      36.482  30.034  30.413  1.00  0.00     0.251 C 
ATOM      8  H   UNL A   1      34.780  31.038  30.049  1.00  0.00     0.163 HD
BRANCH   7   9
ATOM      9  C   UNL A   1      37.876  29.831  29.965  1.00  0.00     0.039 A 
ATOM     10  C   UNL A   1      38.929  29.897  30.883  1.00  0.00     0.014 A 
ATOM     11  C   UNL A   1      38.125  29.559  28.618  1.00  0.00     0.014 A 
ATOM     12  C   UNL A   1      40.240  29.773  30.441  1.00  0.00     0.010 A 
ATOM     13  C   UNL A   1      39.438  29.361  28.188  1.00  0.00     0.010 A 
ATOM     14  C   UNL A   1      40.503  29.466  29.097  1.00  0.00    -0.014 A 
BRANCH  14  15
ATOM     15  C   UNL A   1      41.884  29.108  28.697  1.00  0.00     0.031 A 
ATOM     16  C   UNL A   1      42.983  30.130  28.661  1.00  0.00     0.074 A 
ATOM     17  C   UNL A   1      42.122  27.826  28.352  1.00  0.00     0.049 A 
ATOM     18  N   UNL A   1      44.235  29.966  28.321  1.00  0.00    -0.248 NA
ATOM     19  C   UNL A   1      42.639  31.506  29.049  1.00  0.00     0.031 C 
ATOM     20  C   UNL A   1      41.114  26.759  28.330  1.00  0.00     0.029 A 
ATOM     21  N   UNL A   1      43.275  27.199  27.960  1.00  0.00    -0.354 N 
ATOM     22  C   UNL A   1      44.826  31.219  28.430  1.00  0.00     0.074 A 
ATOM     23  C   UNL A   1      43.793  32.136  28.862  1.00  0.00     0.031 C 
ATOM     24  C   UNL A   1      41.699  25.606  27.976  1.00  0.00     0.029 A 
ATOM     25  C   UNL A   1      43.104  25.863  27.684  1.00  0.00     0.049 A 
ATOM     26  H   UNL A   1      44.142  27.660  27.884  1.00  0.00     0.167 HD
ATOM     27  C   UNL A   1      46.114  31.563  28.187  1.00  0.00     0.031 A 
ATOM     28  C   UNL A   1      43.970  24.948  27.214  1.00  0.00     0.031 A 
ATOM     29  C   UNL A   1      47.131  30.636  27.764  1.00  0.00     0.049 A 
ATOM     30  C   UNL A   1      45.382  25.370  26.932  1.00  0.00     0.074 A 
ATOM     31  C   UNL A   1      48.479  30.877  27.554  1.00  0.00     0.029 A 
ATOM     32  N   UNL A   1      46.915  29.297  27.473  1.00  0.00    -0.354 N 
ATOM     33  N   UNL A   1      45.936  26.546  27.107  1.00  0.00    -0.248 NA
ATOM     34  C   UNL A   1      46.282  24.348  26.384  1.00  0.00     0.031 C 
ATOM     35  C   UNL A   1      49.065  29.698  27.081  1.00  0.00     0.029 A 
ATOM     36  C   UNL A   1      48.096  28.710  27.046  1.00  0.00     0.049 A 
ATOM     37  H   UNL A   1      46.052  28.833  27.556  1.00  0.00     0.167 HD
ATOM     38  C   UNL A   1      47.254  26.404  26.691  1.00  0.00     0.074 A 
ATOM     39  C   UNL A   1      47.420  25.022  26.288  1.00  0.00     0.031 C 
ATOM     40  C   UNL A   1      48.235  27.336  26.638  1.00  0.00     0.031 A 
BRANCH  27  41
ATOM     41  C   UNL A   1      46.509  33.006  28.348  1.00  0.00    -0.014 A 
ATOM     42  C   UNL A   1      47.049  33.483  29.555  1.00  0.00     0.010 A 
ATOM     43  C   UNL A   1      46.441  33.870  27.239  1.00  0.00     0.010 A 
ATOM     44  C   UNL A   1      47.506  34.801  29.652  1.00  0.00     0.020 A 
ATOM     45  C   UNL A   1      46.914  35.182  27.326  1.00  0.00     0.020 A 
ATOM     46  C   UNL A   1      47.440  35.642  28.535  1.00  0.00     0.054 A 
BRANCH  46  47
ATOM     47  S   UNL A   1      48.103  37.326  28.672  1.00  0.00     0.124 S 
ATOM     48  O   UNL A   1      47.430  38.004  27.567  1.00  0.00    -0.237 OA
ATOM     49  O   UNL A   1      47.676  37.730  30.009  1.00  0.00    -0.237 OA
ATOM     50  O   UNL A   1      49.543  37.146  28.508  1.00  0.00    -0.744 OA
ENDBRANCH  46  47
ENDBRANCH  27  41
BRANCH  28  51
ATOM     51  C   UNL A   1      43.510  23.562  26.934  1.00  0.00    -0.014 A 
ATOM     52  C   UNL A   1      43.294  23.128  25.616  1.00  0.00     0.010 A 
ATOM     53  C   UNL A   1      43.289  22.667  27.997  1.00  0.00     0.010 A 
ATOM     54  C   UNL A   1      42.839  21.830  25.368  1.00  0.00     0.020 A 
ATOM     55  C   UNL A   1      42.863  21.361  27.752  1.00  0.00     0.020 A 
ATOM     56  C   UNL A   1      42.623  20.956  26.438  1.00  0.00     0.054 A 
BRANCH  56  57
ATOM     57  S   UNL A   1      42.057  19.267  26.096  1.00  0.00     0.124 S 
ATOM     58  O   UNL A   1      42.833  18.924  24.910  1.00  0.00    -0.237 OA
ATOM     59  O   UNL A   1      42.420  18.555  27.319  1.00  0.00    -0.237 OA
ATOM     60  O   UNL A   1      40.620  19.427  25.882  1.00  0.00    -0.744 OA
ENDBRANCH  56  57
ENDBRANCH  28  51
BRANCH  40  61
ATOM     61  C   UNL A   1      49.574  26.884  26.129  1.00  0.00    -0.014 A 
ATOM     62  C   UNL A   1      49.964  27.143  24.802  1.00  0.00     0.010 A 
ATOM     63  C   UNL A   1      50.465  26.224  26.992  1.00  0.00     0.010 A 
ATOM     64  C   UNL A   1      51.212  26.722  24.340  1.00  0.00     0.020 A 
ATOM     65  C   UNL A   1      51.725  25.824  26.541  1.00  0.00     0.020 A 
ATOM     66  C   UNL A   1      52.084  26.063  25.213  1.00  0.00     0.054 A 
BRANCH  66  67
ATOM     67  S   UNL A   1      53.715  25.560  24.601  1.00  0.00     0.124 S 
ATOM     68  O   UNL A   1      54.612  26.277  25.501  1.00  0.00    -0.237 OA
ATOM     69  O   UNL A   1      53.687  24.108  24.767  1.00  0.00    -0.237 OA
ATOM     70  O   UNL A   1      53.722  26.022  23.215  1.00  0.00    -0.744 OA
ENDBRANCH  66  67
ENDBRANCH  40  61
ENDBRANCH  14  15
ENDBRANCH   7   9
ENDBRANCH   4   5
ENDBRANCH   3   4
ENDBRANCH   2   3
ENDBRANCH   1   2
BRANCH   1  71
ATOM     71  C   UNL A   1      32.157  28.005  27.322  1.00  0.00     0.021 C 
BRANCH  71  72
ATOM     72  C   UNL A   1      31.800  26.829  26.425  1.00  0.00     0.116 C 
BRANCH  72  73
ATOM     73  N   UNL A   1      30.448  26.374  26.680  1.00  0.00    -0.354 N 
ATOM     74  C   UNL A   1      29.879  25.149  26.507  1.00  0.00     0.244 C 
ATOM     75  H   UNL A   1      29.842  27.062  27.038  1.00  0.00     0.163 HD
ATOM     76  O   UNL A   1      28.724  24.993  26.910  1.00  0.00    -0.273 OA
BRANCH  74  77
ATOM     77  C   UNL A   1      30.675  23.983  25.908  1.00  0.00     0.197 C 
BRANCH  77  78
ATOM     78  N   UNL A   1      32.059  24.383  25.613  1.00  0.00    -0.340 N 
ATOM     79  C   UNL A   1      32.832  24.314  24.496  1.00  0.00     0.243 C 
ATOM     80  H   UNL A   1      32.521  24.784  26.383  1.00  0.00     0.164 HD
ATOM     81  O   UNL A   1      34.025  24.579  24.681  1.00  0.00    -0.273 OA
BRANCH  79  82
ATOM     82  C   UNL A   1      32.328  23.738  23.151  1.00  0.00     0.176 C 
BRANCH  82  83
ATOM     83  N   UNL A   1      32.842  24.422  21.961  1.00  0.00    -0.340 N 
ATOM     84  C   UNL A   1      32.744  25.713  21.510  1.00  0.00     0.251 C 
ATOM     85  H   UNL A   1      33.362  23.836  21.365  1.00  0.00     0.164 HD
ATOM     86  O   UNL A   1      33.069  25.926  20.341  1.00  0.00    -0.269 OA
BRANCH  84  87
ATOM     87  C   UNL A   1      32.299  26.874  22.343  1.00  0.00     0.040 A 
ATOM     88  C   UNL A   1      33.147  27.859  22.859  1.00  0.00     0.017 A 
ATOM     89  C   UNL A   1      30.912  27.055  22.494  1.00  0.00     0.017 A 
ATOM     90  C   UNL A   1      32.638  28.981  23.522  1.00  0.00     0.040 A 
ATOM     91  C   UNL A   1      30.399  28.178  23.152  1.00  0.00     0.040 A 
ATOM     92  C   UNL A   1      31.268  29.131  23.662  1.00  0.00     0.123 A 
ATOM     93  F   UNL A   1      30.780  30.219  24.270  1.00  0.00    -0.207 F 
ENDBRANCH  84  87
ENDBRANCH  82  83
BRANCH  82  94
ATOM     94  C   UNL A   1      32.532  22.213  23.052  1.00  0.00     0.072 C 
BRANCH  94  95
ATOM     95  C   UNL A   1      33.396  21.515  24.068  1.00  0.00    -0.020 A 
ATOM     96  C   UNL A   1      33.060  20.592  25.040  1.00  0.00     0.087 A 
ATOM     97  C   UNL A   1      34.826  21.676  24.144  1.00  0.00     0.003 A 
ATOM     98  N   UNL A   1      34.209  20.176  25.663  1.00  0.00    -0.361 N 
ATOM     99  C   UNL A   1      35.301  20.822  25.136  1.00  0.00     0.046 A 
ATOM    100  C   UNL A   1      35.758  22.459  23.430  1.00  0.00     0.010 A 
ATOM    101  H   UNL A   1      34.245  19.510  26.387  1.00  0.00     0.166 HD
ATOM    102  C   UNL A   1      36.663  20.704  25.448  1.00  0.00     0.026 A 
ATOM    103  C   UNL A   1      37.121  22.359  23.730  1.00  0.00     0.001 A 
ATOM    104  C   UNL A   1      37.564  21.491  24.723  1.00  0.00     0.002 A 
ENDBRANCH  94  95
ENDBRANCH  82  94
ENDBRANCH  79  82
ENDBRANCH  77  78
BRANCH  77 105
ATOM    105  C   UNL A   1      30.596  22.756  26.844  1.00  0.00     0.191 C 
BRANCH 105 106
ATOM    106  O   UNL A   1      29.367  22.047  26.692  1.00  0.00    -0.394 OA
ATOM    107  H   UNL A   1      28.984  22.244  25.823  1.00  0.00     0.210 HD
ENDBRANCH 105 106
ENDBRANCH  77 105
ENDBRANCH  74  77
ENDBRANCH  72  73
ENDBRANCH  71  72
ENDBRANCH   1  71
TORSDOF 24
ENDMDL
MODEL 2
REMARK VINA RESULT:     -12.0      6.037      8.242
REMARK SMILES O=C(NCCCCCCNC(=O)[C@H](CO)NC(=O)[C@H](Cc1c[nH]c2ccccc12)NC(=O)c1ccc(F)cc1)c1ccc(-c2c3nc(c(-c4ccc(S(=O)(=O)[O-])cc4)c4ccc([nH]4)c(-c4ccc(S(=O)(=O)[O-])cc4)c4nc(c(-c5ccc(S(=O)(=O)[O-])cc5)c5ccc2[nH]5)C=C4)C=C3)cc1
REMARK SMILES IDX 7 1 6 2 5 3 4 4 3 5 1 6 2 7 40 9 41 10 99 11 42 12 98 13
REMARK SMILES IDX 43 14 44 15 45 16 92 17 46 18 97 19 91 20 93 21 47 22 96 23
REMARK SMILES IDX 90 24 89 25 48 27 78 28 59 29 77 30 60 31 63 32 76 33 94 34
REMARK SMILES IDX 61 35 62 36 75 38 95 39 64 40 49 41 50 42 58 43 51 44 57 45
REMARK SMILES IDX 52 46 53 47 54 48 55 49 56 50 79 51 80 52 88 53 81 54 87 55
REMARK SMILES IDX 82 56 83 57 84 58 85 59 86 60 65 61 66 62 74 63 67 64 73 65
REMARK SMILES IDX 68 66 69 67 70 68 71 69 72 70 8 71 9 72 10 73 11 74 12 76
REMARK SMILES IDX 13 77 16 78 17 79 18 81 19 82 30 83 31 84 32 86 33 87 34 88
REMARK SMILES IDX 39 89 35 90 38 91 36 92 37 93 20 94 21 95 22 96 29 97 23 98
REMARK SMILES IDX 24 99 28 100 25 102 27 103 26 104 14 105 15 106
REMARK H PARENT 3 8 93 26 63 37 10 75 16 80 30 85 23 101 15 107
REMARK Flexibility Score: inf
ROOT
ATOM      1  C   UNL A   1      35.429  30.178  27.220  1.00  0.00     0.002 C 
ENDROOT
BRANCH   1   2
ATOM      2  C   UNL A   1      34.710  30.963  28.323  1.00  0.00     0.002 C 
BRANCH   2   3
ATOM      3  C   UNL A   1      33.544  31.829  27.846  1.00  0.00     0.021 C 
BRANCH   3   4
ATOM      4  C   UNL A   1      33.946  33.216  27.369  1.00  0.00     0.116 C 
BRANCH   4   5
ATOM      5  N   UNL A   1      33.226  34.260  28.072  1.00  0.00    -0.352 N 
ATOM      6  O   UNL A   1      32.581  35.431  29.887  1.00  0.00    -0.269 OA
ATOM      7  C   UNL A   1      33.385  34.667  29.373  1.00  0.00     0.251 C 
ATOM      8  H   UNL A   1      32.541  34.738  27.551  1.00  0.00     0.163 HD
BRANCH   7   9
ATOM      9  C   UNL A   1      34.534  34.149  30.145  1.00  0.00     0.039 A 
ATOM     10  C   UNL A   1      34.327  33.292  31.230  1.00  0.00     0.014 A 
ATOM     11  C   UNL A   1      35.828  34.516  29.768  1.00  0.00     0.014 A 
ATOM     12  C   UNL A   1      35.408  32.866  31.991  1.00  0.00     0.010 A 
ATOM     13  C   UNL A   1      36.919  34.028  30.489  1.00  0.00     0.010 A 
ATOM     14  C   UNL A   1      36.716  33.199  31.604  1.00  0.00    -0.014 A 
BRANCH  14  15
ATOM     15  C   UNL A   1      37.857  32.546  32.285  1.00  0.00     0.031 A 
ATOM     16  C   UNL A   1      38.361  33.029  33.615  1.00  0.00     0.074 A 
ATOM     17  C   UNL A   1      38.442  31.501  31.664  1.00  0.00     0.049 A 
ATOM     18  N   UNL A   1      39.356  32.565  34.325  1.00  0.00    -0.248 NA
ATOM     19  C   UNL A   1      37.670  34.175  34.224  1.00  0.00     0.031 C 
ATOM     20  C   UNL A   1      38.042  30.969  30.356  1.00  0.00     0.029 A 
ATOM     21  N   UNL A   1      39.486  30.699  32.042  1.00  0.00    -0.354 N 
ATOM     22  C   UNL A   1      39.429  33.373  35.452  1.00  0.00     0.074 A 
ATOM     23  C   UNL A   1      38.380  34.363  35.330  1.00  0.00     0.031 C 
ATOM     24  C   UNL A   1      38.809  29.912  30.056  1.00  0.00     0.029 A 
ATOM     25  C   UNL A   1      39.794  29.732  31.115  1.00  0.00     0.049 A 
ATOM     26  H   UNL A   1      39.968  30.805  32.894  1.00  0.00     0.167 HD
ATOM     27  C   UNL A   1      40.297  33.291  36.489  1.00  0.00     0.031 A 
ATOM     28  C   UNL A   1      40.781  28.818  31.098  1.00  0.00     0.031 A 
ATOM     29  C   UNL A   1      41.331  32.294  36.599  1.00  0.00     0.049 A 
ATOM     30  C   UNL A   1      41.740  28.772  32.251  1.00  0.00     0.074 A 
ATOM     31  C   UNL A   1      42.219  32.090  37.642  1.00  0.00     0.029 A 
ATOM     32  N   UNL A   1      41.628  31.347  35.631  1.00  0.00    -0.354 N 
ATOM     33  N   UNL A   1      41.748  29.504  33.340  1.00  0.00    -0.248 NA
ATOM     34  C   UNL A   1      42.825  27.786  32.172  1.00  0.00     0.031 C 
ATOM     35  C   UNL A   1      43.089  31.056  37.280  1.00  0.00     0.029 A 
ATOM     36  C   UNL A   1      42.710  30.581  36.035  1.00  0.00     0.049 A 
ATOM     37  H   UNL A   1      41.142  31.234  34.783  1.00  0.00     0.167 HD
ATOM     38  C   UNL A   1      42.839  29.063  34.078  1.00  0.00     0.074 A 
ATOM     39  C   UNL A   1      43.445  27.982  33.327  1.00  0.00     0.031 C 
ATOM     40  C   UNL A   1      43.304  29.519  35.265  1.00  0.00     0.031 A 
BRANCH  27  41
ATOM     41  C   UNL A   1      40.194  34.313  37.589  1.00  0.00    -0.014 A 
ATOM     42  C   UNL A   1      40.787  35.581  37.463  1.00  0.00     0.010 A 
ATOM     43  C   UNL A   1      39.397  34.037  38.717  1.00  0.00     0.010 A 
ATOM     44  C   UNL A   1      40.592  36.552  38.450  1.00  0.00     0.020 A 
ATOM     45  C   UNL A   1      39.185  35.012  39.696  1.00  0.00     0.020 A 
ATOM     46  C   UNL A   1      39.789  36.263  39.559  1.00  0.00     0.054 A 
BRANCH  46  47
ATOM     47  S   UNL A   1      39.500  37.567  40.788  1.00  0.00     0.124 S 
ATOM     48  O   UNL A   1      40.778  38.274  40.781  1.00  0.00    -0.237 OA
ATOM     49  O   UNL A   1      38.373  38.300  40.218  1.00  0.00    -0.237 OA
ATOM     50  O   UNL A   1      39.203  36.828  42.014  1.00  0.00    -0.744 OA
ENDBRANCH  46  47
ENDBRANCH  27  41
BRANCH  28  51
ATOM     51  C   UNL A   1      40.939  27.915  29.928  1.00  0.00    -0.014 A 
ATOM     52  C   UNL A   1      42.032  28.050  29.056  1.00  0.00     0.010 A 
ATOM     53  C   UNL A   1      39.988  26.905  29.686  1.00  0.00     0.010 A 
ATOM     54  C   UNL A   1      42.155  27.209  27.947  1.00  0.00     0.020 A 
ATOM     55  C   UNL A   1      40.124  26.045  28.596  1.00  0.00     0.020 A 
ATOM     56  C   UNL A   1      41.198  26.214  27.722  1.00  0.00     0.054 A 
BRANCH  56  57
ATOM     57  S   UNL A   1      41.389  25.114  26.292  1.00  0.00     0.124 S 
ATOM     58  O   UNL A   1      42.720  24.560  26.514  1.00  0.00    -0.237 OA
ATOM     59  O   UNL A   1      40.278  24.181  26.457  1.00  0.00    -0.237 OA
ATOM     60  O   UNL A   1      41.267  26.019  25.150  1.00  0.00    -0.744 OA
ENDBRANCH  56  57
ENDBRANCH  28  51
BRANCH  40  61
ATOM     61  C   UNL A   1      44.525  28.843  35.822  1.00  0.00    -0.014 A 
ATOM     62  C   UNL A   1      45.813  29.316  35.514  1.00  0.00     0.010 A 
ATOM     63  C   UNL A   1      44.383  27.745  36.689  1.00  0.00     0.010 A 
ATOM     64  C   UNL A   1      46.941  28.683  36.038  1.00  0.00     0.020 A 
ATOM     65  C   UNL A   1      45.508  27.125  37.237  1.00  0.00     0.020 A 
ATOM     66  C   UNL A   1      46.781  27.590  36.896  1.00  0.00     0.054 A 
BRANCH  66  67
ATOM     67  S   UNL A   1      48.258  26.807  37.597  1.00  0.00     0.124 S 
ATOM     68  O   UNL A   1      47.723  26.164  38.793  1.00  0.00    -0.237 OA
ATOM     69  O   UNL A   1      48.679  25.900  36.531  1.00  0.00    -0.237 OA
ATOM     70  O   UNL A   1      49.160  27.929  37.843  1.00  0.00    -0.744 OA
ENDBRANCH  66  67
ENDBRANCH  40  61
ENDBRANCH  14  15
ENDBRANCH   7   9
ENDBRANCH   4   5
ENDBRANCH   3   4
ENDBRANCH   2   3
ENDBRANCH   1   2
BRANCH   1  71
ATOM     71  C   UNL A   1      34.962  28.729  27.042  1.00  0.00     0.021 C 
BRANCH  71  72
ATOM     72  C   UNL A   1      33.730  28.585  26.161  1.00  0.00     0.116 C 
BRANCH  72  73
ATOM     73  N   UNL A   1      32.521  28.561  26.959  1.00  0.00    -0.354 N 
ATOM     74  C   UNL A   1      31.527  27.633  27.032  1.00  0.00     0.244 C 
ATOM     75  H   UNL A   1      32.398  29.342  27.544  1.00  0.00     0.163 HD
ATOM     76  O   UNL A   1      30.651  27.800  27.883  1.00  0.00    -0.273 OA
BRANCH  74  77
ATOM     77  C   UNL A   1      31.543  26.383  26.144  1.00  0.00     0.197 C 
BRANCH  77  78
ATOM     78  N   UNL A   1      31.777  25.170  26.942  1.00  0.00    -0.340 N 
ATOM     79  C   UNL A   1      32.012  23.870  26.616  1.00  0.00     0.243 C 
ATOM     80  H   UNL A   1      31.761  25.332  27.912  1.00  0.00     0.164 HD
ATOM     81  O   UNL A   1      31.972  23.088  27.572  1.00  0.00    -0.273 OA
BRANCH  79  82
ATOM     82  C   UNL A   1      32.099  23.365  25.156  1.00  0.00     0.176 C 
BRANCH  82  83
ATOM     83  N   UNL A   1      32.611  24.348  24.197  1.00  0.00    -0.340 N 
ATOM     84  C   UNL A   1      33.873  24.784  23.889  1.00  0.00     0.251 C 
ATOM     85  H   UNL A   1      31.904  24.783  23.667  1.00  0.00     0.164 HD
ATOM     86  O   UNL A   1      33.964  25.810  23.212  1.00  0.00    -0.269 OA
BRANCH  84  87
ATOM     87  C   UNL A   1      35.135  24.090  24.294  1.00  0.00     0.040 A 
ATOM     88  C   UNL A   1      35.732  24.188  25.555  1.00  0.00     0.017 A 
ATOM     89  C   UNL A   1      35.676  23.167  23.381  1.00  0.00     0.017 A 
ATOM     90  C   UNL A   1      36.843  23.409  25.895  1.00  0.00     0.040 A 
ATOM     91  C   UNL A   1      36.784  22.382  23.719  1.00  0.00     0.040 A 
ATOM     92  C   UNL A   1      37.359  22.512  24.974  1.00  0.00     0.123 A 
ATOM     93  F   UNL A   1      38.404  21.745  25.310  1.00  0.00    -0.207 F 
ENDBRANCH  84  87
ENDBRANCH  82  83
BRANCH  82  94
ATOM     94  C   UNL A   1      32.854  22.026  25.042  1.00  0.00     0.072 C 
BRANCH  94  95
ATOM     95  C   UNL A   1      32.499  21.068  23.936  1.00  0.00    -0.020 A 
ATOM     96  C   UNL A   1      31.826  21.286  22.750  1.00  0.00     0.087 A 
ATOM     97  C   UNL A   1      32.892  19.682  23.926  1.00  0.00     0.003 A 
ATOM     98  N   UNL A   1      31.826  20.120  22.027  1.00  0.00    -0.361 N 
ATOM     99  C   UNL A   1      32.470  19.125  22.721  1.00  0.00     0.046 A 
ATOM    100  C   UNL A   1      33.598  18.862  24.833  1.00  0.00     0.010 A 
ATOM    101  H   UNL A   1      31.420  20.012  21.136  1.00  0.00     0.166 HD
ATOM    102  C   UNL A   1      32.723  17.792  22.371  1.00  0.00     0.026 A 
ATOM    103  C   UNL A   1      33.856  17.527  24.503  1.00  0.00     0.001 A 
ATOM    104  C   UNL A   1      33.426  17.003  23.287  1.00  0.00     0.002 A 
ENDBRANCH  94  95
ENDBRANCH  82  94
ENDBRANCH  79  82
ENDBRANCH  77  78
BRANCH  77 105
ATOM    105  C   UNL A   1      30.241  26.309  25.316  1.00  0.00     0.191 C 
BRANCH 105 106
ATOM    106  O   UNL A   1      29.227  25.558  25.982  1.00  0.00    -0.394 OA
ATOM    107  H   UNL A   1      28.383  25.670  25.517  1.00  0.00     0.210 HD
ENDBRANCH 105 106
ENDBRANCH  77 105
ENDBRANCH  74  77
ENDBRANCH  72  73
ENDBRANCH  71  72
ENDBRANCH   1  71
TORSDOF 24
ENDMDL
MODEL 3
REMARK VINA RESULT:     -11.8      2.224      3.741
REMARK SMILES O=C(NCCCCCCNC(=O)[C@H](CO)NC(=O)[C@H](Cc1c[nH]c2ccccc12)NC(=O)c1ccc(F)cc1)c1ccc(-c2c3nc(c(-c4ccc(S(=O)(=O)[O-])cc4)c4ccc([nH]4)c(-c4ccc(S(=O)(=O)[O-])cc4)c4nc(c(-c5ccc(S(=O)(=O)[O-])cc5)c5ccc2[nH]5)C=C4)C=C3)cc1
REMARK SMILES IDX 7 1 6 2 5 3 4 4 3 5 1 6 2 7 40 9 41 10 99 11 42 12 98 13
REMARK SMILES IDX 43 14 44 15 45 16 92 17 46 18 97 19 91 20 93 21 47 22 96 23
REMARK SMILES IDX 90 24 89 25 48 27 78 28 59 29 77 30 60 31 63 32 76 33 94 34
REMARK SMILES IDX 61 35 62 36 75 38 95 39 64 40 49 41 50 42 58 43 51 44 57 45
REMARK SMILES IDX 52 46 53 47 54 48 55 49 56 50 79 51 80 52 88 53 81 54 87 55
REMARK SMILES IDX 82 56 83 57 84 58 85 59 86 60 65 61 66 62 74 63 67 64 73 65
REMARK SMILES IDX 68 66 69 67 70 68 71 69 72 70 8 71 9 72 10 73 11 74 12 76
REMARK SMILES IDX 13 77 16 78 17 79 18 81 19 82 30 83 31 84 32 86 33 87 34 88
REMARK SMILES IDX 39 89 35 90 38 91 36 92 37 93 20 94 21 95 22 96 29 97 23 98
REMARK SMILES IDX 24 99 28 100 25 102 27 103 26 104 14 105 15 106
REMARK H PARENT 3 8 93 26 63 37 10 75 16 80 30 85 23 101 15 107
REMARK Flexibility Score: inf
ROOT
ATOM      1  C   UNL A   1      33.879  28.249  26.188  1.00  0.00     0.002 C 
ENDROOT
BRANCH   1   2
ATOM      2  C   UNL A   1      34.677  29.482  26.627  1.00  0.00     0.002 C 
BRANCH   2   3
ATOM      3  C   UNL A   1      35.175  29.450  28.073  1.00  0.00     0.021 C 
BRANCH   3   4
ATOM      4  C   UNL A   1      35.684  30.786  28.591  1.00  0.00     0.116 C 
BRANCH   4   5
ATOM      5  N   UNL A   1      35.640  30.858  30.039  1.00  0.00    -0.352 N 
ATOM      6  O   UNL A   1      36.325  30.374  32.131  1.00  0.00    -0.269 OA
ATOM      7  C   UNL A   1      36.580  30.416  30.936  1.00  0.00     0.251 C 
ATOM      8  H   UNL A   1      34.838  31.278  30.425  1.00  0.00     0.163 HD
BRANCH   7   9
ATOM      9  C   UNL A   1      37.897  29.978  30.428  1.00  0.00     0.039 A 
ATOM     10  C   UNL A   1      38.303  30.318  29.134  1.00  0.00     0.014 A 
ATOM     11  C   UNL A   1      38.734  29.232  31.261  1.00  0.00     0.014 A 
ATOM     12  C   UNL A   1      39.512  29.844  28.642  1.00  0.00     0.010 A 
ATOM     13  C   UNL A   1      39.981  28.818  30.790  1.00  0.00     0.010 A 
ATOM     14  C   UNL A   1      40.378  29.122  29.478  1.00  0.00    -0.014 A 
BRANCH  14  15
ATOM     15  C   UNL A   1      41.753  28.830  29.011  1.00  0.00     0.031 A 
ATOM     16  C   UNL A   1      42.809  29.896  28.959  1.00  0.00     0.074 A 
ATOM     17  C   UNL A   1      42.026  27.569  28.621  1.00  0.00     0.049 A 
ATOM     18  N   UNL A   1      44.051  29.793  28.562  1.00  0.00    -0.248 NA
ATOM     19  C   UNL A   1      42.429  31.247  29.400  1.00  0.00     0.031 C 
ATOM     20  C   UNL A   1      41.061  26.463  28.610  1.00  0.00     0.029 A 
ATOM     21  N   UNL A   1      43.185  26.999  28.164  1.00  0.00    -0.354 N 
ATOM     22  C   UNL A   1      44.597  31.064  28.681  1.00  0.00     0.074 A 
ATOM     23  C   UNL A   1      43.549  31.927  29.182  1.00  0.00     0.031 C 
ATOM     24  C   UNL A   1      41.674  25.345  28.200  1.00  0.00     0.029 A 
ATOM     25  C   UNL A   1      43.054  25.665  27.857  1.00  0.00     0.049 A 
ATOM     26  H   UNL A   1      44.029  27.496  28.065  1.00  0.00     0.167 HD
ATOM     27  C   UNL A   1      45.859  31.466  28.395  1.00  0.00     0.031 A 
ATOM     28  C   UNL A   1      43.935  24.798  27.326  1.00  0.00     0.031 A 
ATOM     29  C   UNL A   1      46.892  30.592  27.905  1.00  0.00     0.049 A 
ATOM     30  C   UNL A   1      45.315  25.285  26.998  1.00  0.00     0.074 A 
ATOM     31  C   UNL A   1      48.219  30.892  27.645  1.00  0.00     0.029 A 
ATOM     32  N   UNL A   1      46.716  29.254  27.584  1.00  0.00    -0.354 N 
ATOM     33  N   UNL A   1      45.830  26.477  27.183  1.00  0.00    -0.248 NA
ATOM     34  C   UNL A   1      46.230  24.314  26.384  1.00  0.00     0.031 C 
ATOM     35  C   UNL A   1      48.831  29.751  27.115  1.00  0.00     0.029 A 
ATOM     36  C   UNL A   1      47.900  28.726  27.093  1.00  0.00     0.049 A 
ATOM     37  H   UNL A   1      45.876  28.754  27.691  1.00  0.00     0.167 HD
ATOM     38  C   UNL A   1      47.134  26.398  26.709  1.00  0.00     0.074 A 
ATOM     39  C   UNL A   1      47.336  25.036  26.260  1.00  0.00     0.031 C 
ATOM     40  C   UNL A   1      48.074  27.370  26.641  1.00  0.00     0.031 A 
BRANCH  27  41
ATOM     41  C   UNL A   1      46.204  32.919  28.580  1.00  0.00    -0.014 A 
ATOM     42  C   UNL A   1      46.051  33.843  27.532  1.00  0.00     0.010 A 
ATOM     43  C   UNL A   1      46.581  33.384  29.854  1.00  0.00     0.010 A 
ATOM     44  C   UNL A   1      46.277  35.205  27.752  1.00  0.00     0.020 A 
ATOM     45  C   UNL A   1      46.790  34.747  30.083  1.00  0.00     0.020 A 
ATOM     46  C   UNL A   1      46.641  35.650  29.028  1.00  0.00     0.054 A 
BRANCH  46  47
ATOM     47  S   UNL A   1      46.862  37.431  29.300  1.00  0.00     0.124 S 
ATOM     48  O   UNL A   1      45.583  37.965  28.840  1.00  0.00    -0.237 OA
ATOM     49  O   UNL A   1      47.094  37.508  30.740  1.00  0.00    -0.237 OA
ATOM     50  O   UNL A   1      48.014  37.769  28.467  1.00  0.00    -0.744 OA
ENDBRANCH  46  47
ENDBRANCH  27  41
BRANCH  28  51
ATOM     51  C   UNL A   1      43.517  23.403  27.027  1.00  0.00    -0.014 A 
ATOM     52  C   UNL A   1      43.304  22.477  28.061  1.00  0.00     0.010 A 
ATOM     53  C   UNL A   1      43.326  22.999  25.692  1.00  0.00     0.010 A 
ATOM     54  C   UNL A   1      42.935  21.162  27.764  1.00  0.00     0.020 A 
ATOM     55  C   UNL A   1      42.928  21.695  25.393  1.00  0.00     0.020 A 
ATOM     56  C   UNL A   1      42.752  20.779  26.431  1.00  0.00     0.054 A 
BRANCH  56  57
ATOM     57  S   UNL A   1      42.247  19.076  26.066  1.00  0.00     0.124 S 
ATOM     58  O   UNL A   1      42.470  18.414  27.346  1.00  0.00    -0.237 OA
ATOM     59  O   UNL A   1      40.850  19.236  25.669  1.00  0.00    -0.237 OA
ATOM     60  O   UNL A   1      43.150  18.678  24.987  1.00  0.00    -0.744 OA
ENDBRANCH  56  57
ENDBRANCH  28  51
BRANCH  40  61
ATOM     61  C   UNL A   1      49.408  26.986  26.063  1.00  0.00    -0.014 A 
ATOM     62  C   UNL A   1      50.376  26.344  26.855  1.00  0.00     0.010 A 
ATOM     63  C   UNL A   1      49.682  27.239  24.708  1.00  0.00     0.010 A 
ATOM     64  C   UNL A   1      51.610  25.988  26.308  1.00  0.00     0.020 A 
ATOM     65  C   UNL A   1      50.905  26.861  24.150  1.00  0.00     0.020 A 
ATOM     66  C   UNL A   1      51.867  26.251  24.959  1.00  0.00     0.054 A 
BRANCH  66  67
ATOM     67  S   UNL A   1      53.462  25.746  24.260  1.00  0.00     0.124 S 
ATOM     68  O   UNL A   1      53.604  24.387  24.777  1.00  0.00    -0.237 OA
ATOM     69  O   UNL A   1      53.231  25.849  22.821  1.00  0.00    -0.237 OA
ATOM     70  O   UNL A   1      54.403  26.721  24.806  1.00  0.00    -0.744 OA
ENDBRANCH  66  67
ENDBRANCH  40  61
ENDBRANCH  14  15
ENDBRANCH   7   9
ENDBRANCH   4   5
ENDBRANCH   3   4
ENDBRANCH   2   3
ENDBRANCH   1   2
BRANCH   1  71
ATOM     71  C   UNL A   1      32.458  28.159  26.755  1.00  0.00     0.021 C 
BRANCH  71  72
ATOM     72  C   UNL A   1      31.804  26.799  26.560  1.00  0.00     0.116 C 
BRANCH  72  73
ATOM     73  N   UNL A   1      31.037  26.762  25.331  1.00  0.00    -0.354 N 
ATOM     74  C   UNL A   1      31.076  25.887  24.289  1.00  0.00     0.244 C 
ATOM     75  H   UNL A   1      30.380  27.488  25.234  1.00  0.00     0.163 HD
ATOM     76  O   UNL A   1      30.230  26.018  23.401  1.00  0.00    -0.273 OA
BRANCH  74  77
ATOM     77  C   UNL A   1      32.082  24.731  24.262  1.00  0.00     0.197 C 
BRANCH  77  78
ATOM     78  N   UNL A   1      32.063  23.983  25.528  1.00  0.00    -0.340 N 
ATOM     79  C   UNL A   1      32.561  22.774  25.906  1.00  0.00     0.243 C 
ATOM     80  H   UNL A   1      31.592  24.454  26.253  1.00  0.00     0.164 HD
ATOM     81  O   UNL A   1      32.180  22.387  27.016  1.00  0.00    -0.273 OA
BRANCH  79  82
ATOM     82  C   UNL A   1      33.354  21.849  24.952  1.00  0.00     0.176 C 
BRANCH  82  83
ATOM     83  N   UNL A   1      32.586  21.342  23.812  1.00  0.00    -0.340 N 
ATOM     84  C   UNL A   1      32.441  20.095  23.263  1.00  0.00     0.251 C 
ATOM     85  H   UNL A   1      32.068  22.039  23.346  1.00  0.00     0.164 HD
ATOM     86  O   UNL A   1      31.924  20.028  22.146  1.00  0.00    -0.269 OA
BRANCH  84  87
ATOM     87  C   UNL A   1      32.841  18.818  23.933  1.00  0.00     0.040 A 
ATOM     88  C   UNL A   1      32.551  18.488  25.261  1.00  0.00     0.017 A 
ATOM     89  C   UNL A   1      33.426  17.829  23.122  1.00  0.00     0.017 A 
ATOM     90  C   UNL A   1      32.850  17.222  25.776  1.00  0.00     0.040 A 
ATOM     91  C   UNL A   1      33.722  16.560  23.632  1.00  0.00     0.040 A 
ATOM     92  C   UNL A   1      33.432  16.269  24.957  1.00  0.00     0.123 A 
ATOM     93  F   UNL A   1      33.691  15.048  25.441  1.00  0.00    -0.207 F 
ENDBRANCH  84  87
ENDBRANCH  82  83
BRANCH  82  94
ATOM     94  C   UNL A   1      34.685  22.478  24.496  1.00  0.00     0.072 C 
BRANCH  94  95
ATOM     95  C   UNL A   1      35.985  21.842  24.912  1.00  0.00    -0.020 A 
ATOM     96  C   UNL A   1      36.445  20.553  24.726  1.00  0.00     0.087 A 
ATOM     97  C   UNL A   1      37.049  22.559  25.567  1.00  0.00     0.003 A 
ATOM     98  N   UNL A   1      37.729  20.475  25.204  1.00  0.00    -0.361 N 
ATOM     99  C   UNL A   1      38.122  21.685  25.722  1.00  0.00     0.046 A 
ATOM    100  C   UNL A   1      37.197  23.889  26.015  1.00  0.00     0.010 A 
ATOM    101  H   UNL A   1      38.289  19.665  25.179  1.00  0.00     0.166 HD
ATOM    102  C   UNL A   1      39.340  22.073  26.297  1.00  0.00     0.026 A 
ATOM    103  C   UNL A   1      38.403  24.294  26.595  1.00  0.00     0.001 A 
ATOM    104  C   UNL A   1      39.460  23.398  26.731  1.00  0.00     0.002 A 
ENDBRANCH  94  95
ENDBRANCH  82  94
ENDBRANCH  79  82
ENDBRANCH  77  78
BRANCH  77 105
ATOM    105  C   UNL A   1      31.818  23.830  23.035  1.00  0.00     0.191 C 
BRANCH 105 106
ATOM    106  O   UNL A   1      30.473  23.353  23.003  1.00  0.00    -0.394 OA
ATOM    107  H   UNL A   1      29.876  24.081  22.773  1.00  0.00     0.210 HD
ENDBRANCH 105 106
ENDBRANCH  77 105
ENDBRANCH  74  77
ENDBRANCH  72  73
ENDBRANCH  71  72
ENDBRANCH   1  71
TORSDOF 24
ENDMDL
