MODEL 1
REMARK VINA RESULT:     -11.4      0.000      0.000
REMARK SMILES CC[C@](C)(NC(=O)c1cccc2ncccc12)C(=O)NCCCCCCNC(=O)c1ccc(-c2c3nc(c(-c4ccc(S(=O)(=O)[O-])cc4)c4ccc([nH]4)c(-c4ccc(S(=O)(=O)[O-])cc4)c4nc(c(-c5ccc(S(=O)(=O)[O-])cc5)c5ccc2[nH]5)C=C4)C=C3)cc1
REMARK SMILES IDX 24 1 23 2 22 3 21 4 20 5 18 6 19 7 3 9 4 10 2 11 1 12 5 13
REMARK SMILES IDX 6 14 7 16 8 17 9 18 17 19 10 20 12 21 16 22 11 23 13 24
REMARK SMILES IDX 15 25 14 26 25 27 26 28 27 29 28 30 29 32 30 33 31 34 89 35
REMARK SMILES IDX 32 36 88 37 33 38 34 39 35 40 82 41 36 42 87 43 81 44 83 45
REMARK SMILES IDX 37 46 86 47 80 48 79 49 38 51 68 52 49 53 67 54 50 55 53 56
REMARK SMILES IDX 66 57 84 58 51 59 52 60 65 62 85 63 54 64 39 65 40 66 48 67
REMARK SMILES IDX 41 68 47 69 42 70 43 71 44 72 45 73 46 74 69 75 70 76 78 77
REMARK SMILES IDX 71 78 77 79 72 80 73 81 74 82 75 83 76 84 55 85 56 86 64 87
REMARK SMILES IDX 57 88 63 89 58 90 59 91 60 92 61 93 62 94
REMARK H PARENT 20 8 5 15 27 31 83 50 53 61
REMARK Flexibility Score: inf
ROOT
ATOM      1  C   UNL A   1      38.228  23.980  26.543  1.00  0.00     0.002 C 
ENDROOT
BRANCH   1   2
ATOM      2  C   UNL A   1      36.837  23.549  26.094  1.00  0.00     0.002 C 
BRANCH   2   3
ATOM      3  C   UNL A   1      36.649  22.053  25.833  1.00  0.00     0.021 C 
BRANCH   3   4
ATOM      4  C   UNL A   1      35.221  21.504  25.864  1.00  0.00     0.116 C 
BRANCH   4   5
ATOM      5  N   UNL A   1      34.413  21.822  27.033  1.00  0.00    -0.354 N 
ATOM      6  C   UNL A   1      33.287  22.584  27.211  1.00  0.00     0.245 C 
ATOM      7  O   UNL A   1      32.754  22.525  28.326  1.00  0.00    -0.272 OA
ATOM      8  H   UNL A   1      34.742  21.406  27.863  1.00  0.00     0.163 HD
BRANCH   6   9
ATOM      9  C   UNL A   1      32.659  23.431  26.064  1.00  0.00     0.116 C 
ATOM     10  C   UNL A   1      32.785  22.755  24.686  1.00  0.00     0.045 C 
BRANCH   9  11
ATOM     11  C   UNL A   1      33.525  24.744  26.052  1.00  0.00     0.035 C 
ATOM     12  C   UNL A   1      34.088  25.139  24.682  1.00  0.00     0.007 C 
ENDBRANCH   9  11
BRANCH   9  13
ATOM     13  N   UNL A   1      31.212  23.777  26.247  1.00  0.00    -0.338 N 
ATOM     14  C   UNL A   1      30.442  24.934  26.162  1.00  0.00     0.252 C 
ATOM     15  H   UNL A   1      30.672  22.989  26.486  1.00  0.00     0.164 HD
ATOM     16  O   UNL A   1      29.427  24.902  26.864  1.00  0.00    -0.269 OA
BRANCH  14  17
ATOM     17  C   UNL A   1      30.664  26.125  25.243  1.00  0.00     0.049 A 
ATOM     18  C   UNL A   1      30.206  26.077  23.930  1.00  0.00     0.014 A 
ATOM     19  C   UNL A   1      31.149  27.401  25.701  1.00  0.00     0.013 A 
ATOM     20  C   UNL A   1      30.206  27.162  23.065  1.00  0.00     0.003 A 
ATOM     21  C   UNL A   1      31.131  28.515  24.809  1.00  0.00     0.071 A 
ATOM     22  C   UNL A   1      31.638  27.708  26.995  1.00  0.00     0.013 A 
ATOM     23  C   UNL A   1      30.670  28.375  23.519  1.00  0.00     0.029 A 
ATOM     24  N   UNL A   1      31.516  29.757  25.128  1.00  0.00    -0.256 NA
ATOM     25  C   UNL A   1      32.025  29.004  27.340  1.00  0.00     0.021 A 
ATOM     26  C   UNL A   1      31.940  29.987  26.382  1.00  0.00     0.112 A 
ENDBRANCH  14  17
ENDBRANCH   9  13
ENDBRANCH   6   9
ENDBRANCH   4   5
ENDBRANCH   3   4
ENDBRANCH   2   3
ENDBRANCH   1   2
BRANCH   1  27
ATOM     27  C   UNL A   1      39.285  22.882  26.500  1.00  0.00     0.021 C 
BRANCH  27  28
ATOM     28  C   UNL A   1      40.670  23.316  26.965  1.00  0.00     0.116 C 
BRANCH  28  29
ATOM     29  N   UNL A   1      41.360  24.119  25.965  1.00  0.00    -0.352 N 
ATOM     30  C   UNL A   1      41.686  25.452  26.011  1.00  0.00     0.251 C 
ATOM     31  H   UNL A   1      41.627  23.643  25.146  1.00  0.00     0.163 HD
ATOM     32  O   UNL A   1      42.076  26.032  24.999  1.00  0.00    -0.269 OA
BRANCH  30  33
ATOM     33  C   UNL A   1      41.544  26.189  27.284  1.00  0.00     0.039 A 
ATOM     34  C   UNL A   1      42.496  27.151  27.622  1.00  0.00     0.014 A 
ATOM     35  C   UNL A   1      40.452  25.948  28.123  1.00  0.00     0.014 A 
ATOM     36  C   UNL A   1      42.315  27.919  28.775  1.00  0.00     0.010 A 
ATOM     37  C   UNL A   1      40.231  26.772  29.223  1.00  0.00     0.010 A 
ATOM     38  C   UNL A   1      41.162  27.763  29.564  1.00  0.00    -0.014 A 
BRANCH  38  39
ATOM     39  C   UNL A   1      40.915  28.650  30.729  1.00  0.00     0.031 A 
ATOM     40  C   UNL A   1      41.752  28.534  31.974  1.00  0.00     0.074 A 
ATOM     41  C   UNL A   1      39.905  29.542  30.674  1.00  0.00     0.049 A 
ATOM     42  N   UNL A   1      41.709  29.258  33.063  1.00  0.00    -0.248 NA
ATOM     43  C   UNL A   1      42.750  27.454  32.010  1.00  0.00     0.031 C 
ATOM     44  C   UNL A   1      38.986  29.712  29.545  1.00  0.00     0.029 A 
ATOM     45  N   UNL A   1      39.490  30.483  31.583  1.00  0.00    -0.354 N 
ATOM     46  C   UNL A   1      42.662  28.714  33.917  1.00  0.00     0.074 A 
ATOM     47  C   UNL A   1      43.227  27.567  33.242  1.00  0.00     0.031 C 
ATOM     48  C   UNL A   1      38.154  30.733  29.805  1.00  0.00     0.029 A 
ATOM     49  C   UNL A   1      38.450  31.262  31.132  1.00  0.00     0.049 A 
ATOM     50  H   UNL A   1      39.897  30.590  32.473  1.00  0.00     0.167 HD
ATOM     51  C   UNL A   1      43.047  29.142  35.144  1.00  0.00     0.031 A 
ATOM     52  C   UNL A   1      37.812  32.296  31.715  1.00  0.00     0.031 A 
ATOM     53  C   UNL A   1      42.478  30.283  35.812  1.00  0.00     0.049 A 
ATOM     54  C   UNL A   1      38.252  32.748  33.080  1.00  0.00     0.074 A 
ATOM     55  C   UNL A   1      42.844  30.842  37.024  1.00  0.00     0.029 A 
ATOM     56  N   UNL A   1      41.414  31.034  35.334  1.00  0.00    -0.354 N 
ATOM     57  N   UNL A   1      39.220  32.280  33.832  1.00  0.00    -0.248 NA
ATOM     58  C   UNL A   1      37.521  33.878  33.666  1.00  0.00     0.031 C 
ATOM     59  C   UNL A   1      41.956  31.884  37.311  1.00  0.00     0.029 A 
ATOM     60  C   UNL A   1      41.083  32.023  36.245  1.00  0.00     0.049 A 
ATOM     61  H   UNL A   1      40.961  30.884  34.472  1.00  0.00     0.167 HD
ATOM     62  C   UNL A   1      39.228  33.072  34.974  1.00  0.00     0.074 A 
ATOM     63  C   UNL A   1      38.185  34.065  34.799  1.00  0.00     0.031 C 
ATOM     64  C   UNL A   1      40.025  32.988  36.069  1.00  0.00     0.031 A 
BRANCH  51  65
ATOM     65  C   UNL A   1      44.123  28.353  35.851  1.00  0.00    -0.014 A 
ATOM     66  C   UNL A   1      43.805  27.277  36.701  1.00  0.00     0.010 A 
ATOM     67  C   UNL A   1      45.475  28.681  35.646  1.00  0.00     0.010 A 
ATOM     68  C   UNL A   1      44.814  26.581  37.373  1.00  0.00     0.020 A 
ATOM     69  C   UNL A   1      46.490  27.966  36.289  1.00  0.00     0.020 A 
ATOM     70  C   UNL A   1      46.151  26.934  37.165  1.00  0.00     0.054 A 
BRANCH  70  71
ATOM     71  S   UNL A   1      47.441  26.012  38.047  1.00  0.00     0.124 S 
ATOM     72  O   UNL A   1      47.372  24.705  37.399  1.00  0.00    -0.237 OA
ATOM     73  O   UNL A   1      48.642  26.792  37.762  1.00  0.00    -0.237 OA
ATOM     74  O   UNL A   1      46.998  26.041  39.439  1.00  0.00    -0.744 OA
ENDBRANCH  70  71
ENDBRANCH  51  65
BRANCH  52  75
ATOM     75  C   UNL A   1      36.714  32.993  30.991  1.00  0.00    -0.014 A 
ATOM     76  C   UNL A   1      37.007  33.995  30.048  1.00  0.00     0.010 A 
ATOM     77  C   UNL A   1      35.371  32.642  31.219  1.00  0.00     0.010 A 
ATOM     78  C   UNL A   1      35.978  34.638  29.354  1.00  0.00     0.020 A 
ATOM     79  C   UNL A   1      34.341  33.261  30.506  1.00  0.00     0.020 A 
ATOM     80  C   UNL A   1      34.651  34.262  29.582  1.00  0.00     0.054 A 
BRANCH  80  81
ATOM     81  S   UNL A   1      33.338  35.062  28.619  1.00  0.00     0.124 S 
ATOM     82  O   UNL A   1      34.102  35.863  27.670  1.00  0.00    -0.237 OA
ATOM     83  O   UNL A   1      32.622  33.920  28.055  1.00  0.00    -0.237 OA
ATOM     84  O   UNL A   1      32.592  35.819  29.623  1.00  0.00    -0.744 OA
ENDBRANCH  80  81
ENDBRANCH  52  75
BRANCH  64  85
ATOM     85  C   UNL A   1      39.804  34.007  37.157  1.00  0.00    -0.014 A 
ATOM     86  C   UNL A   1      40.374  35.291  37.082  1.00  0.00     0.010 A 
ATOM     87  C   UNL A   1      39.000  33.681  38.265  1.00  0.00     0.010 A 
ATOM     88  C   UNL A   1      40.189  36.209  38.119  1.00  0.00     0.020 A 
ATOM     89  C   UNL A   1      38.783  34.608  39.286  1.00  0.00     0.020 A 
ATOM     90  C   UNL A   1      39.398  35.860  39.217  1.00  0.00     0.054 A 
BRANCH  90  91
ATOM     91  S   UNL A   1      39.166  37.072  40.546  1.00  0.00     0.124 S 
ATOM     92  O   UNL A   1      40.525  37.568  40.745  1.00  0.00    -0.237 OA
ATOM     93  O   UNL A   1      38.231  38.024  39.952  1.00  0.00    -0.237 OA
ATOM     94  O   UNL A   1      38.625  36.280  41.648  1.00  0.00    -0.744 OA
ENDBRANCH  90  91
ENDBRANCH  64  85
ENDBRANCH  38  39
ENDBRANCH  30  33
ENDBRANCH  28  29
ENDBRANCH  27  28
ENDBRANCH   1  27
TORSDOF 19
ENDMDL
MODEL 2
REMARK VINA RESULT:     -11.4      1.194      2.000
REMARK SMILES CC[C@](C)(NC(=O)c1cccc2ncccc12)C(=O)NCCCCCCNC(=O)c1ccc(-c2c3nc(c(-c4ccc(S(=O)(=O)[O-])cc4)c4ccc([nH]4)c(-c4ccc(S(=O)(=O)[O-])cc4)c4nc(c(-c5ccc(S(=O)(=O)[O-])cc5)c5ccc2[nH]5)C=C4)C=C3)cc1
REMARK SMILES IDX 24 1 23 2 22 3 21 4 20 5 18 6 19 7 3 9 4 10 2 11 1 12 5 13
REMARK SMILES IDX 6 14 7 16 8 17 9 18 17 19 10 20 12 21 16 22 11 23 13 24
REMARK SMILES IDX 15 25 14 26 25 27 26 28 27 29 28 30 29 32 30 33 31 34 89 35
REMARK SMILES IDX 32 36 88 37 33 38 34 39 35 40 82 41 36 42 87 43 81 44 83 45
REMARK SMILES IDX 37 46 86 47 80 48 79 49 38 51 68 52 49 53 67 54 50 55 53 56
REMARK SMILES IDX 66 57 84 58 51 59 52 60 65 62 85 63 54 64 39 65 40 66 48 67
REMARK SMILES IDX 41 68 47 69 42 70 43 71 44 72 45 73 46 74 69 75 70 76 78 77
REMARK SMILES IDX 71 78 77 79 72 80 73 81 74 82 75 83 76 84 55 85 56 86 64 87
REMARK SMILES IDX 57 88 63 89 58 90 59 91 60 92 61 93 62 94
REMARK H PARENT 20 8 5 15 27 31 83 50 53 61
REMARK Flexibility Score: inf
ROOT
ATOM      1  C   UNL A   1      38.173  22.396  25.801  1.00  0.00     0.002 C 
ENDROOT
BRANCH   1   2
ATOM      2  C   UNL A   1      37.519  23.733  26.126  1.00  0.00     0.002 C 
BRANCH   2   3
ATOM      3  C   UNL A   1      36.118  23.953  25.555  1.00  0.00     0.021 C 
BRANCH   3   4
ATOM      4  C   UNL A   1      35.075  22.859  25.798  1.00  0.00     0.116 C 
BRANCH   4   5
ATOM      5  N   UNL A   1      33.748  23.290  26.219  1.00  0.00    -0.354 N 
ATOM      6  C   UNL A   1      32.571  23.481  25.542  1.00  0.00     0.245 C 
ATOM      7  O   UNL A   1      31.571  23.711  26.234  1.00  0.00    -0.272 OA
ATOM      8  H   UNL A   1      33.685  23.481  27.183  1.00  0.00     0.163 HD
BRANCH   6   9
ATOM      9  C   UNL A   1      32.465  23.355  23.993  1.00  0.00     0.116 C 
ATOM     10  C   UNL A   1      31.031  23.571  23.475  1.00  0.00     0.045 C 
BRANCH   9  11
ATOM     11  C   UNL A   1      32.873  21.862  23.711  1.00  0.00     0.035 C 
ATOM     12  C   UNL A   1      32.095  21.177  22.582  1.00  0.00     0.007 C 
ENDBRANCH   9  11
BRANCH   9  13
ATOM     13  N   UNL A   1      33.351  24.280  23.217  1.00  0.00    -0.338 N 
ATOM     14  C   UNL A   1      33.417  25.654  22.998  1.00  0.00     0.252 C 
ATOM     15  H   UNL A   1      34.066  23.795  22.743  1.00  0.00     0.164 HD
ATOM     16  O   UNL A   1      33.951  25.956  21.927  1.00  0.00    -0.269 OA
BRANCH  14  17
ATOM     17  C   UNL A   1      33.019  26.762  23.961  1.00  0.00     0.049 A 
ATOM     18  C   UNL A   1      33.856  27.086  25.023  1.00  0.00     0.014 A 
ATOM     19  C   UNL A   1      31.908  27.649  23.732  1.00  0.00     0.013 A 
ATOM     20  C   UNL A   1      33.671  28.182  25.855  1.00  0.00     0.003 A 
ATOM     21  C   UNL A   1      31.734  28.782  24.583  1.00  0.00     0.071 A 
ATOM     22  C   UNL A   1      30.939  27.547  22.704  1.00  0.00     0.013 A 
ATOM     23  C   UNL A   1      32.607  29.022  25.621  1.00  0.00     0.029 A 
ATOM     24  N   UNL A   1      30.768  29.700  24.448  1.00  0.00    -0.256 NA
ATOM     25  C   UNL A   1      29.939  28.509  22.547  1.00  0.00     0.021 A 
ATOM     26  C   UNL A   1      29.900  29.560  23.433  1.00  0.00     0.112 A 
ENDBRANCH  14  17
ENDBRANCH   9  13
ENDBRANCH   6   9
ENDBRANCH   4   5
ENDBRANCH   3   4
ENDBRANCH   2   3
ENDBRANCH   1   2
BRANCH   1  27
ATOM     27  C   UNL A   1      39.536  22.174  26.450  1.00  0.00     0.021 C 
BRANCH  27  28
ATOM     28  C   UNL A   1      40.184  23.434  27.011  1.00  0.00     0.116 C 
BRANCH  28  29
ATOM     29  N   UNL A   1      40.849  24.217  25.979  1.00  0.00    -0.352 N 
ATOM     30  C   UNL A   1      41.205  25.543  26.004  1.00  0.00     0.251 C 
ATOM     31  H   UNL A   1      41.072  23.731  25.153  1.00  0.00     0.163 HD
ATOM     32  O   UNL A   1      41.565  26.109  24.973  1.00  0.00    -0.269 OA
BRANCH  30  33
ATOM     33  C   UNL A   1      41.130  26.289  27.277  1.00  0.00     0.039 A 
ATOM     34  C   UNL A   1      42.075  27.281  27.540  1.00  0.00     0.014 A 
ATOM     35  C   UNL A   1      40.106  26.026  28.192  1.00  0.00     0.014 A 
ATOM     36  C   UNL A   1      41.952  28.056  28.695  1.00  0.00     0.010 A 
ATOM     37  C   UNL A   1      39.938  26.855  29.298  1.00  0.00     0.010 A 
ATOM     38  C   UNL A   1      40.862  27.876  29.564  1.00  0.00    -0.014 A 
BRANCH  38  39
ATOM     39  C   UNL A   1      40.670  28.768  30.735  1.00  0.00     0.031 A 
ATOM     40  C   UNL A   1      41.532  28.624  31.960  1.00  0.00     0.074 A 
ATOM     41  C   UNL A   1      39.688  29.692  30.705  1.00  0.00     0.049 A 
ATOM     42  N   UNL A   1      41.537  29.346  33.051  1.00  0.00    -0.248 NA
ATOM     43  C   UNL A   1      42.495  27.512  31.972  1.00  0.00     0.031 C 
ATOM     44  C   UNL A   1      38.749  29.894  29.598  1.00  0.00     0.029 A 
ATOM     45  N   UNL A   1      39.325  30.644  31.624  1.00  0.00    -0.354 N 
ATOM     46  C   UNL A   1      42.492  28.771  33.882  1.00  0.00     0.074 A 
ATOM     47  C   UNL A   1      43.004  27.607  33.192  1.00  0.00     0.031 C 
ATOM     48  C   UNL A   1      37.957  30.940  29.879  1.00  0.00     0.029 A 
ATOM     49  C   UNL A   1      38.300  31.457  31.199  1.00  0.00     0.049 A 
ATOM     50  H   UNL A   1      39.755  30.737  32.505  1.00  0.00     0.167 HD
ATOM     51  C   UNL A   1      42.919  29.184  35.100  1.00  0.00     0.031 A 
ATOM     52  C   UNL A   1      37.710  32.510  31.798  1.00  0.00     0.031 A 
ATOM     53  C   UNL A   1      42.403  30.342  35.783  1.00  0.00     0.049 A 
ATOM     54  C   UNL A   1      38.195  32.945  33.153  1.00  0.00     0.074 A 
ATOM     55  C   UNL A   1      42.815  30.886  36.986  1.00  0.00     0.029 A 
ATOM     56  N   UNL A   1      41.353  31.127  35.330  1.00  0.00    -0.354 N 
ATOM     57  N   UNL A   1      39.165  32.445  33.881  1.00  0.00    -0.248 NA
ATOM     58  C   UNL A   1      37.514  34.097  33.757  1.00  0.00     0.031 C 
ATOM     59  C   UNL A   1      41.968  31.956  37.295  1.00  0.00     0.029 A 
ATOM     60  C   UNL A   1      41.075  32.125  36.249  1.00  0.00     0.049 A 
ATOM     61  H   UNL A   1      40.875  30.993  34.479  1.00  0.00     0.167 HD
ATOM     62  C   UNL A   1      39.225  33.235  35.024  1.00  0.00     0.074 A 
ATOM     63  C   UNL A   1      38.210  34.260  34.874  1.00  0.00     0.031 C 
ATOM     64  C   UNL A   1      40.044  33.123  36.099  1.00  0.00     0.031 A 
BRANCH  51  65
ATOM     65  C   UNL A   1      43.985  28.359  35.781  1.00  0.00    -0.014 A 
ATOM     66  C   UNL A   1      45.354  28.623  35.586  1.00  0.00     0.010 A 
ATOM     67  C   UNL A   1      43.611  27.315  36.645  1.00  0.00     0.010 A 
ATOM     68  C   UNL A   1      46.325  27.826  36.198  1.00  0.00     0.020 A 
ATOM     69  C   UNL A   1      44.578  26.536  37.287  1.00  0.00     0.020 A 
ATOM     70  C   UNL A   1      45.930  26.784  37.042  1.00  0.00     0.054 A 
BRANCH  70  71
ATOM     71  S   UNL A   1      47.211  25.767  37.827  1.00  0.00     0.124 S 
ATOM     72  O   UNL A   1      48.233  26.762  38.141  1.00  0.00    -0.237 OA
ATOM     73  O   UNL A   1      46.510  25.202  38.976  1.00  0.00    -0.237 OA
ATOM     74  O   UNL A   1      47.576  24.806  36.789  1.00  0.00    -0.744 OA
ENDBRANCH  70  71
ENDBRANCH  51  65
BRANCH  52  75
ATOM     75  C   UNL A   1      36.617  33.243  31.100  1.00  0.00    -0.014 A 
ATOM     76  C   UNL A   1      36.859  33.874  29.866  1.00  0.00     0.010 A 
ATOM     77  C   UNL A   1      35.324  33.292  31.650  1.00  0.00     0.010 A 
ATOM     78  C   UNL A   1      35.831  34.548  29.201  1.00  0.00     0.020 A 
ATOM     79  C   UNL A   1      34.286  33.939  30.975  1.00  0.00     0.020 A 
ATOM     80  C   UNL A   1      34.548  34.570  29.757  1.00  0.00     0.054 A 
BRANCH  80  81
ATOM     81  S   UNL A   1      33.213  35.391  28.841  1.00  0.00     0.124 S 
ATOM     82  O   UNL A   1      32.611  34.277  28.117  1.00  0.00    -0.237 OA
ATOM     83  O   UNL A   1      32.403  35.964  29.913  1.00  0.00    -0.237 OA
ATOM     84  O   UNL A   1      33.919  36.369  28.014  1.00  0.00    -0.744 OA
ENDBRANCH  80  81
ENDBRANCH  52  75
BRANCH  64  85
ATOM     85  C   UNL A   1      39.881  34.147  37.194  1.00  0.00    -0.014 A 
ATOM     86  C   UNL A   1      40.464  35.423  37.092  1.00  0.00     0.010 A 
ATOM     87  C   UNL A   1      39.120  33.832  38.334  1.00  0.00     0.010 A 
ATOM     88  C   UNL A   1      40.334  36.345  38.134  1.00  0.00     0.020 A 
ATOM     89  C   UNL A   1      38.957  34.764  39.362  1.00  0.00     0.020 A 
ATOM     90  C   UNL A   1      39.584  36.008  39.265  1.00  0.00     0.054 A 
BRANCH  90  91
ATOM     91  S   UNL A   1      39.423  37.224  40.599  1.00  0.00     0.124 S 
ATOM     92  O   UNL A   1      38.675  38.295  39.946  1.00  0.00    -0.237 OA
ATOM     93  O   UNL A   1      38.693  36.482  41.623  1.00  0.00    -0.237 OA
ATOM     94  O   UNL A   1      40.806  37.550  40.941  1.00  0.00    -0.744 OA
ENDBRANCH  90  91
ENDBRANCH  64  85
ENDBRANCH  38  39
ENDBRANCH  30  33
ENDBRANCH  28  29
ENDBRANCH  27  28
ENDBRANCH   1  27
TORSDOF 19
ENDMDL
MODEL 3
REMARK VINA RESULT:     -11.3      0.703      8.083
REMARK SMILES CC[C@](C)(NC(=O)c1cccc2ncccc12)C(=O)NCCCCCCNC(=O)c1ccc(-c2c3nc(c(-c4ccc(S(=O)(=O)[O-])cc4)c4ccc([nH]4)c(-c4ccc(S(=O)(=O)[O-])cc4)c4nc(c(-c5ccc(S(=O)(=O)[O-])cc5)c5ccc2[nH]5)C=C4)C=C3)cc1
REMARK SMILES IDX 24 1 23 2 22 3 21 4 20 5 18 6 19 7 3 9 4 10 2 11 1 12 5 13
REMARK SMILES IDX 6 14 7 16 8 17 9 18 17 19 10 20 12 21 16 22 11 23 13 24
REMARK SMILES IDX 15 25 14 26 25 27 26 28 27 29 28 30 29 32 30 33 31 34 89 35
REMARK SMILES IDX 32 36 88 37 33 38 34 39 35 40 82 41 36 42 87 43 81 44 83 45
REMARK SMILES IDX 37 46 86 47 80 48 79 49 38 51 68 52 49 53 67 54 50 55 53 56
REMARK SMILES IDX 66 57 84 58 51 59 52 60 65 62 85 63 54 64 39 65 40 66 48 67
REMARK SMILES IDX 41 68 47 69 42 70 43 71 44 72 45 73 46 74 69 75 70 76 78 77
REMARK SMILES IDX 71 78 77 79 72 80 73 81 74 82 75 83 76 84 55 85 56 86 64 87
REMARK SMILES IDX 57 88 63 89 58 90 59 91 60 92 61 93 62 94
REMARK H PARENT 20 8 5 15 27 31 83 50 53 61
REMARK Flexibility Score: inf
ROOT
ATOM      1  C   UNL A   1      38.311  23.807  26.542  1.00  0.00     0.002 C 
ENDROOT
BRANCH   1   2
ATOM      2  C   UNL A   1      37.434  23.420  25.358  1.00  0.00     0.002 C 
BRANCH   2   3
ATOM      3  C   UNL A   1      37.328  21.923  25.060  1.00  0.00     0.021 C 
BRANCH   3   4
ATOM      4  C   UNL A   1      35.941  21.281  25.144  1.00  0.00     0.116 C 
BRANCH   4   5
ATOM      5  N   UNL A   1      35.247  21.367  26.422  1.00  0.00    -0.354 N 
ATOM      6  C   UNL A   1      34.108  22.016  26.823  1.00  0.00     0.245 C 
ATOM      7  O   UNL A   1      33.701  21.758  27.963  1.00  0.00    -0.272 OA
ATOM      8  H   UNL A   1      35.684  20.857  27.142  1.00  0.00     0.163 HD
BRANCH   6   9
ATOM      9  C   UNL A   1      33.318  22.978  25.887  1.00  0.00     0.116 C 
ATOM     10  C   UNL A   1      33.325  22.519  24.417  1.00  0.00     0.045 C 
BRANCH   9  11
ATOM     11  C   UNL A   1      34.112  24.332  25.986  1.00  0.00     0.035 C 
ATOM     12  C   UNL A   1      34.393  25.021  24.646  1.00  0.00     0.007 C 
ENDBRANCH   9  11
BRANCH   9  13
ATOM     13  N   UNL A   1      31.885  23.200  26.265  1.00  0.00    -0.338 N 
ATOM     14  C   UNL A   1      31.012  24.285  26.287  1.00  0.00     0.252 C 
ATOM     15  H   UNL A   1      31.452  22.371  26.574  1.00  0.00     0.164 HD
ATOM     16  O   UNL A   1      30.108  24.173  27.120  1.00  0.00    -0.269 OA
BRANCH  14  17
ATOM     17  C   UNL A   1      31.003  25.482  25.348  1.00  0.00     0.049 A 
ATOM     18  C   UNL A   1      30.470  25.350  24.070  1.00  0.00     0.014 A 
ATOM     19  C   UNL A   1      31.333  26.819  25.765  1.00  0.00     0.013 A 
ATOM     20  C   UNL A   1      30.260  26.412  23.200  1.00  0.00     0.003 A 
ATOM     21  C   UNL A   1      31.101  27.906  24.870  1.00  0.00     0.071 A 
ATOM     22  C   UNL A   1      31.860  27.211  27.021  1.00  0.00     0.013 A 
ATOM     23  C   UNL A   1      30.578  27.684  23.615  1.00  0.00     0.029 A 
ATOM     24  N   UNL A   1      31.328  29.195  25.155  1.00  0.00    -0.256 NA
ATOM     25  C   UNL A   1      32.084  28.554  27.331  1.00  0.00     0.021 A 
ATOM     26  C   UNL A   1      31.798  29.500  26.375  1.00  0.00     0.112 A 
ENDBRANCH  14  17
ENDBRANCH   9  13
ENDBRANCH   6   9
ENDBRANCH   4   5
ENDBRANCH   3   4
ENDBRANCH   2   3
ENDBRANCH   1   2
BRANCH   1  27
ATOM     27  C   UNL A   1      39.487  22.870  26.801  1.00  0.00     0.021 C 
BRANCH  27  28
ATOM     28  C   UNL A   1      40.801  23.574  27.119  1.00  0.00     0.116 C 
BRANCH  28  29
ATOM     29  N   UNL A   1      41.236  24.443  26.034  1.00  0.00    -0.352 N 
ATOM     30  C   UNL A   1      41.387  25.808  26.036  1.00  0.00     0.251 C 
ATOM     31  H   UNL A   1      41.450  23.991  25.186  1.00  0.00     0.163 HD
ATOM     32  O   UNL A   1      41.555  26.415  24.979  1.00  0.00    -0.269 OA
BRANCH  30  33
ATOM     33  C   UNL A   1      41.322  26.542  27.316  1.00  0.00     0.039 A 
ATOM     34  C   UNL A   1      42.311  27.481  27.612  1.00  0.00     0.014 A 
ATOM     35  C   UNL A   1      40.266  26.323  28.205  1.00  0.00     0.014 A 
ATOM     36  C   UNL A   1      42.203  28.248  28.774  1.00  0.00     0.010 A 
ATOM     37  C   UNL A   1      40.116  27.147  29.317  1.00  0.00     0.010 A 
ATOM     38  C   UNL A   1      41.085  28.115  29.616  1.00  0.00    -0.014 A 
BRANCH  38  39
ATOM     39  C   UNL A   1      40.913  29.003  30.794  1.00  0.00     0.031 A 
ATOM     40  C   UNL A   1      39.819  30.035  30.825  1.00  0.00     0.074 A 
ATOM     41  C   UNL A   1      41.772  28.899  31.828  1.00  0.00     0.049 A 
ATOM     42  N   UNL A   1      39.492  30.858  31.788  1.00  0.00    -0.248 NA
ATOM     43  C   UNL A   1      39.001  30.178  29.610  1.00  0.00     0.031 C 
ATOM     44  C   UNL A   1      42.909  27.976  31.894  1.00  0.00     0.029 A 
ATOM     45  N   UNL A   1      41.817  29.564  33.027  1.00  0.00    -0.354 N 
ATOM     46  C   UNL A   1      38.442  31.623  31.293  1.00  0.00     0.074 A 
ATOM     47  C   UNL A   1      38.224  31.205  29.925  1.00  0.00     0.031 C 
ATOM     48  C   UNL A   1      43.502  28.094  33.092  1.00  0.00     0.029 A 
ATOM     49  C   UNL A   1      42.819  29.127  33.862  1.00  0.00     0.049 A 
ATOM     50  H   UNL A   1      41.193  30.287  33.267  1.00  0.00     0.167 HD
ATOM     51  C   UNL A   1      37.711  32.574  31.924  1.00  0.00     0.031 A 
ATOM     52  C   UNL A   1      43.145  29.506  35.114  1.00  0.00     0.031 A 
ATOM     53  C   UNL A   1      37.935  32.988  33.285  1.00  0.00     0.049 A 
ATOM     54  C   UNL A   1      42.324  30.568  35.791  1.00  0.00     0.074 A 
ATOM     55  C   UNL A   1      37.208  33.891  34.040  1.00  0.00     0.029 A 
ATOM     56  N   UNL A   1      38.970  32.538  34.091  1.00  0.00    -0.354 N 
ATOM     57  N   UNL A   1      41.275  31.213  35.340  1.00  0.00    -0.248 NA
ATOM     58  C   UNL A   1      42.726  30.941  37.153  1.00  0.00     0.031 C 
ATOM     59  C   UNL A   1      37.846  34.040  35.277  1.00  0.00     0.029 A 
ATOM     60  C   UNL A   1      38.927  33.175  35.320  1.00  0.00     0.049 A 
ATOM     61  H   UNL A   1      39.638  31.864  33.826  1.00  0.00     0.167 HD
ATOM     62  C   UNL A   1      40.876  32.056  36.371  1.00  0.00     0.074 A 
ATOM     63  C   UNL A   1      41.783  31.817  37.477  1.00  0.00     0.031 C 
ATOM     64  C   UNL A   1      39.854  32.946  36.402  1.00  0.00     0.031 A 
BRANCH  51  65
ATOM     65  C   UNL A   1      36.614  33.246  31.136  1.00  0.00    -0.014 A 
ATOM     66  C   UNL A   1      36.871  33.862  29.896  1.00  0.00     0.010 A 
ATOM     67  C   UNL A   1      35.298  33.246  31.634  1.00  0.00     0.010 A 
ATOM     68  C   UNL A   1      35.848  34.510  29.199  1.00  0.00     0.020 A 
ATOM     69  C   UNL A   1      34.264  33.863  30.923  1.00  0.00     0.020 A 
ATOM     70  C   UNL A   1      34.551  34.509  29.720  1.00  0.00     0.054 A 
BRANCH  70  71
ATOM     71  S   UNL A   1      33.240  35.354  28.791  1.00  0.00     0.124 S 
ATOM     72  O   UNL A   1      32.435  35.930  29.865  1.00  0.00    -0.237 OA
ATOM     73  O   UNL A   1      33.989  36.313  27.983  1.00  0.00    -0.237 OA
ATOM     74  O   UNL A   1      32.598  34.278  28.041  1.00  0.00    -0.744 OA
ENDBRANCH  70  71
ENDBRANCH  51  65
BRANCH  52  75
ATOM     75  C   UNL A   1      44.281  28.848  35.815  1.00  0.00    -0.014 A 
ATOM     76  C   UNL A   1      45.582  29.373  35.712  1.00  0.00     0.010 A 
ATOM     77  C   UNL A   1      44.066  27.708  36.611  1.00  0.00     0.010 A 
ATOM     78  C   UNL A   1      46.647  28.766  36.384  1.00  0.00     0.020 A 
ATOM     79  C   UNL A   1      45.122  27.116  37.309  1.00  0.00     0.020 A 
ATOM     80  C   UNL A   1      46.409  27.644  37.184  1.00  0.00     0.054 A 
BRANCH  80  81
ATOM     81  S   UNL A   1      47.794  26.916  38.102  1.00  0.00     0.124 S 
ATOM     82  O   UNL A   1      47.398  27.148  39.486  1.00  0.00    -0.237 OA
ATOM     83  O   UNL A   1      47.768  25.525  37.658  1.00  0.00    -0.237 OA
ATOM     84  O   UNL A   1      48.949  27.686  37.643  1.00  0.00    -0.744 OA
ENDBRANCH  80  81
ENDBRANCH  52  75
BRANCH  64  85
ATOM     85  C   UNL A   1      39.657  33.719  37.681  1.00  0.00    -0.014 A 
ATOM     86  C   UNL A   1      40.317  34.941  37.905  1.00  0.00     0.010 A 
ATOM     87  C   UNL A   1      38.785  33.223  38.668  1.00  0.00     0.010 A 
ATOM     88  C   UNL A   1      40.150  35.624  39.113  1.00  0.00     0.020 A 
ATOM     89  C   UNL A   1      38.588  33.920  39.862  1.00  0.00     0.020 A 
ATOM     90  C   UNL A   1      39.290  35.107  40.086  1.00  0.00     0.054 A 
BRANCH  90  91
ATOM     91  S   UNL A   1      39.085  36.015  41.641  1.00  0.00     0.124 S 
ATOM     92  O   UNL A   1      37.824  35.477  42.144  1.00  0.00    -0.237 OA
ATOM     93  O   UNL A   1      40.276  35.633  42.395  1.00  0.00    -0.237 OA
ATOM     94  O   UNL A   1      39.043  37.415  41.223  1.00  0.00    -0.744 OA
ENDBRANCH  90  91
ENDBRANCH  64  85
ENDBRANCH  38  39
ENDBRANCH  30  33
ENDBRANCH  28  29
ENDBRANCH  27  28
ENDBRANCH   1  27
TORSDOF 19
ENDMDL
