MODEL 1
REMARK VINA RESULT:     -11.8      0.000      0.000
REMARK SMILES O=C(NCCCCCCNC(=O)[C@@H]1[C@H](C(=O)Nc2ccccc2OC(F)F)[C@@H]2C=C[C@H]1C2)c1ccc(-c2c3nc(c(-c4ccc(S(=O)(=O)[O-])cc4)c4ccc([nH]4)c(-c4ccc(S(=O)(=O)[O-])cc4)c4nc(c(-c5ccc(S(=O)(=O)[O-])cc5)c5ccc2[nH]5)C=C4)C=C3)cc1
REMARK SMILES IDX 7 1 6 2 5 3 4 4 3 5 1 6 2 7 33 9 34 10 92 11 35 12 91 13
REMARK SMILES IDX 36 14 37 15 38 16 85 17 39 18 90 19 84 20 86 21 40 22 89 23
REMARK SMILES IDX 83 24 82 25 41 27 71 28 52 29 70 30 53 31 56 32 69 33 87 34
REMARK SMILES IDX 54 35 55 36 68 38 88 39 57 40 42 41 43 42 51 43 44 44 50 45
REMARK SMILES IDX 45 46 46 47 47 48 48 49 49 50 72 51 73 52 81 53 74 54 80 55
REMARK SMILES IDX 75 56 76 57 77 58 78 59 79 60 58 61 59 62 67 63 60 64 66 65
REMARK SMILES IDX 61 66 62 67 63 68 64 69 65 70 8 71 9 72 10 73 11 74 12 76
REMARK SMILES IDX 13 77 14 78 31 79 28 80 30 81 32 82 29 83 15 84 16 85 17 86
REMARK SMILES IDX 18 88 19 89 23 90 20 91 22 92 21 93 24 94 25 95 26 96 27 97
REMARK H PARENT 3 8 86 26 56 37 10 75 17 87
REMARK Flexibility Score: inf
ROOT
ATOM      1  C   UNL A   1      36.586  22.401  23.736  1.00  0.00     0.002 C 
ENDROOT
BRANCH   1   2
ATOM      2  C   UNL A   1      36.863  21.621  25.021  1.00  0.00     0.002 C 
BRANCH   2   3
ATOM      3  C   UNL A   1      38.068  20.665  25.044  1.00  0.00     0.021 C 
BRANCH   3   4
ATOM      4  C   UNL A   1      39.125  20.878  26.133  1.00  0.00     0.116 C 
BRANCH   4   5
ATOM      5  N   UNL A   1      40.125  19.822  26.169  1.00  0.00    -0.352 N 
ATOM      6  O   UNL A   1      42.154  18.869  25.976  1.00  0.00    -0.269 OA
ATOM      7  C   UNL A   1      41.500  19.887  26.169  1.00  0.00     0.251 C 
ATOM      8  H   UNL A   1      39.758  18.908  26.199  1.00  0.00     0.163 HD
BRANCH   7   9
ATOM      9  C   UNL A   1      42.195  21.172  26.409  1.00  0.00     0.039 A 
ATOM     10  C   UNL A   1      42.508  22.023  25.347  1.00  0.00     0.014 A 
ATOM     11  C   UNL A   1      42.449  21.576  27.725  1.00  0.00     0.014 A 
ATOM     12  C   UNL A   1      43.158  23.231  25.591  1.00  0.00     0.010 A 
ATOM     13  C   UNL A   1      43.045  22.818  27.972  1.00  0.00     0.010 A 
ATOM     14  C   UNL A   1      43.409  23.654  26.906  1.00  0.00    -0.014 A 
BRANCH  14  15
ATOM     15  C   UNL A   1      43.944  25.018  27.151  1.00  0.00     0.031 A 
ATOM     16  C   UNL A   1      45.399  25.335  26.950  1.00  0.00     0.074 A 
ATOM     17  C   UNL A   1      43.091  25.973  27.576  1.00  0.00     0.049 A 
ATOM     18  N   UNL A   1      46.026  26.467  27.145  1.00  0.00    -0.248 NA
ATOM     19  C   UNL A   1      46.265  24.245  26.476  1.00  0.00     0.031 C 
ATOM     20  C   UNL A   1      41.659  25.773  27.817  1.00  0.00     0.029 A 
ATOM     21  N   UNL A   1      43.295  27.295  27.879  1.00  0.00    -0.354 N 
ATOM     22  C   UNL A   1      47.361  26.223  26.842  1.00  0.00     0.074 A 
ATOM     23  C   UNL A   1      47.457  24.829  26.461  1.00  0.00     0.031 C 
ATOM     24  C   UNL A   1      41.110  26.934  28.202  1.00  0.00     0.029 A 
ATOM     25  C   UNL A   1      42.158  27.942  28.303  1.00  0.00     0.049 A 
ATOM     26  H   UNL A   1      44.171  27.737  27.801  1.00  0.00     0.167 HD
ATOM     27  C   UNL A   1      48.406  27.085  26.881  1.00  0.00     0.031 A 
ATOM     28  C   UNL A   1      41.978  29.196  28.758  1.00  0.00     0.031 A 
ATOM     29  C   UNL A   1      48.294  28.470  27.264  1.00  0.00     0.049 A 
ATOM     30  C   UNL A   1      43.163  30.116  28.830  1.00  0.00     0.074 A 
ATOM     31  C   UNL A   1      49.284  29.438  27.284  1.00  0.00     0.029 A 
ATOM     32  N   UNL A   1      47.131  29.080  27.708  1.00  0.00    -0.354 N 
ATOM     33  N   UNL A   1      44.404  29.884  28.476  1.00  0.00    -0.248 NA
ATOM     34  C   UNL A   1      42.927  31.464  29.362  1.00  0.00     0.031 C 
ATOM     35  C   UNL A   1      48.734  30.614  27.806  1.00  0.00     0.029 A 
ATOM     36  C   UNL A   1      47.387  30.400  28.046  1.00  0.00     0.049 A 
ATOM     37  H   UNL A   1      46.252  28.641  27.775  1.00  0.00     0.167 HD
ATOM     38  C   UNL A   1      45.095  31.061  28.731  1.00  0.00     0.074 A 
ATOM     39  C   UNL A   1      44.129  32.012  29.244  1.00  0.00     0.031 C 
ATOM     40  C   UNL A   1      46.413  31.330  28.559  1.00  0.00     0.031 A 
BRANCH  27  41
ATOM     41  C   UNL A   1      49.776  26.557  26.537  1.00  0.00    -0.014 A 
ATOM     42  C   UNL A   1      50.618  26.001  27.517  1.00  0.00     0.010 A 
ATOM     43  C   UNL A   1      50.198  26.550  25.193  1.00  0.00     0.010 A 
ATOM     44  C   UNL A   1      51.865  25.474  27.164  1.00  0.00     0.020 A 
ATOM     45  C   UNL A   1      51.433  26.002  24.833  1.00  0.00     0.020 A 
ATOM     46  C   UNL A   1      52.265  25.479  25.823  1.00  0.00     0.054 A 
BRANCH  46  47
ATOM     47  S   UNL A   1      53.873  24.757  25.391  1.00  0.00     0.124 S 
ATOM     48  O   UNL A   1      54.289  25.597  24.271  1.00  0.00    -0.237 OA
ATOM     49  O   UNL A   1      54.642  24.928  26.622  1.00  0.00    -0.237 OA
ATOM     50  O   UNL A   1      53.553  23.374  25.047  1.00  0.00    -0.744 OA
ENDBRANCH  46  47
ENDBRANCH  27  41
BRANCH  28  51
ATOM     51  C   UNL A   1      40.631  29.633  29.220  1.00  0.00    -0.014 A 
ATOM     52  C   UNL A   1      39.519  29.568  28.365  1.00  0.00     0.010 A 
ATOM     53  C   UNL A   1      40.456  30.103  30.536  1.00  0.00     0.010 A 
ATOM     54  C   UNL A   1      38.260  29.985  28.810  1.00  0.00     0.020 A 
ATOM     55  C   UNL A   1      39.194  30.488  30.995  1.00  0.00     0.020 A 
ATOM     56  C   UNL A   1      38.106  30.441  30.122  1.00  0.00     0.054 A 
BRANCH  56  57
ATOM     57  S   UNL A   1      36.457  30.940  30.690  1.00  0.00     0.124 S 
ATOM     58  O   UNL A   1      35.897  31.555  29.490  1.00  0.00    -0.237 OA
ATOM     59  O   UNL A   1      35.860  29.665  31.085  1.00  0.00    -0.237 OA
ATOM     60  O   UNL A   1      36.736  31.856  31.792  1.00  0.00    -0.744 OA
ENDBRANCH  56  57
ENDBRANCH  28  51
BRANCH  40  61
ATOM     61  C   UNL A   1      46.885  32.715  28.910  1.00  0.00    -0.014 A 
ATOM     62  C   UNL A   1      47.430  32.999  30.174  1.00  0.00     0.010 A 
ATOM     63  C   UNL A   1      46.841  33.731  27.936  1.00  0.00     0.010 A 
ATOM     64  C   UNL A   1      47.904  34.281  30.465  1.00  0.00     0.020 A 
ATOM     65  C   UNL A   1      47.340  35.005  28.215  1.00  0.00     0.020 A 
ATOM     66  C   UNL A   1      47.860  35.275  29.482  1.00  0.00     0.054 A 
BRANCH  66  67
ATOM     67  S   UNL A   1      48.541  36.910  29.866  1.00  0.00     0.124 S 
ATOM     68  O   UNL A   1      49.493  37.108  28.777  1.00  0.00    -0.237 OA
ATOM     69  O   UNL A   1      47.357  37.766  29.830  1.00  0.00    -0.237 OA
ATOM     70  O   UNL A   1      49.135  36.735  31.190  1.00  0.00    -0.744 OA
ENDBRANCH  66  67
ENDBRANCH  40  61
ENDBRANCH  14  15
ENDBRANCH   7   9
ENDBRANCH   4   5
ENDBRANCH   3   4
ENDBRANCH   2   3
ENDBRANCH   1   2
BRANCH   1  71
ATOM     71  C   UNL A   1      35.545  23.531  23.793  1.00  0.00     0.021 C 
BRANCH  71  72
ATOM     72  C   UNL A   1      35.245  24.331  25.121  1.00  0.00     0.116 C 
BRANCH  72  73
ATOM     73  N   UNL A   1      33.787  24.586  25.732  1.00  0.00    -0.356 N 
ATOM     74  C   UNL A   1      32.699  25.366  26.070  1.00  0.00     0.224 C 
ATOM     75  H   UNL A   1      33.516  23.691  26.034  1.00  0.00     0.163 HD
ATOM     76  O   UNL A   1      31.831  24.599  26.564  1.00  0.00    -0.275 OA
BRANCH  74  77
ATOM     77  C   UNL A   1      32.140  26.975  25.992  1.00  0.00     0.098 C 
ATOM     78  C   UNL A   1      31.754  28.302  25.059  1.00  0.00     0.099 C 
ATOM     79  C   UNL A   1      32.682  27.773  27.265  1.00  0.00     0.025 C 
ATOM     80  C   UNL A   1      32.058  29.514  25.991  1.00  0.00     0.025 C 
ATOM     81  C   UNL A   1      33.921  28.582  26.927  1.00  0.00    -0.027 C 
ATOM     82  C   UNL A   1      31.696  28.954  27.358  1.00  0.00     0.017 C 
ATOM     83  C   UNL A   1      33.543  29.629  26.181  1.00  0.00    -0.027 C 
BRANCH  78  84
ATOM     84  C   UNL A   1      31.985  28.878  23.604  1.00  0.00     0.229 C 
ATOM     85  O   UNL A   1      33.111  28.767  23.103  1.00  0.00    -0.274 OA
ATOM     86  N   UNL A   1      31.015  29.419  22.813  1.00  0.00    -0.323 N 
ATOM     87  H   UNL A   1      31.205  29.504  21.851  1.00  0.00     0.170 HD
BRANCH  86  88
ATOM     88  C   UNL A   1      29.788  29.856  23.266  1.00  0.00     0.084 A 
ATOM     89  C   UNL A   1      29.583  31.201  23.606  1.00  0.00     0.030 A 
ATOM     90  C   UNL A   1      28.740  28.986  23.225  1.00  0.00     0.149 A 
ATOM     91  C   UNL A   1      28.283  31.726  23.663  1.00  0.00     0.002 A 
ATOM     92  C   UNL A   1      27.441  29.552  23.201  1.00  0.00     0.049 A 
ATOM     93  C   UNL A   1      27.205  30.907  23.397  1.00  0.00     0.004 A 
BRANCH  90  94
ATOM     94  O   UNL A   1      28.862  27.630  23.149  1.00  0.00    -0.433 OA
BRANCH  94  95
ATOM     95  C   UNL A   1      28.418  26.462  23.863  1.00  0.00     0.542 C 
ATOM     96  F   UNL A   1      29.183  26.229  24.943  1.00  0.00    -0.167 F 
ATOM     97  F   UNL A   1      27.157  26.706  24.319  1.00  0.00    -0.167 F 
ENDBRANCH  94  95
ENDBRANCH  90  94
ENDBRANCH  86  88
ENDBRANCH  78  84
ENDBRANCH  74  77
ENDBRANCH  72  73
ENDBRANCH  71  72
ENDBRANCH   1  71
TORSDOF 20
ENDMDL
MODEL 2
REMARK VINA RESULT:     -11.6      5.701      7.665
REMARK SMILES O=C(NCCCCCCNC(=O)[C@@H]1[C@H](C(=O)Nc2ccccc2OC(F)F)[C@@H]2C=C[C@H]1C2)c1ccc(-c2c3nc(c(-c4ccc(S(=O)(=O)[O-])cc4)c4ccc([nH]4)c(-c4ccc(S(=O)(=O)[O-])cc4)c4nc(c(-c5ccc(S(=O)(=O)[O-])cc5)c5ccc2[nH]5)C=C4)C=C3)cc1
REMARK SMILES IDX 7 1 6 2 5 3 4 4 3 5 1 6 2 7 33 9 34 10 92 11 35 12 91 13
REMARK SMILES IDX 36 14 37 15 38 16 85 17 39 18 90 19 84 20 86 21 40 22 89 23
REMARK SMILES IDX 83 24 82 25 41 27 71 28 52 29 70 30 53 31 56 32 69 33 87 34
REMARK SMILES IDX 54 35 55 36 68 38 88 39 57 40 42 41 43 42 51 43 44 44 50 45
REMARK SMILES IDX 45 46 46 47 47 48 48 49 49 50 72 51 73 52 81 53 74 54 80 55
REMARK SMILES IDX 75 56 76 57 77 58 78 59 79 60 58 61 59 62 67 63 60 64 66 65
REMARK SMILES IDX 61 66 62 67 63 68 64 69 65 70 8 71 9 72 10 73 11 74 12 76
REMARK SMILES IDX 13 77 14 78 31 79 28 80 30 81 32 82 29 83 15 84 16 85 17 86
REMARK SMILES IDX 18 88 19 89 23 90 20 91 22 92 21 93 24 94 25 95 26 96 27 97
REMARK H PARENT 3 8 86 26 56 37 10 75 17 87
REMARK Flexibility Score: inf
ROOT
ATOM      1  C   UNL A   1      37.017  22.494  24.386  1.00  0.00     0.002 C 
ENDROOT
BRANCH   1   2
ATOM      2  C   UNL A   1      37.913  22.168  25.580  1.00  0.00     0.002 C 
BRANCH   2   3
ATOM      3  C   UNL A   1      38.665  23.325  26.261  1.00  0.00     0.021 C 
BRANCH   3   4
ATOM      4  C   UNL A   1      40.022  23.014  26.900  1.00  0.00     0.116 C 
BRANCH   4   5
ATOM      5  N   UNL A   1      41.146  23.502  26.114  1.00  0.00    -0.352 N 
ATOM      6  O   UNL A   1      42.553  25.001  25.203  1.00  0.00    -0.269 OA
ATOM      7  C   UNL A   1      41.768  24.729  26.103  1.00  0.00     0.251 C 
ATOM      8  H   UNL A   1      41.524  22.844  25.486  1.00  0.00     0.163 HD
BRANCH   7   9
ATOM      9  C   UNL A   1      41.505  25.718  27.173  1.00  0.00     0.039 A 
ATOM     10  C   UNL A   1      40.689  25.395  28.259  1.00  0.00     0.014 A 
ATOM     11  C   UNL A   1      42.163  26.953  27.139  1.00  0.00     0.014 A 
ATOM     12  C   UNL A   1      40.455  26.336  29.259  1.00  0.00     0.010 A 
ATOM     13  C   UNL A   1      41.978  27.874  28.176  1.00  0.00     0.010 A 
ATOM     14  C   UNL A   1      41.117  27.574  29.243  1.00  0.00    -0.014 A 
BRANCH  14  15
ATOM     15  C   UNL A   1      40.990  28.492  30.404  1.00  0.00     0.031 A 
ATOM     16  C   UNL A   1      41.870  28.349  31.615  1.00  0.00     0.074 A 
ATOM     17  C   UNL A   1      40.051  29.459  30.356  1.00  0.00     0.049 A 
ATOM     18  N   UNL A   1      41.867  29.053  32.718  1.00  0.00    -0.248 NA
ATOM     19  C   UNL A   1      42.878  27.277  31.590  1.00  0.00     0.031 C 
ATOM     20  C   UNL A   1      39.133  29.683  29.234  1.00  0.00     0.029 A 
ATOM     21  N   UNL A   1      39.710  30.432  31.260  1.00  0.00    -0.354 N 
ATOM     22  C   UNL A   1      42.852  28.498  33.529  1.00  0.00     0.074 A 
ATOM     23  C   UNL A   1      43.424  27.389  32.794  1.00  0.00     0.031 C 
ATOM     24  C   UNL A   1      38.355  30.741  29.505  1.00  0.00     0.029 A 
ATOM     25  C   UNL A   1      38.668  31.228  30.843  1.00  0.00     0.049 A 
ATOM     26  H   UNL A   1      40.166  30.549  32.124  1.00  0.00     0.167 HD
ATOM     27  C   UNL A   1      43.236  28.881  34.770  1.00  0.00     0.031 A 
ATOM     28  C   UNL A   1      38.010  32.217  31.475  1.00  0.00     0.031 A 
ATOM     29  C   UNL A   1      42.655  29.987  35.488  1.00  0.00     0.049 A 
ATOM     30  C   UNL A   1      38.431  32.591  32.868  1.00  0.00     0.074 A 
ATOM     31  C   UNL A   1      43.011  30.488  36.729  1.00  0.00     0.029 A 
ATOM     32  N   UNL A   1      41.587  30.752  35.042  1.00  0.00    -0.354 N 
ATOM     33  N   UNL A   1      39.407  32.097  33.590  1.00  0.00    -0.248 NA
ATOM     34  C   UNL A   1      37.664  33.653  33.531  1.00  0.00     0.031 C 
ATOM     35  C   UNL A   1      42.116  31.510  37.061  1.00  0.00     0.029 A 
ATOM     36  C   UNL A   1      41.245  31.692  36.000  1.00  0.00     0.049 A 
ATOM     37  H   UNL A   1      41.139  30.642  34.172  1.00  0.00     0.167 HD
ATOM     38  C   UNL A   1      39.381  32.796  34.789  1.00  0.00     0.074 A 
ATOM     39  C   UNL A   1      38.309  33.766  34.685  1.00  0.00     0.031 C 
ATOM     40  C   UNL A   1      40.171  32.648  35.880  1.00  0.00     0.031 A 
BRANCH  27  41
ATOM     41  C   UNL A   1      44.314  28.083  35.458  1.00  0.00    -0.014 A 
ATOM     42  C   UNL A   1      45.679  28.355  35.250  1.00  0.00     0.010 A 
ATOM     43  C   UNL A   1      43.953  27.091  36.390  1.00  0.00     0.010 A 
ATOM     44  C   UNL A   1      46.659  27.631  35.937  1.00  0.00     0.020 A 
ATOM     45  C   UNL A   1      44.929  26.383  37.099  1.00  0.00     0.020 A 
ATOM     46  C   UNL A   1      46.277  26.649  36.858  1.00  0.00     0.054 A 
BRANCH  46  47
ATOM     47  S   UNL A   1      47.570  25.751  37.761  1.00  0.00     0.124 S 
ATOM     48  O   UNL A   1      46.912  24.478  38.042  1.00  0.00    -0.237 OA
ATOM     49  O   UNL A   1      48.658  25.692  36.787  1.00  0.00    -0.237 OA
ATOM     50  O   UNL A   1      47.828  26.591  38.928  1.00  0.00    -0.744 OA
ENDBRANCH  46  47
ENDBRANCH  27  41
BRANCH  28  51
ATOM     51  C   UNL A   1      36.858  32.886  30.810  1.00  0.00    -0.014 A 
ATOM     52  C   UNL A   1      35.537  32.491  31.081  1.00  0.00     0.010 A 
ATOM     53  C   UNL A   1      37.083  33.943  29.905  1.00  0.00     0.010 A 
ATOM     54  C   UNL A   1      34.465  33.126  30.446  1.00  0.00     0.020 A 
ATOM     55  C   UNL A   1      36.013  34.602  29.296  1.00  0.00     0.020 A 
ATOM     56  C   UNL A   1      34.710  34.177  29.559  1.00  0.00     0.054 A 
BRANCH  56  57
ATOM     57  S   UNL A   1      33.302  35.011  28.776  1.00  0.00     0.124 S 
ATOM     58  O   UNL A   1      32.574  35.525  29.933  1.00  0.00    -0.237 OA
ATOM     59  O   UNL A   1      33.956  36.018  27.942  1.00  0.00    -0.237 OA
ATOM     60  O   UNL A   1      32.635  33.942  28.040  1.00  0.00    -0.744 OA
ENDBRANCH  56  57
ENDBRANCH  28  51
BRANCH  40  61
ATOM     61  C   UNL A   1      39.920  33.568  37.044  1.00  0.00    -0.014 A 
ATOM     62  C   UNL A   1      39.074  33.189  38.101  1.00  0.00     0.010 A 
ATOM     63  C   UNL A   1      40.593  34.803  37.110  1.00  0.00     0.010 A 
ATOM     64  C   UNL A   1      38.888  34.039  39.194  1.00  0.00     0.020 A 
ATOM     65  C   UNL A   1      40.431  35.641  38.214  1.00  0.00     0.020 A 
ATOM     66  C   UNL A   1      39.573  35.258  39.246  1.00  0.00     0.054 A 
BRANCH  66  67
ATOM     67  S   UNL A   1      39.363  36.312  40.706  1.00  0.00     0.124 S 
ATOM     68  O   UNL A   1      40.724  36.788  40.937  1.00  0.00    -0.237 OA
ATOM     69  O   UNL A   1      38.415  37.321  40.239  1.00  0.00    -0.237 OA
ATOM     70  O   UNL A   1      38.842  35.398  41.721  1.00  0.00    -0.744 OA
ENDBRANCH  66  67
ENDBRANCH  40  61
ENDBRANCH  14  15
ENDBRANCH   7   9
ENDBRANCH   4   5
ENDBRANCH   3   4
ENDBRANCH   2   3
ENDBRANCH   1   2
BRANCH   1  71
ATOM     71  C   UNL A   1      35.552  22.868  24.669  1.00  0.00     0.021 C 
BRANCH  71  72
ATOM     72  C   UNL A   1      35.148  24.249  25.320  1.00  0.00     0.116 C 
BRANCH  72  73
ATOM     73  N   UNL A   1      33.718  24.580  25.959  1.00  0.00    -0.356 N 
ATOM     74  C   UNL A   1      32.667  25.412  26.294  1.00  0.00     0.224 C 
ATOM     75  H   UNL A   1      33.426  23.708  26.307  1.00  0.00     0.163 HD
ATOM     76  O   UNL A   1      31.789  24.697  26.844  1.00  0.00    -0.275 OA
BRANCH  74  77
ATOM     77  C   UNL A   1      32.162  27.035  26.163  1.00  0.00     0.098 C 
ATOM     78  C   UNL A   1      31.851  28.353  25.190  1.00  0.00     0.099 C 
ATOM     79  C   UNL A   1      32.682  27.844  27.439  1.00  0.00     0.025 C 
ATOM     80  C   UNL A   1      32.160  29.575  26.108  1.00  0.00     0.025 C 
ATOM     81  C   UNL A   1      33.957  28.607  27.130  1.00  0.00    -0.027 C 
ATOM     82  C   UNL A   1      31.731  29.055  27.472  1.00  0.00     0.017 C 
ATOM     83  C   UNL A   1      33.640  29.648  26.349  1.00  0.00    -0.027 C 
BRANCH  78  84
ATOM     84  C   UNL A   1      32.152  28.890  23.733  1.00  0.00     0.229 C 
ATOM     85  O   UNL A   1      33.323  28.869  23.332  1.00  0.00    -0.274 OA
ATOM     86  N   UNL A   1      31.208  29.302  22.840  1.00  0.00    -0.323 N 
ATOM     87  H   UNL A   1      31.471  29.367  21.893  1.00  0.00     0.170 HD
BRANCH  86  88
ATOM     88  C   UNL A   1      29.911  29.635  23.169  1.00  0.00     0.084 A 
ATOM     89  C   UNL A   1      29.557  30.962  23.452  1.00  0.00     0.030 A 
ATOM     90  C   UNL A   1      28.951  28.673  23.057  1.00  0.00     0.149 A 
ATOM     91  C   UNL A   1      28.217  31.368  23.378  1.00  0.00     0.002 A 
ATOM     92  C   UNL A   1      27.616  29.119  22.902  1.00  0.00     0.049 A 
ATOM     93  C   UNL A   1      27.244  30.450  23.039  1.00  0.00     0.004 A 
BRANCH  90  94
ATOM     94  O   UNL A   1      29.199  27.332  23.029  1.00  0.00    -0.433 OA
BRANCH  94  95
ATOM     95  C   UNL A   1      28.892  26.159  23.804  1.00  0.00     0.542 C 
ATOM     96  F   UNL A   1      29.679  25.126  23.460  1.00  0.00    -0.167 F 
ATOM     97  F   UNL A   1      29.158  26.439  25.110  1.00  0.00    -0.167 F 
ENDBRANCH  94  95
ENDBRANCH  90  94
ENDBRANCH  86  88
ENDBRANCH  78  84
ENDBRANCH  74  77
ENDBRANCH  72  73
ENDBRANCH  71  72
ENDBRANCH   1  71
TORSDOF 20
ENDMDL
MODEL 3
REMARK VINA RESULT:     -11.2      5.210      9.361
REMARK SMILES O=C(NCCCCCCNC(=O)[C@@H]1[C@H](C(=O)Nc2ccccc2OC(F)F)[C@@H]2C=C[C@H]1C2)c1ccc(-c2c3nc(c(-c4ccc(S(=O)(=O)[O-])cc4)c4ccc([nH]4)c(-c4ccc(S(=O)(=O)[O-])cc4)c4nc(c(-c5ccc(S(=O)(=O)[O-])cc5)c5ccc2[nH]5)C=C4)C=C3)cc1
REMARK SMILES IDX 7 1 6 2 5 3 4 4 3 5 1 6 2 7 33 9 34 10 92 11 35 12 91 13
REMARK SMILES IDX 36 14 37 15 38 16 85 17 39 18 90 19 84 20 86 21 40 22 89 23
REMARK SMILES IDX 83 24 82 25 41 27 71 28 52 29 70 30 53 31 56 32 69 33 87 34
REMARK SMILES IDX 54 35 55 36 68 38 88 39 57 40 42 41 43 42 51 43 44 44 50 45
REMARK SMILES IDX 45 46 46 47 47 48 48 49 49 50 72 51 73 52 81 53 74 54 80 55
REMARK SMILES IDX 75 56 76 57 77 58 78 59 79 60 58 61 59 62 67 63 60 64 66 65
REMARK SMILES IDX 61 66 62 67 63 68 64 69 65 70 8 71 9 72 10 73 11 74 12 76
REMARK SMILES IDX 13 77 14 78 31 79 28 80 30 81 32 82 29 83 15 84 16 85 17 86
REMARK SMILES IDX 18 88 19 89 23 90 20 91 22 92 21 93 24 94 25 95 26 96 27 97
REMARK H PARENT 3 8 86 26 56 37 10 75 17 87
REMARK Flexibility Score: inf
ROOT
ATOM      1  C   UNL A   1      42.412  22.196  28.414  1.00  0.00     0.002 C 
ENDROOT
BRANCH   1   2
ATOM      2  C   UNL A   1      42.453  22.748  26.990  1.00  0.00     0.002 C 
BRANCH   2   3
ATOM      3  C   UNL A   1      41.458  22.181  25.962  1.00  0.00     0.021 C 
BRANCH   3   4
ATOM      4  C   UNL A   1      40.161  21.561  26.493  1.00  0.00     0.116 C 
BRANCH   4   5
ATOM      5  N   UNL A   1      38.969  22.115  25.869  1.00  0.00    -0.352 N 
ATOM      6  O   UNL A   1      37.219  23.501  25.591  1.00  0.00    -0.269 OA
ATOM      7  C   UNL A   1      38.339  23.325  26.055  1.00  0.00     0.251 C 
ATOM      8  H   UNL A   1      38.543  21.528  25.203  1.00  0.00     0.163 HD
BRANCH   7   9
ATOM      9  C   UNL A   1      39.005  24.416  26.802  1.00  0.00     0.039 A 
ATOM     10  C   UNL A   1      39.828  25.332  26.144  1.00  0.00     0.014 A 
ATOM     11  C   UNL A   1      38.723  24.584  28.163  1.00  0.00     0.014 A 
ATOM     12  C   UNL A   1      40.443  26.357  26.860  1.00  0.00     0.010 A 
ATOM     13  C   UNL A   1      39.291  25.651  28.868  1.00  0.00     0.010 A 
ATOM     14  C   UNL A   1      40.160  26.544  28.223  1.00  0.00    -0.014 A 
BRANCH  14  15
ATOM     15  C   UNL A   1      40.688  27.741  28.927  1.00  0.00     0.031 A 
ATOM     16  C   UNL A   1      42.080  27.766  29.492  1.00  0.00     0.074 A 
ATOM     17  C   UNL A   1      39.879  28.812  29.063  1.00  0.00     0.049 A 
ATOM     18  N   UNL A   1      42.680  28.722  30.154  1.00  0.00    -0.248 NA
ATOM     19  C   UNL A   1      42.907  26.564  29.295  1.00  0.00     0.031 C 
ATOM     20  C   UNL A   1      38.502  28.893  28.564  1.00  0.00     0.029 A 
ATOM     21  N   UNL A   1      40.088  30.031  29.654  1.00  0.00    -0.354 N 
ATOM     22  C   UNL A   1      43.942  28.234  30.475  1.00  0.00     0.074 A 
ATOM     23  C   UNL A   1      44.018  26.888  29.944  1.00  0.00     0.031 C 
ATOM     24  C   UNL A   1      38.002  30.106  28.844  1.00  0.00     0.029 A 
ATOM     25  C   UNL A   1      38.992  30.861  29.601  1.00  0.00     0.049 A 
ATOM     26  H   UNL A   1      40.940  30.288  30.075  1.00  0.00     0.167 HD
ATOM     27  C   UNL A   1      44.939  28.853  31.151  1.00  0.00     0.031 A 
ATOM     28  C   UNL A   1      38.788  32.082  30.132  1.00  0.00     0.031 A 
ATOM     29  C   UNL A   1      44.846  30.193  31.674  1.00  0.00     0.049 A 
ATOM     30  C   UNL A   1      39.897  32.726  30.913  1.00  0.00     0.074 A 
ATOM     31  C   UNL A   1      45.820  30.930  32.327  1.00  0.00     0.029 A 
ATOM     32  N   UNL A   1      43.713  30.991  31.620  1.00  0.00    -0.354 N 
ATOM     33  N   UNL A   1      41.105  32.273  31.148  1.00  0.00    -0.248 NA
ATOM     34  C   UNL A   1      39.619  34.042  31.500  1.00  0.00     0.031 C 
ATOM     35  C   UNL A   1      45.255  32.144  32.728  1.00  0.00     0.029 A 
ATOM     36  C   UNL A   1      43.950  32.194  32.266  1.00  0.00     0.049 A 
ATOM     37  H   UNL A   1      42.865  30.739  31.188  1.00  0.00     0.167 HD
ATOM     38  C   UNL A   1      41.736  33.255  31.900  1.00  0.00     0.074 A 
ATOM     39  C   UNL A   1      40.785  34.337  32.058  1.00  0.00     0.031 C 
ATOM     40  C   UNL A   1      42.989  33.259  32.416  1.00  0.00     0.031 A 
BRANCH  27  41
ATOM     41  C   UNL A   1      46.212  28.085  31.403  1.00  0.00    -0.014 A 
ATOM     42  C   UNL A   1      46.440  27.419  32.621  1.00  0.00     0.010 A 
ATOM     43  C   UNL A   1      47.163  27.965  30.372  1.00  0.00     0.010 A 
ATOM     44  C   UNL A   1      47.608  26.673  32.812  1.00  0.00     0.020 A 
ATOM     45  C   UNL A   1      48.320  27.199  30.550  1.00  0.00     0.020 A 
ATOM     46  C   UNL A   1      48.541  26.568  31.775  1.00  0.00     0.054 A 
BRANCH  46  47
ATOM     47  S   UNL A   1      50.029  25.564  32.040  1.00  0.00     0.124 S 
ATOM     48  O   UNL A   1      49.514  24.472  32.862  1.00  0.00    -0.237 OA
ATOM     49  O   UNL A   1      50.412  25.195  30.678  1.00  0.00    -0.237 OA
ATOM     50  O   UNL A   1      50.948  26.474  32.717  1.00  0.00    -0.744 OA
ENDBRANCH  46  47
ENDBRANCH  27  41
BRANCH  28  51
ATOM     51  C   UNL A   1      37.464  32.746  29.976  1.00  0.00    -0.014 A 
ATOM     52  C   UNL A   1      36.454  32.578  30.937  1.00  0.00     0.010 A 
ATOM     53  C   UNL A   1      37.216  33.571  28.861  1.00  0.00     0.010 A 
ATOM     54  C   UNL A   1      35.214  33.205  30.777  1.00  0.00     0.020 A 
ATOM     55  C   UNL A   1      35.992  34.227  28.715  1.00  0.00     0.020 A 
ATOM     56  C   UNL A   1      34.992  34.026  29.668  1.00  0.00     0.054 A 
BRANCH  56  57
ATOM     57  S   UNL A   1      33.390  34.860  29.500  1.00  0.00     0.124 S 
ATOM     58  O   UNL A   1      33.780  36.158  28.956  1.00  0.00    -0.237 OA
ATOM     59  O   UNL A   1      32.670  33.979  28.583  1.00  0.00    -0.237 OA
ATOM     60  O   UNL A   1      32.871  34.884  30.864  1.00  0.00    -0.744 OA
ENDBRANCH  56  57
ENDBRANCH  28  51
BRANCH  40  61
ATOM     61  C   UNL A   1      43.414  34.480  33.186  1.00  0.00    -0.014 A 
ATOM     62  C   UNL A   1      43.283  34.541  34.584  1.00  0.00     0.010 A 
ATOM     63  C   UNL A   1      44.011  35.557  32.504  1.00  0.00     0.010 A 
ATOM     64  C   UNL A   1      43.724  35.666  35.285  1.00  0.00     0.020 A 
ATOM     65  C   UNL A   1      44.479  36.670  33.205  1.00  0.00     0.020 A 
ATOM     66  C   UNL A   1      44.324  36.722  34.591  1.00  0.00     0.054 A 
BRANCH  66  67
ATOM     67  S   UNL A   1      44.945  38.141  35.533  1.00  0.00     0.124 S 
ATOM     68  O   UNL A   1      46.093  37.567  36.229  1.00  0.00    -0.237 OA
ATOM     69  O   UNL A   1      45.264  39.106  34.484  1.00  0.00    -0.237 OA
ATOM     70  O   UNL A   1      43.818  38.509  36.388  1.00  0.00    -0.744 OA
ENDBRANCH  66  67
ENDBRANCH  40  61
ENDBRANCH  14  15
ENDBRANCH   7   9
ENDBRANCH   4   5
ENDBRANCH   3   4
ENDBRANCH   2   3
ENDBRANCH   1   2
BRANCH   1  71
ATOM     71  C   UNL A   1      43.170  22.970  29.506  1.00  0.00     0.021 C 
BRANCH  71  72
ATOM     72  C   UNL A   1      44.715  23.275  29.402  1.00  0.00     0.116 C 
BRANCH  72  73
ATOM     73  N   UNL A   1      45.518  23.498  28.035  1.00  0.00    -0.356 N 
ATOM     74  C   UNL A   1      46.325  24.208  27.168  1.00  0.00     0.224 C 
ATOM     75  H   UNL A   1      45.337  22.671  27.537  1.00  0.00     0.163 HD
ATOM     76  O   UNL A   1      46.514  23.481  26.157  1.00  0.00    -0.275 OA
BRANCH  74  77
ATOM     77  C   UNL A   1      47.169  25.685  27.044  1.00  0.00     0.098 C 
ATOM     78  C   UNL A   1      47.250  27.227  26.416  1.00  0.00     0.099 C 
ATOM     79  C   UNL A   1      48.738  25.387  27.054  1.00  0.00     0.025 C 
ATOM     80  C   UNL A   1      48.781  27.499  26.293  1.00  0.00     0.025 C 
ATOM     81  C   UNL A   1      49.309  25.373  25.647  1.00  0.00    -0.027 C 
ATOM     82  C   UNL A   1      49.329  26.740  27.492  1.00  0.00     0.017 C 
ATOM     83  C   UNL A   1      49.347  26.637  25.202  1.00  0.00    -0.027 C 
BRANCH  78  84
ATOM     84  C   UNL A   1      46.616  28.109  25.266  1.00  0.00     0.229 C 
ATOM     85  O   UNL A   1      46.808  27.767  24.092  1.00  0.00    -0.274 OA
ATOM     86  N   UNL A   1      45.797  29.182  25.464  1.00  0.00    -0.323 N 
ATOM     87  H   UNL A   1      45.259  29.492  24.700  1.00  0.00     0.170 HD
BRANCH  86  88
ATOM     88  C   UNL A   1      45.671  29.862  26.657  1.00  0.00     0.084 A 
ATOM     89  C   UNL A   1      46.778  30.482  27.254  1.00  0.00     0.030 A 
ATOM     90  C   UNL A   1      44.418  30.053  27.159  1.00  0.00     0.149 A 
ATOM     91  C   UNL A   1      46.594  31.493  28.208  1.00  0.00     0.002 A 
ATOM     92  C   UNL A   1      44.249  31.134  28.058  1.00  0.00     0.049 A 
ATOM     93  C   UNL A   1      45.314  31.865  28.568  1.00  0.00     0.004 A 
BRANCH  90  94
ATOM     94  O   UNL A   1      43.325  29.315  26.812  1.00  0.00    -0.433 OA
BRANCH  94  95
ATOM     95  C   UNL A   1      42.471  29.115  25.671  1.00  0.00     0.542 C 
ATOM     96  F   UNL A   1      42.562  27.858  25.207  1.00  0.00    -0.167 F 
ATOM     97  F   UNL A   1      41.183  29.293  26.077  1.00  0.00    -0.167 F 
ENDBRANCH  94  95
ENDBRANCH  90  94
ENDBRANCH  86  88
ENDBRANCH  78  84
ENDBRANCH  74  77
ENDBRANCH  72  73
ENDBRANCH  71  72
ENDBRANCH   1  71
TORSDOF 20
ENDMDL
