MODEL 1
REMARK VINA RESULT:     -10.8      0.000      0.000
REMARK SMILES C[C@H](C(=O)NCCCCCCNC(=O)c1ccc(-c2c3nc(c(-c4ccc(S(=O)(=O)[O-])cc4)c4ccc([nH]4)c(-c4ccc(S(=O)(=O)[O-])cc4)c4nc(c(-c5ccc(S(=O)(=O)[O-])cc5)c5ccc2[nH]5)C=C4)C=C3)cc1)[C@H](C)[N@@H+]1CC[C@H]([NH+]2CCCCC2)C1
REMARK SMILES IDX 8 1 7 2 6 3 5 4 3 5 4 6 2 8 1 9 75 10 76 11 77 12 78 13
REMARK SMILES IDX 87 14 79 16 80 17 81 18 82 19 86 20 83 22 85 23 84 24 9 25
REMARK SMILES IDX 10 26 11 27 12 28 13 29 14 31 15 32 16 33 74 34 17 35 73 36
REMARK SMILES IDX 18 37 19 38 20 39 67 40 21 41 72 42 66 43 68 44 22 45 71 46
REMARK SMILES IDX 65 47 64 48 23 50 53 51 34 52 52 53 35 54 38 55 51 56 69 57
REMARK SMILES IDX 36 58 37 59 50 61 70 62 39 63 24 64 25 65 33 66 26 67 32 68
REMARK SMILES IDX 27 69 28 70 29 71 30 72 31 73 54 74 55 75 63 76 56 77 62 78
REMARK SMILES IDX 57 79 58 80 59 81 60 82 61 83 40 84 41 85 49 86 42 87 48 88
REMARK SMILES IDX 43 89 44 90 45 91 46 92 47 93
REMARK H PARENT 5 7 77 15 81 21 12 30 68 49 38 60
REMARK Flexibility Score: inf
ROOT
ATOM      1  C   UNL A   1      33.531  28.293  23.256  1.00  0.00     0.002 C 
ENDROOT
BRANCH   1   2
ATOM      2  C   UNL A   1      33.111  27.244  22.219  1.00  0.00     0.021 C 
BRANCH   2   3
ATOM      3  C   UNL A   1      33.292  25.790  22.665  1.00  0.00     0.116 C 
BRANCH   3   4
ATOM      4  N   UNL A   1      32.066  25.028  22.547  1.00  0.00    -0.356 N 
ATOM      5  C   UNL A   1      31.261  24.499  23.507  1.00  0.00     0.228 C 
ATOM      6  O   UNL A   1      30.268  23.874  23.127  1.00  0.00    -0.275 OA
ATOM      7  H   UNL A   1      31.766  24.869  21.623  1.00  0.00     0.163 HD
BRANCH   5   8
ATOM      8  C   UNL A   1      31.622  24.638  24.991  1.00  0.00     0.133 C 
ATOM      9  C   UNL A   1      30.626  25.616  25.628  1.00  0.00     0.024 C 
BRANCH   8  10
ATOM     10  C   UNL A   1      31.752  23.242  25.698  1.00  0.00     0.193 C 
ATOM     11  C   UNL A   1      30.654  23.003  26.740  1.00  0.00     0.076 C 
BRANCH  10  12
ATOM     12  N   UNL A   1      33.140  22.921  26.128  1.00  0.00    -0.327 N 
ATOM     13  C   UNL A   1      34.171  23.194  25.119  1.00  0.00     0.269 C 
ATOM     14  C   UNL A   1      33.382  21.530  26.568  1.00  0.00     0.328 C 
ATOM     15  H   UNL A   1      33.218  23.552  26.926  1.00  0.00     0.348 HD
ATOM     16  C   UNL A   1      34.479  21.875  24.429  1.00  0.00     0.132 C 
ATOM     17  C   UNL A   1      34.294  20.824  25.527  1.00  0.00     0.245 C 
BRANCH  17  18
ATOM     18  N   UNL A   1      33.928  19.445  25.106  1.00  0.00    -0.328 N 
ATOM     19  C   UNL A   1      32.896  19.394  24.063  1.00  0.00     0.262 C 
ATOM     20  C   UNL A   1      35.113  18.664  24.715  1.00  0.00     0.262 C 
ATOM     21  H   UNL A   1      33.514  19.015  25.933  1.00  0.00     0.348 HD
ATOM     22  C   UNL A   1      32.495  17.976  23.663  1.00  0.00     0.062 C 
ATOM     23  C   UNL A   1      34.758  17.220  24.343  1.00  0.00     0.062 C 
ATOM     24  C   UNL A   1      33.710  17.174  23.239  1.00  0.00     0.012 C 
ENDBRANCH  17  18
ENDBRANCH  10  12
ENDBRANCH   8  10
ENDBRANCH   5   8
ENDBRANCH   3   4
ENDBRANCH   2   3
ENDBRANCH   1   2
BRANCH   1  25
ATOM     25  C   UNL A   1      33.770  27.749  24.668  1.00  0.00     0.002 C 
BRANCH  25  26
ATOM     26  C   UNL A   1      32.933  28.411  25.765  1.00  0.00     0.021 C 
BRANCH  26  27
ATOM     27  C   UNL A   1      33.645  28.569  27.105  1.00  0.00     0.116 C 
BRANCH  27  28
ATOM     28  N   UNL A   1      33.592  29.937  27.595  1.00  0.00    -0.352 N 
ATOM     29  C   UNL A   1      34.537  30.650  28.292  1.00  0.00     0.251 C 
ATOM     30  H   UNL A   1      32.759  30.423  27.397  1.00  0.00     0.163 HD
ATOM     31  O   UNL A   1      34.238  31.730  28.796  1.00  0.00    -0.269 OA
BRANCH  29  32
ATOM     32  C   UNL A   1      35.902  30.106  28.459  1.00  0.00     0.039 A 
ATOM     33  C   UNL A   1      36.777  30.136  27.370  1.00  0.00     0.014 A 
ATOM     34  C   UNL A   1      36.323  29.575  29.682  1.00  0.00     0.014 A 
ATOM     35  C   UNL A   1      38.097  29.707  27.531  1.00  0.00     0.010 A 
ATOM     36  C   UNL A   1      37.657  29.212  29.859  1.00  0.00     0.010 A 
ATOM     37  C   UNL A   1      38.561  29.287  28.789  1.00  0.00    -0.014 A 
BRANCH  37  38
ATOM     38  C   UNL A   1      39.999  28.978  29.009  1.00  0.00     0.031 A 
ATOM     39  C   UNL A   1      40.566  27.638  28.627  1.00  0.00     0.074 A 
ATOM     40  C   UNL A   1      40.781  29.892  29.620  1.00  0.00     0.049 A 
ATOM     41  N   UNL A   1      41.782  27.184  28.792  1.00  0.00    -0.248 NA
ATOM     42  C   UNL A   1      39.650  26.675  27.993  1.00  0.00     0.031 C 
ATOM     43  C   UNL A   1      40.340  31.213  30.081  1.00  0.00     0.029 A 
ATOM     44  N   UNL A   1      42.109  29.852  29.968  1.00  0.00    -0.354 N 
ATOM     45  C   UNL A   1      41.775  25.883  28.299  1.00  0.00     0.074 A 
ATOM     46  C   UNL A   1      40.425  25.607  27.862  1.00  0.00     0.031 C 
ATOM     47  C   UNL A   1      41.380  31.860  30.628  1.00  0.00     0.029 A 
ATOM     48  C   UNL A   1      42.550  30.990  30.604  1.00  0.00     0.049 A 
ATOM     49  H   UNL A   1      42.692  29.081  29.780  1.00  0.00     0.167 HD
ATOM     50  C   UNL A   1      42.803  25.007  28.211  1.00  0.00     0.031 A 
ATOM     51  C   UNL A   1      43.754  31.296  31.127  1.00  0.00     0.031 A 
ATOM     52  C   UNL A   1      44.149  25.292  28.635  1.00  0.00     0.049 A 
ATOM     53  C   UNL A   1      44.870  30.290  31.031  1.00  0.00     0.074 A 
ATOM     54  C   UNL A   1      45.272  24.491  28.514  1.00  0.00     0.029 A 
ATOM     55  N   UNL A   1      44.556  26.456  29.267  1.00  0.00    -0.354 N 
ATOM     56  N   UNL A   1      44.863  29.102  30.474  1.00  0.00    -0.248 NA
ATOM     57  C   UNL A   1      46.160  30.669  31.626  1.00  0.00     0.031 C 
ATOM     58  C   UNL A   1      46.342  25.141  29.137  1.00  0.00     0.029 A 
ATOM     59  C   UNL A   1      45.902  26.376  29.582  1.00  0.00     0.049 A 
ATOM     60  H   UNL A   1      43.973  27.225  29.465  1.00  0.00     0.167 HD
ATOM     61  C   UNL A   1      46.151  28.605  30.632  1.00  0.00     0.074 A 
ATOM     62  C   UNL A   1      46.918  29.629  31.310  1.00  0.00     0.031 C 
ATOM     63  C   UNL A   1      46.655  27.403  30.255  1.00  0.00     0.031 A 
BRANCH  50  64
ATOM     64  C   UNL A   1      42.528  23.640  27.638  1.00  0.00    -0.014 A 
ATOM     65  C   UNL A   1      42.700  23.378  26.267  1.00  0.00     0.010 A 
ATOM     66  C   UNL A   1      42.203  22.579  28.502  1.00  0.00     0.010 A 
ATOM     67  C   UNL A   1      42.542  22.081  25.771  1.00  0.00     0.020 A 
ATOM     68  C   UNL A   1      42.069  21.275  28.014  1.00  0.00     0.020 A 
ATOM     69  C   UNL A   1      42.236  21.037  26.649  1.00  0.00     0.054 A 
BRANCH  69  70
ATOM     70  S   UNL A   1      42.113  19.353  25.986  1.00  0.00     0.124 S 
ATOM     71  O   UNL A   1      43.000  19.419  24.827  1.00  0.00    -0.237 OA
ATOM     72  O   UNL A   1      42.592  18.537  27.098  1.00  0.00    -0.237 OA
ATOM     73  O   UNL A   1      40.693  19.204  25.673  1.00  0.00    -0.744 OA
ENDBRANCH  69  70
ENDBRANCH  50  64
BRANCH  51  74
ATOM     74  C   UNL A   1      43.968  32.599  31.818  1.00  0.00    -0.014 A 
ATOM     75  C   UNL A   1      43.607  32.767  33.167  1.00  0.00     0.010 A 
ATOM     76  C   UNL A   1      44.501  33.695  31.115  1.00  0.00     0.010 A 
ATOM     77  C   UNL A   1      43.733  34.016  33.785  1.00  0.00     0.020 A 
ATOM     78  C   UNL A   1      44.664  34.934  31.738  1.00  0.00     0.020 A 
ATOM     79  C   UNL A   1      44.257  35.092  33.065  1.00  0.00     0.054 A 
BRANCH  79  80
ATOM     80  S   UNL A   1      44.417  36.702  33.885  1.00  0.00     0.124 S 
ATOM     81  O   UNL A   1      43.556  37.547  33.064  1.00  0.00    -0.237 OA
ATOM     82  O   UNL A   1      43.930  36.419  35.233  1.00  0.00    -0.237 OA
ATOM     83  O   UNL A   1      45.847  36.990  33.794  1.00  0.00    -0.744 OA
ENDBRANCH  79  80
ENDBRANCH  51  74
BRANCH  63  84
ATOM     84  C   UNL A   1      48.109  27.138  30.543  1.00  0.00    -0.014 A 
ATOM     85  C   UNL A   1      48.504  26.351  31.639  1.00  0.00     0.010 A 
ATOM     86  C   UNL A   1      49.093  27.644  29.673  1.00  0.00     0.010 A 
ATOM     87  C   UNL A   1      49.858  26.102  31.879  1.00  0.00     0.020 A 
ATOM     88  C   UNL A   1      50.446  27.370  29.891  1.00  0.00     0.020 A 
ATOM     89  C   UNL A   1      50.820  26.611  31.001  1.00  0.00     0.054 A 
BRANCH  89  90
ATOM     90  S   UNL A   1      52.567  26.236  31.311  1.00  0.00     0.124 S 
ATOM     91  O   UNL A   1      52.984  27.377  32.123  1.00  0.00    -0.237 OA
ATOM     92  O   UNL A   1      52.499  24.957  32.014  1.00  0.00    -0.237 OA
ATOM     93  O   UNL A   1      53.152  26.176  29.974  1.00  0.00    -0.744 OA
ENDBRANCH  89  90
ENDBRANCH  63  84
ENDBRANCH  37  38
ENDBRANCH  29  32
ENDBRANCH  27  28
ENDBRANCH  26  27
ENDBRANCH  25  26
ENDBRANCH   1  25
TORSDOF 19
ENDMDL
MODEL 2
REMARK VINA RESULT:     -10.5      2.793      8.692
REMARK SMILES C[C@H](C(=O)NCCCCCCNC(=O)c1ccc(-c2c3nc(c(-c4ccc(S(=O)(=O)[O-])cc4)c4ccc([nH]4)c(-c4ccc(S(=O)(=O)[O-])cc4)c4nc(c(-c5ccc(S(=O)(=O)[O-])cc5)c5ccc2[nH]5)C=C4)C=C3)cc1)[C@H](C)[N@@H+]1CC[C@H]([NH+]2CCCCC2)C1
REMARK SMILES IDX 8 1 7 2 6 3 5 4 3 5 4 6 2 8 1 9 75 10 76 11 77 12 78 13
REMARK SMILES IDX 87 14 79 16 80 17 81 18 82 19 86 20 83 22 85 23 84 24 9 25
REMARK SMILES IDX 10 26 11 27 12 28 13 29 14 31 15 32 16 33 74 34 17 35 73 36
REMARK SMILES IDX 18 37 19 38 20 39 67 40 21 41 72 42 66 43 68 44 22 45 71 46
REMARK SMILES IDX 65 47 64 48 23 50 53 51 34 52 52 53 35 54 38 55 51 56 69 57
REMARK SMILES IDX 36 58 37 59 50 61 70 62 39 63 24 64 25 65 33 66 26 67 32 68
REMARK SMILES IDX 27 69 28 70 29 71 30 72 31 73 54 74 55 75 63 76 56 77 62 78
REMARK SMILES IDX 57 79 58 80 59 81 60 82 61 83 40 84 41 85 49 86 42 87 48 88
REMARK SMILES IDX 43 89 44 90 45 91 46 92 47 93
REMARK H PARENT 5 7 77 15 81 21 12 30 68 49 38 60
REMARK Flexibility Score: inf
ROOT
ATOM      1  C   UNL A   1      34.297  24.651  23.923  1.00  0.00     0.002 C 
ENDROOT
BRANCH   1   2
ATOM      2  C   UNL A   1      33.856  24.497  25.384  1.00  0.00     0.021 C 
BRANCH   2   3
ATOM      3  C   UNL A   1      32.639  23.592  25.596  1.00  0.00     0.116 C 
BRANCH   3   4
ATOM      4  N   UNL A   1      31.561  24.280  26.275  1.00  0.00    -0.356 N 
ATOM      5  C   UNL A   1      30.647  25.169  25.801  1.00  0.00     0.228 C 
ATOM      6  O   UNL A   1      29.831  25.622  26.608  1.00  0.00    -0.275 OA
ATOM      7  H   UNL A   1      31.474  24.071  27.232  1.00  0.00     0.163 HD
BRANCH   5   8
ATOM      8  C   UNL A   1      30.682  25.617  24.335  1.00  0.00     0.133 C 
ATOM      9  C   UNL A   1      30.316  24.409  23.463  1.00  0.00     0.024 C 
BRANCH   8  10
ATOM     10  C   UNL A   1      29.828  26.913  24.095  1.00  0.00     0.193 C 
ATOM     11  C   UNL A   1      28.350  26.606  23.833  1.00  0.00     0.076 C 
BRANCH  10  12
ATOM     12  N   UNL A   1      30.468  27.882  23.165  1.00  0.00    -0.327 N 
ATOM     13  C   UNL A   1      31.601  27.342  22.403  1.00  0.00     0.269 C 
ATOM     14  C   UNL A   1      30.966  29.137  23.770  1.00  0.00     0.328 C 
ATOM     15  H   UNL A   1      29.671  28.084  22.561  1.00  0.00     0.348 HD
ATOM     16  C   UNL A   1      32.868  27.770  23.126  1.00  0.00     0.132 C 
ATOM     17  C   UNL A   1      32.518  29.139  23.717  1.00  0.00     0.245 C 
BRANCH  17  18
ATOM     18  N   UNL A   1      33.253  29.570  24.936  1.00  0.00    -0.328 N 
ATOM     19  C   UNL A   1      32.415  30.255  25.927  1.00  0.00     0.262 C 
ATOM     20  C   UNL A   1      33.991  28.453  25.550  1.00  0.00     0.262 C 
ATOM     21  H   UNL A   1      33.927  30.263  24.610  1.00  0.00     0.348 HD
ATOM     22  C   UNL A   1      33.181  30.732  27.159  1.00  0.00     0.062 C 
ATOM     23  C   UNL A   1      34.806  28.898  26.769  1.00  0.00     0.062 C 
ATOM     24  C   UNL A   1      33.925  29.581  27.808  1.00  0.00     0.012 C 
ENDBRANCH  17  18
ENDBRANCH  10  12
ENDBRANCH   8  10
ENDBRANCH   5   8
ENDBRANCH   3   4
ENDBRANCH   2   3
ENDBRANCH   1   2
BRANCH   1  25
ATOM     25  C   UNL A   1      35.140  23.494  23.376  1.00  0.00     0.002 C 
BRANCH  25  26
ATOM     26  C   UNL A   1      35.920  22.708  24.432  1.00  0.00     0.021 C 
BRANCH  26  27
ATOM     27  C   UNL A   1      37.174  23.405  24.950  1.00  0.00     0.116 C 
BRANCH  27  28
ATOM     28  N   UNL A   1      38.119  22.466  25.533  1.00  0.00    -0.352 N 
ATOM     29  C   UNL A   1      39.225  22.713  26.309  1.00  0.00     0.251 C 
ATOM     30  H   UNL A   1      37.940  21.517  25.346  1.00  0.00     0.163 HD
ATOM     31  O   UNL A   1      40.020  21.806  26.546  1.00  0.00    -0.269 OA
BRANCH  29  32
ATOM     32  C   UNL A   1      39.473  24.073  26.835  1.00  0.00     0.039 A 
ATOM     33  C   UNL A   1      38.998  24.400  28.108  1.00  0.00     0.014 A 
ATOM     34  C   UNL A   1      40.176  25.020  26.084  1.00  0.00     0.014 A 
ATOM     35  C   UNL A   1      39.297  25.649  28.657  1.00  0.00     0.010 A 
ATOM     36  C   UNL A   1      40.531  26.239  26.660  1.00  0.00     0.010 A 
ATOM     37  C   UNL A   1      40.106  26.561  27.958  1.00  0.00    -0.014 A 
BRANCH  37  38
ATOM     38  C   UNL A   1      40.559  27.826  28.594  1.00  0.00     0.031 A 
ATOM     39  C   UNL A   1      41.935  27.936  29.194  1.00  0.00     0.074 A 
ATOM     40  C   UNL A   1      39.697  28.860  28.688  1.00  0.00     0.049 A 
ATOM     41  N   UNL A   1      42.475  28.945  29.829  1.00  0.00    -0.248 NA
ATOM     42  C   UNL A   1      42.813  26.760  29.085  1.00  0.00     0.031 C 
ATOM     43  C   UNL A   1      38.319  28.863  28.185  1.00  0.00     0.029 A 
ATOM     44  N   UNL A   1      39.844  30.107  29.244  1.00  0.00    -0.354 N 
ATOM     45  C   UNL A   1      43.745  28.523  30.207  1.00  0.00     0.074 A 
ATOM     46  C   UNL A   1      43.883  27.154  29.762  1.00  0.00     0.031 C 
ATOM     47  C   UNL A   1      37.760  30.057  28.437  1.00  0.00     0.029 A 
ATOM     48  C   UNL A   1      38.715  30.889  29.159  1.00  0.00     0.049 A 
ATOM     49  H   UNL A   1      40.680  30.413  29.665  1.00  0.00     0.167 HD
ATOM     50  C   UNL A   1      44.709  29.219  30.856  1.00  0.00     0.031 A 
ATOM     51  C   UNL A   1      38.466  32.129  29.625  1.00  0.00     0.031 A 
ATOM     52  C   UNL A   1      44.572  30.587  31.284  1.00  0.00     0.049 A 
ATOM     53  C   UNL A   1      39.553  32.867  30.360  1.00  0.00     0.074 A 
ATOM     54  C   UNL A   1      45.524  31.396  31.880  1.00  0.00     0.029 A 
ATOM     55  N   UNL A   1      43.417  31.344  31.174  1.00  0.00    -0.354 N 
ATOM     56  N   UNL A   1      40.779  32.480  30.622  1.00  0.00    -0.248 NA
ATOM     57  C   UNL A   1      39.226  34.211  30.856  1.00  0.00     0.031 C 
ATOM     58  C   UNL A   1      44.923  32.618  32.195  1.00  0.00     0.029 A 
ATOM     59  C   UNL A   1      43.619  32.596  31.731  1.00  0.00     0.049 A 
ATOM     60  H   UNL A   1      42.577  31.037  30.761  1.00  0.00     0.167 HD
ATOM     61  C   UNL A   1      41.374  33.544  31.291  1.00  0.00     0.074 A 
ATOM     62  C   UNL A   1      40.385  34.598  31.370  1.00  0.00     0.031 C 
ATOM     63  C   UNL A   1      42.627  33.638  31.801  1.00  0.00     0.031 A 
BRANCH  50  64
ATOM     64  C   UNL A   1      46.011  28.521  31.157  1.00  0.00    -0.014 A 
ATOM     65  C   UNL A   1      46.152  27.701  32.290  1.00  0.00     0.010 A 
ATOM     66  C   UNL A   1      47.068  28.599  30.231  1.00  0.00     0.010 A 
ATOM     67  C   UNL A   1      47.332  26.980  32.496  1.00  0.00     0.020 A 
ATOM     68  C   UNL A   1      48.239  27.859  30.421  1.00  0.00     0.020 A 
ATOM     69  C   UNL A   1      48.364  27.058  31.556  1.00  0.00     0.054 A 
BRANCH  69  70
ATOM     70  S   UNL A   1      49.851  26.050  31.815  1.00  0.00     0.124 S 
ATOM     71  O   UNL A   1      50.900  27.065  31.856  1.00  0.00    -0.237 OA
ATOM     72  O   UNL A   1      49.568  25.387  33.085  1.00  0.00    -0.237 OA
ATOM     73  O   UNL A   1      49.883  25.170  30.649  1.00  0.00    -0.744 OA
ENDBRANCH  69  70
ENDBRANCH  50  64
BRANCH  51  74
ATOM     74  C   UNL A   1      37.122  32.748  29.441  1.00  0.00    -0.014 A 
ATOM     75  C   UNL A   1      36.818  33.477  28.277  1.00  0.00     0.010 A 
ATOM     76  C   UNL A   1      36.150  32.643  30.452  1.00  0.00     0.010 A 
ATOM     77  C   UNL A   1      35.585  34.124  28.148  1.00  0.00     0.020 A 
ATOM     78  C   UNL A   1      34.902  33.257  30.311  1.00  0.00     0.020 A 
ATOM     79  C   UNL A   1      34.637  34.013  29.168  1.00  0.00     0.054 A 
BRANCH  79  80
ATOM     80  S   UNL A   1      33.042  34.856  28.979  1.00  0.00     0.124 S 
ATOM     81  O   UNL A   1      33.447  36.156  28.453  1.00  0.00    -0.237 OA
ATOM     82  O   UNL A   1      32.335  33.985  28.043  1.00  0.00    -0.237 OA
ATOM     83  O   UNL A   1      32.501  34.871  30.337  1.00  0.00    -0.744 OA
ENDBRANCH  79  80
ENDBRANCH  51  74
BRANCH  63  84
ATOM     84  C   UNL A   1      43.010  34.932  32.468  1.00  0.00    -0.014 A 
ATOM     85  C   UNL A   1      43.885  35.841  31.847  1.00  0.00     0.010 A 
ATOM     86  C   UNL A   1      42.445  35.267  33.713  1.00  0.00     0.010 A 
ATOM     87  C   UNL A   1      44.215  37.045  32.474  1.00  0.00     0.020 A 
ATOM     88  C   UNL A   1      42.746  36.485  34.328  1.00  0.00     0.020 A 
ATOM     89  C   UNL A   1      43.641  37.361  33.710  1.00  0.00     0.054 A 
BRANCH  89  90
ATOM     90  S   UNL A   1      44.051  38.950  34.480  1.00  0.00     0.124 S 
ATOM     91  O   UNL A   1      42.961  39.805  34.015  1.00  0.00    -0.237 OA
ATOM     92  O   UNL A   1      44.033  38.629  35.905  1.00  0.00    -0.237 OA
ATOM     93  O   UNL A   1      45.368  39.271  33.936  1.00  0.00    -0.744 OA
ENDBRANCH  89  90
ENDBRANCH  63  84
ENDBRANCH  37  38
ENDBRANCH  29  32
ENDBRANCH  27  28
ENDBRANCH  26  27
ENDBRANCH  25  26
ENDBRANCH   1  25
TORSDOF 19
ENDMDL
MODEL 3
REMARK VINA RESULT:     -10.4      0.539      8.175
REMARK SMILES C[C@H](C(=O)NCCCCCCNC(=O)c1ccc(-c2c3nc(c(-c4ccc(S(=O)(=O)[O-])cc4)c4ccc([nH]4)c(-c4ccc(S(=O)(=O)[O-])cc4)c4nc(c(-c5ccc(S(=O)(=O)[O-])cc5)c5ccc2[nH]5)C=C4)C=C3)cc1)[C@H](C)[N@@H+]1CC[C@H]([NH+]2CCCCC2)C1
REMARK SMILES IDX 8 1 7 2 6 3 5 4 3 5 4 6 2 8 1 9 75 10 76 11 77 12 78 13
REMARK SMILES IDX 87 14 79 16 80 17 81 18 82 19 86 20 83 22 85 23 84 24 9 25
REMARK SMILES IDX 10 26 11 27 12 28 13 29 14 31 15 32 16 33 74 34 17 35 73 36
REMARK SMILES IDX 18 37 19 38 20 39 67 40 21 41 72 42 66 43 68 44 22 45 71 46
REMARK SMILES IDX 65 47 64 48 23 50 53 51 34 52 52 53 35 54 38 55 51 56 69 57
REMARK SMILES IDX 36 58 37 59 50 61 70 62 39 63 24 64 25 65 33 66 26 67 32 68
REMARK SMILES IDX 27 69 28 70 29 71 30 72 31 73 54 74 55 75 63 76 56 77 62 78
REMARK SMILES IDX 57 79 58 80 59 81 60 82 61 83 40 84 41 85 49 86 42 87 48 88
REMARK SMILES IDX 43 89 44 90 45 91 46 92 47 93
REMARK H PARENT 5 7 77 15 81 21 12 30 68 49 38 60
REMARK Flexibility Score: inf
ROOT
ATOM      1  C   UNL A   1      33.689  28.322  22.781  1.00  0.00     0.002 C 
ENDROOT
BRANCH   1   2
ATOM      2  C   UNL A   1      33.523  27.047  21.944  1.00  0.00     0.021 C 
BRANCH   2   3
ATOM      3  C   UNL A   1      33.436  25.752  22.756  1.00  0.00     0.116 C 
BRANCH   3   4
ATOM      4  N   UNL A   1      32.137  25.122  22.637  1.00  0.00    -0.356 N 
ATOM      5  C   UNL A   1      31.323  24.595  23.590  1.00  0.00     0.228 C 
ATOM      6  O   UNL A   1      30.259  24.100  23.210  1.00  0.00    -0.275 OA
ATOM      7  H   UNL A   1      31.787  25.066  21.719  1.00  0.00     0.163 HD
BRANCH   5   8
ATOM      8  C   UNL A   1      31.753  24.578  25.062  1.00  0.00     0.133 C 
ATOM      9  C   UNL A   1      30.960  25.666  25.797  1.00  0.00     0.024 C 
BRANCH   8  10
ATOM     10  C   UNL A   1      31.671  23.139  25.683  1.00  0.00     0.193 C 
ATOM     11  C   UNL A   1      30.448  22.956  26.588  1.00  0.00     0.076 C 
BRANCH  10  12
ATOM     12  N   UNL A   1      32.966  22.653  26.230  1.00  0.00    -0.327 N 
ATOM     13  C   UNL A   1      34.155  23.223  25.584  1.00  0.00     0.269 C 
ATOM     14  C   UNL A   1      33.175  21.189  26.210  1.00  0.00     0.328 C 
ATOM     15  H   UNL A   1      32.872  22.974  27.193  1.00  0.00     0.348 HD
ATOM     16  C   UNL A   1      34.635  22.209  24.558  1.00  0.00     0.132 C 
ATOM     17  C   UNL A   1      34.290  20.853  25.181  1.00  0.00     0.245 C 
BRANCH  17  18
ATOM     18  N   UNL A   1      34.060  19.710  24.259  1.00  0.00    -0.328 N 
ATOM     19  C   UNL A   1      34.659  18.448  24.712  1.00  0.00     0.262 C 
ATOM     20  C   UNL A   1      32.630  19.535  23.954  1.00  0.00     0.262 C 
ATOM     21  H   UNL A   1      34.547  19.959  23.398  1.00  0.00     0.348 HD
ATOM     22  C   UNL A   1      34.456  17.286  23.742  1.00  0.00     0.062 C 
ATOM     23  C   UNL A   1      32.385  18.401  22.952  1.00  0.00     0.062 C 
ATOM     24  C   UNL A   1      32.983  17.089  23.442  1.00  0.00     0.012 C 
ENDBRANCH  17  18
ENDBRANCH  10  12
ENDBRANCH   8  10
ENDBRANCH   5   8
ENDBRANCH   3   4
ENDBRANCH   2   3
ENDBRANCH   1   2
BRANCH   1  25
ATOM     25  C   UNL A   1      34.070  28.090  24.246  1.00  0.00     0.002 C 
BRANCH  25  26
ATOM     26  C   UNL A   1      33.064  28.626  25.267  1.00  0.00     0.021 C 
BRANCH  26  27
ATOM     27  C   UNL A   1      33.600  28.745  26.690  1.00  0.00     0.116 C 
BRANCH  27  28
ATOM     28  N   UNL A   1      33.566  30.116  27.175  1.00  0.00    -0.352 N 
ATOM     29  C   UNL A   1      34.472  30.785  27.960  1.00  0.00     0.251 C 
ATOM     30  H   UNL A   1      32.779  30.640  26.900  1.00  0.00     0.163 HD
ATOM     31  O   UNL A   1      34.179  31.880  28.435  1.00  0.00    -0.269 OA
BRANCH  29  32
ATOM     32  C   UNL A   1      35.788  30.178  28.254  1.00  0.00     0.039 A 
ATOM     33  C   UNL A   1      36.766  30.171  27.256  1.00  0.00     0.014 A 
ATOM     34  C   UNL A   1      36.063  29.625  29.508  1.00  0.00     0.014 A 
ATOM     35  C   UNL A   1      38.043  29.681  27.541  1.00  0.00     0.010 A 
ATOM     36  C   UNL A   1      37.356  29.200  29.812  1.00  0.00     0.010 A 
ATOM     37  C   UNL A   1      38.362  29.236  28.835  1.00  0.00    -0.014 A 
BRANCH  37  38
ATOM     38  C   UNL A   1      39.756  28.860  29.192  1.00  0.00     0.031 A 
ATOM     39  C   UNL A   1      40.680  29.855  29.840  1.00  0.00     0.074 A 
ATOM     40  C   UNL A   1      40.209  27.631  28.868  1.00  0.00     0.049 A 
ATOM     41  N   UNL A   1      41.937  29.712  30.174  1.00  0.00    -0.248 NA
ATOM     42  C   UNL A   1      40.131  31.189  30.139  1.00  0.00     0.031 C 
ATOM     43  C   UNL A   1      39.425  26.589  28.196  1.00  0.00     0.029 A 
ATOM     44  N   UNL A   1      41.438  27.047  29.049  1.00  0.00    -0.354 N 
ATOM     45  C   UNL A   1      42.333  30.935  30.705  1.00  0.00     0.074 A 
ATOM     46  C   UNL A   1      41.194  31.820  30.617  1.00  0.00     0.031 C 
ATOM     47  C   UNL A   1      40.185  25.493  28.043  1.00  0.00     0.029 A 
ATOM     48  C   UNL A   1      41.521  25.764  28.559  1.00  0.00     0.049 A 
ATOM     49  H   UNL A   1      42.191  27.505  29.489  1.00  0.00     0.167 HD
ATOM     50  C   UNL A   1      43.534  31.280  31.227  1.00  0.00     0.031 A 
ATOM     51  C   UNL A   1      42.560  24.905  28.511  1.00  0.00     0.031 A 
ATOM     52  C   UNL A   1      44.662  30.390  31.326  1.00  0.00     0.049 A 
ATOM     53  C   UNL A   1      43.886  25.329  29.082  1.00  0.00     0.074 A 
ATOM     54  C   UNL A   1      45.893  30.631  31.910  1.00  0.00     0.029 A 
ATOM     55  N   UNL A   1      44.703  29.098  30.824  1.00  0.00    -0.354 N 
ATOM     56  N   UNL A   1      44.209  26.459  29.665  1.00  0.00    -0.248 NA
ATOM     57  C   UNL A   1      44.987  24.359  28.996  1.00  0.00     0.031 C 
ATOM     58  C   UNL A   1      46.704  29.511  31.698  1.00  0.00     0.029 A 
ATOM     59  C   UNL A   1      45.954  28.546  31.046  1.00  0.00     0.049 A 
ATOM     60  H   UNL A   1      43.955  28.642  30.376  1.00  0.00     0.167 HD
ATOM     61  C   UNL A   1      45.542  26.324  30.035  1.00  0.00     0.074 A 
ATOM     62  C   UNL A   1      45.958  24.996  29.636  1.00  0.00     0.031 C 
ATOM     63  C   UNL A   1      46.355  27.222  30.646  1.00  0.00     0.031 A 
BRANCH  50  64
ATOM     64  C   UNL A   1      43.712  32.688  31.736  1.00  0.00    -0.014 A 
ATOM     65  C   UNL A   1      43.135  33.101  32.950  1.00  0.00     0.010 A 
ATOM     66  C   UNL A   1      44.561  33.572  31.045  1.00  0.00     0.010 A 
ATOM     67  C   UNL A   1      43.397  34.377  33.457  1.00  0.00     0.020 A 
ATOM     68  C   UNL A   1      44.846  34.839  31.563  1.00  0.00     0.020 A 
ATOM     69  C   UNL A   1      44.257  35.234  32.764  1.00  0.00     0.054 A 
BRANCH  69  70
ATOM     70  S   UNL A   1      44.636  36.854  33.489  1.00  0.00     0.124 S 
ATOM     71  O   UNL A   1      43.305  37.433  33.649  1.00  0.00    -0.237 OA
ATOM     72  O   UNL A   1      45.319  36.495  34.730  1.00  0.00    -0.237 OA
ATOM     73  O   UNL A   1      45.477  37.498  32.482  1.00  0.00    -0.744 OA
ENDBRANCH  69  70
ENDBRANCH  50  64
BRANCH  51  74
ATOM     74  C   UNL A   1      42.402  23.567  27.875  1.00  0.00    -0.014 A 
ATOM     75  C   UNL A   1      41.903  22.474  28.607  1.00  0.00     0.010 A 
ATOM     76  C   UNL A   1      42.790  23.369  26.537  1.00  0.00     0.010 A 
ATOM     77  C   UNL A   1      41.836  21.203  28.028  1.00  0.00     0.020 A 
ATOM     78  C   UNL A   1      42.689  22.108  25.943  1.00  0.00     0.020 A 
ATOM     79  C   UNL A   1      42.234  21.028  26.701  1.00  0.00     0.054 A 
BRANCH  79  80
ATOM     80  S   UNL A   1      42.135  19.372  25.966  1.00  0.00     0.124 S 
ATOM     81  O   UNL A   1      42.663  18.534  27.038  1.00  0.00    -0.237 OA
ATOM     82  O   UNL A   1      40.706  19.233  25.697  1.00  0.00    -0.237 OA
ATOM     83  O   UNL A   1      42.980  19.475  24.778  1.00  0.00    -0.744 OA
ENDBRANCH  79  80
ENDBRANCH  51  74
BRANCH  63  84
ATOM     84  C   UNL A   1      47.766  26.792  30.944  1.00  0.00    -0.014 A 
ATOM     85  C   UNL A   1      48.797  26.971  30.005  1.00  0.00     0.010 A 
ATOM     86  C   UNL A   1      48.075  26.247  32.205  1.00  0.00     0.010 A 
ATOM     87  C   UNL A   1      50.104  26.581  30.308  1.00  0.00     0.020 A 
ATOM     88  C   UNL A   1      49.387  25.886  32.523  1.00  0.00     0.020 A 
ATOM     89  C   UNL A   1      50.391  26.043  31.566  1.00  0.00     0.054 A 
BRANCH  89  90
ATOM     90  S   UNL A   1      52.104  25.587  31.949  1.00  0.00     0.124 S 
ATOM     91  O   UNL A   1      52.823  26.100  30.785  1.00  0.00    -0.237 OA
ATOM     92  O   UNL A   1      52.352  26.297  33.201  1.00  0.00    -0.237 OA
ATOM     93  O   UNL A   1      52.059  24.131  32.061  1.00  0.00    -0.744 OA
ENDBRANCH  89  90
ENDBRANCH  63  84
ENDBRANCH  37  38
ENDBRANCH  29  32
ENDBRANCH  27  28
ENDBRANCH  26  27
ENDBRANCH  25  26
ENDBRANCH   1  25
TORSDOF 19
ENDMDL
