MODEL 1
REMARK VINA RESULT:     -10.0      0.000      0.000
REMARK SMILES O=C(CS(=O)(=O)NCc1ccc(N2CCOCC2)nc1)NCCCCCCNC(=O)c1ccc(-c2c3nc(c(-c4ccc(S(=O)(=O)[O-])cc4)c4ccc([nH]4)c(-c4ccc(S(=O)(=O)[O-])cc4)c4nc(c(-c5ccc(S(=O)(=O)[O-])cc5)c5ccc2[nH]5)C=C4)C=C3)cc1
REMARK SMILES IDX 23 1 22 2 21 3 1 4 2 5 3 7 4 8 5 9 6 10 7 11 8 13 9 14 10 15
REMARK SMILES IDX 20 16 11 17 19 18 12 19 13 20 14 21 18 22 15 23 17 24 16 25
REMARK SMILES IDX 24 26 25 27 26 28 27 29 28 30 29 31 30 33 31 34 32 35 90 36
REMARK SMILES IDX 33 37 89 38 34 39 35 40 36 41 83 42 37 43 88 44 82 45 84 46
REMARK SMILES IDX 38 47 87 48 81 49 80 50 39 52 69 53 50 54 68 55 51 56 54 57
REMARK SMILES IDX 67 58 85 59 52 60 53 61 66 63 86 64 55 65 40 66 41 67 49 68
REMARK SMILES IDX 42 69 48 70 43 71 44 72 45 73 46 74 47 75 70 76 71 77 79 78
REMARK SMILES IDX 72 79 78 80 73 81 74 82 75 83 76 84 77 85 56 86 57 87 65 88
REMARK SMILES IDX 58 89 64 90 59 91 60 92 61 93 62 94 63 95
REMARK H PARENT 21 6 7 12 28 32 84 51 54 62
REMARK Flexibility Score: inf
ROOT
ATOM      1  C   UNL A   1      31.548  23.568  26.503  1.00  0.00     0.021 C 
ENDROOT
BRANCH   1   2
ATOM      2  C   UNL A   1      30.461  24.570  26.109  1.00  0.00     0.116 C 
BRANCH   2   3
ATOM      3  N   UNL A   1      31.005  25.863  25.716  1.00  0.00    -0.355 N 
ATOM      4  O   UNL A   1      29.392  26.258  24.141  1.00  0.00    -0.274 OA
ATOM      5  C   UNL A   1      30.396  26.631  24.747  1.00  0.00     0.236 C 
ATOM      6  H   UNL A   1      31.823  26.195  26.152  1.00  0.00     0.163 HD
BRANCH   5   7
ATOM      7  C   UNL A   1      31.034  27.932  24.414  1.00  0.00     0.253 C 
BRANCH   7   8
ATOM      8  S   UNL A   1      31.391  28.160  22.693  1.00  0.00     0.220 S 
ATOM      9  O   UNL A   1      30.181  28.680  22.083  1.00  0.00    -0.212 OA
ATOM     10  O   UNL A   1      32.597  28.949  22.609  1.00  0.00    -0.212 OA
BRANCH   8  11
ATOM     11  N   UNL A   1      31.787  26.746  21.944  1.00  0.00    -0.210 NA
ATOM     12  H   UNL A   1      31.780  26.980  20.951  1.00  0.00     0.141 HD
BRANCH  11  13
ATOM     13  C   UNL A   1      32.963  25.898  22.103  1.00  0.00     0.135 C 
BRANCH  13  14
ATOM     14  C   UNL A   1      32.843  24.451  22.487  1.00  0.00    -0.015 A 
ATOM     15  C   UNL A   1      34.013  23.711  22.688  1.00  0.00     0.010 A 
ATOM     16  C   UNL A   1      31.667  23.778  22.757  1.00  0.00     0.118 A 
ATOM     17  C   UNL A   1      33.949  22.392  23.139  1.00  0.00     0.047 A 
ATOM     18  N   UNL A   1      31.582  22.493  23.183  1.00  0.00    -0.239 NA
ATOM     19  C   UNL A   1      32.717  21.801  23.385  1.00  0.00     0.128 A 
BRANCH  19  20
ATOM     20  N   UNL A   1      32.633  20.484  23.772  1.00  0.00    -0.352 N 
ATOM     21  C   UNL A   1      32.347  20.131  25.166  1.00  0.00     0.146 C 
ATOM     22  C   UNL A   1      32.127  19.502  22.810  1.00  0.00     0.146 C 
ATOM     23  C   UNL A   1      32.921  18.737  25.455  1.00  0.00     0.181 C 
ATOM     24  C   UNL A   1      32.734  18.137  23.170  1.00  0.00     0.181 C 
ATOM     25  O   UNL A   1      32.426  17.758  24.523  1.00  0.00    -0.378 OA
ENDBRANCH  19  20
ENDBRANCH  13  14
ENDBRANCH  11  13
ENDBRANCH   8  11
ENDBRANCH   7   8
ENDBRANCH   5   7
ENDBRANCH   2   3
ENDBRANCH   1   2
BRANCH   1  26
ATOM     26  C   UNL A   1      32.984  24.074  26.326  1.00  0.00     0.002 C 
BRANCH  26  27
ATOM     27  C   UNL A   1      34.049  23.272  27.076  1.00  0.00     0.002 C 
BRANCH  27  28
ATOM     28  C   UNL A   1      35.135  22.644  26.202  1.00  0.00     0.021 C 
BRANCH  28  29
ATOM     29  C   UNL A   1      36.402  23.475  26.037  1.00  0.00     0.116 C 
BRANCH  29  30
ATOM     30  N   UNL A   1      37.610  22.667  25.967  1.00  0.00    -0.352 N 
ATOM     31  C   UNL A   1      38.910  22.965  26.301  1.00  0.00     0.251 C 
ATOM     32  H   UNL A   1      37.474  21.754  25.623  1.00  0.00     0.163 HD
ATOM     33  O   UNL A   1      39.797  22.154  26.048  1.00  0.00    -0.269 OA
BRANCH  31  34
ATOM     34  C   UNL A   1      39.255  24.263  26.927  1.00  0.00     0.039 A 
ATOM     35  C   UNL A   1      38.859  24.497  28.248  1.00  0.00     0.014 A 
ATOM     36  C   UNL A   1      39.953  25.251  26.231  1.00  0.00     0.014 A 
ATOM     37  C   UNL A   1      39.232  25.682  28.888  1.00  0.00     0.010 A 
ATOM     38  C   UNL A   1      40.405  26.388  26.898  1.00  0.00     0.010 A 
ATOM     39  C   UNL A   1      40.049  26.618  28.235  1.00  0.00    -0.014 A 
BRANCH  39  40
ATOM     40  C   UNL A   1      40.554  27.826  28.941  1.00  0.00     0.031 A 
ATOM     41  C   UNL A   1      41.953  27.863  29.499  1.00  0.00     0.074 A 
ATOM     42  C   UNL A   1      39.728  28.873  29.133  1.00  0.00     0.049 A 
ATOM     43  N   UNL A   1      42.555  28.827  30.148  1.00  0.00    -0.248 NA
ATOM     44  C   UNL A   1      42.771  26.652  29.333  1.00  0.00     0.031 C 
ATOM     45  C   UNL A   1      38.331  28.942  28.695  1.00  0.00     0.029 A 
ATOM     46  N   UNL A   1      39.941  30.084  29.744  1.00  0.00    -0.354 N 
ATOM     47  C   UNL A   1      43.810  28.332  30.486  1.00  0.00     0.074 A 
ATOM     48  C   UNL A   1      43.862  26.965  30.015  1.00  0.00     0.031 C 
ATOM     49  C   UNL A   1      37.830  30.149  29.006  1.00  0.00     0.029 A 
ATOM     50  C   UNL A   1      38.852  30.924  29.701  1.00  0.00     0.049 A 
ATOM     51  H   UNL A   1      40.794  30.329  30.171  1.00  0.00     0.167 HD
ATOM     52  C   UNL A   1      44.834  28.962  31.112  1.00  0.00     0.031 A 
ATOM     53  C   UNL A   1      38.693  32.179  30.162  1.00  0.00     0.031 A 
ATOM     54  C   UNL A   1      44.785  30.327  31.566  1.00  0.00     0.049 A 
ATOM     55  C   UNL A   1      39.846  32.862  30.842  1.00  0.00     0.074 A 
ATOM     56  C   UNL A   1      45.795  31.081  32.139  1.00  0.00     0.029 A 
ATOM     57  N   UNL A   1      43.664  31.142  31.506  1.00  0.00    -0.354 N 
ATOM     58  N   UNL A   1      41.053  32.405  31.076  1.00  0.00    -0.248 NA
ATOM     59  C   UNL A   1      39.617  34.236  31.309  1.00  0.00     0.031 C 
ATOM     60  C   UNL A   1      45.268  32.334  32.475  1.00  0.00     0.029 A 
ATOM     61  C   UNL A   1      43.947  32.380  32.059  1.00  0.00     0.049 A 
ATOM     62  H   UNL A   1      42.795  30.879  31.124  1.00  0.00     0.167 HD
ATOM     63  C   UNL A   1      41.735  33.442  31.702  1.00  0.00     0.074 A 
ATOM     64  C   UNL A   1      40.810  34.556  31.790  1.00  0.00     0.031 C 
ATOM     65  C   UNL A   1      43.011  33.471  32.161  1.00  0.00     0.031 A 
BRANCH  52  66
ATOM     66  C   UNL A   1      46.093  28.167  31.352  1.00  0.00    -0.014 A 
ATOM     67  C   UNL A   1      47.160  28.193  30.434  1.00  0.00     0.010 A 
ATOM     68  C   UNL A   1      46.217  27.395  32.520  1.00  0.00     0.010 A 
ATOM     69  C   UNL A   1      48.301  27.417  30.652  1.00  0.00     0.020 A 
ATOM     70  C   UNL A   1      47.370  26.641  32.758  1.00  0.00     0.020 A 
ATOM     71  C   UNL A   1      48.396  26.639  31.810  1.00  0.00     0.054 A 
BRANCH  71  72
ATOM     72  S   UNL A   1      49.887  25.639  32.068  1.00  0.00     0.124 S 
ATOM     73  O   UNL A   1      50.886  26.661  32.371  1.00  0.00    -0.237 OA
ATOM     74  O   UNL A   1      49.509  24.780  33.187  1.00  0.00    -0.237 OA
ATOM     75  O   UNL A   1      50.069  24.951  30.792  1.00  0.00    -0.744 OA
ENDBRANCH  71  72
ENDBRANCH  52  66
BRANCH  53  76
ATOM     76  C   UNL A   1      37.399  32.884  29.955  1.00  0.00    -0.014 A 
ATOM     77  C   UNL A   1      37.153  33.576  28.756  1.00  0.00     0.010 A 
ATOM     78  C   UNL A   1      36.394  32.838  30.939  1.00  0.00     0.010 A 
ATOM     79  C   UNL A   1      35.928  34.216  28.547  1.00  0.00     0.020 A 
ATOM     80  C   UNL A   1      35.159  33.455  30.721  1.00  0.00     0.020 A 
ATOM     81  C   UNL A   1      34.936  34.146  29.528  1.00  0.00     0.054 A 
BRANCH  81  82
ATOM     82  S   UNL A   1      33.327  34.920  29.202  1.00  0.00     0.124 S 
ATOM     83  O   UNL A   1      32.727  33.988  28.254  1.00  0.00    -0.237 OA
ATOM     84  O   UNL A   1      32.720  34.954  30.529  1.00  0.00    -0.237 OA
ATOM     85  O   UNL A   1      33.683  36.228  28.656  1.00  0.00    -0.744 OA
ENDBRANCH  81  82
ENDBRANCH  53  76
BRANCH  65  86
ATOM     86  C   UNL A   1      43.483  34.755  32.791  1.00  0.00    -0.014 A 
ATOM     87  C   UNL A   1      44.055  35.778  32.015  1.00  0.00     0.010 A 
ATOM     88  C   UNL A   1      43.330  34.949  34.176  1.00  0.00     0.010 A 
ATOM     89  C   UNL A   1      44.511  36.952  32.619  1.00  0.00     0.020 A 
ATOM     90  C   UNL A   1      43.758  36.134  34.779  1.00  0.00     0.020 A 
ATOM     91  C   UNL A   1      44.364  37.121  34.000  1.00  0.00     0.054 A 
BRANCH  91  92
ATOM     92  S   UNL A   1      44.950  38.659  34.761  1.00  0.00     0.124 S 
ATOM     93  O   UNL A   1      44.454  39.667  33.828  1.00  0.00    -0.237 OA
ATOM     94  O   UNL A   1      44.298  38.639  36.069  1.00  0.00    -0.237 OA
ATOM     95  O   UNL A   1      46.401  38.498  34.793  1.00  0.00    -0.744 OA
ENDBRANCH  91  92
ENDBRANCH  65  86
ENDBRANCH  39  40
ENDBRANCH  31  34
ENDBRANCH  29  30
ENDBRANCH  28  29
ENDBRANCH  27  28
ENDBRANCH  26  27
ENDBRANCH   1  26
TORSDOF 21
ENDMDL
MODEL 2
REMARK VINA RESULT:      -9.7      1.758      4.299
REMARK SMILES O=C(CS(=O)(=O)NCc1ccc(N2CCOCC2)nc1)NCCCCCCNC(=O)c1ccc(-c2c3nc(c(-c4ccc(S(=O)(=O)[O-])cc4)c4ccc([nH]4)c(-c4ccc(S(=O)(=O)[O-])cc4)c4nc(c(-c5ccc(S(=O)(=O)[O-])cc5)c5ccc2[nH]5)C=C4)C=C3)cc1
REMARK SMILES IDX 23 1 22 2 21 3 1 4 2 5 3 7 4 8 5 9 6 10 7 11 8 13 9 14 10 15
REMARK SMILES IDX 20 16 11 17 19 18 12 19 13 20 14 21 18 22 15 23 17 24 16 25
REMARK SMILES IDX 24 26 25 27 26 28 27 29 28 30 29 31 30 33 31 34 32 35 90 36
REMARK SMILES IDX 33 37 89 38 34 39 35 40 36 41 83 42 37 43 88 44 82 45 84 46
REMARK SMILES IDX 38 47 87 48 81 49 80 50 39 52 69 53 50 54 68 55 51 56 54 57
REMARK SMILES IDX 67 58 85 59 52 60 53 61 66 63 86 64 55 65 40 66 41 67 49 68
REMARK SMILES IDX 42 69 48 70 43 71 44 72 45 73 46 74 47 75 70 76 71 77 79 78
REMARK SMILES IDX 72 79 78 80 73 81 74 82 75 83 76 84 77 85 56 86 57 87 65 88
REMARK SMILES IDX 58 89 64 90 59 91 60 92 61 93 62 94 63 95
REMARK H PARENT 21 6 7 12 28 32 84 51 54 62
REMARK Flexibility Score: inf
ROOT
ATOM      1  C   UNL A   1      33.640  20.878  24.518  1.00  0.00     0.021 C 
ENDROOT
BRANCH   1   2
ATOM      2  C   UNL A   1      32.597  20.445  25.548  1.00  0.00     0.116 C 
BRANCH   2   3
ATOM      3  N   UNL A   1      32.074  21.563  26.322  1.00  0.00    -0.355 N 
ATOM      4  O   UNL A   1      31.014  22.530  24.539  1.00  0.00    -0.274 OA
ATOM      5  C   UNL A   1      31.287  22.532  25.739  1.00  0.00     0.236 C 
ATOM      6  H   UNL A   1      32.285  21.626  27.282  1.00  0.00     0.163 HD
BRANCH   5   7
ATOM      7  C   UNL A   1      30.810  23.634  26.615  1.00  0.00     0.253 C 
BRANCH   7   8
ATOM      8  S   UNL A   1      31.073  25.262  25.963  1.00  0.00     0.220 S 
ATOM      9  O   UNL A   1      29.984  25.519  25.039  1.00  0.00    -0.212 OA
ATOM     10  O   UNL A   1      31.243  26.150  27.089  1.00  0.00    -0.212 OA
BRANCH   8  11
ATOM     11  N   UNL A   1      32.496  25.384  25.141  1.00  0.00    -0.210 NA
ATOM     12  H   UNL A   1      32.617  24.465  24.716  1.00  0.00     0.141 HD
BRANCH  11  13
ATOM     13  C   UNL A   1      32.896  26.318  24.094  1.00  0.00     0.135 C 
BRANCH  13  14
ATOM     14  C   UNL A   1      32.032  27.484  23.709  1.00  0.00    -0.015 A 
ATOM     15  C   UNL A   1      31.293  27.409  22.524  1.00  0.00     0.010 A 
ATOM     16  C   UNL A   1      31.813  28.619  24.468  1.00  0.00     0.118 A 
ATOM     17  C   UNL A   1      30.403  28.427  22.176  1.00  0.00     0.047 A 
ATOM     18  N   UNL A   1      30.965  29.625  24.142  1.00  0.00    -0.239 NA
ATOM     19  C   UNL A   1      30.252  29.530  23.007  1.00  0.00     0.128 A 
BRANCH  19  20
ATOM     20  N   UNL A   1      29.425  30.569  22.650  1.00  0.00    -0.352 N 
ATOM     21  C   UNL A   1      28.481  30.427  21.539  1.00  0.00     0.146 C 
ATOM     22  C   UNL A   1      28.955  31.480  23.697  1.00  0.00     0.146 C 
ATOM     23  C   UNL A   1      28.180  31.816  20.959  1.00  0.00     0.181 C 
ATOM     24  C   UNL A   1      28.665  32.839  23.041  1.00  0.00     0.181 C 
ATOM     25  O   UNL A   1      27.707  32.721  21.974  1.00  0.00    -0.378 OA
ENDBRANCH  19  20
ENDBRANCH  13  14
ENDBRANCH  11  13
ENDBRANCH   8  11
ENDBRANCH   7   8
ENDBRANCH   5   7
ENDBRANCH   2   3
ENDBRANCH   1   2
BRANCH   1  26
ATOM     26  C   UNL A   1      35.065  21.019  25.065  1.00  0.00     0.002 C 
BRANCH  26  27
ATOM     27  C   UNL A   1      36.069  21.654  24.100  1.00  0.00     0.002 C 
BRANCH  27  28
ATOM     28  C   UNL A   1      36.188  23.175  24.184  1.00  0.00     0.021 C 
BRANCH  28  29
ATOM     29  C   UNL A   1      37.083  23.699  25.302  1.00  0.00     0.116 C 
BRANCH  29  30
ATOM     30  N   UNL A   1      38.191  22.809  25.612  1.00  0.00    -0.352 N 
ATOM     31  C   UNL A   1      39.377  23.046  26.266  1.00  0.00     0.251 C 
ATOM     32  H   UNL A   1      38.071  21.881  25.304  1.00  0.00     0.163 HD
ATOM     33  O   UNL A   1      40.225  22.158  26.314  1.00  0.00    -0.269 OA
BRANCH  31  34
ATOM     34  C   UNL A   1      39.657  24.366  26.877  1.00  0.00     0.039 A 
ATOM     35  C   UNL A   1      39.211  24.609  28.181  1.00  0.00     0.014 A 
ATOM     36  C   UNL A   1      40.341  25.365  26.184  1.00  0.00     0.014 A 
ATOM     37  C   UNL A   1      39.523  25.818  28.809  1.00  0.00     0.010 A 
ATOM     38  C   UNL A   1      40.732  26.530  26.842  1.00  0.00     0.010 A 
ATOM     39  C   UNL A   1      40.326  26.771  28.163  1.00  0.00    -0.014 A 
BRANCH  39  40
ATOM     40  C   UNL A   1      40.767  28.008  28.862  1.00  0.00     0.031 A 
ATOM     41  C   UNL A   1      42.163  28.125  29.416  1.00  0.00     0.074 A 
ATOM     42  C   UNL A   1      39.885  29.010  29.050  1.00  0.00     0.049 A 
ATOM     43  N   UNL A   1      42.713  29.124  30.058  1.00  0.00    -0.248 NA
ATOM     44  C   UNL A   1      43.045  26.958  29.255  1.00  0.00     0.031 C 
ATOM     45  C   UNL A   1      38.485  29.001  28.615  1.00  0.00     0.029 A 
ATOM     46  N   UNL A   1      40.034  30.234  29.654  1.00  0.00    -0.354 N 
ATOM     47  C   UNL A   1      43.994  28.700  30.395  1.00  0.00     0.074 A 
ATOM     48  C   UNL A   1      44.119  27.334  29.932  1.00  0.00     0.031 C 
ATOM     49  C   UNL A   1      37.920  30.180  28.921  1.00  0.00     0.029 A 
ATOM     50  C   UNL A   1      38.901  31.013  29.609  1.00  0.00     0.049 A 
ATOM     51  H   UNL A   1      40.873  30.527  30.077  1.00  0.00     0.167 HD
ATOM     52  C   UNL A   1      44.983  29.387  31.015  1.00  0.00     0.031 A 
ATOM     53  C   UNL A   1      38.675  32.261  30.064  1.00  0.00     0.031 A 
ATOM     54  C   UNL A   1      44.861  30.751  31.462  1.00  0.00     0.049 A 
ATOM     55  C   UNL A   1      39.790  33.009  30.737  1.00  0.00     0.074 A 
ATOM     56  C   UNL A   1      45.830  31.561  32.029  1.00  0.00     0.029 A 
ATOM     57  N   UNL A   1      43.697  31.503  31.400  1.00  0.00    -0.354 N 
ATOM     58  N   UNL A   1      41.021  32.620  30.970  1.00  0.00    -0.248 NA
ATOM     59  C   UNL A   1      39.488  34.371  31.197  1.00  0.00     0.031 C 
ATOM     60  C   UNL A   1      45.236  32.786  32.359  1.00  0.00     0.029 A 
ATOM     61  C   UNL A   1      43.914  32.757  31.946  1.00  0.00     0.049 A 
ATOM     62  H   UNL A   1      42.843  31.191  31.022  1.00  0.00     0.167 HD
ATOM     63  C   UNL A   1      41.646  33.696  31.589  1.00  0.00     0.074 A 
ATOM     64  C   UNL A   1      40.663  34.758  31.672  1.00  0.00     0.031 C 
ATOM     65  C   UNL A   1      42.920  33.796  32.044  1.00  0.00     0.031 A 
BRANCH  52  66
ATOM     66  C   UNL A   1      46.284  28.664  31.257  1.00  0.00    -0.014 A 
ATOM     67  C   UNL A   1      47.354  28.761  30.348  1.00  0.00     0.010 A 
ATOM     68  C   UNL A   1      46.444  27.887  32.418  1.00  0.00     0.010 A 
ATOM     69  C   UNL A   1      48.537  28.049  30.567  1.00  0.00     0.020 A 
ATOM     70  C   UNL A   1      47.637  27.198  32.656  1.00  0.00     0.020 A 
ATOM     71  C   UNL A   1      48.668  27.265  31.716  1.00  0.00     0.054 A 
BRANCH  71  72
ATOM     72  S   UNL A   1      50.212  26.349  31.976  1.00  0.00     0.124 S 
ATOM     73  O   UNL A   1      50.230  25.459  30.817  1.00  0.00    -0.237 OA
ATOM     74  O   UNL A   1      51.219  27.407  31.969  1.00  0.00    -0.237 OA
ATOM     75  O   UNL A   1      50.012  25.689  33.264  1.00  0.00    -0.744 OA
ENDBRANCH  71  72
ENDBRANCH  52  66
BRANCH  53  76
ATOM     76  C   UNL A   1      37.344  32.893  29.856  1.00  0.00    -0.014 A 
ATOM     77  C   UNL A   1      36.511  33.170  30.954  1.00  0.00     0.010 A 
ATOM     78  C   UNL A   1      36.916  33.252  28.564  1.00  0.00     0.010 A 
ATOM     79  C   UNL A   1      35.272  33.789  30.765  1.00  0.00     0.020 A 
ATOM     80  C   UNL A   1      35.689  33.893  28.375  1.00  0.00     0.020 A 
ATOM     81  C   UNL A   1      34.872  34.152  29.477  1.00  0.00     0.054 A 
BRANCH  81  82
ATOM     82  S   UNL A   1      33.293  35.023  29.264  1.00  0.00     0.124 S 
ATOM     83  O   UNL A   1      32.728  34.961  30.608  1.00  0.00    -0.237 OA
ATOM     84  O   UNL A   1      33.720  36.345  28.815  1.00  0.00    -0.237 OA
ATOM     85  O   UNL A   1      32.599  34.226  28.255  1.00  0.00    -0.744 OA
ENDBRANCH  81  82
ENDBRANCH  53  76
BRANCH  65  86
ATOM     86  C   UNL A   1      43.323  35.108  32.666  1.00  0.00    -0.014 A 
ATOM     87  C   UNL A   1      43.288  35.294  34.059  1.00  0.00     0.010 A 
ATOM     88  C   UNL A   1      43.762  36.162  31.845  1.00  0.00     0.010 A 
ATOM     89  C   UNL A   1      43.640  36.525  34.616  1.00  0.00     0.020 A 
ATOM     90  C   UNL A   1      44.142  37.386  32.401  1.00  0.00     0.020 A 
ATOM     91  C   UNL A   1      44.060  37.567  33.782  1.00  0.00     0.054 A 
BRANCH  91  92
ATOM     92  S   UNL A   1      44.525  39.152  34.529  1.00  0.00     0.124 S 
ATOM     93  O   UNL A   1      43.751  40.101  33.735  1.00  0.00    -0.237 OA
ATOM     94  O   UNL A   1      44.093  38.993  35.916  1.00  0.00    -0.237 OA
ATOM     95  O   UNL A   1      45.972  39.213  34.338  1.00  0.00    -0.744 OA
ENDBRANCH  91  92
ENDBRANCH  65  86
ENDBRANCH  39  40
ENDBRANCH  31  34
ENDBRANCH  29  30
ENDBRANCH  28  29
ENDBRANCH  27  28
ENDBRANCH  26  27
ENDBRANCH   1  26
TORSDOF 21
ENDMDL
MODEL 3
REMARK VINA RESULT:      -9.7      4.316      9.883
REMARK SMILES O=C(CS(=O)(=O)NCc1ccc(N2CCOCC2)nc1)NCCCCCCNC(=O)c1ccc(-c2c3nc(c(-c4ccc(S(=O)(=O)[O-])cc4)c4ccc([nH]4)c(-c4ccc(S(=O)(=O)[O-])cc4)c4nc(c(-c5ccc(S(=O)(=O)[O-])cc5)c5ccc2[nH]5)C=C4)C=C3)cc1
REMARK SMILES IDX 23 1 22 2 21 3 1 4 2 5 3 7 4 8 5 9 6 10 7 11 8 13 9 14 10 15
REMARK SMILES IDX 20 16 11 17 19 18 12 19 13 20 14 21 18 22 15 23 17 24 16 25
REMARK SMILES IDX 24 26 25 27 26 28 27 29 28 30 29 31 30 33 31 34 32 35 90 36
REMARK SMILES IDX 33 37 89 38 34 39 35 40 36 41 83 42 37 43 88 44 82 45 84 46
REMARK SMILES IDX 38 47 87 48 81 49 80 50 39 52 69 53 50 54 68 55 51 56 54 57
REMARK SMILES IDX 67 58 85 59 52 60 53 61 66 63 86 64 55 65 40 66 41 67 49 68
REMARK SMILES IDX 42 69 48 70 43 71 44 72 45 73 46 74 47 75 70 76 71 77 79 78
REMARK SMILES IDX 72 79 78 80 73 81 74 82 75 83 76 84 77 85 56 86 57 87 65 88
REMARK SMILES IDX 58 89 64 90 59 91 60 92 61 93 62 94 63 95
REMARK H PARENT 21 6 7 12 28 32 84 51 54 62
REMARK Flexibility Score: inf
ROOT
ATOM      1  C   UNL A   1      34.501  30.195  27.169  1.00  0.00     0.021 C 
ENDROOT
BRANCH   1   2
ATOM      2  C   UNL A   1      33.123  29.693  26.735  1.00  0.00     0.116 C 
BRANCH   2   3
ATOM      3  N   UNL A   1      32.982  28.250  26.872  1.00  0.00    -0.355 N 
ATOM      4  O   UNL A   1      33.685  27.803  24.740  1.00  0.00    -0.274 OA
ATOM      5  C   UNL A   1      33.301  27.398  25.837  1.00  0.00     0.236 C 
ATOM      6  H   UNL A   1      32.653  27.875  27.721  1.00  0.00     0.163 HD
BRANCH   5   7
ATOM      7  C   UNL A   1      33.115  25.943  26.076  1.00  0.00     0.253 C 
BRANCH   7   8
ATOM      8  S   UNL A   1      31.433  25.447  26.338  1.00  0.00     0.220 S 
ATOM      9  O   UNL A   1      31.472  24.293  27.217  1.00  0.00    -0.212 OA
ATOM     10  O   UNL A   1      30.707  26.617  26.773  1.00  0.00    -0.212 OA
BRANCH   8  11
ATOM     11  N   UNL A   1      30.684  25.011  24.937  1.00  0.00    -0.210 NA
ATOM     12  H   UNL A   1      29.693  25.161  25.127  1.00  0.00     0.141 HD
BRANCH  11  13
ATOM     13  C   UNL A   1      30.867  25.514  23.580  1.00  0.00     0.135 C 
BRANCH  13  14
ATOM     14  C   UNL A   1      30.355  26.864  23.166  1.00  0.00    -0.015 A 
ATOM     15  C   UNL A   1      29.021  27.187  23.438  1.00  0.00     0.010 A 
ATOM     16  C   UNL A   1      31.106  27.883  22.612  1.00  0.00     0.118 A 
ATOM     17  C   UNL A   1      28.529  28.463  23.159  1.00  0.00     0.047 A 
ATOM     18  N   UNL A   1      30.645  29.125  22.321  1.00  0.00    -0.239 NA
ATOM     19  C   UNL A   1      29.365  29.423  22.601  1.00  0.00     0.128 A 
BRANCH  19  20
ATOM     20  N   UNL A   1      28.882  30.665  22.265  1.00  0.00    -0.352 N 
ATOM     21  C   UNL A   1      27.944  30.827  21.150  1.00  0.00     0.146 C 
ATOM     22  C   UNL A   1      28.692  31.654  23.330  1.00  0.00     0.146 C 
ATOM     23  C   UNL A   1      28.068  32.254  20.599  1.00  0.00     0.181 C 
ATOM     24  C   UNL A   1      28.818  33.050  22.701  1.00  0.00     0.181 C 
ATOM     25  O   UNL A   1      27.874  33.239  21.631  1.00  0.00    -0.378 OA
ENDBRANCH  19  20
ENDBRANCH  13  14
ENDBRANCH  11  13
ENDBRANCH   8  11
ENDBRANCH   7   8
ENDBRANCH   5   7
ENDBRANCH   2   3
ENDBRANCH   1   2
BRANCH   1  26
ATOM     26  C   UNL A   1      34.499  31.085  28.417  1.00  0.00     0.002 C 
BRANCH  26  27
ATOM     27  C   UNL A   1      34.948  32.529  28.182  1.00  0.00     0.002 C 
BRANCH  27  28
ATOM     28  C   UNL A   1      33.840  33.580  28.250  1.00  0.00     0.021 C 
BRANCH  28  29
ATOM     29  C   UNL A   1      34.162  34.815  29.084  1.00  0.00     0.116 C 
BRANCH  29  30
ATOM     30  N   UNL A   1      33.231  35.022  30.183  1.00  0.00    -0.352 N 
ATOM     31  C   UNL A   1      33.358  34.764  31.527  1.00  0.00     0.251 C 
ATOM     32  H   UNL A   1      32.366  35.412  29.920  1.00  0.00     0.163 HD
ATOM     33  O   UNL A   1      32.387  34.917  32.264  1.00  0.00    -0.269 OA
BRANCH  31  34
ATOM     34  C   UNL A   1      34.638  34.272  32.089  1.00  0.00     0.039 A 
ATOM     35  C   UNL A   1      34.678  32.988  32.644  1.00  0.00     0.014 A 
ATOM     36  C   UNL A   1      35.791  35.058  32.085  1.00  0.00     0.014 A 
ATOM     37  C   UNL A   1      35.887  32.471  33.116  1.00  0.00     0.010 A 
ATOM     38  C   UNL A   1      37.013  34.508  32.468  1.00  0.00     0.010 A 
ATOM     39  C   UNL A   1      37.075  33.207  32.990  1.00  0.00    -0.014 A 
BRANCH  39  40
ATOM     40  C   UNL A   1      38.388  32.623  33.376  1.00  0.00     0.031 A 
ATOM     41  C   UNL A   1      38.971  32.875  34.742  1.00  0.00     0.074 A 
ATOM     42  C   UNL A   1      39.086  31.910  32.470  1.00  0.00     0.049 A 
ATOM     43  N   UNL A   1      40.103  32.452  35.244  1.00  0.00    -0.248 NA
ATOM     44  C   UNL A   1      38.198  33.737  35.649  1.00  0.00     0.031 C 
ATOM     45  C   UNL A   1      38.662  31.641  31.093  1.00  0.00     0.029 A 
ATOM     46  N   UNL A   1      40.300  31.277  32.570  1.00  0.00    -0.354 N 
ATOM     47  C   UNL A   1      40.188  33.013  36.514  1.00  0.00     0.074 A 
ATOM     48  C   UNL A   1      39.018  33.847  36.684  1.00  0.00     0.031 C 
ATOM     49  C   UNL A   1      39.575  30.859  30.495  1.00  0.00     0.029 A 
ATOM     50  C   UNL A   1      40.667  30.604  31.428  1.00  0.00     0.049 A 
ATOM     51  H   UNL A   1      40.855  31.301  33.383  1.00  0.00     0.167 HD
ATOM     52  C   UNL A   1      41.141  32.836  37.462  1.00  0.00     0.031 A 
ATOM     53  C   UNL A   1      41.757  29.859  31.160  1.00  0.00     0.031 A 
ATOM     54  C   UNL A   1      42.297  31.994  37.296  1.00  0.00     0.049 A 
ATOM     55  C   UNL A   1      42.795  29.665  32.230  1.00  0.00     0.074 A 
ATOM     56  C   UNL A   1      43.277  31.685  38.224  1.00  0.00     0.029 A 
ATOM     57  N   UNL A   1      42.633  31.332  36.125  1.00  0.00    -0.354 N 
ATOM     58  N   UNL A   1      42.813  30.135  33.454  1.00  0.00    -0.248 NA
ATOM     59  C   UNL A   1      43.952  28.829  31.884  1.00  0.00     0.031 C 
ATOM     60  C   UNL A   1      44.235  30.881  37.595  1.00  0.00     0.029 A 
ATOM     61  C   UNL A   1      43.822  30.641  36.295  1.00  0.00     0.049 A 
ATOM     62  H   UNL A   1      42.103  31.349  35.295  1.00  0.00     0.167 HD
ATOM     63  C   UNL A   1      43.976  29.638  34.032  1.00  0.00     0.074 A 
ATOM     64  C   UNL A   1      44.620  28.813  33.028  1.00  0.00     0.031 C 
ATOM     65  C   UNL A   1      44.464  29.843  35.281  1.00  0.00     0.031 A 
BRANCH  52  66
ATOM     66  C   UNL A   1      40.973  33.582  38.761  1.00  0.00    -0.014 A 
ATOM     67  C   UNL A   1      40.230  33.039  39.826  1.00  0.00     0.010 A 
ATOM     68  C   UNL A   1      41.580  34.840  38.926  1.00  0.00     0.010 A 
ATOM     69  C   UNL A   1      40.050  33.764  41.007  1.00  0.00     0.020 A 
ATOM     70  C   UNL A   1      41.428  35.555  40.118  1.00  0.00     0.020 A 
ATOM     71  C   UNL A   1      40.644  35.021  41.142  1.00  0.00     0.054 A 
BRANCH  71  72
ATOM     72  S   UNL A   1      40.392  35.943  42.684  1.00  0.00     0.124 S 
ATOM     73  O   UNL A   1      40.370  34.869  43.675  1.00  0.00    -0.237 OA
ATOM     74  O   UNL A   1      41.562  36.816  42.732  1.00  0.00    -0.237 OA
ATOM     75  O   UNL A   1      39.116  36.625  42.478  1.00  0.00    -0.744 OA
ENDBRANCH  71  72
ENDBRANCH  52  66
BRANCH  53  76
ATOM     76  C   UNL A   1      41.896  29.205  29.830  1.00  0.00    -0.014 A 
ATOM     77  C   UNL A   1      41.411  27.901  29.626  1.00  0.00     0.010 A 
ATOM     78  C   UNL A   1      42.483  29.894  28.752  1.00  0.00     0.010 A 
ATOM     79  C   UNL A   1      41.515  27.295  28.372  1.00  0.00     0.020 A 
ATOM     80  C   UNL A   1      42.566  29.300  27.491  1.00  0.00     0.020 A 
ATOM     81  C   UNL A   1      42.087  28.001  27.310  1.00  0.00     0.054 A 
BRANCH  81  82
ATOM     82  S   UNL A   1      42.142  27.221  25.671  1.00  0.00     0.124 S 
ATOM     83  O   UNL A   1      43.300  26.342  25.792  1.00  0.00    -0.237 OA
ATOM     84  O   UNL A   1      40.845  26.557  25.594  1.00  0.00    -0.237 OA
ATOM     85  O   UNL A   1      42.307  28.354  24.761  1.00  0.00    -0.744 OA
ENDBRANCH  81  82
ENDBRANCH  53  76
BRANCH  65  86
ATOM     86  C   UNL A   1      45.756  29.153  35.632  1.00  0.00    -0.014 A 
ATOM     87  C   UNL A   1      46.997  29.716  35.288  1.00  0.00     0.010 A 
ATOM     88  C   UNL A   1      45.727  27.935  36.334  1.00  0.00     0.010 A 
ATOM     89  C   UNL A   1      48.185  29.050  35.598  1.00  0.00     0.020 A 
ATOM     90  C   UNL A   1      46.913  27.280  36.672  1.00  0.00     0.020 A 
ATOM     91  C   UNL A   1      48.135  27.832  36.284  1.00  0.00     0.054 A 
BRANCH  91  92
ATOM     92  S   UNL A   1      49.691  26.992  36.689  1.00  0.00     0.124 S 
ATOM     93  O   UNL A   1      49.263  25.602  36.807  1.00  0.00    -0.237 OA
ATOM     94  O   UNL A   1      50.530  27.295  35.531  1.00  0.00    -0.237 OA
ATOM     95  O   UNL A   1      50.111  27.625  37.937  1.00  0.00    -0.744 OA
ENDBRANCH  91  92
ENDBRANCH  65  86
ENDBRANCH  39  40
ENDBRANCH  31  34
ENDBRANCH  29  30
ENDBRANCH  28  29
ENDBRANCH  27  28
ENDBRANCH  26  27
ENDBRANCH   1  26
TORSDOF 21
ENDMDL
