MODEL 1
REMARK VINA RESULT:     -10.3      0.000      0.000
REMARK SMILES COc1cc(CC(=O)N[C@@H](CC(=O)NCCCCCCNC(=O)c2ccc(-c3c4nc(c(-c5ccc(S(=O)(=O)[O-])cc5)c5ccc([nH]5)c(-c5ccc(S(=O)(=O)[O-])cc5)c5nc(c(-c6ccc(S(=O)(=O)[O-])cc6)c6ccc3[nH]6)C=C5)C=C4)cc2)c2cccs2)ccc1C
REMARK SMILES IDX 16 1 15 2 14 3 12 4 13 5 11 7 10 8 9 9 7 10 8 11 6 13 5 14
REMARK SMILES IDX 3 15 4 16 91 17 90 18 92 19 89 20 2 21 1 22 84 23 85 24
REMARK SMILES IDX 88 25 86 26 87 27 17 28 18 29 19 30 20 31 21 32 22 33 23 35
REMARK SMILES IDX 24 36 25 37 83 38 26 39 82 40 27 41 28 42 29 43 76 44 30 45
REMARK SMILES IDX 81 46 75 47 77 48 31 49 80 50 74 51 73 52 32 54 62 55 43 56
REMARK SMILES IDX 61 57 44 58 47 59 60 60 78 61 45 62 46 63 59 65 79 66 48 67
REMARK SMILES IDX 33 68 34 69 42 70 35 71 41 72 36 73 37 74 38 75 39 76 40 77
REMARK SMILES IDX 63 78 64 79 72 80 65 81 71 82 66 83 67 84 68 85 69 86 70 87
REMARK SMILES IDX 49 88 50 89 58 90 51 91 57 92 52 93 53 94 54 95 55 96 56 97
REMARK H PARENT 14 6 9 12 21 34 77 53 47 64
REMARK Flexibility Score: inf
ROOT
ATOM      1  C   UNL A   1      41.855  34.685  28.980  1.00  0.00     0.021 C 
ENDROOT
BRANCH   1   2
ATOM      2  C   UNL A   1      41.876  36.097  28.392  1.00  0.00     0.116 C 
BRANCH   2   3
ATOM      3  N   UNL A   1      43.226  36.566  28.149  1.00  0.00    -0.356 N 
ATOM      4  C   UNL A   1      43.695  37.828  27.974  1.00  0.00     0.222 C 
ATOM      5  O   UNL A   1      44.920  37.989  27.985  1.00  0.00    -0.275 OA
ATOM      6  H   UNL A   1      43.910  35.859  28.105  1.00  0.00     0.163 HD
BRANCH   4   7
ATOM      7  C   UNL A   1      42.772  39.022  27.819  1.00  0.00     0.130 C 
BRANCH   7   8
ATOM      8  C   UNL A   1      43.283  40.427  28.179  1.00  0.00     0.131 C 
BRANCH   8   9
ATOM      9  N   UNL A   1      44.566  40.733  27.560  1.00  0.00    -0.348 N 
ATOM     10  C   UNL A   1      44.863  41.514  26.481  1.00  0.00     0.224 C 
ATOM     11  O   UNL A   1      45.982  41.403  25.974  1.00  0.00    -0.275 OA
ATOM     12  H   UNL A   1      45.344  40.309  27.989  1.00  0.00     0.164 HD
BRANCH  10  13
ATOM     13  C   UNL A   1      43.880  42.548  25.967  1.00  0.00     0.135 C 
BRANCH  13  14
ATOM     14  C   UNL A   1      44.401  43.485  24.906  1.00  0.00    -0.035 A 
ATOM     15  C   UNL A   1      44.390  44.212  22.573  1.00  0.00     0.122 A 
ATOM     16  C   UNL A   1      43.894  43.402  23.598  1.00  0.00     0.051 A 
ATOM     17  C   UNL A   1      45.408  45.135  22.858  1.00  0.00    -0.009 A 
ATOM     18  C   UNL A   1      45.874  45.260  24.179  1.00  0.00     0.007 A 
ATOM     19  C   UNL A   1      46.000  46.029  21.804  1.00  0.00     0.048 C 
ATOM     20  C   UNL A   1      45.373  44.444  25.195  1.00  0.00     0.005 A 
BRANCH  15  21
ATOM     21  O   UNL A   1      43.968  44.145  21.270  1.00  0.00    -0.496 OA
ATOM     22  C   UNL A   1      43.838  42.846  20.702  1.00  0.00     0.278 C 
ENDBRANCH  15  21
ENDBRANCH  13  14
ENDBRANCH  10  13
ENDBRANCH   8   9
BRANCH   8  23
ATOM     23  C   UNL A   1      43.376  40.791  29.646  1.00  0.00     0.027 A 
ATOM     24  C   UNL A   1      42.439  41.258  30.549  1.00  0.00     0.017 A 
ATOM     25  S   UNL A   1      44.915  40.620  30.424  1.00  0.00    -0.147 S 
ATOM     26  C   UNL A   1      42.962  41.428  31.865  1.00  0.00     0.012 A 
ATOM     27  C   UNL A   1      44.292  41.096  31.937  1.00  0.00     0.065 A 
ENDBRANCH   8  23
ENDBRANCH   7   8
ENDBRANCH   4   7
ENDBRANCH   2   3
ENDBRANCH   1   2
BRANCH   1  28
ATOM     28  C   UNL A   1      40.910  34.472  30.168  1.00  0.00     0.002 C 
BRANCH  28  29
ATOM     29  C   UNL A   1      40.177  33.125  30.231  1.00  0.00     0.002 C 
BRANCH  29  30
ATOM     30  C   UNL A   1      38.654  33.176  30.094  1.00  0.00     0.021 C 
BRANCH  30  31
ATOM     31  C   UNL A   1      37.934  31.983  30.710  1.00  0.00     0.116 C 
BRANCH  31  32
ATOM     32  N   UNL A   1      36.601  31.784  30.158  1.00  0.00    -0.352 N 
ATOM     33  C   UNL A   1      36.231  30.929  29.134  1.00  0.00     0.251 C 
ATOM     34  H   UNL A   1      35.880  32.320  30.560  1.00  0.00     0.163 HD
ATOM     35  O   UNL A   1      35.151  30.984  28.579  1.00  0.00    -0.269 OA
BRANCH  33  36
ATOM     36  C   UNL A   1      37.174  29.834  28.831  1.00  0.00     0.039 A 
ATOM     37  C   UNL A   1      37.391  28.891  29.840  1.00  0.00     0.014 A 
ATOM     38  C   UNL A   1      38.006  29.914  27.717  1.00  0.00     0.014 A 
ATOM     39  C   UNL A   1      38.546  28.118  29.810  1.00  0.00     0.010 A 
ATOM     40  C   UNL A   1      39.193  29.207  27.732  1.00  0.00     0.010 A 
ATOM     41  C   UNL A   1      39.482  28.346  28.798  1.00  0.00    -0.014 A 
BRANCH  41  42
ATOM     42  C   UNL A   1      40.825  27.780  28.829  1.00  0.00     0.031 A 
ATOM     43  C   UNL A   1      41.039  26.373  28.430  1.00  0.00     0.074 A 
ATOM     44  C   UNL A   1      41.875  28.531  29.230  1.00  0.00     0.049 A 
ATOM     45  N   UNL A   1      41.957  25.608  28.922  1.00  0.00    -0.248 NA
ATOM     46  C   UNL A   1      40.174  25.696  27.471  1.00  0.00     0.031 C 
ATOM     47  C   UNL A   1      43.289  28.182  29.120  1.00  0.00     0.029 A 
ATOM     48  N   UNL A   1      41.868  29.673  30.033  1.00  0.00    -0.354 N 
ATOM     49  C   UNL A   1      41.991  24.464  28.154  1.00  0.00     0.074 A 
ATOM     50  C   UNL A   1      40.804  24.526  27.333  1.00  0.00     0.031 C 
ATOM     51  C   UNL A   1      43.970  28.872  30.048  1.00  0.00     0.029 A 
ATOM     52  C   UNL A   1      42.996  29.585  30.860  1.00  0.00     0.049 A 
ATOM     53  H   UNL A   1      41.202  30.397  30.020  1.00  0.00     0.167 HD
ATOM     54  C   UNL A   1      43.094  23.663  28.173  1.00  0.00     0.031 A 
ATOM     55  C   UNL A   1      42.954  29.587  32.224  1.00  0.00     0.031 A 
ATOM     56  C   UNL A   1      44.107  24.156  29.102  1.00  0.00     0.049 A 
ATOM     57  C   UNL A   1      43.608  28.366  32.831  1.00  0.00     0.074 A 
ATOM     58  C   UNL A   1      45.260  24.900  28.908  1.00  0.00     0.029 A 
ATOM     59  N   UNL A   1      43.861  24.153  30.469  1.00  0.00    -0.354 N 
ATOM     60  N   UNL A   1      43.859  27.270  32.169  1.00  0.00    -0.248 NA
ATOM     61  C   UNL A   1      43.983  28.263  34.239  1.00  0.00     0.031 C 
ATOM     62  C   UNL A   1      45.676  25.398  30.167  1.00  0.00     0.029 A 
ATOM     63  C   UNL A   1      44.793  24.935  31.126  1.00  0.00     0.049 A 
ATOM     64  H   UNL A   1      43.128  23.664  30.908  1.00  0.00     0.167 HD
ATOM     65  C   UNL A   1      44.405  26.337  33.012  1.00  0.00     0.074 A 
ATOM     66  C   UNL A   1      44.470  27.009  34.296  1.00  0.00     0.031 C 
ATOM     67  C   UNL A   1      44.750  25.090  32.574  1.00  0.00     0.031 A 
BRANCH  54  68
ATOM     68  C   UNL A   1      43.387  22.626  27.107  1.00  0.00    -0.014 A 
ATOM     69  C   UNL A   1      42.631  21.434  27.072  1.00  0.00     0.010 A 
ATOM     70  C   UNL A   1      44.421  22.728  26.157  1.00  0.00     0.010 A 
ATOM     71  C   UNL A   1      42.966  20.361  26.232  1.00  0.00     0.020 A 
ATOM     72  C   UNL A   1      44.793  21.650  25.337  1.00  0.00     0.020 A 
ATOM     73  C   UNL A   1      44.071  20.463  25.394  1.00  0.00     0.054 A 
BRANCH  73  74
ATOM     74  S   UNL A   1      44.555  19.030  24.396  1.00  0.00     0.124 S 
ATOM     75  O   UNL A   1      44.552  19.575  23.040  1.00  0.00    -0.237 OA
ATOM     76  O   UNL A   1      45.867  18.697  24.939  1.00  0.00    -0.237 OA
ATOM     77  O   UNL A   1      43.503  18.050  24.664  1.00  0.00    -0.744 OA
ENDBRANCH  73  74
ENDBRANCH  54  68
BRANCH  55  78
ATOM     78  C   UNL A   1      41.783  30.292  32.811  1.00  0.00    -0.014 A 
ATOM     79  C   UNL A   1      40.641  29.525  33.133  1.00  0.00     0.010 A 
ATOM     80  C   UNL A   1      41.934  31.562  33.390  1.00  0.00     0.010 A 
ATOM     81  C   UNL A   1      39.748  29.957  34.117  1.00  0.00     0.020 A 
ATOM     82  C   UNL A   1      41.037  31.997  34.377  1.00  0.00     0.020 A 
ATOM     83  C   UNL A   1      39.983  31.168  34.769  1.00  0.00     0.054 A 
BRANCH  83  84
ATOM     84  S   UNL A   1      38.987  31.559  36.240  1.00  0.00     0.124 S 
ATOM     85  O   UNL A   1      38.365  30.274  36.542  1.00  0.00    -0.237 OA
ATOM     86  O   UNL A   1      40.002  32.005  37.194  1.00  0.00    -0.237 OA
ATOM     87  O   UNL A   1      38.084  32.602  35.765  1.00  0.00    -0.744 OA
ENDBRANCH  83  84
ENDBRANCH  55  78
BRANCH  67  88
ATOM     88  C   UNL A   1      45.180  23.919  33.428  1.00  0.00    -0.014 A 
ATOM     89  C   UNL A   1      46.419  23.818  34.079  1.00  0.00     0.010 A 
ATOM     90  C   UNL A   1      44.238  22.893  33.696  1.00  0.00     0.010 A 
ATOM     91  C   UNL A   1      46.725  22.723  34.903  1.00  0.00     0.020 A 
ATOM     92  C   UNL A   1      44.515  21.822  34.550  1.00  0.00     0.020 A 
ATOM     93  C   UNL A   1      45.772  21.731  35.131  1.00  0.00     0.054 A 
BRANCH  93  94
ATOM     94  S   UNL A   1      46.153  20.358  36.249  1.00  0.00     0.124 S 
ATOM     95  O   UNL A   1      45.677  20.871  37.530  1.00  0.00    -0.237 OA
ATOM     96  O   UNL A   1      45.378  19.253  35.688  1.00  0.00    -0.237 OA
ATOM     97  O   UNL A   1      47.602  20.212  36.130  1.00  0.00    -0.744 OA
ENDBRANCH  93  94
ENDBRANCH  67  88
ENDBRANCH  41  42
ENDBRANCH  33  36
ENDBRANCH  31  32
ENDBRANCH  30  31
ENDBRANCH  29  30
ENDBRANCH  28  29
ENDBRANCH   1  28
TORSDOF 22
ENDMDL
MODEL 2
REMARK VINA RESULT:      -9.9      3.941      6.190
REMARK SMILES COc1cc(CC(=O)N[C@@H](CC(=O)NCCCCCCNC(=O)c2ccc(-c3c4nc(c(-c5ccc(S(=O)(=O)[O-])cc5)c5ccc([nH]5)c(-c5ccc(S(=O)(=O)[O-])cc5)c5nc(c(-c6ccc(S(=O)(=O)[O-])cc6)c6ccc3[nH]6)C=C5)C=C4)cc2)c2cccs2)ccc1C
REMARK SMILES IDX 16 1 15 2 14 3 12 4 13 5 11 7 10 8 9 9 7 10 8 11 6 13 5 14
REMARK SMILES IDX 3 15 4 16 91 17 90 18 92 19 89 20 2 21 1 22 84 23 85 24
REMARK SMILES IDX 88 25 86 26 87 27 17 28 18 29 19 30 20 31 21 32 22 33 23 35
REMARK SMILES IDX 24 36 25 37 83 38 26 39 82 40 27 41 28 42 29 43 76 44 30 45
REMARK SMILES IDX 81 46 75 47 77 48 31 49 80 50 74 51 73 52 32 54 62 55 43 56
REMARK SMILES IDX 61 57 44 58 47 59 60 60 78 61 45 62 46 63 59 65 79 66 48 67
REMARK SMILES IDX 33 68 34 69 42 70 35 71 41 72 36 73 37 74 38 75 39 76 40 77
REMARK SMILES IDX 63 78 64 79 72 80 65 81 71 82 66 83 67 84 68 85 69 86 70 87
REMARK SMILES IDX 49 88 50 89 58 90 51 91 57 92 52 93 53 94 54 95 55 96 56 97
REMARK H PARENT 14 6 9 12 21 34 77 53 47 64
REMARK Flexibility Score: inf
ROOT
ATOM      1  C   UNL A   1      42.098  34.228  29.551  1.00  0.00     0.021 C 
ENDROOT
BRANCH   1   2
ATOM      2  C   UNL A   1      42.480  35.457  28.724  1.00  0.00     0.116 C 
BRANCH   2   3
ATOM      3  N   UNL A   1      42.926  35.101  27.392  1.00  0.00    -0.356 N 
ATOM      4  C   UNL A   1      44.183  35.019  26.884  1.00  0.00     0.222 C 
ATOM      5  O   UNL A   1      44.317  34.495  25.774  1.00  0.00    -0.275 OA
ATOM      6  H   UNL A   1      42.206  34.884  26.757  1.00  0.00     0.163 HD
BRANCH   4   7
ATOM      7  C   UNL A   1      45.401  35.497  27.653  1.00  0.00     0.130 C 
BRANCH   7   8
ATOM      8  C   UNL A   1      46.226  34.488  28.468  1.00  0.00     0.131 C 
BRANCH   8   9
ATOM      9  N   UNL A   1      46.406  34.899  29.854  1.00  0.00    -0.348 N 
ATOM     10  C   UNL A   1      45.857  34.405  31.002  1.00  0.00     0.224 C 
ATOM     11  O   UNL A   1      45.939  35.087  32.026  1.00  0.00    -0.275 OA
ATOM     12  H   UNL A   1      47.023  35.655  29.985  1.00  0.00     0.164 HD
BRANCH  10  13
ATOM     13  C   UNL A   1      45.235  33.022  31.040  1.00  0.00     0.135 C 
BRANCH  13  14
ATOM     14  C   UNL A   1      46.112  31.918  31.576  1.00  0.00    -0.035 A 
ATOM     15  C   UNL A   1      47.905  30.302  31.193  1.00  0.00     0.122 A 
ATOM     16  C   UNL A   1      47.109  31.364  30.756  1.00  0.00     0.051 A 
ATOM     17  C   UNL A   1      47.711  29.785  32.484  1.00  0.00    -0.009 A 
ATOM     18  C   UNL A   1      46.755  30.378  33.326  1.00  0.00     0.007 A 
ATOM     19  C   UNL A   1      48.519  28.635  33.017  1.00  0.00     0.048 C 
ATOM     20  C   UNL A   1      45.964  31.438  32.879  1.00  0.00     0.005 A 
BRANCH  15  21
ATOM     21  O   UNL A   1      48.860  29.691  30.423  1.00  0.00    -0.496 OA
ATOM     22  C   UNL A   1      49.641  30.530  29.579  1.00  0.00     0.278 C 
ENDBRANCH  15  21
ENDBRANCH  13  14
ENDBRANCH  10  13
ENDBRANCH   8   9
BRANCH   8  23
ATOM     23  C   UNL A   1      47.579  34.079  27.925  1.00  0.00     0.027 A 
ATOM     24  C   UNL A   1      48.864  34.499  28.217  1.00  0.00     0.017 A 
ATOM     25  S   UNL A   1      47.620  32.854  26.700  1.00  0.00    -0.147 S 
ATOM     26  C   UNL A   1      49.865  33.798  27.483  1.00  0.00     0.012 A 
ATOM     27  C   UNL A   1      49.324  32.861  26.638  1.00  0.00     0.065 A 
ENDBRANCH   8  23
ENDBRANCH   7   8
ENDBRANCH   4   7
ENDBRANCH   2   3
ENDBRANCH   1   2
BRANCH   1  28
ATOM     28  C   UNL A   1      40.726  34.281  30.231  1.00  0.00     0.002 C 
BRANCH  28  29
ATOM     29  C   UNL A   1      39.933  32.968  30.286  1.00  0.00     0.002 C 
BRANCH  29  30
ATOM     30  C   UNL A   1      38.464  33.047  29.867  1.00  0.00     0.021 C 
BRANCH  30  31
ATOM     31  C   UNL A   1      37.561  32.043  30.573  1.00  0.00     0.116 C 
BRANCH  31  32
ATOM     32  N   UNL A   1      36.284  31.864  29.897  1.00  0.00    -0.352 N 
ATOM     33  C   UNL A   1      36.012  31.054  28.808  1.00  0.00     0.251 C 
ATOM     34  H   UNL A   1      35.525  32.377  30.258  1.00  0.00     0.163 HD
ATOM     35  O   UNL A   1      34.985  31.128  28.163  1.00  0.00    -0.269 OA
BRANCH  33  36
ATOM     36  C   UNL A   1      36.988  29.978  28.540  1.00  0.00     0.039 A 
ATOM     37  C   UNL A   1      37.222  29.067  29.576  1.00  0.00     0.014 A 
ATOM     38  C   UNL A   1      37.828  30.053  27.432  1.00  0.00     0.014 A 
ATOM     39  C   UNL A   1      38.398  28.326  29.575  1.00  0.00     0.010 A 
ATOM     40  C   UNL A   1      39.034  29.380  27.475  1.00  0.00     0.010 A 
ATOM     41  C   UNL A   1      39.337  28.554  28.565  1.00  0.00    -0.014 A 
BRANCH  41  42
ATOM     42  C   UNL A   1      40.694  28.027  28.622  1.00  0.00     0.031 A 
ATOM     43  C   UNL A   1      40.953  26.621  28.245  1.00  0.00     0.074 A 
ATOM     44  C   UNL A   1      41.718  28.812  29.026  1.00  0.00     0.049 A 
ATOM     45  N   UNL A   1      41.885  25.890  28.760  1.00  0.00    -0.248 NA
ATOM     46  C   UNL A   1      40.120  25.908  27.284  1.00  0.00     0.031 C 
ATOM     47  C   UNL A   1      43.142  28.502  28.940  1.00  0.00     0.029 A 
ATOM     48  N   UNL A   1      41.667  29.964  29.813  1.00  0.00    -0.354 N 
ATOM     49  C   UNL A   1      41.962  24.737  28.009  1.00  0.00     0.074 A 
ATOM     50  C   UNL A   1      40.784  24.754  27.171  1.00  0.00     0.031 C 
ATOM     51  C   UNL A   1      43.791  29.224  29.867  1.00  0.00     0.029 A 
ATOM     52  C   UNL A   1      42.786  29.920  30.657  1.00  0.00     0.049 A 
ATOM     53  H   UNL A   1      40.981  30.670  29.781  1.00  0.00     0.167 HD
ATOM     54  C   UNL A   1      43.086  23.967  28.053  1.00  0.00     0.031 A 
ATOM     55  C   UNL A   1      42.725  29.939  32.019  1.00  0.00     0.031 A 
ATOM     56  C   UNL A   1      44.072  24.502  28.988  1.00  0.00     0.049 A 
ATOM     57  C   UNL A   1      43.405  28.745  32.652  1.00  0.00     0.074 A 
ATOM     58  C   UNL A   1      45.207  25.275  28.800  1.00  0.00     0.029 A 
ATOM     59  N   UNL A   1      43.808  24.509  30.352  1.00  0.00    -0.354 N 
ATOM     60  N   UNL A   1      43.695  27.649  32.009  1.00  0.00    -0.248 NA
ATOM     61  C   UNL A   1      43.763  28.672  34.066  1.00  0.00     0.031 C 
ATOM     62  C   UNL A   1      45.592  25.801  30.057  1.00  0.00     0.029 A 
ATOM     63  C   UNL A   1      44.709  25.326  31.010  1.00  0.00     0.049 A 
ATOM     64  H   UNL A   1      43.083  24.006  30.788  1.00  0.00     0.167 HD
ATOM     65  C   UNL A   1      44.256  26.742  32.871  1.00  0.00     0.074 A 
ATOM     66  C   UNL A   1      44.285  27.433  34.147  1.00  0.00     0.031 C 
ATOM     67  C   UNL A   1      44.642  25.500  32.455  1.00  0.00     0.031 A 
BRANCH  54  68
ATOM     68  C   UNL A   1      43.423  22.924  27.006  1.00  0.00    -0.014 A 
ATOM     69  C   UNL A   1      42.667  21.734  26.943  1.00  0.00     0.010 A 
ATOM     70  C   UNL A   1      44.497  23.020  26.101  1.00  0.00     0.010 A 
ATOM     71  C   UNL A   1      43.035  20.657  26.124  1.00  0.00     0.020 A 
ATOM     72  C   UNL A   1      44.902  21.937  25.303  1.00  0.00     0.020 A 
ATOM     73  C   UNL A   1      44.176  20.752  25.334  1.00  0.00     0.054 A 
BRANCH  73  74
ATOM     74  S   UNL A   1      44.699  19.313  24.364  1.00  0.00     0.124 S 
ATOM     75  O   UNL A   1      43.785  18.272  24.829  1.00  0.00    -0.237 OA
ATOM     76  O   UNL A   1      44.492  19.767  22.993  1.00  0.00    -0.237 OA
ATOM     77  O   UNL A   1      46.095  19.123  24.752  1.00  0.00    -0.744 OA
ENDBRANCH  73  74
ENDBRANCH  54  68
BRANCH  55  78
ATOM     78  C   UNL A   1      41.527  30.618  32.581  1.00  0.00    -0.014 A 
ATOM     79  C   UNL A   1      40.343  29.862  32.726  1.00  0.00     0.010 A 
ATOM     80  C   UNL A   1      41.661  31.816  33.302  1.00  0.00     0.010 A 
ATOM     81  C   UNL A   1      39.382  30.219  33.674  1.00  0.00     0.020 A 
ATOM     82  C   UNL A   1      40.695  32.176  34.253  1.00  0.00     0.020 A 
ATOM     83  C   UNL A   1      39.591  31.347  34.468  1.00  0.00     0.054 A 
BRANCH  83  84
ATOM     84  S   UNL A   1      38.484  31.617  35.887  1.00  0.00     0.124 S 
ATOM     85  O   UNL A   1      39.250  32.554  36.702  1.00  0.00    -0.237 OA
ATOM     86  O   UNL A   1      37.290  32.169  35.249  1.00  0.00    -0.237 OA
ATOM     87  O   UNL A   1      38.325  30.278  36.445  1.00  0.00    -0.744 OA
ENDBRANCH  83  84
ENDBRANCH  55  78
BRANCH  67  88
ATOM     88  C   UNL A   1      45.092  24.353  33.331  1.00  0.00    -0.014 A 
ATOM     89  C   UNL A   1      44.320  23.217  33.618  1.00  0.00     0.010 A 
ATOM     90  C   UNL A   1      46.425  24.351  33.815  1.00  0.00     0.010 A 
ATOM     91  C   UNL A   1      44.828  22.163  34.395  1.00  0.00     0.020 A 
ATOM     92  C   UNL A   1      46.957  23.289  34.551  1.00  0.00     0.020 A 
ATOM     93  C   UNL A   1      46.143  22.208  34.859  1.00  0.00     0.054 A 
BRANCH  93  94
ATOM     94  S   UNL A   1      46.810  20.815  35.804  1.00  0.00     0.124 S 
ATOM     95  O   UNL A   1      45.669  20.440  36.635  1.00  0.00    -0.237 OA
ATOM     96  O   UNL A   1      47.169  19.854  34.764  1.00  0.00    -0.237 OA
ATOM     97  O   UNL A   1      47.943  21.397  36.519  1.00  0.00    -0.744 OA
ENDBRANCH  93  94
ENDBRANCH  67  88
ENDBRANCH  41  42
ENDBRANCH  33  36
ENDBRANCH  31  32
ENDBRANCH  30  31
ENDBRANCH  29  30
ENDBRANCH  28  29
ENDBRANCH   1  28
TORSDOF 22
ENDMDL
MODEL 3
REMARK VINA RESULT:      -9.8      4.829     13.514
REMARK SMILES COc1cc(CC(=O)N[C@@H](CC(=O)NCCCCCCNC(=O)c2ccc(-c3c4nc(c(-c5ccc(S(=O)(=O)[O-])cc5)c5ccc([nH]5)c(-c5ccc(S(=O)(=O)[O-])cc5)c5nc(c(-c6ccc(S(=O)(=O)[O-])cc6)c6ccc3[nH]6)C=C5)C=C4)cc2)c2cccs2)ccc1C
REMARK SMILES IDX 16 1 15 2 14 3 12 4 13 5 11 7 10 8 9 9 7 10 8 11 6 13 5 14
REMARK SMILES IDX 3 15 4 16 91 17 90 18 92 19 89 20 2 21 1 22 84 23 85 24
REMARK SMILES IDX 88 25 86 26 87 27 17 28 18 29 19 30 20 31 21 32 22 33 23 35
REMARK SMILES IDX 24 36 25 37 83 38 26 39 82 40 27 41 28 42 29 43 76 44 30 45
REMARK SMILES IDX 81 46 75 47 77 48 31 49 80 50 74 51 73 52 32 54 62 55 43 56
REMARK SMILES IDX 61 57 44 58 47 59 60 60 78 61 45 62 46 63 59 65 79 66 48 67
REMARK SMILES IDX 33 68 34 69 42 70 35 71 41 72 36 73 37 74 38 75 39 76 40 77
REMARK SMILES IDX 63 78 64 79 72 80 65 81 71 82 66 83 67 84 68 85 69 86 70 87
REMARK SMILES IDX 49 88 50 89 58 90 51 91 57 92 52 93 53 94 54 95 55 96 56 97
REMARK H PARENT 14 6 9 12 21 34 77 53 47 64
REMARK Flexibility Score: inf
ROOT
ATOM      1  C   UNL A   1      38.560  27.991  28.536  1.00  0.00     0.021 C 
ENDROOT
BRANCH   1   2
ATOM      2  C   UNL A   1      37.643  28.967  29.276  1.00  0.00     0.116 C 
BRANCH   2   3
ATOM      3  N   UNL A   1      38.189  30.309  29.310  1.00  0.00    -0.356 N 
ATOM      4  C   UNL A   1      37.660  31.480  28.871  1.00  0.00     0.222 C 
ATOM      5  O   UNL A   1      38.234  32.524  29.197  1.00  0.00    -0.275 OA
ATOM      6  H   UNL A   1      39.083  30.383  29.716  1.00  0.00     0.163 HD
BRANCH   4   7
ATOM      7  C   UNL A   1      36.384  31.536  28.052  1.00  0.00     0.130 C 
BRANCH   7   8
ATOM      8  C   UNL A   1      35.024  31.505  28.767  1.00  0.00     0.131 C 
BRANCH   8   9
ATOM      9  N   UNL A   1      33.904  31.396  27.842  1.00  0.00    -0.348 N 
ATOM     10  C   UNL A   1      33.562  30.394  26.981  1.00  0.00     0.224 C 
ATOM     11  O   UNL A   1      32.734  30.641  26.101  1.00  0.00    -0.275 OA
ATOM     12  H   UNL A   1      33.295  32.171  27.836  1.00  0.00     0.164 HD
BRANCH  10  13
ATOM     13  C   UNL A   1      34.118  28.994  27.149  1.00  0.00     0.135 C 
BRANCH  13  14
ATOM     14  C   UNL A   1      33.195  27.865  26.761  1.00  0.00    -0.035 A 
ATOM     15  C   UNL A   1      32.873  25.728  25.619  1.00  0.00     0.122 A 
ATOM     16  C   UNL A   1      33.705  26.767  26.047  1.00  0.00     0.051 A 
ATOM     17  C   UNL A   1      31.503  25.778  25.918  1.00  0.00    -0.009 A 
ATOM     18  C   UNL A   1      31.004  26.847  26.684  1.00  0.00     0.007 A 
ATOM     19  C   UNL A   1      30.546  24.706  25.479  1.00  0.00     0.048 C 
ATOM     20  C   UNL A   1      31.843  27.880  27.105  1.00  0.00     0.005 A 
BRANCH  15  21
ATOM     21  O   UNL A   1      33.303  24.657  24.881  1.00  0.00    -0.496 OA
ATOM     22  C   UNL A   1      34.664  24.666  24.464  1.00  0.00     0.278 C 
ENDBRANCH  15  21
ENDBRANCH  13  14
ENDBRANCH  10  13
ENDBRANCH   8   9
BRANCH   8  23
ATOM     23  C   UNL A   1      34.713  32.621  29.743  1.00  0.00     0.027 A 
ATOM     24  C   UNL A   1      34.912  32.747  31.106  1.00  0.00     0.017 A 
ATOM     25  S   UNL A   1      33.964  34.054  29.119  1.00  0.00    -0.147 S 
ATOM     26  C   UNL A   1      34.500  34.012  31.619  1.00  0.00     0.012 A 
ATOM     27  C   UNL A   1      33.986  34.824  30.639  1.00  0.00     0.065 A 
ENDBRANCH   8  23
ENDBRANCH   7   8
ENDBRANCH   4   7
ENDBRANCH   2   3
ENDBRANCH   1   2
BRANCH   1  28
ATOM     28  C   UNL A   1      39.631  28.629  27.645  1.00  0.00     0.002 C 
BRANCH  28  29
ATOM     29  C   UNL A   1      40.675  27.681  27.037  1.00  0.00     0.002 C 
BRANCH  29  30
ATOM     30  C   UNL A   1      40.278  26.206  26.947  1.00  0.00     0.021 C 
BRANCH  30  31
ATOM     31  C   UNL A   1      40.905  25.465  25.773  1.00  0.00     0.116 C 
BRANCH  31  32
ATOM     32  N   UNL A   1      41.087  24.044  26.038  1.00  0.00    -0.352 N 
ATOM     33  C   UNL A   1      42.158  23.434  26.669  1.00  0.00     0.251 C 
ATOM     34  H   UNL A   1      40.364  23.449  25.734  1.00  0.00     0.163 HD
ATOM     35  O   UNL A   1      42.345  22.234  26.652  1.00  0.00    -0.269 OA
BRANCH  33  36
ATOM     36  C   UNL A   1      43.008  24.312  27.498  1.00  0.00     0.039 A 
ATOM     37  C   UNL A   1      42.800  24.269  28.881  1.00  0.00     0.014 A 
ATOM     38  C   UNL A   1      43.758  25.325  26.906  1.00  0.00     0.014 A 
ATOM     39  C   UNL A   1      43.220  25.339  29.664  1.00  0.00     0.010 A 
ATOM     40  C   UNL A   1      44.099  26.424  27.670  1.00  0.00     0.010 A 
ATOM     41  C   UNL A   1      43.790  26.449  29.037  1.00  0.00    -0.014 A 
BRANCH  41  42
ATOM     42  C   UNL A   1      44.018  27.710  29.730  1.00  0.00     0.031 A 
ATOM     43  C   UNL A   1      42.868  28.492  30.231  1.00  0.00     0.074 A 
ATOM     44  C   UNL A   1      45.274  28.176  29.911  1.00  0.00     0.049 A 
ATOM     45  N   UNL A   1      42.846  29.781  30.317  1.00  0.00    -0.248 NA
ATOM     46  C   UNL A   1      41.611  27.863  30.621  1.00  0.00     0.031 C 
ATOM     47  C   UNL A   1      45.676  29.298  30.754  1.00  0.00     0.029 A 
ATOM     48  N   UNL A   1      46.425  27.868  29.182  1.00  0.00    -0.354 N 
ATOM     49  C   UNL A   1      41.717  30.124  31.029  1.00  0.00     0.074 A 
ATOM     50  C   UNL A   1      40.937  28.909  31.108  1.00  0.00     0.031 C 
ATOM     51  C   UNL A   1      46.842  29.779  30.294  1.00  0.00     0.029 A 
ATOM     52  C   UNL A   1      47.155  29.060  29.069  1.00  0.00     0.049 A 
ATOM     53  H   UNL A   1      46.675  26.987  28.821  1.00  0.00     0.167 HD
ATOM     54  C   UNL A   1      41.626  31.351  31.616  1.00  0.00     0.031 A 
ATOM     55  C   UNL A   1      47.512  29.634  27.885  1.00  0.00     0.031 A 
ATOM     56  C   UNL A   1      42.800  32.173  31.336  1.00  0.00     0.049 A 
ATOM     57  C   UNL A   1      47.016  31.056  27.751  1.00  0.00     0.074 A 
ATOM     58  C   UNL A   1      43.938  32.449  32.077  1.00  0.00     0.029 A 
ATOM     59  N   UNL A   1      43.052  32.613  30.043  1.00  0.00    -0.354 N 
ATOM     60  N   UNL A   1      46.066  31.567  28.484  1.00  0.00    -0.248 NA
ATOM     61  C   UNL A   1      47.512  31.997  26.750  1.00  0.00     0.031 C 
ATOM     62  C   UNL A   1      44.905  33.006  31.204  1.00  0.00     0.029 A 
ATOM     63  C   UNL A   1      44.344  33.092  29.942  1.00  0.00     0.049 A 
ATOM     64  H   UNL A   1      42.402  32.587  29.303  1.00  0.00     0.167 HD
ATOM     65  C   UNL A   1      45.814  32.853  28.083  1.00  0.00     0.074 A 
ATOM     66  C   UNL A   1      46.752  33.080  26.999  1.00  0.00     0.031 C 
ATOM     67  C   UNL A   1      44.850  33.615  28.680  1.00  0.00     0.031 A 
BRANCH  54  68
ATOM     68  C   UNL A   1      40.633  31.677  32.714  1.00  0.00    -0.014 A 
ATOM     69  C   UNL A   1      39.411  32.300  32.381  1.00  0.00     0.010 A 
ATOM     70  C   UNL A   1      40.861  31.460  34.086  1.00  0.00     0.010 A 
ATOM     71  C   UNL A   1      38.531  32.790  33.357  1.00  0.00     0.020 A 
ATOM     72  C   UNL A   1      40.010  31.979  35.077  1.00  0.00     0.020 A 
ATOM     73  C   UNL A   1      38.856  32.658  34.704  1.00  0.00     0.054 A 
BRANCH  73  74
ATOM     74  S   UNL A   1      37.763  33.392  35.949  1.00  0.00     0.124 S 
ATOM     75  O   UNL A   1      37.381  32.234  36.754  1.00  0.00    -0.237 OA
ATOM     76  O   UNL A   1      38.639  34.356  36.607  1.00  0.00    -0.237 OA
ATOM     77  O   UNL A   1      36.679  33.975  35.159  1.00  0.00    -0.744 OA
ENDBRANCH  73  74
ENDBRANCH  54  68
BRANCH  55  78
ATOM     78  C   UNL A   1      47.657  28.684  26.749  1.00  0.00    -0.014 A 
ATOM     79  C   UNL A   1      46.589  28.582  25.831  1.00  0.00     0.010 A 
ATOM     80  C   UNL A   1      48.925  28.215  26.370  1.00  0.00     0.010 A 
ATOM     81  C   UNL A   1      46.814  28.154  24.520  1.00  0.00     0.020 A 
ATOM     82  C   UNL A   1      49.153  27.783  25.055  1.00  0.00     0.020 A 
ATOM     83  C   UNL A   1      48.108  27.807  24.128  1.00  0.00     0.054 A 
BRANCH  83  84
ATOM     84  S   UNL A   1      48.427  27.547  22.356  1.00  0.00     0.124 S 
ATOM     85  O   UNL A   1      47.234  28.119  21.740  1.00  0.00    -0.237 OA
ATOM     86  O   UNL A   1      49.664  28.300  22.149  1.00  0.00    -0.237 OA
ATOM     87  O   UNL A   1      48.560  26.098  22.249  1.00  0.00    -0.744 OA
ENDBRANCH  83  84
ENDBRANCH  55  78
BRANCH  67  88
ATOM     88  C   UNL A   1      44.349  34.964  28.216  1.00  0.00    -0.014 A 
ATOM     89  C   UNL A   1      43.100  35.188  27.618  1.00  0.00     0.010 A 
ATOM     90  C   UNL A   1      45.132  36.113  28.499  1.00  0.00     0.010 A 
ATOM     91  C   UNL A   1      42.679  36.481  27.265  1.00  0.00     0.020 A 
ATOM     92  C   UNL A   1      44.705  37.408  28.194  1.00  0.00     0.020 A 
ATOM     93  C   UNL A   1      43.486  37.582  27.553  1.00  0.00     0.054 A 
BRANCH  93  94
ATOM     94  S   UNL A   1      42.905  39.250  27.154  1.00  0.00     0.124 S 
ATOM     95  O   UNL A   1      43.981  39.748  26.302  1.00  0.00    -0.237 OA
ATOM     96  O   UNL A   1      41.634  39.002  26.477  1.00  0.00    -0.237 OA
ATOM     97  O   UNL A   1      42.789  39.894  28.460  1.00  0.00    -0.744 OA
ENDBRANCH  93  94
ENDBRANCH  67  88
ENDBRANCH  41  42
ENDBRANCH  33  36
ENDBRANCH  31  32
ENDBRANCH  30  31
ENDBRANCH  29  30
ENDBRANCH  28  29
ENDBRANCH   1  28
TORSDOF 22
ENDMDL
