MODEL 1
REMARK VINA RESULT:     -12.7      0.000      0.000
REMARK SMILES NS(=O)(=O)c1ccc(-n2nc(C(=O)NCCCCCCNC(=O)c3ccc(-c4c5nc(c(-c6ccc(S(=O)(=O)[O-])cc6)c6ccc([nH]6)c(-c6ccc(S(=O)(=O)[O-])cc6)c6nc(c(-c7ccc(S(=O)(=O)[O-])cc7)c7ccc4[nH]7)C=C6)C=C5)cc3)cc2-c2ccc(Cl)s2)cc1
REMARK SMILES IDX 17 1 16 2 15 3 14 4 12 5 13 6 11 8 9 9 10 10 85 11 84 12
REMARK SMILES IDX 8 13 5 14 6 15 93 16 7 17 92 18 2 19 3 20 4 21 1 22 86 25
REMARK SMILES IDX 87 26 91 27 88 28 89 29 90 30 18 31 19 32 20 33 21 34 22 35
REMARK SMILES IDX 23 37 24 38 25 39 83 40 26 41 82 42 27 43 28 44 29 45 76 46
REMARK SMILES IDX 30 47 81 48 75 49 77 50 31 51 80 52 74 53 73 54 32 56 62 57
REMARK SMILES IDX 43 58 61 59 44 60 47 61 60 62 78 63 45 64 46 65 59 67 79 68
REMARK SMILES IDX 48 69 33 70 34 71 42 72 35 73 41 74 36 75 37 76 38 77 39 78
REMARK SMILES IDX 40 79 63 80 64 81 72 82 65 83 71 84 66 85 67 86 68 87 69 88
REMARK SMILES IDX 70 89 49 90 50 91 58 92 51 93 57 94 52 95 53 96 54 97 55 98
REMARK SMILES IDX 56 99
REMARK H PARENT 14 7 1 23 1 24 21 36 77 55 47 66
REMARK Flexibility Score: inf
ROOT
ATOM      1  C   UNL A   1      36.649  22.068  24.547  1.00  0.00     0.002 C 
ENDROOT
BRANCH   1   2
ATOM      2  C   UNL A   1      36.618  22.722  23.161  1.00  0.00     0.021 C 
BRANCH   2   3
ATOM      3  C   UNL A   1      35.249  23.299  22.805  1.00  0.00     0.116 C 
BRANCH   3   4
ATOM      4  N   UNL A   1      34.178  22.452  23.277  1.00  0.00    -0.351 N 
ATOM      5  C   UNL A   1      32.997  22.693  23.944  1.00  0.00     0.271 C 
ATOM      6  O   UNL A   1      32.304  21.692  24.152  1.00  0.00    -0.267 OA
ATOM      7  H   UNL A   1      34.322  21.499  23.078  1.00  0.00     0.163 HD
BRANCH   5   8
ATOM      8  C   UNL A   1      32.559  24.053  24.335  1.00  0.00     0.151 A 
ATOM      9  N   UNL A   1      31.567  25.953  24.100  1.00  0.00    -0.231 N 
ATOM     10  N   UNL A   1      31.662  24.714  23.568  1.00  0.00    -0.162 NA
ATOM     11  C   UNL A   1      32.319  26.088  25.244  1.00  0.00     0.085 A 
ATOM     12  C   UNL A   1      32.908  24.863  25.442  1.00  0.00     0.066 A 
BRANCH   9  13
ATOM     13  C   UNL A   1      30.775  26.945  23.485  1.00  0.00     0.065 A 
ATOM     14  C   UNL A   1      29.233  29.062  22.594  1.00  0.00     0.082 A 
ATOM     15  C   UNL A   1      30.617  29.094  22.403  1.00  0.00     0.024 A 
ATOM     16  C   UNL A   1      28.610  27.959  23.191  1.00  0.00     0.024 A 
ATOM     17  C   UNL A   1      31.393  28.038  22.865  1.00  0.00     0.030 A 
ATOM     18  C   UNL A   1      29.383  26.876  23.613  1.00  0.00     0.030 A 
BRANCH  14  19
ATOM     19  S   UNL A   1      28.276  30.428  22.017  1.00  0.00     0.238 S 
ATOM     20  O   UNL A   1      27.376  30.842  23.085  1.00  0.00    -0.207 OA
ATOM     21  O   UNL A   1      27.823  30.162  20.685  1.00  0.00    -0.207 OA
BRANCH  19  22
ATOM     22  N   UNL A   1      29.396  31.674  21.907  1.00  0.00    -0.225 NA
ATOM     23  H   UNL A   1      29.959  31.552  21.064  1.00  0.00     0.137 HD
ATOM     24  H   UNL A   1      30.004  31.659  22.726  1.00  0.00     0.137 HD
ENDBRANCH  19  22
ENDBRANCH  14  19
ENDBRANCH   9  13
BRANCH  11  25
ATOM     25  C   UNL A   1      32.382  27.219  26.119  1.00  0.00     0.054 A 
ATOM     26  C   UNL A   1      31.422  27.598  27.038  1.00  0.00     0.024 A 
ATOM     27  S   UNL A   1      33.674  28.342  26.050  1.00  0.00    -0.122 S 
ATOM     28  C   UNL A   1      31.761  28.820  27.693  1.00  0.00     0.033 A 
ATOM     29  C   UNL A   1      32.957  29.309  27.234  1.00  0.00     0.094 A 
ATOM     30  Cl  UNL A   1      33.732  30.754  27.742  1.00  0.00    -0.072 Cl
ENDBRANCH  11  25
ENDBRANCH   5   8
ENDBRANCH   3   4
ENDBRANCH   2   3
ENDBRANCH   1   2
BRANCH   1  31
ATOM     31  C   UNL A   1      37.609  22.714  25.563  1.00  0.00     0.002 C 
BRANCH  31  32
ATOM     32  C   UNL A   1      38.807  21.859  26.010  1.00  0.00     0.021 C 
BRANCH  32  33
ATOM     33  C   UNL A   1      39.891  22.669  26.697  1.00  0.00     0.116 C 
BRANCH  33  34
ATOM     34  N   UNL A   1      41.204  22.475  26.070  1.00  0.00    -0.352 N 
ATOM     35  C   UNL A   1      42.105  23.434  25.642  1.00  0.00     0.251 C 
ATOM     36  H   UNL A   1      41.479  21.539  25.934  1.00  0.00     0.163 HD
ATOM     37  O   UNL A   1      42.980  23.160  24.830  1.00  0.00    -0.269 OA
BRANCH  35  38
ATOM     38  C   UNL A   1      41.995  24.785  26.210  1.00  0.00     0.039 A 
ATOM     39  C   UNL A   1      41.198  25.789  25.649  1.00  0.00     0.014 A 
ATOM     40  C   UNL A   1      42.703  25.012  27.382  1.00  0.00     0.014 A 
ATOM     41  C   UNL A   1      41.089  27.004  26.325  1.00  0.00     0.010 A 
ATOM     42  C   UNL A   1      42.384  26.080  28.161  1.00  0.00     0.010 A 
ATOM     43  C   UNL A   1      41.689  27.130  27.584  1.00  0.00    -0.014 A 
BRANCH  43  44
ATOM     44  C   UNL A   1      41.609  28.337  28.389  1.00  0.00     0.031 A 
ATOM     45  C   UNL A   1      42.704  29.310  28.153  1.00  0.00     0.074 A 
ATOM     46  C   UNL A   1      40.466  28.657  29.041  1.00  0.00     0.049 A 
ATOM     47  N   UNL A   1      43.646  29.653  28.965  1.00  0.00    -0.248 NA
ATOM     48  C   UNL A   1      42.866  29.857  26.793  1.00  0.00     0.031 C 
ATOM     49  C   UNL A   1      39.173  27.950  29.031  1.00  0.00     0.029 A 
ATOM     50  N   UNL A   1      40.169  29.778  29.737  1.00  0.00    -0.354 N 
ATOM     51  C   UNL A   1      44.389  30.625  28.302  1.00  0.00     0.074 A 
ATOM     52  C   UNL A   1      43.998  30.552  26.919  1.00  0.00     0.031 C 
ATOM     53  C   UNL A   1      38.195  28.782  29.457  1.00  0.00     0.029 A 
ATOM     54  C   UNL A   1      38.811  30.002  29.941  1.00  0.00     0.049 A 
ATOM     55  H   UNL A   1      40.863  30.391  30.075  1.00  0.00     0.167 HD
ATOM     56  C   UNL A   1      45.083  31.582  28.983  1.00  0.00     0.031 A 
ATOM     57  C   UNL A   1      38.244  31.132  30.436  1.00  0.00     0.031 A 
ATOM     58  C   UNL A   1      45.138  31.284  30.392  1.00  0.00     0.049 A 
ATOM     59  C   UNL A   1      39.329  31.878  31.128  1.00  0.00     0.074 A 
ATOM     60  C   UNL A   1      45.660  30.253  31.144  1.00  0.00     0.029 A 
ATOM     61  N   UNL A   1      44.208  31.911  31.192  1.00  0.00    -0.354 N 
ATOM     62  N   UNL A   1      39.955  31.417  32.178  1.00  0.00    -0.248 NA
ATOM     63  C   UNL A   1      40.055  32.878  30.360  1.00  0.00     0.031 C 
ATOM     64  C   UNL A   1      44.680  30.008  32.150  1.00  0.00     0.029 A 
ATOM     65  C   UNL A   1      43.663  30.958  32.014  1.00  0.00     0.049 A 
ATOM     66  H   UNL A   1      43.977  32.868  31.177  1.00  0.00     0.167 HD
ATOM     67  C   UNL A   1      41.290  31.738  31.970  1.00  0.00     0.074 A 
ATOM     68  C   UNL A   1      41.278  32.708  30.874  1.00  0.00     0.031 C 
ATOM     69  C   UNL A   1      42.297  30.977  32.497  1.00  0.00     0.031 A 
BRANCH  56  70
ATOM     70  C   UNL A   1      45.364  32.968  28.460  1.00  0.00    -0.014 A 
ATOM     71  C   UNL A   1      46.592  33.578  28.795  1.00  0.00     0.010 A 
ATOM     72  C   UNL A   1      44.379  33.794  27.882  1.00  0.00     0.010 A 
ATOM     73  C   UNL A   1      46.791  34.955  28.628  1.00  0.00     0.020 A 
ATOM     74  C   UNL A   1      44.582  35.158  27.672  1.00  0.00     0.020 A 
ATOM     75  C   UNL A   1      45.776  35.738  28.081  1.00  0.00     0.054 A 
BRANCH  75  76
ATOM     76  S   UNL A   1      46.000  37.529  27.972  1.00  0.00     0.124 S 
ATOM     77  O   UNL A   1      46.856  37.795  29.125  1.00  0.00    -0.237 OA
ATOM     78  O   UNL A   1      46.630  37.683  26.664  1.00  0.00    -0.237 OA
ATOM     79  O   UNL A   1      44.639  38.051  28.068  1.00  0.00    -0.744 OA
ENDBRANCH  75  76
ENDBRANCH  56  70
BRANCH  57  80
ATOM     80  C   UNL A   1      36.954  31.760  30.041  1.00  0.00    -0.014 A 
ATOM     81  C   UNL A   1      35.917  31.962  30.972  1.00  0.00     0.010 A 
ATOM     82  C   UNL A   1      36.847  32.421  28.798  1.00  0.00     0.010 A 
ATOM     83  C   UNL A   1      34.846  32.835  30.694  1.00  0.00     0.020 A 
ATOM     84  C   UNL A   1      35.784  33.289  28.513  1.00  0.00     0.020 A 
ATOM     85  C   UNL A   1      34.799  33.510  29.471  1.00  0.00     0.054 A 
BRANCH  85  86
ATOM     86  S   UNL A   1      33.515  34.769  29.187  1.00  0.00     0.124 S 
ATOM     87  O   UNL A   1      32.644  34.113  28.216  1.00  0.00    -0.237 OA
ATOM     88  O   UNL A   1      32.948  34.954  30.520  1.00  0.00    -0.237 OA
ATOM     89  O   UNL A   1      34.264  35.914  28.672  1.00  0.00    -0.744 OA
ENDBRANCH  85  86
ENDBRANCH  57  80
BRANCH  69  90
ATOM     90  C   UNL A   1      41.950  29.910  33.514  1.00  0.00    -0.014 A 
ATOM     91  C   UNL A   1      41.565  28.597  33.178  1.00  0.00     0.010 A 
ATOM     92  C   UNL A   1      42.240  30.199  34.858  1.00  0.00     0.010 A 
ATOM     93  C   UNL A   1      41.474  27.601  34.168  1.00  0.00     0.020 A 
ATOM     94  C   UNL A   1      42.168  29.211  35.843  1.00  0.00     0.020 A 
ATOM     95  C   UNL A   1      41.784  27.917  35.495  1.00  0.00     0.054 A 
BRANCH  95  96
ATOM     96  S   UNL A   1      41.748  26.616  36.763  1.00  0.00     0.124 S 
ATOM     97  O   UNL A   1      41.787  25.394  35.964  1.00  0.00    -0.237 OA
ATOM     98  O   UNL A   1      42.949  26.893  37.548  1.00  0.00    -0.237 OA
ATOM     99  O   UNL A   1      40.490  26.853  37.469  1.00  0.00    -0.744 OA
ENDBRANCH  95  96
ENDBRANCH  69  90
ENDBRANCH  43  44
ENDBRANCH  35  38
ENDBRANCH  33  34
ENDBRANCH  32  33
ENDBRANCH  31  32
ENDBRANCH   1  31
TORSDOF 20
ENDMDL
MODEL 2
REMARK VINA RESULT:     -10.4      3.700      9.944
REMARK SMILES NS(=O)(=O)c1ccc(-n2nc(C(=O)NCCCCCCNC(=O)c3ccc(-c4c5nc(c(-c6ccc(S(=O)(=O)[O-])cc6)c6ccc([nH]6)c(-c6ccc(S(=O)(=O)[O-])cc6)c6nc(c(-c7ccc(S(=O)(=O)[O-])cc7)c7ccc4[nH]7)C=C6)C=C5)cc3)cc2-c2ccc(Cl)s2)cc1
REMARK SMILES IDX 17 1 16 2 15 3 14 4 12 5 13 6 11 8 9 9 10 10 85 11 84 12
REMARK SMILES IDX 8 13 5 14 6 15 93 16 7 17 92 18 2 19 3 20 4 21 1 22 86 25
REMARK SMILES IDX 87 26 91 27 88 28 89 29 90 30 18 31 19 32 20 33 21 34 22 35
REMARK SMILES IDX 23 37 24 38 25 39 83 40 26 41 82 42 27 43 28 44 29 45 76 46
REMARK SMILES IDX 30 47 81 48 75 49 77 50 31 51 80 52 74 53 73 54 32 56 62 57
REMARK SMILES IDX 43 58 61 59 44 60 47 61 60 62 78 63 45 64 46 65 59 67 79 68
REMARK SMILES IDX 48 69 33 70 34 71 42 72 35 73 41 74 36 75 37 76 38 77 39 78
REMARK SMILES IDX 40 79 63 80 64 81 72 82 65 83 71 84 66 85 67 86 68 87 69 88
REMARK SMILES IDX 70 89 49 90 50 91 58 92 51 93 57 94 52 95 53 96 54 97 55 98
REMARK SMILES IDX 56 99
REMARK H PARENT 14 7 1 23 1 24 21 36 77 55 47 66
REMARK Flexibility Score: inf
ROOT
ATOM      1  C   UNL A   1      37.379  31.461  28.386  1.00  0.00     0.002 C 
ENDROOT
BRANCH   1   2
ATOM      2  C   UNL A   1      37.458  29.931  28.454  1.00  0.00     0.021 C 
BRANCH   2   3
ATOM      3  C   UNL A   1      36.114  29.253  28.199  1.00  0.00     0.116 C 
BRANCH   3   4
ATOM      4  N   UNL A   1      35.051  30.220  28.051  1.00  0.00    -0.351 N 
ATOM      5  C   UNL A   1      33.890  30.255  27.311  1.00  0.00     0.271 C 
ATOM      6  O   UNL A   1      33.198  31.264  27.477  1.00  0.00    -0.267 OA
ATOM      7  H   UNL A   1      35.185  31.028  28.598  1.00  0.00     0.163 HD
BRANCH   5   8
ATOM      8  C   UNL A   1      33.469  29.144  26.426  1.00  0.00     0.151 A 
ATOM      9  N   UNL A   1      33.171  27.092  25.835  1.00  0.00    -0.231 N 
ATOM     10  N   UNL A   1      33.468  27.876  26.895  1.00  0.00    -0.162 NA
ATOM     11  C   UNL A   1      32.899  27.827  24.704  1.00  0.00     0.085 A 
ATOM     12  C   UNL A   1      33.023  29.141  25.083  1.00  0.00     0.066 A 
BRANCH   9  13
ATOM     13  C   UNL A   1      33.174  25.686  25.952  1.00  0.00     0.065 A 
ATOM     14  C   UNL A   1      33.141  22.923  25.826  1.00  0.00     0.082 A 
ATOM     15  C   UNL A   1      34.366  23.596  25.790  1.00  0.00     0.024 A 
ATOM     16  C   UNL A   1      31.935  23.621  25.966  1.00  0.00     0.024 A 
ATOM     17  C   UNL A   1      34.381  24.985  25.837  1.00  0.00     0.030 A 
ATOM     18  C   UNL A   1      31.952  25.013  26.061  1.00  0.00     0.030 A 
BRANCH  14  19
ATOM     19  S   UNL A   1      33.152  21.160  25.740  1.00  0.00     0.238 S 
ATOM     20  O   UNL A   1      34.287  20.747  24.926  1.00  0.00    -0.207 OA
ATOM     21  O   UNL A   1      31.821  20.688  25.504  1.00  0.00    -0.207 OA
BRANCH  19  22
ATOM     22  N   UNL A   1      33.562  20.692  27.299  1.00  0.00    -0.225 NA
ATOM     23  H   UNL A   1      32.811  20.124  27.691  1.00  0.00     0.137 HD
ATOM     24  H   UNL A   1      33.698  21.521  27.879  1.00  0.00     0.137 HD
ENDBRANCH  19  22
ENDBRANCH  14  19
ENDBRANCH   9  13
BRANCH  11  25
ATOM     25  C   UNL A   1      32.457  27.340  23.433  1.00  0.00     0.054 A 
ATOM     26  C   UNL A   1      31.160  27.356  22.956  1.00  0.00     0.024 A 
ATOM     27  S   UNL A   1      33.523  26.553  22.347  1.00  0.00    -0.122 S 
ATOM     28  C   UNL A   1      31.050  26.719  21.683  1.00  0.00     0.033 A 
ATOM     29  C   UNL A   1      32.266  26.248  21.261  1.00  0.00     0.094 A 
ATOM     30  Cl  UNL A   1      32.586  25.413  19.796  1.00  0.00    -0.072 Cl
ENDBRANCH  11  25
ENDBRANCH   5   8
ENDBRANCH   3   4
ENDBRANCH   2   3
ENDBRANCH   1   2
BRANCH   1  31
ATOM     31  C   UNL A   1      37.748  32.202  29.684  1.00  0.00     0.002 C 
BRANCH  31  32
ATOM     32  C   UNL A   1      36.583  32.830  30.467  1.00  0.00     0.021 C 
BRANCH  32  33
ATOM     33  C   UNL A   1      35.979  31.888  31.492  1.00  0.00     0.116 C 
BRANCH  33  34
ATOM     34  N   UNL A   1      36.178  32.368  32.865  1.00  0.00    -0.352 N 
ATOM     35  C   UNL A   1      37.108  31.949  33.799  1.00  0.00     0.251 C 
ATOM     36  H   UNL A   1      35.567  33.082  33.160  1.00  0.00     0.163 HD
ATOM     37  O   UNL A   1      36.945  32.166  34.993  1.00  0.00    -0.269 OA
BRANCH  35  38
ATOM     38  C   UNL A   1      38.310  31.257  33.311  1.00  0.00     0.039 A 
ATOM     39  C   UNL A   1      39.506  31.917  33.014  1.00  0.00     0.014 A 
ATOM     40  C   UNL A   1      38.212  29.877  33.198  1.00  0.00     0.014 A 
ATOM     41  C   UNL A   1      40.615  31.151  32.654  1.00  0.00     0.010 A 
ATOM     42  C   UNL A   1      39.346  29.130  33.112  1.00  0.00     0.010 A 
ATOM     43  C   UNL A   1      40.515  29.754  32.711  1.00  0.00    -0.014 A 
BRANCH  43  44
ATOM     44  C   UNL A   1      41.616  28.862  32.391  1.00  0.00     0.031 A 
ATOM     45  C   UNL A   1      42.272  28.243  33.569  1.00  0.00     0.074 A 
ATOM     46  C   UNL A   1      41.792  28.410  31.127  1.00  0.00     0.049 A 
ATOM     47  N   UNL A   1      43.467  28.449  34.008  1.00  0.00    -0.248 NA
ATOM     48  C   UNL A   1      41.449  27.408  34.463  1.00  0.00     0.031 C 
ATOM     49  C   UNL A   1      40.958  28.657  29.937  1.00  0.00     0.029 A 
ATOM     50  N   UNL A   1      42.679  27.499  30.665  1.00  0.00    -0.354 N 
ATOM     51  C   UNL A   1      43.626  27.602  35.101  1.00  0.00     0.074 A 
ATOM     52  C   UNL A   1      42.305  27.156  35.455  1.00  0.00     0.031 C 
ATOM     53  C   UNL A   1      41.223  27.725  28.993  1.00  0.00     0.029 A 
ATOM     54  C   UNL A   1      42.361  26.941  29.431  1.00  0.00     0.049 A 
ATOM     55  H   UNL A   1      43.490  27.249  31.165  1.00  0.00     0.167 HD
ATOM     56  C   UNL A   1      44.854  27.137  35.472  1.00  0.00     0.031 A 
ATOM     57  C   UNL A   1      42.974  25.882  28.840  1.00  0.00     0.031 A 
ATOM     58  C   UNL A   1      45.907  27.826  34.771  1.00  0.00     0.049 A 
ATOM     59  C   UNL A   1      44.291  25.732  29.513  1.00  0.00     0.074 A 
ATOM     60  C   UNL A   1      46.332  29.137  34.706  1.00  0.00     0.029 A 
ATOM     61  N   UNL A   1      46.416  27.202  33.653  1.00  0.00    -0.354 N 
ATOM     62  N   UNL A   1      45.229  26.640  29.460  1.00  0.00    -0.248 NA
ATOM     63  C   UNL A   1      44.369  24.825  30.648  1.00  0.00     0.031 C 
ATOM     64  C   UNL A   1      46.641  29.349  33.331  1.00  0.00     0.029 A 
ATOM     65  C   UNL A   1      46.478  28.138  32.652  1.00  0.00     0.049 A 
ATOM     66  H   UNL A   1      46.686  26.258  33.585  1.00  0.00     0.167 HD
ATOM     67  C   UNL A   1      45.750  26.695  30.746  1.00  0.00     0.074 A 
ATOM     68  C   UNL A   1      45.236  25.497  31.412  1.00  0.00     0.031 C 
ATOM     69  C   UNL A   1      46.303  27.842  31.243  1.00  0.00     0.031 A 
BRANCH  56  70
ATOM     70  C   UNL A   1      45.097  25.813  36.152  1.00  0.00    -0.014 A 
ATOM     71  C   UNL A   1      45.744  25.809  37.406  1.00  0.00     0.010 A 
ATOM     72  C   UNL A   1      44.957  24.571  35.502  1.00  0.00     0.010 A 
ATOM     73  C   UNL A   1      46.288  24.634  37.941  1.00  0.00     0.020 A 
ATOM     74  C   UNL A   1      45.457  23.387  36.047  1.00  0.00     0.020 A 
ATOM     75  C   UNL A   1      46.152  23.432  37.247  1.00  0.00     0.054 A 
BRANCH  75  76
ATOM     76  S   UNL A   1      46.952  21.943  37.892  1.00  0.00     0.124 S 
ATOM     77  O   UNL A   1      45.892  20.949  37.753  1.00  0.00    -0.237 OA
ATOM     78  O   UNL A   1      48.090  21.789  36.989  1.00  0.00    -0.237 OA
ATOM     79  O   UNL A   1      47.296  22.307  39.265  1.00  0.00    -0.744 OA
ENDBRANCH  75  76
ENDBRANCH  56  70
BRANCH  57  80
ATOM     80  C   UNL A   1      42.356  24.807  28.018  1.00  0.00    -0.014 A 
ATOM     81  C   UNL A   1      43.129  24.000  27.161  1.00  0.00     0.010 A 
ATOM     82  C   UNL A   1      41.036  24.387  28.289  1.00  0.00     0.010 A 
ATOM     83  C   UNL A   1      42.621  22.792  26.643  1.00  0.00     0.020 A 
ATOM     84  C   UNL A   1      40.523  23.188  27.775  1.00  0.00     0.020 A 
ATOM     85  C   UNL A   1      41.325  22.383  26.971  1.00  0.00     0.054 A 
BRANCH  85  86
ATOM     86  S   UNL A   1      40.738  20.742  26.448  1.00  0.00     0.124 S 
ATOM     87  O   UNL A   1      40.683  20.013  27.712  1.00  0.00    -0.237 OA
ATOM     88  O   UNL A   1      39.446  21.044  25.838  1.00  0.00    -0.237 OA
ATOM     89  O   UNL A   1      41.768  20.289  25.515  1.00  0.00    -0.744 OA
ENDBRANCH  85  86
ENDBRANCH  57  80
BRANCH  69  90
ATOM     90  C   UNL A   1      46.562  28.997  30.299  1.00  0.00    -0.014 A 
ATOM     91  C   UNL A   1      47.806  29.249  29.685  1.00  0.00     0.010 A 
ATOM     92  C   UNL A   1      45.440  29.718  29.857  1.00  0.00     0.010 A 
ATOM     93  C   UNL A   1      47.917  30.200  28.655  1.00  0.00     0.020 A 
ATOM     94  C   UNL A   1      45.542  30.652  28.823  1.00  0.00     0.020 A 
ATOM     95  C   UNL A   1      46.779  30.891  28.227  1.00  0.00     0.054 A 
BRANCH  95  96
ATOM     96  S   UNL A   1      46.901  32.059  26.841  1.00  0.00     0.124 S 
ATOM     97  O   UNL A   1      46.468  33.316  27.447  1.00  0.00    -0.237 OA
ATOM     98  O   UNL A   1      48.314  31.990  26.479  1.00  0.00    -0.237 OA
ATOM     99  O   UNL A   1      45.987  31.509  25.841  1.00  0.00    -0.744 OA
ENDBRANCH  95  96
ENDBRANCH  69  90
ENDBRANCH  43  44
ENDBRANCH  35  38
ENDBRANCH  33  34
ENDBRANCH  32  33
ENDBRANCH  31  32
ENDBRANCH   1  31
TORSDOF 20
ENDMDL
MODEL 3
REMARK VINA RESULT:     -10.2      5.097     11.440
REMARK SMILES NS(=O)(=O)c1ccc(-n2nc(C(=O)NCCCCCCNC(=O)c3ccc(-c4c5nc(c(-c6ccc(S(=O)(=O)[O-])cc6)c6ccc([nH]6)c(-c6ccc(S(=O)(=O)[O-])cc6)c6nc(c(-c7ccc(S(=O)(=O)[O-])cc7)c7ccc4[nH]7)C=C6)C=C5)cc3)cc2-c2ccc(Cl)s2)cc1
REMARK SMILES IDX 17 1 16 2 15 3 14 4 12 5 13 6 11 8 9 9 10 10 85 11 84 12
REMARK SMILES IDX 8 13 5 14 6 15 93 16 7 17 92 18 2 19 3 20 4 21 1 22 86 25
REMARK SMILES IDX 87 26 91 27 88 28 89 29 90 30 18 31 19 32 20 33 21 34 22 35
REMARK SMILES IDX 23 37 24 38 25 39 83 40 26 41 82 42 27 43 28 44 29 45 76 46
REMARK SMILES IDX 30 47 81 48 75 49 77 50 31 51 80 52 74 53 73 54 32 56 62 57
REMARK SMILES IDX 43 58 61 59 44 60 47 61 60 62 78 63 45 64 46 65 59 67 79 68
REMARK SMILES IDX 48 69 33 70 34 71 42 72 35 73 41 74 36 75 37 76 38 77 39 78
REMARK SMILES IDX 40 79 63 80 64 81 72 82 65 83 71 84 66 85 67 86 68 87 69 88
REMARK SMILES IDX 70 89 49 90 50 91 58 92 51 93 57 94 52 95 53 96 54 97 55 98
REMARK SMILES IDX 56 99
REMARK H PARENT 14 7 1 23 1 24 21 36 77 55 47 66
REMARK Flexibility Score: inf
ROOT
ATOM      1  C   UNL A   1      45.959  24.941  26.099  1.00  0.00     0.002 C 
ENDROOT
BRANCH   1   2
ATOM      2  C   UNL A   1      45.912  25.982  27.224  1.00  0.00     0.021 C 
BRANCH   2   3
ATOM      3  C   UNL A   1      47.253  26.677  27.448  1.00  0.00     0.116 C 
BRANCH   3   4
ATOM      4  N   UNL A   1      48.362  25.791  27.179  1.00  0.00    -0.351 N 
ATOM      5  C   UNL A   1      49.299  25.169  27.974  1.00  0.00     0.271 C 
ATOM      6  O   UNL A   1      50.092  24.439  27.370  1.00  0.00    -0.267 OA
ATOM      7  H   UNL A   1      48.471  25.587  26.222  1.00  0.00     0.163 HD
BRANCH   5   8
ATOM      8  C   UNL A   1      49.324  25.313  29.448  1.00  0.00     0.151 A 
ATOM      9  N   UNL A   1      49.993  24.926  31.461  1.00  0.00    -0.231 N 
ATOM     10  N   UNL A   1      50.314  24.731  30.162  1.00  0.00    -0.162 NA
ATOM     11  C   UNL A   1      48.860  25.692  31.609  1.00  0.00     0.085 A 
ATOM     12  C   UNL A   1      48.458  26.000  30.332  1.00  0.00     0.066 A 
BRANCH   9  13
ATOM     13  C   UNL A   1      50.776  24.363  32.491  1.00  0.00     0.065 A 
ATOM     14  C   UNL A   1      52.416  23.020  34.268  1.00  0.00     0.082 A 
ATOM     15  C   UNL A   1      52.922  24.116  33.562  1.00  0.00     0.024 A 
ATOM     16  C   UNL A   1      51.083  22.617  34.121  1.00  0.00     0.024 A 
ATOM     17  C   UNL A   1      52.103  24.780  32.657  1.00  0.00     0.030 A 
ATOM     18  C   UNL A   1      50.245  23.313  33.249  1.00  0.00     0.030 A 
BRANCH  14  19
ATOM     19  S   UNL A   1      53.488  22.181  35.392  1.00  0.00     0.238 S 
ATOM     20  O   UNL A   1      54.763  21.953  34.727  1.00  0.00    -0.207 OA
ATOM     21  O   UNL A   1      52.763  21.137  36.049  1.00  0.00    -0.207 OA
BRANCH  19  22
ATOM     22  N   UNL A   1      53.824  23.343  36.556  1.00  0.00    -0.225 NA
ATOM     23  H   UNL A   1      54.259  22.897  37.365  1.00  0.00     0.137 HD
ATOM     24  H   UNL A   1      52.957  23.797  36.844  1.00  0.00     0.137 HD
ENDBRANCH  19  22
ENDBRANCH  14  19
ENDBRANCH   9  13
BRANCH  11  25
ATOM     25  C   UNL A   1      48.287  26.175  32.827  1.00  0.00     0.054 A 
ATOM     26  C   UNL A   1      48.924  26.943  33.785  1.00  0.00     0.024 A 
ATOM     27  S   UNL A   1      46.697  25.752  33.308  1.00  0.00    -0.122 S 
ATOM     28  C   UNL A   1      48.090  27.187  34.917  1.00  0.00     0.033 A 
ATOM     29  C   UNL A   1      46.865  26.589  34.765  1.00  0.00     0.094 A 
ATOM     30  Cl  UNL A   1      45.567  26.620  35.887  1.00  0.00    -0.072 Cl
ENDBRANCH  11  25
ENDBRANCH   5   8
ENDBRANCH   3   4
ENDBRANCH   2   3
ENDBRANCH   1   2
BRANCH   1  31
ATOM     31  C   UNL A   1      46.026  23.472  26.559  1.00  0.00     0.002 C 
BRANCH  31  32
ATOM     32  C   UNL A   1      45.638  22.412  25.515  1.00  0.00     0.021 C 
BRANCH  32  33
ATOM     33  C   UNL A   1      44.392  22.779  24.729  1.00  0.00     0.116 C 
BRANCH  33  34
ATOM     34  N   UNL A   1      43.217  22.022  25.174  1.00  0.00    -0.352 N 
ATOM     35  C   UNL A   1      42.364  22.295  26.228  1.00  0.00     0.251 C 
ATOM     36  H   UNL A   1      43.009  21.212  24.654  1.00  0.00     0.163 HD
ATOM     37  O   UNL A   1      41.653  21.420  26.708  1.00  0.00    -0.269 OA
BRANCH  35  38
ATOM     38  C   UNL A   1      42.318  23.673  26.739  1.00  0.00     0.039 A 
ATOM     39  C   UNL A   1      41.729  24.730  26.039  1.00  0.00     0.014 A 
ATOM     40  C   UNL A   1      42.864  23.872  27.999  1.00  0.00     0.014 A 
ATOM     41  C   UNL A   1      41.653  25.976  26.660  1.00  0.00     0.010 A 
ATOM     42  C   UNL A   1      42.551  24.998  28.695  1.00  0.00     0.010 A 
ATOM     43  C   UNL A   1      42.069  26.090  27.993  1.00  0.00    -0.014 A 
BRANCH  43  44
ATOM     44  C   UNL A   1      42.002  27.331  28.747  1.00  0.00     0.031 A 
ATOM     45  C   UNL A   1      43.137  28.258  28.511  1.00  0.00     0.074 A 
ATOM     46  C   UNL A   1      40.849  27.713  29.345  1.00  0.00     0.049 A 
ATOM     47  N   UNL A   1      44.062  28.603  29.342  1.00  0.00    -0.248 NA
ATOM     48  C   UNL A   1      43.363  28.744  27.138  1.00  0.00     0.031 C 
ATOM     49  C   UNL A   1      39.534  27.048  29.317  1.00  0.00     0.029 A 
ATOM     50  N   UNL A   1      40.566  28.871  29.985  1.00  0.00    -0.354 N 
ATOM     51  C   UNL A   1      44.859  29.523  28.668  1.00  0.00     0.074 A 
ATOM     52  C   UNL A   1      44.513  29.406  27.275  1.00  0.00     0.031 C 
ATOM     53  C   UNL A   1      38.571  27.929  29.675  1.00  0.00     0.029 A 
ATOM     54  C   UNL A   1      39.211  29.146  30.132  1.00  0.00     0.049 A 
ATOM     55  H   UNL A   1      41.269  29.474  30.323  1.00  0.00     0.167 HD
ATOM     56  C   UNL A   1      45.561  30.484  29.334  1.00  0.00     0.031 A 
ATOM     57  C   UNL A   1      38.665  30.313  30.562  1.00  0.00     0.031 A 
ATOM     58  C   UNL A   1      45.558  30.242  30.755  1.00  0.00     0.049 A 
ATOM     59  C   UNL A   1      39.751  31.051  31.262  1.00  0.00     0.074 A 
ATOM     60  C   UNL A   1      46.020  29.225  31.565  1.00  0.00     0.029 A 
ATOM     61  N   UNL A   1      44.624  30.930  31.496  1.00  0.00    -0.354 N 
ATOM     62  N   UNL A   1      40.325  30.613  32.351  1.00  0.00    -0.248 NA
ATOM     63  C   UNL A   1      40.535  31.995  30.482  1.00  0.00     0.031 C 
ATOM     64  C   UNL A   1      44.998  29.053  32.544  1.00  0.00     0.029 A 
ATOM     65  C   UNL A   1      44.019  30.029  32.336  1.00  0.00     0.049 A 
ATOM     66  H   UNL A   1      44.425  31.892  31.436  1.00  0.00     0.167 HD
ATOM     67  C   UNL A   1      41.677  30.882  32.178  1.00  0.00     0.074 A 
ATOM     68  C   UNL A   1      41.734  31.807  31.045  1.00  0.00     0.031 C 
ATOM     69  C   UNL A   1      42.638  30.112  32.769  1.00  0.00     0.031 A 
BRANCH  56  70
ATOM     70  C   UNL A   1      45.906  31.838  28.768  1.00  0.00    -0.014 A 
ATOM     71  C   UNL A   1      45.174  32.312  27.658  1.00  0.00     0.010 A 
ATOM     72  C   UNL A   1      47.078  32.543  29.107  1.00  0.00     0.010 A 
ATOM     73  C   UNL A   1      45.634  33.387  26.887  1.00  0.00     0.020 A 
ATOM     74  C   UNL A   1      47.523  33.642  28.370  1.00  0.00     0.020 A 
ATOM     75  C   UNL A   1      46.816  34.035  27.242  1.00  0.00     0.054 A 
BRANCH  75  76
ATOM     76  S   UNL A   1      47.459  35.348  26.177  1.00  0.00     0.124 S 
ATOM     77  O   UNL A   1      46.321  36.260  26.104  1.00  0.00    -0.237 OA
ATOM     78  O   UNL A   1      48.610  35.827  26.938  1.00  0.00    -0.237 OA
ATOM     79  O   UNL A   1      47.786  34.652  24.935  1.00  0.00    -0.744 OA
ENDBRANCH  75  76
ENDBRANCH  56  70
BRANCH  57  80
ATOM     80  C   UNL A   1      37.411  30.966  30.097  1.00  0.00    -0.014 A 
ATOM     81  C   UNL A   1      36.379  31.300  30.995  1.00  0.00     0.010 A 
ATOM     82  C   UNL A   1      37.347  31.518  28.800  1.00  0.00     0.010 A 
ATOM     83  C   UNL A   1      35.355  32.196  30.628  1.00  0.00     0.020 A 
ATOM     84  C   UNL A   1      36.330  32.409  28.427  1.00  0.00     0.020 A 
ATOM     85  C   UNL A   1      35.350  32.762  29.350  1.00  0.00     0.054 A 
BRANCH  85  86
ATOM     86  S   UNL A   1      34.133  34.052  28.940  1.00  0.00     0.124 S 
ATOM     87  O   UNL A   1      33.276  33.375  27.970  1.00  0.00    -0.237 OA
ATOM     88  O   UNL A   1      33.519  34.334  30.235  1.00  0.00    -0.237 OA
ATOM     89  O   UNL A   1      34.949  35.135  28.396  1.00  0.00    -0.744 OA
ENDBRANCH  85  86
ENDBRANCH  57  80
BRANCH  69  90
ATOM     90  C   UNL A   1      42.222  29.098  33.815  1.00  0.00    -0.014 A 
ATOM     91  C   UNL A   1      41.821  27.780  33.519  1.00  0.00     0.010 A 
ATOM     92  C   UNL A   1      42.460  29.440  35.157  1.00  0.00     0.010 A 
ATOM     93  C   UNL A   1      41.663  26.831  34.545  1.00  0.00     0.020 A 
ATOM     94  C   UNL A   1      42.320  28.497  36.179  1.00  0.00     0.020 A 
ATOM     95  C   UNL A   1      41.921  27.198  35.870  1.00  0.00     0.054 A 
BRANCH  95  96
ATOM     96  S   UNL A   1      41.799  25.956  37.190  1.00  0.00     0.124 S 
ATOM     97  O   UNL A   1      42.832  26.387  38.128  1.00  0.00    -0.237 OA
ATOM     98  O   UNL A   1      40.423  26.107  37.655  1.00  0.00    -0.237 OA
ATOM     99  O   UNL A   1      42.075  24.693  36.505  1.00  0.00    -0.744 OA
ENDBRANCH  95  96
ENDBRANCH  69  90
ENDBRANCH  43  44
ENDBRANCH  35  38
ENDBRANCH  33  34
ENDBRANCH  32  33
ENDBRANCH  31  32
ENDBRANCH   1  31
TORSDOF 20
ENDMDL
