MODEL 1
REMARK VINA RESULT:      -8.5      0.000      0.000
REMARK SMILES CCCc1cc(OC(F)(F)F)cc2c1O[C@@H](C(F)(F)F)C(C(=O)NCCCCCCNC(=O)c1ccc(-c3c4nc(c(-c5ccc(S(=O)(=O)[O-])cc5)c5ccc([nH]5)c(-c5ccc(S(=O)(=O)[O-])cc5)c5nc(c(-c6ccc(S(=O)(=O)[O-])cc6)c6ccc3[nH]6)C=C5)C=C4)cc1)=C2
REMARK SMILES IDX 28 1 27 2 26 3 25 4 24 5 22 6 23 7 21 9 4 10 5 11 14 12 6 13
REMARK SMILES IDX 13 14 15 15 12 16 94 17 16 18 3 19 2 20 1 21 7 22 8 23 9 24
REMARK SMILES IDX 10 25 11 26 17 27 18 28 19 29 20 30 29 31 30 32 31 33 32 34
REMARK SMILES IDX 33 36 34 37 35 38 93 39 36 40 92 41 37 42 38 43 39 44 86 45
REMARK SMILES IDX 40 46 91 47 85 48 87 49 41 50 90 51 84 52 83 53 42 55 72 56
REMARK SMILES IDX 53 57 71 58 54 59 57 60 70 61 88 62 55 63 56 64 69 66 89 67
REMARK SMILES IDX 58 68 43 69 44 70 52 71 45 72 51 73 46 74 47 75 48 76 49 77
REMARK SMILES IDX 50 78 73 79 74 80 82 81 75 82 81 83 76 84 77 85 78 86 79 87
REMARK SMILES IDX 80 88 59 89 60 90 68 91 61 92 67 93 62 94 63 95 64 96 65 97
REMARK SMILES IDX 66 98
REMARK H PARENT 24 8 31 35 87 54 57 65
REMARK Flexibility Score: inf
ROOT
ATOM      1  C   UNL A   1      35.760  33.283  30.699  1.00  0.00     0.002 C 
ENDROOT
BRANCH   1   2
ATOM      2  C   UNL A   1      36.931  33.708  29.805  1.00  0.00     0.002 C 
BRANCH   2   3
ATOM      3  C   UNL A   1      38.167  34.208  30.564  1.00  0.00     0.021 C 
BRANCH   3   4
ATOM      4  C   UNL A   1      39.329  34.598  29.642  1.00  0.00     0.116 C 
BRANCH   4   5
ATOM      5  N   UNL A   1      40.467  33.729  29.898  1.00  0.00    -0.352 N 
ATOM      6  C   UNL A   1      41.807  33.909  29.767  1.00  0.00     0.251 C 
ATOM      7  O   UNL A   1      42.537  32.927  29.874  1.00  0.00    -0.270 OA
ATOM      8  H   UNL A   1      40.218  32.837  30.231  1.00  0.00     0.163 HD
BRANCH   6   9
ATOM      9  C   UNL A   1      42.421  35.249  29.582  1.00  0.00     0.067 C 
ATOM     10  C   UNL A   1      44.030  39.142  29.485  1.00  0.00    -0.002 A 
ATOM     11  C   UNL A   1      43.857  39.905  28.317  1.00  0.00     0.054 A 
ATOM     12  C   UNL A   1      43.504  37.836  29.510  1.00  0.00     0.131 A 
ATOM     13  C   UNL A   1      43.134  39.412  27.228  1.00  0.00     0.130 A 
ATOM     14  C   UNL A   1      42.824  37.314  28.408  1.00  0.00     0.021 A 
ATOM     15  O   UNL A   1      43.622  37.136  30.679  1.00  0.00    -0.475 OA
ATOM     16  C   UNL A   1      42.637  38.109  27.273  1.00  0.00     0.058 A 
ATOM     17  C   UNL A   1      42.232  35.987  28.480  1.00  0.00     0.025 C 
ATOM     18  C   UNL A   1      43.425  35.693  30.640  1.00  0.00     0.314 C 
BRANCH  10  19
ATOM     19  C   UNL A   1      44.766  39.662  30.708  1.00  0.00     0.039 C 
BRANCH  19  20
ATOM     20  C   UNL A   1      45.077  41.162  30.804  1.00  0.00     0.001 C 
ATOM     21  C   UNL A   1      44.117  41.925  31.708  1.00  0.00     0.004 C 
ENDBRANCH  19  20
ENDBRANCH  10  19
BRANCH  13  22
ATOM     22  O   UNL A   1      42.840  40.091  26.080  1.00  0.00    -0.406 OA
BRANCH  22  23
ATOM     23  C   UNL A   1      41.500  40.517  25.890  1.00  0.00     0.573 C 
ATOM     24  F   UNL A   1      40.663  39.469  25.738  1.00  0.00    -0.132 F 
ATOM     25  F   UNL A   1      41.088  41.271  26.932  1.00  0.00    -0.132 F 
ATOM     26  F   UNL A   1      41.436  41.272  24.772  1.00  0.00    -0.132 F 
ENDBRANCH  22  23
ENDBRANCH  13  22
BRANCH  18  27
ATOM     27  C   UNL A   1      43.160  35.236  32.093  1.00  0.00     0.429 C 
ATOM     28  F   UNL A   1      43.591  36.128  33.013  1.00  0.00    -0.167 F 
ATOM     29  F   UNL A   1      41.822  35.110  32.322  1.00  0.00    -0.167 F 
ATOM     30  F   UNL A   1      43.714  34.034  32.371  1.00  0.00    -0.167 F 
ENDBRANCH  18  27
ENDBRANCH   6   9
ENDBRANCH   4   5
ENDBRANCH   3   4
ENDBRANCH   2   3
ENDBRANCH   1   2
BRANCH   1  31
ATOM     31  C   UNL A   1      34.424  33.093  29.973  1.00  0.00     0.021 C 
BRANCH  31  32
ATOM     32  C   UNL A   1      34.509  33.166  28.451  1.00  0.00     0.116 C 
BRANCH  32  33
ATOM     33  N   UNL A   1      33.950  31.981  27.825  1.00  0.00    -0.352 N 
ATOM     34  C   UNL A   1      34.526  30.756  27.598  1.00  0.00     0.251 C 
ATOM     35  H   UNL A   1      33.018  32.069  27.518  1.00  0.00     0.163 HD
ATOM     36  O   UNL A   1      33.977  29.960  26.844  1.00  0.00    -0.269 OA
BRANCH  34  37
ATOM     37  C   UNL A   1      35.805  30.396  28.254  1.00  0.00     0.039 A 
ATOM     38  C   UNL A   1      35.763  29.669  29.446  1.00  0.00     0.014 A 
ATOM     39  C   UNL A   1      37.031  30.817  27.733  1.00  0.00     0.014 A 
ATOM     40  C   UNL A   1      36.952  29.336  30.098  1.00  0.00     0.010 A 
ATOM     41  C   UNL A   1      38.221  30.430  28.351  1.00  0.00     0.010 A 
ATOM     42  C   UNL A   1      38.192  29.700  29.548  1.00  0.00    -0.014 A 
BRANCH  42  43
ATOM     43  C   UNL A   1      39.459  29.328  30.227  1.00  0.00     0.031 A 
ATOM     44  C   UNL A   1      39.896  30.046  31.475  1.00  0.00     0.074 A 
ATOM     45  C   UNL A   1      40.233  28.358  29.702  1.00  0.00     0.049 A 
ATOM     46  N   UNL A   1      40.958  29.846  32.213  1.00  0.00    -0.248 NA
ATOM     47  C   UNL A   1      39.039  31.147  31.947  1.00  0.00     0.031 C 
ATOM     48  C   UNL A   1      39.945  27.620  28.469  1.00  0.00     0.029 A 
ATOM     49  N   UNL A   1      41.418  27.822  30.140  1.00  0.00    -0.354 N 
ATOM     50  C   UNL A   1      40.906  30.799  33.223  1.00  0.00     0.074 A 
ATOM     51  C   UNL A   1      39.733  31.609  32.978  1.00  0.00     0.031 C 
ATOM     52  C   UNL A   1      40.909  26.708  28.267  1.00  0.00     0.029 A 
ATOM     53  C   UNL A   1      41.895  26.811  29.338  1.00  0.00     0.049 A 
ATOM     54  H   UNL A   1      41.881  28.131  30.950  1.00  0.00     0.167 HD
ATOM     55  C   UNL A   1      41.746  30.973  34.272  1.00  0.00     0.031 A 
ATOM     56  C   UNL A   1      42.998  26.049  29.456  1.00  0.00     0.031 A 
ATOM     57  C   UNL A   1      42.906  30.158  34.522  1.00  0.00     0.049 A 
ATOM     58  C   UNL A   1      43.903  26.244  30.640  1.00  0.00     0.074 A 
ATOM     59  C   UNL A   1      43.789  30.218  35.586  1.00  0.00     0.029 A 
ATOM     60  N   UNL A   1      43.346  29.134  33.696  1.00  0.00    -0.354 N 
ATOM     61  N   UNL A   1      43.797  27.106  31.624  1.00  0.00    -0.248 NA
ATOM     62  C   UNL A   1      45.065  25.351  30.740  1.00  0.00     0.031 C 
ATOM     63  C   UNL A   1      44.786  29.257  35.383  1.00  0.00     0.029 A 
ATOM     64  C   UNL A   1      44.496  28.567  34.217  1.00  0.00     0.049 A 
ATOM     65  H   UNL A   1      42.906  28.853  32.862  1.00  0.00     0.167 HD
ATOM     66  C   UNL A   1      44.867  26.844  32.471  1.00  0.00     0.074 A 
ATOM     67  C   UNL A   1      45.595  25.732  31.894  1.00  0.00     0.031 C 
ATOM     68  C   UNL A   1      45.215  27.466  33.625  1.00  0.00     0.031 A 
BRANCH  55  69
ATOM     69  C   UNL A   1      41.439  32.094  35.231  1.00  0.00    -0.014 A 
ATOM     70  C   UNL A   1      42.012  33.368  35.064  1.00  0.00     0.010 A 
ATOM     71  C   UNL A   1      40.541  31.882  36.293  1.00  0.00     0.010 A 
ATOM     72  C   UNL A   1      41.727  34.397  35.966  1.00  0.00     0.020 A 
ATOM     73  C   UNL A   1      40.233  32.917  37.181  1.00  0.00     0.020 A 
ATOM     74  C   UNL A   1      40.843  34.163  37.022  1.00  0.00     0.054 A 
BRANCH  74  75
ATOM     75  S   UNL A   1      40.478  35.521  38.169  1.00  0.00     0.124 S 
ATOM     76  O   UNL A   1      41.795  35.797  38.736  1.00  0.00    -0.237 OA
ATOM     77  O   UNL A   1      39.945  36.555  37.285  1.00  0.00    -0.237 OA
ATOM     78  O   UNL A   1      39.510  34.939  39.097  1.00  0.00    -0.744 OA
ENDBRANCH  74  75
ENDBRANCH  55  69
BRANCH  56  79
ATOM     79  C   UNL A   1      43.288  25.005  28.435  1.00  0.00    -0.014 A 
ATOM     80  C   UNL A   1      42.784  23.701  28.585  1.00  0.00     0.010 A 
ATOM     81  C   UNL A   1      44.053  25.318  27.297  1.00  0.00     0.010 A 
ATOM     82  C   UNL A   1      43.054  22.723  27.623  1.00  0.00     0.020 A 
ATOM     83  C   UNL A   1      44.304  24.349  26.321  1.00  0.00     0.020 A 
ATOM     84  C   UNL A   1      43.811  23.055  26.496  1.00  0.00     0.054 A 
BRANCH  84  85
ATOM     85  S   UNL A   1      44.101  21.787  25.230  1.00  0.00     0.124 S 
ATOM     86  O   UNL A   1      43.906  22.541  23.996  1.00  0.00    -0.237 OA
ATOM     87  O   UNL A   1      45.473  21.370  25.508  1.00  0.00    -0.237 OA
ATOM     88  O   UNL A   1      43.083  20.779  25.519  1.00  0.00    -0.744 OA
ENDBRANCH  84  85
ENDBRANCH  56  79
BRANCH  68  89
ATOM     89  C   UNL A   1      46.425  26.941  34.349  1.00  0.00    -0.014 A 
ATOM     90  C   UNL A   1      47.708  27.458  34.094  1.00  0.00     0.010 A 
ATOM     91  C   UNL A   1      46.270  25.932  35.318  1.00  0.00     0.010 A 
ATOM     92  C   UNL A   1      48.821  26.944  34.764  1.00  0.00     0.020 A 
ATOM     93  C   UNL A   1      47.379  25.435  36.008  1.00  0.00     0.020 A 
ATOM     94  C   UNL A   1      48.650  25.931  35.712  1.00  0.00     0.054 A 
BRANCH  94  95
ATOM     95  S   UNL A   1      50.107  25.291  36.583  1.00  0.00     0.124 S 
ATOM     96  O   UNL A   1      51.000  26.446  36.565  1.00  0.00    -0.237 OA
ATOM     97  O   UNL A   1      49.569  24.933  37.893  1.00  0.00    -0.237 OA
ATOM     98  O   UNL A   1      50.532  24.161  35.761  1.00  0.00    -0.744 OA
ENDBRANCH  94  95
ENDBRANCH  68  89
ENDBRANCH  42  43
ENDBRANCH  34  37
ENDBRANCH  32  33
ENDBRANCH  31  32
ENDBRANCH   1  31
TORSDOF 21
ENDMDL
MODEL 2
REMARK VINA RESULT:      -8.5      5.621     12.273
REMARK SMILES CCCc1cc(OC(F)(F)F)cc2c1O[C@@H](C(F)(F)F)C(C(=O)NCCCCCCNC(=O)c1ccc(-c3c4nc(c(-c5ccc(S(=O)(=O)[O-])cc5)c5ccc([nH]5)c(-c5ccc(S(=O)(=O)[O-])cc5)c5nc(c(-c6ccc(S(=O)(=O)[O-])cc6)c6ccc3[nH]6)C=C5)C=C4)cc1)=C2
REMARK SMILES IDX 28 1 27 2 26 3 25 4 24 5 22 6 23 7 21 9 4 10 5 11 14 12 6 13
REMARK SMILES IDX 13 14 15 15 12 16 94 17 16 18 3 19 2 20 1 21 7 22 8 23 9 24
REMARK SMILES IDX 10 25 11 26 17 27 18 28 19 29 20 30 29 31 30 32 31 33 32 34
REMARK SMILES IDX 33 36 34 37 35 38 93 39 36 40 92 41 37 42 38 43 39 44 86 45
REMARK SMILES IDX 40 46 91 47 85 48 87 49 41 50 90 51 84 52 83 53 42 55 72 56
REMARK SMILES IDX 53 57 71 58 54 59 57 60 70 61 88 62 55 63 56 64 69 66 89 67
REMARK SMILES IDX 58 68 43 69 44 70 52 71 45 72 51 73 46 74 47 75 48 76 49 77
REMARK SMILES IDX 50 78 73 79 74 80 82 81 75 82 81 83 76 84 77 85 78 86 79 87
REMARK SMILES IDX 80 88 59 89 60 90 68 91 61 92 67 93 62 94 63 95 64 96 65 97
REMARK SMILES IDX 66 98
REMARK H PARENT 24 8 31 35 87 54 57 65
REMARK Flexibility Score: inf
ROOT
ATOM      1  C   UNL A   1      46.970  26.656  27.524  1.00  0.00     0.002 C 
ENDROOT
BRANCH   1   2
ATOM      2  C   UNL A   1      48.242  26.061  28.139  1.00  0.00     0.002 C 
BRANCH   2   3
ATOM      3  C   UNL A   1      48.808  26.850  29.327  1.00  0.00     0.021 C 
BRANCH   3   4
ATOM      4  C   UNL A   1      49.494  25.964  30.374  1.00  0.00     0.116 C 
BRANCH   4   5
ATOM      5  N   UNL A   1      49.837  26.764  31.539  1.00  0.00    -0.352 N 
ATOM      6  C   UNL A   1      49.391  26.757  32.822  1.00  0.00     0.251 C 
ATOM      7  O   UNL A   1      49.722  27.683  33.557  1.00  0.00    -0.270 OA
ATOM      8  H   UNL A   1      50.528  27.443  31.364  1.00  0.00     0.163 HD
BRANCH   6   9
ATOM      9  C   UNL A   1      48.591  25.638  33.385  1.00  0.00     0.067 C 
ATOM     10  C   UNL A   1      46.602  22.185  34.754  1.00  0.00    -0.002 A 
ATOM     11  C   UNL A   1      45.197  22.199  34.798  1.00  0.00     0.054 A 
ATOM     12  C   UNL A   1      47.266  23.345  34.309  1.00  0.00     0.131 A 
ATOM     13  C   UNL A   1      44.468  23.307  34.360  1.00  0.00     0.130 A 
ATOM     14  C   UNL A   1      46.548  24.477  33.918  1.00  0.00     0.021 A 
ATOM     15  O   UNL A   1      48.628  23.287  34.208  1.00  0.00    -0.475 OA
ATOM     16  C   UNL A   1      45.150  24.450  33.939  1.00  0.00     0.058 A 
ATOM     17  C   UNL A   1      47.251  25.641  33.401  1.00  0.00     0.025 C 
ATOM     18  C   UNL A   1      49.364  24.540  34.106  1.00  0.00     0.314 C 
BRANCH  10  19
ATOM     19  C   UNL A   1      47.428  20.981  35.174  1.00  0.00     0.039 C 
BRANCH  19  20
ATOM     20  C   UNL A   1      48.088  20.121  34.088  1.00  0.00     0.001 C 
ATOM     21  C   UNL A   1      49.574  19.880  34.322  1.00  0.00     0.004 C 
ENDBRANCH  19  20
ENDBRANCH  10  19
BRANCH  13  22
ATOM     22  O   UNL A   1      43.108  23.402  34.286  1.00  0.00    -0.406 OA
BRANCH  22  23
ATOM     23  C   UNL A   1      42.446  24.183  35.268  1.00  0.00     0.573 C 
ATOM     24  F   UNL A   1      43.125  24.192  36.435  1.00  0.00    -0.132 F 
ATOM     25  F   UNL A   1      42.282  25.452  34.836  1.00  0.00    -0.132 F 
ATOM     26  F   UNL A   1      41.224  23.654  35.497  1.00  0.00    -0.132 F 
ENDBRANCH  22  23
ENDBRANCH  13  22
BRANCH  18  27
ATOM     27  C   UNL A   1      50.767  24.193  33.555  1.00  0.00     0.429 C 
ATOM     28  F   UNL A   1      50.761  23.921  32.231  1.00  0.00    -0.167 F 
ATOM     29  F   UNL A   1      51.615  25.251  33.695  1.00  0.00    -0.167 F 
ATOM     30  F   UNL A   1      51.338  23.152  34.202  1.00  0.00    -0.167 F 
ENDBRANCH  18  27
ENDBRANCH   6   9
ENDBRANCH   4   5
ENDBRANCH   3   4
ENDBRANCH   2   3
ENDBRANCH   1   2
BRANCH   1  31
ATOM     31  C   UNL A   1      46.565  26.064  26.169  1.00  0.00     0.021 C 
BRANCH  31  32
ATOM     32  C   UNL A   1      45.544  26.891  25.392  1.00  0.00     0.116 C 
BRANCH  32  33
ATOM     33  N   UNL A   1      44.412  26.085  24.969  1.00  0.00    -0.352 N 
ATOM     34  C   UNL A   1      43.249  25.791  25.636  1.00  0.00     0.251 C 
ATOM     35  H   UNL A   1      44.491  25.690  24.070  1.00  0.00     0.163 HD
ATOM     36  O   UNL A   1      42.518  24.902  25.213  1.00  0.00    -0.269 OA
BRANCH  34  37
ATOM     37  C   UNL A   1      42.877  26.539  26.859  1.00  0.00     0.039 A 
ATOM     38  C   UNL A   1      43.215  27.891  26.945  1.00  0.00     0.014 A 
ATOM     39  C   UNL A   1      42.252  25.903  27.936  1.00  0.00     0.014 A 
ATOM     40  C   UNL A   1      42.897  28.615  28.097  1.00  0.00     0.010 A 
ATOM     41  C   UNL A   1      41.880  26.641  29.060  1.00  0.00     0.010 A 
ATOM     42  C   UNL A   1      42.213  27.999  29.158  1.00  0.00    -0.014 A 
BRANCH  42  43
ATOM     43  C   UNL A   1      41.854  28.771  30.375  1.00  0.00     0.031 A 
ATOM     44  C   UNL A   1      42.670  28.638  31.632  1.00  0.00     0.074 A 
ATOM     45  C   UNL A   1      40.773  29.575  30.355  1.00  0.00     0.049 A 
ATOM     46  N   UNL A   1      42.518  29.245  32.782  1.00  0.00    -0.248 NA
ATOM     47  C   UNL A   1      43.790  27.683  31.603  1.00  0.00     0.031 C 
ATOM     48  C   UNL A   1      39.872  29.754  29.213  1.00  0.00     0.029 A 
ATOM     49  N   UNL A   1      40.249  30.396  31.322  1.00  0.00    -0.354 N 
ATOM     50  C   UNL A   1      43.510  28.739  33.614  1.00  0.00     0.074 A 
ATOM     51  C   UNL A   1      44.228  27.740  32.853  1.00  0.00     0.031 C 
ATOM     52  C   UNL A   1      38.927  30.651  29.535  1.00  0.00     0.029 A 
ATOM     53  C   UNL A   1      39.137  31.093  30.910  1.00  0.00     0.049 A 
ATOM     54  H   UNL A   1      40.633  30.479  32.223  1.00  0.00     0.167 HD
ATOM     55  C   UNL A   1      43.810  29.087  34.889  1.00  0.00     0.031 A 
ATOM     56  C   UNL A   1      38.377  31.992  31.564  1.00  0.00     0.031 A 
ATOM     57  C   UNL A   1      43.102  30.091  35.640  1.00  0.00     0.049 A 
ATOM     58  C   UNL A   1      38.743  32.379  32.969  1.00  0.00     0.074 A 
ATOM     59  C   UNL A   1      43.364  30.555  36.917  1.00  0.00     0.029 A 
ATOM     60  N   UNL A   1      41.992  30.785  35.182  1.00  0.00    -0.354 N 
ATOM     61  N   UNL A   1      39.729  31.939  33.714  1.00  0.00    -0.248 NA
ATOM     62  C   UNL A   1      37.904  33.399  33.613  1.00  0.00     0.031 C 
ATOM     63  C   UNL A   1      42.387  31.501  37.247  1.00  0.00     0.029 A 
ATOM     64  C   UNL A   1      41.547  31.661  36.157  1.00  0.00     0.049 A 
ATOM     65  H   UNL A   1      41.582  30.671  34.294  1.00  0.00     0.167 HD
ATOM     66  C   UNL A   1      39.642  32.645  34.908  1.00  0.00     0.074 A 
ATOM     67  C   UNL A   1      38.521  33.554  34.777  1.00  0.00     0.031 C 
ATOM     68  C   UNL A   1      40.422  32.552  36.014  1.00  0.00     0.031 A 
BRANCH  55  69
ATOM     69  C   UNL A   1      44.957  28.371  35.553  1.00  0.00    -0.014 A 
ATOM     70  C   UNL A   1      46.265  28.888  35.497  1.00  0.00     0.010 A 
ATOM     71  C   UNL A   1      44.721  27.186  36.272  1.00  0.00     0.010 A 
ATOM     72  C   UNL A   1      47.322  28.208  36.109  1.00  0.00     0.020 A 
ATOM     73  C   UNL A   1      45.772  26.518  36.909  1.00  0.00     0.020 A 
ATOM     74  C   UNL A   1      47.069  27.024  36.807  1.00  0.00     0.054 A 
BRANCH  74  75
ATOM     75  S   UNL A   1      48.457  26.171  37.607  1.00  0.00     0.124 S 
ATOM     76  O   UNL A   1      49.605  26.763  36.925  1.00  0.00    -0.237 OA
ATOM     77  O   UNL A   1      48.299  26.545  39.010  1.00  0.00    -0.237 OA
ATOM     78  O   UNL A   1      48.214  24.762  37.309  1.00  0.00    -0.744 OA
ENDBRANCH  74  75
ENDBRANCH  55  69
BRANCH  56  79
ATOM     79  C   UNL A   1      37.210  32.610  30.878  1.00  0.00    -0.014 A 
ATOM     80  C   UNL A   1      37.392  33.688  29.993  1.00  0.00     0.010 A 
ATOM     81  C   UNL A   1      35.913  32.110  31.092  1.00  0.00     0.010 A 
ATOM     82  C   UNL A   1      36.295  34.266  29.346  1.00  0.00     0.020 A 
ATOM     83  C   UNL A   1      34.817  32.669  30.427  1.00  0.00     0.020 A 
ATOM     84  C   UNL A   1      35.015  33.751  29.567  1.00  0.00     0.054 A 
BRANCH  84  85
ATOM     85  S   UNL A   1      33.611  34.477  28.673  1.00  0.00     0.124 S 
ATOM     86  O   UNL A   1      34.250  35.562  27.936  1.00  0.00    -0.237 OA
ATOM     87  O   UNL A   1      33.136  33.355  27.867  1.00  0.00    -0.237 OA
ATOM     88  O   UNL A   1      32.706  34.891  29.743  1.00  0.00    -0.744 OA
ENDBRANCH  84  85
ENDBRANCH  56  79
BRANCH  68  89
ATOM     89  C   UNL A   1      40.101  33.473  37.160  1.00  0.00    -0.014 A 
ATOM     90  C   UNL A   1      39.231  33.076  38.191  1.00  0.00     0.010 A 
ATOM     91  C   UNL A   1      40.699  34.745  37.216  1.00  0.00     0.010 A 
ATOM     92  C   UNL A   1      38.931  33.953  39.237  1.00  0.00     0.020 A 
ATOM     93  C   UNL A   1      40.421  35.614  38.274  1.00  0.00     0.020 A 
ATOM     94  C   UNL A   1      39.523  35.219  39.268  1.00  0.00     0.054 A 
BRANCH  94  95
ATOM     95  S   UNL A   1      39.134  36.335  40.644  1.00  0.00     0.124 S 
ATOM     96  O   UNL A   1      38.324  35.478  41.507  1.00  0.00    -0.237 OA
ATOM     97  O   UNL A   1      40.454  36.681  41.164  1.00  0.00    -0.237 OA
ATOM     98  O   UNL A   1      38.415  37.434  40.005  1.00  0.00    -0.744 OA
ENDBRANCH  94  95
ENDBRANCH  68  89
ENDBRANCH  42  43
ENDBRANCH  34  37
ENDBRANCH  32  33
ENDBRANCH  31  32
ENDBRANCH   1  31
TORSDOF 21
ENDMDL
MODEL 3
REMARK VINA RESULT:      -8.5      4.741      9.917
REMARK SMILES CCCc1cc(OC(F)(F)F)cc2c1O[C@@H](C(F)(F)F)C(C(=O)NCCCCCCNC(=O)c1ccc(-c3c4nc(c(-c5ccc(S(=O)(=O)[O-])cc5)c5ccc([nH]5)c(-c5ccc(S(=O)(=O)[O-])cc5)c5nc(c(-c6ccc(S(=O)(=O)[O-])cc6)c6ccc3[nH]6)C=C5)C=C4)cc1)=C2
REMARK SMILES IDX 28 1 27 2 26 3 25 4 24 5 22 6 23 7 21 9 4 10 5 11 14 12 6 13
REMARK SMILES IDX 13 14 15 15 12 16 94 17 16 18 3 19 2 20 1 21 7 22 8 23 9 24
REMARK SMILES IDX 10 25 11 26 17 27 18 28 19 29 20 30 29 31 30 32 31 33 32 34
REMARK SMILES IDX 33 36 34 37 35 38 93 39 36 40 92 41 37 42 38 43 39 44 86 45
REMARK SMILES IDX 40 46 91 47 85 48 87 49 41 50 90 51 84 52 83 53 42 55 72 56
REMARK SMILES IDX 53 57 71 58 54 59 57 60 70 61 88 62 55 63 56 64 69 66 89 67
REMARK SMILES IDX 58 68 43 69 44 70 52 71 45 72 51 73 46 74 47 75 48 76 49 77
REMARK SMILES IDX 50 78 73 79 74 80 82 81 75 82 81 83 76 84 77 85 78 86 79 87
REMARK SMILES IDX 80 88 59 89 60 90 68 91 61 92 67 93 62 94 63 95 64 96 65 97
REMARK SMILES IDX 66 98
REMARK H PARENT 24 8 31 35 87 54 57 65
REMARK Flexibility Score: inf
ROOT
ATOM      1  C   UNL A   1      35.165  29.362  27.726  1.00  0.00     0.002 C 
ENDROOT
BRANCH   1   2
ATOM      2  C   UNL A   1      36.593  29.826  28.033  1.00  0.00     0.002 C 
BRANCH   2   3
ATOM      3  C   UNL A   1      37.120  29.407  29.412  1.00  0.00     0.021 C 
BRANCH   3   4
ATOM      4  C   UNL A   1      38.536  28.821  29.369  1.00  0.00     0.116 C 
BRANCH   4   5
ATOM      5  N   UNL A   1      39.118  29.048  28.056  1.00  0.00    -0.352 N 
ATOM      6  C   UNL A   1      40.125  28.436  27.379  1.00  0.00     0.251 C 
ATOM      7  O   UNL A   1      40.538  28.964  26.350  1.00  0.00    -0.270 OA
ATOM      8  H   UNL A   1      38.701  29.789  27.560  1.00  0.00     0.163 HD
BRANCH   6   9
ATOM      9  C   UNL A   1      40.682  27.121  27.790  1.00  0.00     0.067 C 
ATOM     10  C   UNL A   1      42.673  23.562  28.849  1.00  0.00    -0.002 A 
ATOM     11  C   UNL A   1      42.095  22.338  28.472  1.00  0.00     0.054 A 
ATOM     12  C   UNL A   1      41.999  24.750  28.506  1.00  0.00     0.131 A 
ATOM     13  C   UNL A   1      40.914  22.292  27.727  1.00  0.00     0.130 A 
ATOM     14  C   UNL A   1      40.792  24.714  27.807  1.00  0.00     0.021 A 
ATOM     15  O   UNL A   1      42.612  25.931  28.821  1.00  0.00    -0.475 OA
ATOM     16  C   UNL A   1      40.258  23.483  27.414  1.00  0.00     0.058 A 
ATOM     17  C   UNL A   1      40.145  25.954  27.406  1.00  0.00     0.025 C 
ATOM     18  C   UNL A   1      41.809  27.147  28.815  1.00  0.00     0.314 C 
BRANCH  10  19
ATOM     19  C   UNL A   1      43.982  23.654  29.615  1.00  0.00     0.039 C 
BRANCH  19  20
ATOM     20  C   UNL A   1      43.944  23.663  31.149  1.00  0.00     0.001 C 
ATOM     21  C   UNL A   1      44.514  24.935  31.765  1.00  0.00     0.004 C 
ENDBRANCH  19  20
ENDBRANCH  10  19
BRANCH  13  22
ATOM     22  O   UNL A   1      40.308  21.168  27.243  1.00  0.00    -0.406 OA
BRANCH  22  23
ATOM     23  C   UNL A   1      41.126  20.193  26.615  1.00  0.00     0.573 C 
ATOM     24  F   UNL A   1      41.808  19.460  27.521  1.00  0.00    -0.132 F 
ATOM     25  F   UNL A   1      40.381  19.371  25.844  1.00  0.00    -0.132 F 
ATOM     26  F   UNL A   1      42.021  20.820  25.821  1.00  0.00    -0.132 F 
ENDBRANCH  22  23
ENDBRANCH  13  22
BRANCH  18  27
ATOM     27  C   UNL A   1      42.794  28.336  28.745  1.00  0.00     0.429 C 
ATOM     28  F   UNL A   1      42.275  29.481  29.241  1.00  0.00    -0.167 F 
ATOM     29  F   UNL A   1      43.901  28.092  29.502  1.00  0.00    -0.167 F 
ATOM     30  F   UNL A   1      43.232  28.576  27.488  1.00  0.00    -0.167 F 
ENDBRANCH  18  27
ENDBRANCH   6   9
ENDBRANCH   4   5
ENDBRANCH   3   4
ENDBRANCH   2   3
ENDBRANCH   1   2
BRANCH   1  31
ATOM     31  C   UNL A   1      34.075  30.412  27.968  1.00  0.00     0.021 C 
BRANCH  31  32
ATOM     32  C   UNL A   1      34.387  31.796  27.405  1.00  0.00     0.116 C 
BRANCH  32  33
ATOM     33  N   UNL A   1      33.775  32.847  28.199  1.00  0.00    -0.352 N 
ATOM     34  C   UNL A   1      34.275  33.534  29.277  1.00  0.00     0.251 C 
ATOM     35  H   UNL A   1      32.866  33.106  27.923  1.00  0.00     0.163 HD
ATOM     36  O   UNL A   1      33.520  34.216  29.962  1.00  0.00    -0.269 OA
BRANCH  34  37
ATOM     37  C   UNL A   1      35.714  33.450  29.617  1.00  0.00     0.039 A 
ATOM     38  C   UNL A   1      36.091  33.562  30.958  1.00  0.00     0.014 A 
ATOM     39  C   UNL A   1      36.689  33.320  28.624  1.00  0.00     0.014 A 
ATOM     40  C   UNL A   1      37.443  33.511  31.305  1.00  0.00     0.010 A 
ATOM     41  C   UNL A   1      38.033  33.207  28.977  1.00  0.00     0.010 A 
ATOM     42  C   UNL A   1      38.425  33.317  30.319  1.00  0.00    -0.014 A 
BRANCH  42  43
ATOM     43  C   UNL A   1      39.861  33.239  30.688  1.00  0.00     0.031 A 
ATOM     44  C   UNL A   1      40.836  34.268  30.182  1.00  0.00     0.074 A 
ATOM     45  C   UNL A   1      40.294  32.222  31.458  1.00  0.00     0.049 A 
ATOM     46  N   UNL A   1      42.120  34.372  30.413  1.00  0.00    -0.248 NA
ATOM     47  C   UNL A   1      40.305  35.306  29.281  1.00  0.00     0.031 C 
ATOM     48  C   UNL A   1      39.458  31.134  31.972  1.00  0.00     0.029 A 
ATOM     49  N   UNL A   1      41.544  31.939  31.949  1.00  0.00    -0.354 N 
ATOM     50  C   UNL A   1      42.552  35.471  29.681  1.00  0.00     0.074 A 
ATOM     51  C   UNL A   1      41.403  35.974  28.959  1.00  0.00     0.031 C 
ATOM     52  C   UNL A   1      40.211  30.321  32.729  1.00  0.00     0.029 A 
ATOM     53  C   UNL A   1      41.585  30.812  32.735  1.00  0.00     0.049 A 
ATOM     54  H   UNL A   1      42.335  32.491  31.756  1.00  0.00     0.167 HD
ATOM     55  C   UNL A   1      43.787  36.026  29.629  1.00  0.00     0.031 A 
ATOM     56  C   UNL A   1      42.612  30.242  33.394  1.00  0.00     0.031 A 
ATOM     57  C   UNL A   1      44.926  35.533  30.358  1.00  0.00     0.049 A 
ATOM     58  C   UNL A   1      43.967  30.888  33.340  1.00  0.00     0.074 A 
ATOM     59  C   UNL A   1      46.205  36.056  30.416  1.00  0.00     0.029 A 
ATOM     60  N   UNL A   1      44.923  34.398  31.157  1.00  0.00    -0.354 N 
ATOM     61  N   UNL A   1      44.339  31.970  32.697  1.00  0.00    -0.248 NA
ATOM     62  C   UNL A   1      45.037  30.247  34.117  1.00  0.00     0.031 C 
ATOM     63  C   UNL A   1      46.987  35.216  31.217  1.00  0.00     0.029 A 
ATOM     64  C   UNL A   1      46.181  34.196  31.697  1.00  0.00     0.049 A 
ATOM     65  H   UNL A   1      44.141  33.822  31.315  1.00  0.00     0.167 HD
ATOM     66  C   UNL A   1      45.681  32.151  33.009  1.00  0.00     0.074 A 
ATOM     67  C   UNL A   1      46.049  31.081  33.913  1.00  0.00     0.031 C 
ATOM     68  C   UNL A   1      46.533  33.119  32.588  1.00  0.00     0.031 A 
BRANCH  55  69
ATOM     69  C   UNL A   1      43.970  37.234  28.748  1.00  0.00    -0.014 A 
ATOM     70  C   UNL A   1      43.876  38.537  29.273  1.00  0.00     0.010 A 
ATOM     71  C   UNL A   1      44.273  37.068  27.384  1.00  0.00     0.010 A 
ATOM     72  C   UNL A   1      44.038  39.649  28.443  1.00  0.00     0.020 A 
ATOM     73  C   UNL A   1      44.463  38.179  26.556  1.00  0.00     0.020 A 
ATOM     74  C   UNL A   1      44.325  39.462  27.088  1.00  0.00     0.054 A 
BRANCH  74  75
ATOM     75  S   UNL A   1      44.546  40.924  26.035  1.00  0.00     0.124 S 
ATOM     76  O   UNL A   1      45.762  40.583  25.301  1.00  0.00    -0.237 OA
ATOM     77  O   UNL A   1      43.319  40.940  25.244  1.00  0.00    -0.237 OA
ATOM     78  O   UNL A   1      44.683  42.021  26.991  1.00  0.00    -0.744 OA
ENDBRANCH  74  75
ENDBRANCH  55  69
BRANCH  56  79
ATOM     79  C   UNL A   1      42.384  29.005  34.189  1.00  0.00    -0.014 A 
ATOM     80  C   UNL A   1      42.666  27.741  33.640  1.00  0.00     0.010 A 
ATOM     81  C   UNL A   1      41.901  29.087  35.507  1.00  0.00     0.010 A 
ATOM     82  C   UNL A   1      42.455  26.581  34.389  1.00  0.00     0.020 A 
ATOM     83  C   UNL A   1      41.713  27.929  36.268  1.00  0.00     0.020 A 
ATOM     84  C   UNL A   1      41.981  26.683  35.700  1.00  0.00     0.054 A 
BRANCH  84  85
ATOM     85  S   UNL A   1      41.768  25.168  36.677  1.00  0.00     0.124 S 
ATOM     86  O   UNL A   1      41.490  24.177  35.643  1.00  0.00    -0.237 OA
ATOM     87  O   UNL A   1      43.060  25.039  37.347  1.00  0.00    -0.237 OA
ATOM     88  O   UNL A   1      40.648  25.487  37.559  1.00  0.00    -0.744 OA
ENDBRANCH  84  85
ENDBRANCH  56  79
BRANCH  68  89
ATOM     89  C   UNL A   1      47.940  33.074  33.120  1.00  0.00    -0.014 A 
ATOM     90  C   UNL A   1      48.288  33.729  34.315  1.00  0.00     0.010 A 
ATOM     91  C   UNL A   1      48.922  32.345  32.425  1.00  0.00     0.010 A 
ATOM     92  C   UNL A   1      49.604  33.691  34.782  1.00  0.00     0.020 A 
ATOM     93  C   UNL A   1      50.233  32.283  32.904  1.00  0.00     0.020 A 
ATOM     94  C   UNL A   1      50.570  32.974  34.069  1.00  0.00     0.054 A 
BRANCH  94  95
ATOM     95  S   UNL A   1      52.269  32.923  34.704  1.00  0.00     0.124 S 
ATOM     96  O   UNL A   1      52.055  33.020  36.146  1.00  0.00    -0.237 OA
ATOM     97  O   UNL A   1      52.754  31.630  34.227  1.00  0.00    -0.237 OA
ATOM     98  O   UNL A   1      52.903  34.085  34.088  1.00  0.00    -0.744 OA
ENDBRANCH  94  95
ENDBRANCH  68  89
ENDBRANCH  42  43
ENDBRANCH  34  37
ENDBRANCH  32  33
ENDBRANCH  31  32
ENDBRANCH   1  31
TORSDOF 21
ENDMDL
