MODEL 1
REMARK VINA RESULT:     -11.2      0.000      0.000
REMARK SMILES C[C@@]12CCC[C@](C)(C(=O)NCCCCCCNC(=O)c3ccc(-c4c5nc(c(-c6ccc(S(=O)(=O)[O-])cc6)c6ccc([nH]6)c(-c6ccc(S(=O)(=O)[O-])cc6)c6nc(c(-c7ccc(S(=O)(=O)[O-])cc7)c7ccc4[nH]7)C=C6)C=C5)cc3)[C@H]1CC[C@@]13C=C(CO)[C@@H](CC[C@@H]12)C3
REMARK SMILES IDX 14 1 13 2 12 3 11 4 10 5 8 6 9 7 6 9 1 10 2 11 3 12 80 13
REMARK SMILES IDX 91 14 4 15 81 16 83 17 90 18 5 19 7 20 82 21 84 22 92 23
REMARK SMILES IDX 89 24 85 25 88 26 86 27 87 28 15 30 16 31 17 32 18 33 19 35
REMARK SMILES IDX 20 36 21 37 79 38 22 39 78 40 23 41 24 42 25 43 72 44 26 45
REMARK SMILES IDX 77 46 71 47 73 48 27 49 76 50 70 51 69 52 28 54 58 55 39 56
REMARK SMILES IDX 57 57 40 58 43 59 56 60 74 61 41 62 42 63 55 65 75 66 44 67
REMARK SMILES IDX 29 68 30 69 38 70 31 71 37 72 32 73 33 74 34 75 35 76 36 77
REMARK SMILES IDX 59 78 60 79 68 80 61 81 67 82 62 83 63 84 64 85 65 86 66 87
REMARK SMILES IDX 45 88 46 89 54 90 47 91 53 92 48 93 49 94 50 95 51 96 52 97
REMARK H PARENT 10 8 87 29 17 34 73 53 43 64
REMARK Flexibility Score: inf
ROOT
ATOM      1  C   UNL A   1      33.348  27.125  23.981  1.00  0.00     0.002 C 
ENDROOT
BRANCH   1   2
ATOM      2  C   UNL A   1      31.846  27.260  23.721  1.00  0.00     0.002 C 
BRANCH   2   3
ATOM      3  C   UNL A   1      30.997  27.127  24.977  1.00  0.00     0.021 C 
BRANCH   3   4
ATOM      4  C   UNL A   1      31.754  26.473  26.130  1.00  0.00     0.116 C 
BRANCH   4   5
ATOM      5  N   UNL A   1      30.872  25.569  26.851  1.00  0.00    -0.356 N 
ATOM      6  C   UNL A   1      30.435  24.303  26.590  1.00  0.00     0.226 C 
ATOM      7  O   UNL A   1      29.544  23.872  27.327  1.00  0.00    -0.274 OA
ATOM      8  H   UNL A   1      30.521  25.945  27.691  1.00  0.00     0.163 HD
BRANCH   6   9
ATOM      9  C   UNL A   1      31.089  23.418  25.498  1.00  0.00     0.050 C 
ATOM     10  C   UNL A   1      32.985  21.182  24.630  1.00  0.00     0.012 C 
ATOM     11  C   UNL A   1      33.306  22.682  24.293  1.00  0.00    -0.025 C 
ATOM     12  C   UNL A   1      32.679  23.067  22.931  1.00  0.00     0.007 C 
ATOM     13  C   UNL A   1      32.686  23.602  25.386  1.00  0.00     0.010 C 
ATOM     14  C   UNL A   1      34.864  22.753  24.190  1.00  0.00     0.005 C 
ATOM     15  C   UNL A   1      31.153  23.132  22.915  1.00  0.00     0.002 C 
ATOM     16  C   UNL A   1      33.526  23.611  26.676  1.00  0.00     0.006 C 
ATOM     17  C   UNL A   1      35.659  22.834  25.554  1.00  0.00    -0.008 C 
ATOM     18  C   UNL A   1      35.681  23.488  23.136  1.00  0.00     0.006 C 
ATOM     19  C   UNL A   1      30.566  23.909  24.099  1.00  0.00     0.017 C 
ATOM     20  C   UNL A   1      30.416  22.022  25.680  1.00  0.00     0.022 C 
ATOM     21  C   UNL A   1      35.028  23.837  26.497  1.00  0.00     0.012 C 
ATOM     22  C   UNL A   1      35.830  21.399  25.951  1.00  0.00    -0.018 C 
ATOM     23  C   UNL A   1      37.178  23.115  25.365  1.00  0.00     0.019 C 
ATOM     24  C   UNL A   1      36.987  22.610  22.988  1.00  0.00     0.008 C 
ATOM     25  C   UNL A   1      36.748  20.878  25.102  1.00  0.00    -0.045 C 
ATOM     26  C   UNL A   1      37.504  22.012  24.357  1.00  0.00     0.018 C 
BRANCH  25  27
ATOM     27  C   UNL A   1      36.966  19.418  24.905  1.00  0.00     0.187 C 
BRANCH  27  28
ATOM     28  O   UNL A   1      35.707  18.748  24.919  1.00  0.00    -0.392 OA
ATOM     29  H   UNL A   1      35.084  19.243  25.474  1.00  0.00     0.211 HD
ENDBRANCH  27  28
ENDBRANCH  25  27
ENDBRANCH   6   9
ENDBRANCH   4   5
ENDBRANCH   3   4
ENDBRANCH   2   3
ENDBRANCH   1   2
BRANCH   1  30
ATOM     30  C   UNL A   1      34.035  28.403  24.470  1.00  0.00     0.021 C 
BRANCH  30  31
ATOM     31  C   UNL A   1      34.308  28.440  25.972  1.00  0.00     0.116 C 
BRANCH  31  32
ATOM     32  N   UNL A   1      33.862  29.694  26.562  1.00  0.00    -0.352 N 
ATOM     33  C   UNL A   1      34.414  30.405  27.589  1.00  0.00     0.251 C 
ATOM     34  H   UNL A   1      33.050  30.084  26.165  1.00  0.00     0.163 HD
ATOM     35  O   UNL A   1      33.759  31.287  28.153  1.00  0.00    -0.269 OA
BRANCH  33  36
ATOM     36  C   UNL A   1      35.791  30.111  28.021  1.00  0.00     0.039 A 
ATOM     37  C   UNL A   1      36.010  29.579  29.294  1.00  0.00     0.014 A 
ATOM     38  C   UNL A   1      36.868  30.367  27.165  1.00  0.00     0.014 A 
ATOM     39  C   UNL A   1      37.309  29.262  29.690  1.00  0.00     0.010 A 
ATOM     40  C   UNL A   1      38.150  29.978  27.533  1.00  0.00     0.010 A 
ATOM     41  C   UNL A   1      38.386  29.432  28.803  1.00  0.00    -0.014 A 
BRANCH  41  42
ATOM     42  C   UNL A   1      39.766  29.050  29.190  1.00  0.00     0.031 A 
ATOM     43  C   UNL A   1      40.652  30.038  29.898  1.00  0.00     0.074 A 
ATOM     44  C   UNL A   1      40.237  27.833  28.853  1.00  0.00     0.049 A 
ATOM     45  N   UNL A   1      41.897  29.903  30.279  1.00  0.00    -0.248 NA
ATOM     46  C   UNL A   1      40.073  31.358  30.200  1.00  0.00     0.031 C 
ATOM     47  C   UNL A   1      39.485  26.803  28.130  1.00  0.00     0.029 A 
ATOM     48  N   UNL A   1      41.463  27.257  29.071  1.00  0.00    -0.354 N 
ATOM     49  C   UNL A   1      42.252  31.119  30.849  1.00  0.00     0.074 A 
ATOM     50  C   UNL A   1      41.111  31.998  30.717  1.00  0.00     0.031 C 
ATOM     51  C   UNL A   1      40.256  25.713  27.993  1.00  0.00     0.029 A 
ATOM     52  C   UNL A   1      41.567  25.978  28.576  1.00  0.00     0.049 A 
ATOM     53  H   UNL A   1      42.199  27.715  29.538  1.00  0.00     0.167 HD
ATOM     54  C   UNL A   1      43.415  31.467  31.448  1.00  0.00     0.031 A 
ATOM     55  C   UNL A   1      42.603  25.118  28.583  1.00  0.00     0.031 A 
ATOM     56  C   UNL A   1      44.546  30.586  31.581  1.00  0.00     0.049 A 
ATOM     57  C   UNL A   1      43.893  25.535  29.236  1.00  0.00     0.074 A 
ATOM     58  C   UNL A   1      45.752  30.824  32.215  1.00  0.00     0.029 A 
ATOM     59  N   UNL A   1      44.612  29.299  31.065  1.00  0.00    -0.354 N 
ATOM     60  N   UNL A   1      44.187  26.667  29.831  1.00  0.00    -0.248 NA
ATOM     61  C   UNL A   1      44.987  24.554  29.228  1.00  0.00     0.031 C 
ATOM     62  C   UNL A   1      46.570  29.704  32.032  1.00  0.00     0.029 A 
ATOM     63  C   UNL A   1      45.849  28.742  31.342  1.00  0.00     0.049 A 
ATOM     64  H   UNL A   1      43.886  28.850  30.575  1.00  0.00     0.167 HD
ATOM     65  C   UNL A   1      45.492  26.524  30.292  1.00  0.00     0.074 A 
ATOM     66  C   UNL A   1      45.921  25.190  29.923  1.00  0.00     0.031 C 
ATOM     67  C   UNL A   1      46.262  27.414  30.963  1.00  0.00     0.031 A 
BRANCH  54  68
ATOM     68  C   UNL A   1      43.527  32.866  31.999  1.00  0.00    -0.014 A 
ATOM     69  C   UNL A   1      43.999  33.926  31.205  1.00  0.00     0.010 A 
ATOM     70  C   UNL A   1      43.120  33.132  33.320  1.00  0.00     0.010 A 
ATOM     71  C   UNL A   1      44.101  35.217  31.731  1.00  0.00     0.020 A 
ATOM     72  C   UNL A   1      43.190  34.427  33.840  1.00  0.00     0.020 A 
ATOM     73  C   UNL A   1      43.697  35.459  33.047  1.00  0.00     0.054 A 
BRANCH  73  74
ATOM     74  S   UNL A   1      43.819  37.148  33.696  1.00  0.00     0.124 S 
ATOM     75  O   UNL A   1      42.623  37.236  34.530  1.00  0.00    -0.237 OA
ATOM     76  O   UNL A   1      45.089  37.121  34.418  1.00  0.00    -0.237 OA
ATOM     77  O   UNL A   1      43.804  37.983  32.497  1.00  0.00    -0.744 OA
ENDBRANCH  73  74
ENDBRANCH  54  68
BRANCH  55  78
ATOM     78  C   UNL A   1      42.459  23.773  27.961  1.00  0.00    -0.014 A 
ATOM     79  C   UNL A   1      42.789  23.569  26.609  1.00  0.00     0.010 A 
ATOM     80  C   UNL A   1      42.000  22.683  28.723  1.00  0.00     0.010 A 
ATOM     81  C   UNL A   1      42.646  22.307  26.026  1.00  0.00     0.020 A 
ATOM     82  C   UNL A   1      41.884  21.413  28.153  1.00  0.00     0.020 A 
ATOM     83  C   UNL A   1      42.197  21.235  26.804  1.00  0.00     0.054 A 
BRANCH  83  84
ATOM     84  S   UNL A   1      42.066  19.595  26.039  1.00  0.00     0.124 S 
ATOM     85  O   UNL A   1      42.495  18.719  27.123  1.00  0.00    -0.237 OA
ATOM     86  O   UNL A   1      40.649  19.524  25.688  1.00  0.00    -0.237 OA
ATOM     87  O   UNL A   1      42.978  19.676  24.900  1.00  0.00    -0.744 OA
ENDBRANCH  83  84
ENDBRANCH  55  78
BRANCH  67  88
ATOM     88  C   UNL A   1      47.643  26.968  31.372  1.00  0.00    -0.014 A 
ATOM     89  C   UNL A   1      47.857  26.249  32.560  1.00  0.00     0.010 A 
ATOM     90  C   UNL A   1      48.733  27.228  30.521  1.00  0.00     0.010 A 
ATOM     91  C   UNL A   1      49.143  25.826  32.907  1.00  0.00     0.020 A 
ATOM     92  C   UNL A   1      50.015  26.778  30.848  1.00  0.00     0.020 A 
ATOM     93  C   UNL A   1      50.213  26.093  32.047  1.00  0.00     0.054 A 
BRANCH  93  94
ATOM     94  S   UNL A   1      51.865  25.493  32.499  1.00  0.00     0.124 S 
ATOM     95  O   UNL A   1      52.262  26.447  33.531  1.00  0.00    -0.237 OA
ATOM     96  O   UNL A   1      51.595  24.137  32.969  1.00  0.00    -0.237 OA
ATOM     97  O   UNL A   1      52.618  25.576  31.250  1.00  0.00    -0.744 OA
ENDBRANCH  93  94
ENDBRANCH  67  88
ENDBRANCH  41  42
ENDBRANCH  33  36
ENDBRANCH  31  32
ENDBRANCH  30  31
ENDBRANCH   1  30
TORSDOF 18
ENDMDL
MODEL 2
REMARK VINA RESULT:     -11.0      3.892      4.988
REMARK SMILES C[C@@]12CCC[C@](C)(C(=O)NCCCCCCNC(=O)c3ccc(-c4c5nc(c(-c6ccc(S(=O)(=O)[O-])cc6)c6ccc([nH]6)c(-c6ccc(S(=O)(=O)[O-])cc6)c6nc(c(-c7ccc(S(=O)(=O)[O-])cc7)c7ccc4[nH]7)C=C6)C=C5)cc3)[C@H]1CC[C@@]13C=C(CO)[C@@H](CC[C@@H]12)C3
REMARK SMILES IDX 14 1 13 2 12 3 11 4 10 5 8 6 9 7 6 9 1 10 2 11 3 12 80 13
REMARK SMILES IDX 91 14 4 15 81 16 83 17 90 18 5 19 7 20 82 21 84 22 92 23
REMARK SMILES IDX 89 24 85 25 88 26 86 27 87 28 15 30 16 31 17 32 18 33 19 35
REMARK SMILES IDX 20 36 21 37 79 38 22 39 78 40 23 41 24 42 25 43 72 44 26 45
REMARK SMILES IDX 77 46 71 47 73 48 27 49 76 50 70 51 69 52 28 54 58 55 39 56
REMARK SMILES IDX 57 57 40 58 43 59 56 60 74 61 41 62 42 63 55 65 75 66 44 67
REMARK SMILES IDX 29 68 30 69 38 70 31 71 37 72 32 73 33 74 34 75 35 76 36 77
REMARK SMILES IDX 59 78 60 79 68 80 61 81 67 82 62 83 63 84 64 85 65 86 66 87
REMARK SMILES IDX 45 88 46 89 54 90 47 91 53 92 48 93 49 94 50 95 51 96 52 97
REMARK H PARENT 10 8 87 29 17 34 73 53 43 64
REMARK Flexibility Score: inf
ROOT
ATOM      1  C   UNL A   1      31.742  30.646  26.757  1.00  0.00     0.002 C 
ENDROOT
BRANCH   1   2
ATOM      2  C   UNL A   1      31.569  30.110  25.334  1.00  0.00     0.002 C 
BRANCH   2   3
ATOM      3  C   UNL A   1      32.756  29.294  24.843  1.00  0.00     0.021 C 
BRANCH   3   4
ATOM      4  C   UNL A   1      32.803  27.897  25.456  1.00  0.00     0.116 C 
BRANCH   4   5
ATOM      5  N   UNL A   1      31.454  27.371  25.592  1.00  0.00    -0.356 N 
ATOM      6  C   UNL A   1      30.766  26.409  24.911  1.00  0.00     0.226 C 
ATOM      7  O   UNL A   1      29.562  26.318  25.166  1.00  0.00    -0.274 OA
ATOM      8  H   UNL A   1      30.936  27.793  26.316  1.00  0.00     0.163 HD
BRANCH   6   9
ATOM      9  C   UNL A   1      31.473  25.421  23.949  1.00  0.00     0.050 C 
ATOM     10  C   UNL A   1      32.420  22.612  23.201  1.00  0.00     0.012 C 
ATOM     11  C   UNL A   1      33.452  23.730  23.590  1.00  0.00    -0.025 C 
ATOM     12  C   UNL A   1      33.882  24.519  22.330  1.00  0.00     0.007 C 
ATOM     13  C   UNL A   1      32.784  24.729  24.580  1.00  0.00     0.010 C 
ATOM     14  C   UNL A   1      34.684  22.963  24.173  1.00  0.00     0.005 C 
ATOM     15  C   UNL A   1      32.793  25.393  21.710  1.00  0.00     0.002 C 
ATOM     16  C   UNL A   1      32.712  24.164  26.010  1.00  0.00     0.006 C 
ATOM     17  C   UNL A   1      34.568  22.475  25.671  1.00  0.00    -0.008 C 
ATOM     18  C   UNL A   1      36.154  23.242  23.891  1.00  0.00     0.006 C 
ATOM     19  C   UNL A   1      32.042  26.247  22.739  1.00  0.00     0.017 C 
ATOM     20  C   UNL A   1      30.307  24.594  23.323  1.00  0.00     0.022 C 
ATOM     21  C   UNL A   1      34.007  23.564  26.561  1.00  0.00     0.012 C 
ATOM     22  C   UNL A   1      33.893  21.141  25.559  1.00  0.00    -0.018 C 
ATOM     23  C   UNL A   1      35.904  21.914  26.241  1.00  0.00     0.019 C 
ATOM     24  C   UNL A   1      36.836  21.819  23.991  1.00  0.00     0.008 C 
ATOM     25  C   UNL A   1      34.811  20.293  25.040  1.00  0.00    -0.045 C 
ATOM     26  C   UNL A   1      36.234  20.910  25.136  1.00  0.00     0.018 C 
BRANCH  25  27
ATOM     27  C   UNL A   1      34.480  18.971  24.441  1.00  0.00     0.187 C 
BRANCH  27  28
ATOM     28  O   UNL A   1      35.372  17.984  24.955  1.00  0.00    -0.392 OA
ATOM     29  H   UNL A   1      34.977  17.568  25.737  1.00  0.00     0.211 HD
ENDBRANCH  27  28
ENDBRANCH  25  27
ENDBRANCH   6   9
ENDBRANCH   4   5
ENDBRANCH   3   4
ENDBRANCH   2   3
ENDBRANCH   1   2
BRANCH   1  30
ATOM     30  C   UNL A   1      31.796  32.172  26.870  1.00  0.00     0.021 C 
BRANCH  30  31
ATOM     31  C   UNL A   1      33.065  32.713  27.526  1.00  0.00     0.116 C 
BRANCH  31  32
ATOM     32  N   UNL A   1      32.961  34.141  27.785  1.00  0.00    -0.352 N 
ATOM     33  C   UNL A   1      33.538  34.878  28.780  1.00  0.00     0.251 C 
ATOM     34  H   UNL A   1      32.396  34.646  27.157  1.00  0.00     0.163 HD
ATOM     35  O   UNL A   1      33.122  36.015  29.028  1.00  0.00    -0.269 OA
BRANCH  33  36
ATOM     36  C   UNL A   1      34.655  34.310  29.554  1.00  0.00     0.039 A 
ATOM     37  C   UNL A   1      34.382  33.583  30.715  1.00  0.00     0.014 A 
ATOM     38  C   UNL A   1      35.974  34.502  29.131  1.00  0.00     0.014 A 
ATOM     39  C   UNL A   1      35.434  33.009  31.428  1.00  0.00     0.010 A 
ATOM     40  C   UNL A   1      37.013  33.865  29.799  1.00  0.00     0.010 A 
ATOM     41  C   UNL A   1      36.756  33.121  30.960  1.00  0.00    -0.014 A 
BRANCH  41  42
ATOM     42  C   UNL A   1      37.880  32.473  31.677  1.00  0.00     0.031 A 
ATOM     43  C   UNL A   1      38.329  33.000  33.013  1.00  0.00     0.074 A 
ATOM     44  C   UNL A   1      38.531  31.444  31.099  1.00  0.00     0.049 A 
ATOM     45  N   UNL A   1      39.316  32.594  33.770  1.00  0.00    -0.248 NA
ATOM     46  C   UNL A   1      37.586  34.148  33.560  1.00  0.00     0.031 C 
ATOM     47  C   UNL A   1      38.214  30.869  29.788  1.00  0.00     0.029 A 
ATOM     48  N   UNL A   1      39.598  30.701  31.537  1.00  0.00    -0.354 N 
ATOM     49  C   UNL A   1      39.322  33.441  34.871  1.00  0.00     0.074 A 
ATOM     50  C   UNL A   1      38.276  34.417  34.659  1.00  0.00     0.031 C 
ATOM     51  C   UNL A   1      39.047  29.845  29.545  1.00  0.00     0.029 A 
ATOM     52  C   UNL A   1      39.984  29.718  30.656  1.00  0.00     0.049 A 
ATOM     53  H   UNL A   1      40.046  30.856  32.400  1.00  0.00     0.167 HD
ATOM     54  C   UNL A   1      40.111  33.398  35.970  1.00  0.00     0.031 A 
ATOM     55  C   UNL A   1      40.984  28.819  30.731  1.00  0.00     0.031 A 
ATOM     56  C   UNL A   1      41.148  32.421  36.177  1.00  0.00     0.049 A 
ATOM     57  C   UNL A   1      41.863  28.804  31.952  1.00  0.00     0.074 A 
ATOM     58  C   UNL A   1      41.970  32.258  37.277  1.00  0.00     0.029 A 
ATOM     59  N   UNL A   1      41.508  31.442  35.261  1.00  0.00    -0.354 N 
ATOM     60  N   UNL A   1      41.809  29.571  33.015  1.00  0.00    -0.248 NA
ATOM     61  C   UNL A   1      42.930  27.794  31.988  1.00  0.00     0.031 C 
ATOM     62  C   UNL A   1      42.867  31.221  37.003  1.00  0.00     0.029 A 
ATOM     63  C   UNL A   1      42.559  30.692  35.760  1.00  0.00     0.049 A 
ATOM     64  H   UNL A   1      41.079  31.302  34.386  1.00  0.00     0.167 HD
ATOM     65  C   UNL A   1      42.817  29.119  33.859  1.00  0.00     0.074 A 
ATOM     66  C   UNL A   1      43.452  28.001  33.190  1.00  0.00     0.031 C 
ATOM     67  C   UNL A   1      43.183  29.585  35.079  1.00  0.00     0.031 A 
BRANCH  54  68
ATOM     68  C   UNL A   1      39.891  34.446  37.031  1.00  0.00    -0.014 A 
ATOM     69  C   UNL A   1      39.012  34.220  38.106  1.00  0.00     0.010 A 
ATOM     70  C   UNL A   1      40.602  35.659  36.975  1.00  0.00     0.010 A 
ATOM     71  C   UNL A   1      38.815  35.203  39.080  1.00  0.00     0.020 A 
ATOM     72  C   UNL A   1      40.432  36.631  37.964  1.00  0.00     0.020 A 
ATOM     73  C   UNL A   1      39.526  36.404  39.002  1.00  0.00     0.054 A 
BRANCH  73  74
ATOM     74  S   UNL A   1      39.267  37.651  40.293  1.00  0.00     0.124 S 
ATOM     75  O   UNL A   1      39.069  36.820  41.478  1.00  0.00    -0.237 OA
ATOM     76  O   UNL A   1      40.515  38.409  40.258  1.00  0.00    -0.237 OA
ATOM     77  O   UNL A   1      38.085  38.380  39.839  1.00  0.00    -0.744 OA
ENDBRANCH  73  74
ENDBRANCH  54  68
BRANCH  55  78
ATOM     78  C   UNL A   1      41.200  27.852  29.619  1.00  0.00    -0.014 A 
ATOM     79  C   UNL A   1      42.248  28.037  28.701  1.00  0.00     0.010 A 
ATOM     80  C   UNL A   1      40.363  26.729  29.481  1.00  0.00     0.010 A 
ATOM     81  C   UNL A   1      42.444  27.132  27.655  1.00  0.00     0.020 A 
ATOM     82  C   UNL A   1      40.574  25.804  28.455  1.00  0.00     0.020 A 
ATOM     83  C   UNL A   1      41.606  26.018  27.541  1.00  0.00     0.054 A 
BRANCH  83  84
ATOM     84  S   UNL A   1      41.911  24.829  26.204  1.00  0.00     0.124 S 
ATOM     85  O   UNL A   1      40.824  23.874  26.394  1.00  0.00    -0.237 OA
ATOM     86  O   UNL A   1      41.818  25.667  25.011  1.00  0.00    -0.237 OA
ATOM     87  O   UNL A   1      43.249  24.322  26.497  1.00  0.00    -0.744 OA
ENDBRANCH  83  84
ENDBRANCH  55  78
BRANCH  67  88
ATOM     88  C   UNL A   1      44.303  28.869  35.788  1.00  0.00    -0.014 A 
ATOM     89  C   UNL A   1      44.054  27.767  36.624  1.00  0.00     0.010 A 
ATOM     90  C   UNL A   1      45.632  29.276  35.567  1.00  0.00     0.010 A 
ATOM     91  C   UNL A   1      45.111  27.105  37.254  1.00  0.00     0.020 A 
ATOM     92  C   UNL A   1      46.695  28.596  36.168  1.00  0.00     0.020 A 
ATOM     93  C   UNL A   1      46.425  27.523  37.019  1.00  0.00     0.054 A 
BRANCH  93  94
ATOM     94  S   UNL A   1      47.782  26.618  37.813  1.00  0.00     0.124 S 
ATOM     95  O   UNL A   1      48.608  27.704  38.334  1.00  0.00    -0.237 OA
ATOM     96  O   UNL A   1      47.088  25.819  38.819  1.00  0.00    -0.237 OA
ATOM     97  O   UNL A   1      48.376  25.853  36.719  1.00  0.00    -0.744 OA
ENDBRANCH  93  94
ENDBRANCH  67  88
ENDBRANCH  41  42
ENDBRANCH  33  36
ENDBRANCH  31  32
ENDBRANCH  30  31
ENDBRANCH   1  30
TORSDOF 18
ENDMDL
MODEL 3
REMARK VINA RESULT:     -11.0      3.109      3.864
REMARK SMILES C[C@@]12CCC[C@](C)(C(=O)NCCCCCCNC(=O)c3ccc(-c4c5nc(c(-c6ccc(S(=O)(=O)[O-])cc6)c6ccc([nH]6)c(-c6ccc(S(=O)(=O)[O-])cc6)c6nc(c(-c7ccc(S(=O)(=O)[O-])cc7)c7ccc4[nH]7)C=C6)C=C5)cc3)[C@H]1CC[C@@]13C=C(CO)[C@@H](CC[C@@H]12)C3
REMARK SMILES IDX 14 1 13 2 12 3 11 4 10 5 8 6 9 7 6 9 1 10 2 11 3 12 80 13
REMARK SMILES IDX 91 14 4 15 81 16 83 17 90 18 5 19 7 20 82 21 84 22 92 23
REMARK SMILES IDX 89 24 85 25 88 26 86 27 87 28 15 30 16 31 17 32 18 33 19 35
REMARK SMILES IDX 20 36 21 37 79 38 22 39 78 40 23 41 24 42 25 43 72 44 26 45
REMARK SMILES IDX 77 46 71 47 73 48 27 49 76 50 70 51 69 52 28 54 58 55 39 56
REMARK SMILES IDX 57 57 40 58 43 59 56 60 74 61 41 62 42 63 55 65 75 66 44 67
REMARK SMILES IDX 29 68 30 69 38 70 31 71 37 72 32 73 33 74 34 75 35 76 36 77
REMARK SMILES IDX 59 78 60 79 68 80 61 81 67 82 62 83 63 84 64 85 65 86 66 87
REMARK SMILES IDX 45 88 46 89 54 90 47 91 53 92 48 93 49 94 50 95 51 96 52 97
REMARK H PARENT 10 8 87 29 17 34 73 53 43 64
REMARK Flexibility Score: inf
ROOT
ATOM      1  C   UNL A   1      34.059  29.555  26.839  1.00  0.00     0.002 C 
ENDROOT
BRANCH   1   2
ATOM      2  C   UNL A   1      32.800  30.206  26.262  1.00  0.00     0.002 C 
BRANCH   2   3
ATOM      3  C   UNL A   1      32.357  29.602  24.937  1.00  0.00     0.021 C 
BRANCH   3   4
ATOM      4  C   UNL A   1      32.567  28.091  24.881  1.00  0.00     0.116 C 
BRANCH   4   5
ATOM      5  N   UNL A   1      31.352  27.408  25.292  1.00  0.00    -0.356 N 
ATOM      6  C   UNL A   1      30.734  26.276  24.845  1.00  0.00     0.226 C 
ATOM      7  O   UNL A   1      29.608  26.055  25.301  1.00  0.00    -0.274 OA
ATOM      8  H   UNL A   1      30.883  27.848  26.038  1.00  0.00     0.163 HD
BRANCH   6   9
ATOM      9  C   UNL A   1      31.442  25.273  23.899  1.00  0.00     0.050 C 
ATOM     10  C   UNL A   1      32.418  22.459  23.210  1.00  0.00     0.012 C 
ATOM     11  C   UNL A   1      33.439  23.600  23.558  1.00  0.00    -0.025 C 
ATOM     12  C   UNL A   1      33.843  24.363  22.273  1.00  0.00     0.007 C 
ATOM     13  C   UNL A   1      32.770  24.615  24.530  1.00  0.00     0.010 C 
ATOM     14  C   UNL A   1      34.689  22.864  24.144  1.00  0.00     0.005 C 
ATOM     15  C   UNL A   1      32.735  25.207  21.645  1.00  0.00     0.002 C 
ATOM     16  C   UNL A   1      32.723  24.085  25.975  1.00  0.00     0.006 C 
ATOM     17  C   UNL A   1      34.598  22.413  25.656  1.00  0.00    -0.008 C 
ATOM     18  C   UNL A   1      36.151  23.155  23.837  1.00  0.00     0.006 C 
ATOM     19  C   UNL A   1      31.985  26.076  22.662  1.00  0.00     0.017 C 
ATOM     20  C   UNL A   1      30.280  24.415  23.309  1.00  0.00     0.022 C 
ATOM     21  C   UNL A   1      34.032  23.516  26.524  1.00  0.00     0.012 C 
ATOM     22  C   UNL A   1      33.939  21.068  25.585  1.00  0.00    -0.018 C 
ATOM     23  C   UNL A   1      35.948  21.884  26.223  1.00  0.00     0.019 C 
ATOM     24  C   UNL A   1      36.853  21.745  23.964  1.00  0.00     0.008 C 
ATOM     25  C   UNL A   1      34.862  20.219  25.076  1.00  0.00    -0.045 C 
ATOM     26  C   UNL A   1      36.278  20.856  25.139  1.00  0.00     0.018 C 
BRANCH  25  27
ATOM     27  C   UNL A   1      34.542  18.878  24.514  1.00  0.00     0.187 C 
BRANCH  27  28
ATOM     28  O   UNL A   1      35.609  17.978  24.806  1.00  0.00    -0.392 OA
ATOM     29  H   UNL A   1      36.124  18.319  25.554  1.00  0.00     0.211 HD
ENDBRANCH  27  28
ENDBRANCH  25  27
ENDBRANCH   6   9
ENDBRANCH   4   5
ENDBRANCH   3   4
ENDBRANCH   2   3
ENDBRANCH   1   2
BRANCH   1  30
ATOM     30  C   UNL A   1      34.920  30.476  27.709  1.00  0.00     0.021 C 
BRANCH  30  31
ATOM     31  C   UNL A   1      35.517  29.803  28.943  1.00  0.00     0.116 C 
BRANCH  31  32
ATOM     32  N   UNL A   1      35.583  30.723  30.069  1.00  0.00    -0.352 N 
ATOM     33  C   UNL A   1      36.647  31.025  30.871  1.00  0.00     0.251 C 
ATOM     34  H   UNL A   1      34.745  31.193  30.283  1.00  0.00     0.163 HD
ATOM     35  O   UNL A   1      36.465  31.599  31.950  1.00  0.00    -0.269 OA
BRANCH  33  36
ATOM     36  C   UNL A   1      38.008  30.657  30.445  1.00  0.00     0.039 A 
ATOM     37  C   UNL A   1      38.886  30.093  31.373  1.00  0.00     0.014 A 
ATOM     38  C   UNL A   1      38.416  30.878  29.126  1.00  0.00     0.014 A 
ATOM     39  C   UNL A   1      40.162  29.706  30.962  1.00  0.00     0.010 A 
ATOM     40  C   UNL A   1      39.659  30.422  28.702  1.00  0.00     0.010 A 
ATOM     41  C   UNL A   1      40.548  29.842  29.617  1.00  0.00    -0.014 A 
BRANCH  41  42
ATOM     42  C   UNL A   1      41.882  29.388  29.153  1.00  0.00     0.031 A 
ATOM     43  C   UNL A   1      43.029  30.358  29.089  1.00  0.00     0.074 A 
ATOM     44  C   UNL A   1      42.043  28.116  28.739  1.00  0.00     0.049 A 
ATOM     45  N   UNL A   1      44.254  30.159  28.672  1.00  0.00    -0.248 NA
ATOM     46  C   UNL A   1      42.762  31.738  29.528  1.00  0.00     0.031 C 
ATOM     47  C   UNL A   1      40.994  27.092  28.717  1.00  0.00     0.029 A 
ATOM     48  N   UNL A   1      43.149  27.466  28.252  1.00  0.00    -0.354 N 
ATOM     49  C   UNL A   1      44.896  31.386  28.786  1.00  0.00     0.074 A 
ATOM     50  C   UNL A   1      43.913  32.336  29.258  1.00  0.00     0.031 C 
ATOM     51  C   UNL A   1      41.516  25.938  28.272  1.00  0.00     0.029 A 
ATOM     52  C   UNL A   1      42.920  26.148  27.934  1.00  0.00     0.049 A 
ATOM     53  H   UNL A   1      44.025  27.902  28.141  1.00  0.00     0.167 HD
ATOM     54  C   UNL A   1      46.192  31.691  28.540  1.00  0.00     0.031 A 
ATOM     55  C   UNL A   1      43.745  25.215  27.421  1.00  0.00     0.031 A 
ATOM     56  C   UNL A   1      47.167  30.740  28.075  1.00  0.00     0.049 A 
ATOM     57  C   UNL A   1      45.175  25.583  27.137  1.00  0.00     0.074 A 
ATOM     58  C   UNL A   1      48.517  30.934  27.844  1.00  0.00     0.029 A 
ATOM     59  N   UNL A   1      46.895  29.415  27.764  1.00  0.00    -0.354 N 
ATOM     60  N   UNL A   1      45.782  26.732  27.315  1.00  0.00    -0.248 NA
ATOM     61  C   UNL A   1      46.036  24.523  26.591  1.00  0.00     0.031 C 
ATOM     62  C   UNL A   1      49.049  29.744  27.337  1.00  0.00     0.029 A 
ATOM     63  C   UNL A   1      48.046  28.789  27.316  1.00  0.00     0.049 A 
ATOM     64  H   UNL A   1      46.014  28.984  27.849  1.00  0.00     0.167 HD
ATOM     65  C   UNL A   1      47.102  26.528  26.929  1.00  0.00     0.074 A 
ATOM     66  C   UNL A   1      47.208  25.140  26.526  1.00  0.00     0.031 C 
ATOM     67  C   UNL A   1      48.134  27.407  26.914  1.00  0.00     0.031 A 
BRANCH  54  68
ATOM     68  C   UNL A   1      46.630  33.116  28.762  1.00  0.00    -0.014 A 
ATOM     69  C   UNL A   1      47.108  33.545  30.013  1.00  0.00     0.010 A 
ATOM     70  C   UNL A   1      46.599  34.032  27.694  1.00  0.00     0.010 A 
ATOM     71  C   UNL A   1      47.507  34.871  30.204  1.00  0.00     0.020 A 
ATOM     72  C   UNL A   1      47.026  35.350  27.872  1.00  0.00     0.020 A 
ATOM     73  C   UNL A   1      47.462  35.766  29.132  1.00  0.00     0.054 A 
BRANCH  73  74
ATOM     74  S   UNL A   1      48.007  37.475  29.404  1.00  0.00     0.124 S 
ATOM     75  O   UNL A   1      49.432  37.296  29.669  1.00  0.00    -0.237 OA
ATOM     76  O   UNL A   1      47.679  38.120  28.135  1.00  0.00    -0.237 OA
ATOM     77  O   UNL A   1      47.211  37.915  30.548  1.00  0.00    -0.744 OA
ENDBRANCH  73  74
ENDBRANCH  54  68
BRANCH  55  78
ATOM     78  C   UNL A   1      43.239  23.840  27.157  1.00  0.00    -0.014 A 
ATOM     79  C   UNL A   1      42.758  23.486  25.884  1.00  0.00     0.010 A 
ATOM     80  C   UNL A   1      43.249  22.870  28.176  1.00  0.00     0.010 A 
ATOM     81  C   UNL A   1      42.277  22.197  25.640  1.00  0.00     0.020 A 
ATOM     82  C   UNL A   1      42.798  21.571  27.928  1.00  0.00     0.020 A 
ATOM     83  C   UNL A   1      42.304  21.246  26.664  1.00  0.00     0.054 A 
BRANCH  83  84
ATOM     84  S   UNL A   1      41.722  19.563  26.311  1.00  0.00     0.124 S 
ATOM     85  O   UNL A   1      40.293  19.774  26.103  1.00  0.00    -0.237 OA
ATOM     86  O   UNL A   1      42.491  19.208  25.121  1.00  0.00    -0.237 OA
ATOM     87  O   UNL A   1      42.077  18.819  27.517  1.00  0.00    -0.744 OA
ENDBRANCH  83  84
ENDBRANCH  55  78
BRANCH  67  88
ATOM     88  C   UNL A   1      49.479  26.891  26.474  1.00  0.00    -0.014 A 
ATOM     89  C   UNL A   1      50.317  26.186  27.356  1.00  0.00     0.010 A 
ATOM     90  C   UNL A   1      49.885  27.069  25.138  1.00  0.00     0.010 A 
ATOM     91  C   UNL A   1      51.551  25.698  26.919  1.00  0.00     0.020 A 
ATOM     92  C   UNL A   1      51.103  26.553  24.689  1.00  0.00     0.020 A 
ATOM     93  C   UNL A   1      51.935  25.883  25.587  1.00  0.00     0.054 A 
BRANCH  93  94
ATOM     94  S   UNL A   1      53.522  25.199  25.034  1.00  0.00     0.124 S 
ATOM     95  O   UNL A   1      53.351  23.776  25.312  1.00  0.00    -0.237 OA
ATOM     96  O   UNL A   1      53.552  25.565  23.621  1.00  0.00    -0.237 OA
ATOM     97  O   UNL A   1      54.505  25.883  25.871  1.00  0.00    -0.744 OA
ENDBRANCH  93  94
ENDBRANCH  67  88
ENDBRANCH  41  42
ENDBRANCH  33  36
ENDBRANCH  31  32
ENDBRANCH  30  31
ENDBRANCH   1  30
TORSDOF 18
ENDMDL
