MODEL 1
REMARK VINA RESULT:     -10.1      0.000      0.000
REMARK SMILES Cc1ccc(Cl)c(NC(=O)C[N@@H+]2CCC[C@H]2C(=O)NCCCCCCNC(=O)c2ccc(-c3c4nc(c(-c5ccc(S(=O)(=O)[O-])cc5)c5ccc([nH]5)c(-c5ccc(S(=O)(=O)[O-])cc5)c5nc(c(-c6ccc(S(=O)(=O)[O-])cc6)c6ccc3[nH]6)C=C5)C=C4)cc2)c1Cl
REMARK SMILES IDX 22 1 21 2 20 3 19 4 17 5 18 6 16 8 12 9 13 10 14 12 15 13
REMARK SMILES IDX 11 14 9 15 8 16 10 18 7 19 1 20 2 21 3 22 89 23 4 24 90 25
REMARK SMILES IDX 5 26 6 27 23 28 24 29 25 30 26 31 27 32 28 34 29 35 30 36
REMARK SMILES IDX 88 37 31 38 87 39 32 40 33 41 34 42 81 43 35 44 86 45 80 46
REMARK SMILES IDX 82 47 36 48 85 49 79 50 78 51 37 53 67 54 48 55 66 56 49 57
REMARK SMILES IDX 52 58 65 59 83 60 50 61 51 62 64 64 84 65 53 66 38 67 39 68
REMARK SMILES IDX 47 69 40 70 46 71 41 72 42 73 43 74 44 75 45 76 68 77 69 78
REMARK SMILES IDX 77 79 70 80 76 81 71 82 72 83 73 84 74 85 75 86 54 87 55 88
REMARK SMILES IDX 63 89 56 90 62 91 57 92 58 93 59 94 60 95 61 96
REMARK H PARENT 19 7 12 11 8 17 26 33 82 52 52 63
REMARK Flexibility Score: inf
ROOT
ATOM      1  C   UNL A   1      40.095  22.651  27.186  1.00  0.00     0.002 C 
ENDROOT
BRANCH   1   2
ATOM      2  C   UNL A   1      39.453  23.946  26.687  1.00  0.00     0.021 C 
BRANCH   2   3
ATOM      3  C   UNL A   1      37.967  23.858  26.362  1.00  0.00     0.116 C 
BRANCH   3   4
ATOM      4  N   UNL A   1      37.718  23.597  24.959  1.00  0.00    -0.351 N 
ATOM      5  C   UNL A   1      36.550  23.205  24.358  1.00  0.00     0.278 C 
ATOM      6  O   UNL A   1      36.538  23.152  23.125  1.00  0.00    -0.268 OA
ATOM      7  H   UNL A   1      38.488  23.717  24.359  1.00  0.00     0.163 HD
BRANCH   5   8
ATOM      8  C   UNL A   1      35.354  22.734  25.229  1.00  0.00     0.274 C 
ATOM      9  N   UNL A   1      34.066  23.307  24.753  1.00  0.00    -0.317 N 
ATOM     10  C   UNL A   1      33.625  22.332  23.732  1.00  0.00     0.263 C 
ATOM     11  H   UNL A   1      34.181  24.262  24.412  1.00  0.00     0.349 HD
ATOM     12  C   UNL A   1      33.924  20.972  24.334  1.00  0.00     0.068 C 
ATOM     13  C   UNL A   1      35.170  21.207  25.177  1.00  0.00     0.081 C 
BRANCH   9  14
ATOM     14  C   UNL A   1      33.038  23.390  25.836  1.00  0.00     0.364 C 
BRANCH  14  15
ATOM     15  C   UNL A   1      31.654  23.867  25.383  1.00  0.00     0.279 C 
ATOM     16  N   UNL A   1      31.299  25.141  25.041  1.00  0.00    -0.319 N 
ATOM     17  H   UNL A   1      30.323  25.261  24.983  1.00  0.00     0.170 HD
ATOM     18  O   UNL A   1      30.744  23.030  25.262  1.00  0.00    -0.268 OA
BRANCH  16  19
ATOM     19  C   UNL A   1      32.012  26.328  24.751  1.00  0.00     0.079 A 
ATOM     20  C   UNL A   1      34.216  29.048  26.333  1.00  0.00     0.046 C 
ATOM     21  C   UNL A   1      33.507  28.173  25.332  1.00  0.00    -0.030 A 
ATOM     22  C   UNL A   1      33.995  28.179  24.016  1.00  0.00     0.006 A 
ATOM     23  C   UNL A   1      32.457  27.290  25.672  1.00  0.00     0.069 A 
ATOM     24  C   UNL A   1      33.386  27.402  23.039  1.00  0.00     0.023 A 
ATOM     25  Cl  UNL A   1      31.545  27.593  27.116  1.00  0.00    -0.082 Cl
ATOM     26  C   UNL A   1      32.384  26.503  23.402  1.00  0.00     0.066 A 
ATOM     27  Cl  UNL A   1      31.654  25.570  22.136  1.00  0.00    -0.082 Cl
ENDBRANCH  16  19
ENDBRANCH  14  15
ENDBRANCH   9  14
ENDBRANCH   5   8
ENDBRANCH   3   4
ENDBRANCH   2   3
ENDBRANCH   1   2
BRANCH   1  28
ATOM     28  C   UNL A   1      40.935  21.900  26.148  1.00  0.00     0.002 C 
BRANCH  28  29
ATOM     29  C   UNL A   1      40.889  20.369  26.237  1.00  0.00     0.021 C 
BRANCH  29  30
ATOM     30  C   UNL A   1      42.169  19.712  26.751  1.00  0.00     0.116 C 
BRANCH  30  31
ATOM     31  N   UNL A   1      43.040  19.297  25.663  1.00  0.00    -0.352 N 
ATOM     32  C   UNL A   1      43.885  20.038  24.874  1.00  0.00     0.251 C 
ATOM     33  H   UNL A   1      43.021  18.333  25.460  1.00  0.00     0.163 HD
ATOM     34  O   UNL A   1      44.354  19.543  23.855  1.00  0.00    -0.269 OA
BRANCH  32  35
ATOM     35  C   UNL A   1      44.228  21.429  25.244  1.00  0.00     0.039 A 
ATOM     36  C   UNL A   1      43.965  22.456  24.334  1.00  0.00     0.014 A 
ATOM     37  C   UNL A   1      44.850  21.718  26.463  1.00  0.00     0.014 A 
ATOM     38  C   UNL A   1      44.274  23.778  24.668  1.00  0.00     0.010 A 
ATOM     39  C   UNL A   1      45.095  23.041  26.822  1.00  0.00     0.010 A 
ATOM     40  C   UNL A   1      44.816  24.084  25.926  1.00  0.00    -0.014 A 
BRANCH  40  41
ATOM     41  C   UNL A   1      45.090  25.489  26.326  1.00  0.00     0.031 A 
ATOM     42  C   UNL A   1      46.479  26.056  26.219  1.00  0.00     0.074 A 
ATOM     43  C   UNL A   1      44.101  26.231  26.863  1.00  0.00     0.049 A 
ATOM     44  N   UNL A   1      46.920  27.236  26.572  1.00  0.00    -0.248 NA
ATOM     45  C   UNL A   1      47.516  25.170  25.665  1.00  0.00     0.031 C 
ATOM     46  C   UNL A   1      42.725  25.779  27.076  1.00  0.00     0.029 A 
ATOM     47  N   UNL A   1      44.107  27.517  27.345  1.00  0.00    -0.354 N 
ATOM     48  C   UNL A   1      48.285  27.227  26.309  1.00  0.00     0.074 A 
ATOM     49  C   UNL A   1      48.606  25.909  25.808  1.00  0.00     0.031 C 
ATOM     50  C   UNL A   1      42.018  26.772  27.636  1.00  0.00     0.029 A 
ATOM     51  C   UNL A   1      42.896  27.918  27.856  1.00  0.00     0.049 A 
ATOM     52  H   UNL A   1      44.903  28.096  27.326  1.00  0.00     0.167 HD
ATOM     53  C   UNL A   1      49.186  28.228  26.459  1.00  0.00     0.031 A 
ATOM     54  C   UNL A   1      42.531  29.073  28.447  1.00  0.00     0.031 A 
ATOM     55  C   UNL A   1      48.860  29.539  26.956  1.00  0.00     0.049 A 
ATOM     56  C   UNL A   1      43.540  30.178  28.587  1.00  0.00     0.074 A 
ATOM     57  C   UNL A   1      49.685  30.644  27.076  1.00  0.00     0.029 A 
ATOM     58  N   UNL A   1      47.612  29.919  27.427  1.00  0.00    -0.354 N 
ATOM     59  N   UNL A   1      44.807  30.182  28.247  1.00  0.00    -0.248 NA
ATOM     60  C   UNL A   1      43.067  31.439  29.173  1.00  0.00     0.031 C 
ATOM     61  C   UNL A   1      48.950  31.676  27.671  1.00  0.00     0.029 A 
ATOM     62  C   UNL A   1      47.650  31.233  27.866  1.00  0.00     0.049 A 
ATOM     63  H   UNL A   1      46.816  29.341  27.447  1.00  0.00     0.167 HD
ATOM     64  C   UNL A   1      45.279  31.451  28.563  1.00  0.00     0.074 A 
ATOM     65  C   UNL A   1      44.156  32.192  29.103  1.00  0.00     0.031 C 
ATOM     66  C   UNL A   1      46.530  31.956  28.415  1.00  0.00     0.031 A 
BRANCH  53  67
ATOM     67  C   UNL A   1      50.619  27.926  26.101  1.00  0.00    -0.014 A 
ATOM     68  C   UNL A   1      51.531  27.455  27.065  1.00  0.00     0.010 A 
ATOM     69  C   UNL A   1      51.063  28.114  24.779  1.00  0.00     0.010 A 
ATOM     70  C   UNL A   1      52.871  27.242  26.729  1.00  0.00     0.020 A 
ATOM     71  C   UNL A   1      52.395  27.872  24.430  1.00  0.00     0.020 A 
ATOM     72  C   UNL A   1      53.297  27.463  25.415  1.00  0.00     0.054 A 
BRANCH  72  73
ATOM     73  S   UNL A   1      55.045  27.199  25.011  1.00  0.00     0.124 S 
ATOM     74  O   UNL A   1      55.522  26.486  26.193  1.00  0.00    -0.237 OA
ATOM     75  O   UNL A   1      54.977  26.408  23.785  1.00  0.00    -0.237 OA
ATOM     76  O   UNL A   1      55.571  28.553  24.847  1.00  0.00    -0.744 OA
ENDBRANCH  72  73
ENDBRANCH  53  67
BRANCH  54  77
ATOM     77  C   UNL A   1      41.135  29.231  28.935  1.00  0.00    -0.014 A 
ATOM     78  C   UNL A   1      40.851  29.223  30.312  1.00  0.00     0.010 A 
ATOM     79  C   UNL A   1      40.087  29.452  28.022  1.00  0.00     0.010 A 
ATOM     80  C   UNL A   1      39.546  29.435  30.766  1.00  0.00     0.020 A 
ATOM     81  C   UNL A   1      38.785  29.690  28.474  1.00  0.00     0.020 A 
ATOM     82  C   UNL A   1      38.523  29.676  29.845  1.00  0.00     0.054 A 
BRANCH  82  83
ATOM     83  S   UNL A   1      36.855  30.039  30.463  1.00  0.00     0.124 S 
ATOM     84  O   UNL A   1      36.955  31.457  30.793  1.00  0.00    -0.237 OA
ATOM     85  O   UNL A   1      36.015  29.715  29.312  1.00  0.00    -0.237 OA
ATOM     86  O   UNL A   1      36.709  29.137  31.603  1.00  0.00    -0.744 OA
ENDBRANCH  82  83
ENDBRANCH  54  77
BRANCH  66  87
ATOM     87  C   UNL A   1      46.751  33.388  28.825  1.00  0.00    -0.014 A 
ATOM     88  C   UNL A   1      47.205  33.715  30.115  1.00  0.00     0.010 A 
ATOM     89  C   UNL A   1      46.557  34.417  27.885  1.00  0.00     0.010 A 
ATOM     90  C   UNL A   1      47.433  35.049  30.466  1.00  0.00     0.020 A 
ATOM     91  C   UNL A   1      46.810  35.749  28.225  1.00  0.00     0.020 A 
ATOM     92  C   UNL A   1      47.233  36.058  29.519  1.00  0.00     0.054 A 
BRANCH  92  93
ATOM     93  S   UNL A   1      47.580  37.776  29.985  1.00  0.00     0.124 S 
ATOM     94  O   UNL A   1      48.165  38.312  28.759  1.00  0.00    -0.237 OA
ATOM     95  O   UNL A   1      46.256  38.291  30.326  1.00  0.00    -0.237 OA
ATOM     96  O   UNL A   1      48.502  37.650  31.111  1.00  0.00    -0.744 OA
ENDBRANCH  92  93
ENDBRANCH  66  87
ENDBRANCH  40  41
ENDBRANCH  32  35
ENDBRANCH  30  31
ENDBRANCH  29  30
ENDBRANCH  28  29
ENDBRANCH   1  28
TORSDOF 19
ENDMDL
MODEL 2
REMARK VINA RESULT:     -10.1      6.655     12.139
REMARK SMILES Cc1ccc(Cl)c(NC(=O)C[N@@H+]2CCC[C@H]2C(=O)NCCCCCCNC(=O)c2ccc(-c3c4nc(c(-c5ccc(S(=O)(=O)[O-])cc5)c5ccc([nH]5)c(-c5ccc(S(=O)(=O)[O-])cc5)c5nc(c(-c6ccc(S(=O)(=O)[O-])cc6)c6ccc3[nH]6)C=C5)C=C4)cc2)c1Cl
REMARK SMILES IDX 22 1 21 2 20 3 19 4 17 5 18 6 16 8 12 9 13 10 14 12 15 13
REMARK SMILES IDX 11 14 9 15 8 16 10 18 7 19 1 20 2 21 3 22 89 23 4 24 90 25
REMARK SMILES IDX 5 26 6 27 23 28 24 29 25 30 26 31 27 32 28 34 29 35 30 36
REMARK SMILES IDX 88 37 31 38 87 39 32 40 33 41 34 42 81 43 35 44 86 45 80 46
REMARK SMILES IDX 82 47 36 48 85 49 79 50 78 51 37 53 67 54 48 55 66 56 49 57
REMARK SMILES IDX 52 58 65 59 83 60 50 61 51 62 64 64 84 65 53 66 38 67 39 68
REMARK SMILES IDX 47 69 40 70 46 71 41 72 42 73 43 74 44 75 45 76 68 77 69 78
REMARK SMILES IDX 77 79 70 80 76 81 71 82 72 83 73 84 74 85 75 86 54 87 55 88
REMARK SMILES IDX 63 89 56 90 62 91 57 92 58 93 59 94 60 95 61 96
REMARK H PARENT 19 7 12 11 8 17 26 33 82 52 52 63
REMARK Flexibility Score: inf
ROOT
ATOM      1  C   UNL A   1      35.395  31.780  27.900  1.00  0.00     0.002 C 
ENDROOT
BRANCH   1   2
ATOM      2  C   UNL A   1      35.618  30.289  28.151  1.00  0.00     0.021 C 
BRANCH   2   3
ATOM      3  C   UNL A   1      34.878  29.348  27.207  1.00  0.00     0.116 C 
BRANCH   3   4
ATOM      4  N   UNL A   1      33.529  29.061  27.650  1.00  0.00    -0.351 N 
ATOM      5  C   UNL A   1      32.473  28.586  26.918  1.00  0.00     0.278 C 
ATOM      6  O   UNL A   1      31.439  28.306  27.530  1.00  0.00    -0.268 OA
ATOM      7  H   UNL A   1      33.347  29.231  28.602  1.00  0.00     0.163 HD
BRANCH   5   8
ATOM      8  C   UNL A   1      32.569  28.535  25.369  1.00  0.00     0.274 C 
ATOM      9  N   UNL A   1      32.515  27.138  24.858  1.00  0.00    -0.317 N 
ATOM     10  C   UNL A   1      31.064  26.893  24.713  1.00  0.00     0.263 C 
ATOM     11  H   UNL A   1      32.999  26.490  25.480  1.00  0.00     0.349 HD
ATOM     12  C   UNL A   1      30.508  28.172  24.115  1.00  0.00     0.068 C 
ATOM     13  C   UNL A   1      31.394  29.267  24.694  1.00  0.00     0.081 C 
BRANCH   9  14
ATOM     14  C   UNL A   1      33.179  26.986  23.527  1.00  0.00     0.364 C 
BRANCH  14  15
ATOM     15  C   UNL A   1      32.797  25.721  22.751  1.00  0.00     0.279 C 
ATOM     16  N   UNL A   1      33.145  24.436  23.058  1.00  0.00    -0.319 N 
ATOM     17  H   UNL A   1      32.970  23.809  22.320  1.00  0.00     0.170 HD
ATOM     18  O   UNL A   1      32.060  25.830  21.757  1.00  0.00    -0.268 OA
BRANCH  16  19
ATOM     19  C   UNL A   1      33.701  23.801  24.194  1.00  0.00     0.079 A 
ATOM     20  C   UNL A   1      36.965  23.353  26.168  1.00  0.00     0.046 C 
ATOM     21  C   UNL A   1      35.512  23.344  25.771  1.00  0.00    -0.030 A 
ATOM     22  C   UNL A   1      34.567  23.192  26.797  1.00  0.00     0.006 A 
ATOM     23  C   UNL A   1      35.063  23.575  24.451  1.00  0.00     0.069 A 
ATOM     24  C   UNL A   1      33.210  23.167  26.502  1.00  0.00     0.023 A 
ATOM     25  Cl  UNL A   1      36.157  23.297  23.135  1.00  0.00    -0.082 Cl
ATOM     26  C   UNL A   1      32.784  23.444  25.204  1.00  0.00     0.066 A 
ATOM     27  Cl  UNL A   1      31.078  23.386  24.895  1.00  0.00    -0.082 Cl
ENDBRANCH  16  19
ENDBRANCH  14  15
ENDBRANCH   9  14
ENDBRANCH   5   8
ENDBRANCH   3   4
ENDBRANCH   2   3
ENDBRANCH   1   2
BRANCH   1  28
ATOM     28  C   UNL A   1      34.520  32.490  28.937  1.00  0.00     0.002 C 
BRANCH  28  29
ATOM     29  C   UNL A   1      33.522  33.512  28.378  1.00  0.00     0.021 C 
BRANCH  29  30
ATOM     30  C   UNL A   1      33.786  34.962  28.782  1.00  0.00     0.116 C 
BRANCH  30  31
ATOM     31  N   UNL A   1      32.977  35.363  29.923  1.00  0.00    -0.352 N 
ATOM     32  C   UNL A   1      33.113  35.055  31.255  1.00  0.00     0.251 C 
ATOM     33  H   UNL A   1      32.214  35.945  29.707  1.00  0.00     0.163 HD
ATOM     34  O   UNL A   1      32.193  35.295  32.029  1.00  0.00    -0.269 OA
BRANCH  32  35
ATOM     35  C   UNL A   1      34.359  34.436  31.758  1.00  0.00     0.039 A 
ATOM     36  C   UNL A   1      34.307  33.142  32.282  1.00  0.00     0.014 A 
ATOM     37  C   UNL A   1      35.566  35.142  31.758  1.00  0.00     0.014 A 
ATOM     38  C   UNL A   1      35.475  32.535  32.755  1.00  0.00     0.010 A 
ATOM     39  C   UNL A   1      36.739  34.513  32.166  1.00  0.00     0.010 A 
ATOM     40  C   UNL A   1      36.706  33.206  32.675  1.00  0.00    -0.014 A 
BRANCH  40  41
ATOM     41  C   UNL A   1      37.968  32.554  33.111  1.00  0.00     0.031 A 
ATOM     42  C   UNL A   1      38.530  32.819  34.480  1.00  0.00     0.074 A 
ATOM     43  C   UNL A   1      38.652  31.784  32.241  1.00  0.00     0.049 A 
ATOM     44  N   UNL A   1      39.645  32.389  35.014  1.00  0.00    -0.248 NA
ATOM     45  C   UNL A   1      37.751  33.707  35.357  1.00  0.00     0.031 C 
ATOM     46  C   UNL A   1      38.244  31.496  30.865  1.00  0.00     0.029 A 
ATOM     47  N   UNL A   1      39.844  31.118  32.381  1.00  0.00    -0.354 N 
ATOM     48  C   UNL A   1      39.714  32.971  36.274  1.00  0.00     0.074 A 
ATOM     49  C   UNL A   1      38.549  33.820  36.407  1.00  0.00     0.031 C 
ATOM     50  C   UNL A   1      39.163  30.706  30.290  1.00  0.00     0.029 A 
ATOM     51  C   UNL A   1      40.243  30.459  31.242  1.00  0.00     0.049 A 
ATOM     52  H   UNL A   1      40.364  31.112  33.217  1.00  0.00     0.167 HD
ATOM     53  C   UNL A   1      40.653  32.805  37.237  1.00  0.00     0.031 A 
ATOM     54  C   UNL A   1      41.357  29.747  30.983  1.00  0.00     0.031 A 
ATOM     55  C   UNL A   1      41.808  31.957  37.100  1.00  0.00     0.049 A 
ATOM     56  C   UNL A   1      42.378  29.559  32.070  1.00  0.00     0.074 A 
ATOM     57  C   UNL A   1      42.777  31.664  38.043  1.00  0.00     0.029 A 
ATOM     58  N   UNL A   1      42.156  31.275  35.943  1.00  0.00    -0.354 N 
ATOM     59  N   UNL A   1      42.380  30.044  33.289  1.00  0.00    -0.248 NA
ATOM     60  C   UNL A   1      43.537  28.714  31.754  1.00  0.00     0.031 C 
ATOM     61  C   UNL A   1      43.742  30.849  37.439  1.00  0.00     0.029 A 
ATOM     62  C   UNL A   1      43.342  30.585  36.138  1.00  0.00     0.049 A 
ATOM     63  H   UNL A   1      41.638  31.281  35.106  1.00  0.00     0.167 HD
ATOM     64  C   UNL A   1      43.531  29.549  33.892  1.00  0.00     0.074 A 
ATOM     65  C   UNL A   1      44.190  28.712  32.908  1.00  0.00     0.031 C 
ATOM     66  C   UNL A   1      43.996  29.766  35.147  1.00  0.00     0.031 A 
BRANCH  53  67
ATOM     67  C   UNL A   1      40.473  33.582  38.517  1.00  0.00    -0.014 A 
ATOM     68  C   UNL A   1      41.052  34.854  38.688  1.00  0.00     0.010 A 
ATOM     69  C   UNL A   1      39.713  33.034  39.566  1.00  0.00     0.010 A 
ATOM     70  C   UNL A   1      40.930  35.531  39.905  1.00  0.00     0.020 A 
ATOM     71  C   UNL A   1      39.560  33.721  40.773  1.00  0.00     0.020 A 
ATOM     72  C   UNL A   1      40.193  34.954  40.945  1.00  0.00     0.054 A 
BRANCH  72  73
ATOM     73  S   UNL A   1      40.067  35.844  42.520  1.00  0.00     0.124 S 
ATOM     74  O   UNL A   1      39.175  34.976  43.284  1.00  0.00    -0.237 OA
ATOM     75  O   UNL A   1      41.452  35.884  42.980  1.00  0.00    -0.237 OA
ATOM     76  O   UNL A   1      39.501  37.138  42.143  1.00  0.00    -0.744 OA
ENDBRANCH  72  73
ENDBRANCH  53  67
BRANCH  54  77
ATOM     77  C   UNL A   1      41.545  29.155  29.632  1.00  0.00    -0.014 A 
ATOM     78  C   UNL A   1      42.353  29.792  28.674  1.00  0.00     0.010 A 
ATOM     79  C   UNL A   1      40.962  27.913  29.318  1.00  0.00     0.010 A 
ATOM     80  C   UNL A   1      42.576  29.198  27.429  1.00  0.00     0.020 A 
ATOM     81  C   UNL A   1      41.204  27.303  28.082  1.00  0.00     0.020 A 
ATOM     82  C   UNL A   1      42.007  27.954  27.144  1.00  0.00     0.054 A 
BRANCH  82  83
ATOM     83  S   UNL A   1      42.386  27.161  25.555  1.00  0.00     0.124 S 
ATOM     84  O   UNL A   1      41.275  26.226  25.409  1.00  0.00    -0.237 OA
ATOM     85  O   UNL A   1      42.386  28.292  24.631  1.00  0.00    -0.237 OA
ATOM     86  O   UNL A   1      43.694  26.551  25.780  1.00  0.00    -0.744 OA
ENDBRANCH  82  83
ENDBRANCH  54  77
BRANCH  66  87
ATOM     87  C   UNL A   1      45.274  29.073  35.542  1.00  0.00    -0.014 A 
ATOM     88  C   UNL A   1      45.262  27.780  36.093  1.00  0.00     0.010 A 
ATOM     89  C   UNL A   1      46.508  29.705  35.302  1.00  0.00     0.010 A 
ATOM     90  C   UNL A   1      46.461  27.142  36.424  1.00  0.00     0.020 A 
ATOM     91  C   UNL A   1      47.709  29.060  35.608  1.00  0.00     0.020 A 
ATOM     92  C   UNL A   1      47.678  27.787  36.180  1.00  0.00     0.054 A 
BRANCH  92  93
ATOM     93  S   UNL A   1      49.221  26.921  36.576  1.00  0.00     0.124 S 
ATOM     94  O   UNL A   1      49.259  27.017  38.032  1.00  0.00    -0.237 OA
ATOM     95  O   UNL A   1      48.986  25.582  36.041  1.00  0.00    -0.237 OA
ATOM     96  O   UNL A   1      50.242  27.694  35.873  1.00  0.00    -0.744 OA
ENDBRANCH  92  93
ENDBRANCH  66  87
ENDBRANCH  40  41
ENDBRANCH  32  35
ENDBRANCH  30  31
ENDBRANCH  29  30
ENDBRANCH  28  29
ENDBRANCH   1  28
TORSDOF 19
ENDMDL
MODEL 3
REMARK VINA RESULT:     -10.1      5.152     11.612
REMARK SMILES Cc1ccc(Cl)c(NC(=O)C[N@@H+]2CCC[C@H]2C(=O)NCCCCCCNC(=O)c2ccc(-c3c4nc(c(-c5ccc(S(=O)(=O)[O-])cc5)c5ccc([nH]5)c(-c5ccc(S(=O)(=O)[O-])cc5)c5nc(c(-c6ccc(S(=O)(=O)[O-])cc6)c6ccc3[nH]6)C=C5)C=C4)cc2)c1Cl
REMARK SMILES IDX 22 1 21 2 20 3 19 4 17 5 18 6 16 8 12 9 13 10 14 12 15 13
REMARK SMILES IDX 11 14 9 15 8 16 10 18 7 19 1 20 2 21 3 22 89 23 4 24 90 25
REMARK SMILES IDX 5 26 6 27 23 28 24 29 25 30 26 31 27 32 28 34 29 35 30 36
REMARK SMILES IDX 88 37 31 38 87 39 32 40 33 41 34 42 81 43 35 44 86 45 80 46
REMARK SMILES IDX 82 47 36 48 85 49 79 50 78 51 37 53 67 54 48 55 66 56 49 57
REMARK SMILES IDX 52 58 65 59 83 60 50 61 51 62 64 64 84 65 53 66 38 67 39 68
REMARK SMILES IDX 47 69 40 70 46 71 41 72 42 73 43 74 44 75 45 76 68 77 69 78
REMARK SMILES IDX 77 79 70 80 76 81 71 82 72 83 73 84 74 85 75 86 54 87 55 88
REMARK SMILES IDX 63 89 56 90 62 91 57 92 58 93 59 94 60 95 61 96
REMARK H PARENT 19 7 12 11 8 17 26 33 82 52 52 63
REMARK Flexibility Score: inf
ROOT
ATOM      1  C   UNL A   1      32.551  35.716  29.650  1.00  0.00     0.002 C 
ENDROOT
BRANCH   1   2
ATOM      2  C   UNL A   1      33.808  36.305  30.291  1.00  0.00     0.021 C 
BRANCH   2   3
ATOM      3  C   UNL A   1      33.945  36.079  31.792  1.00  0.00     0.116 C 
BRANCH   3   4
ATOM      4  N   UNL A   1      33.458  34.779  32.207  1.00  0.00    -0.351 N 
ATOM      5  C   UNL A   1      34.146  33.764  32.817  1.00  0.00     0.278 C 
ATOM      6  O   UNL A   1      33.497  32.782  33.187  1.00  0.00    -0.268 OA
ATOM      7  H   UNL A   1      32.506  34.603  32.027  1.00  0.00     0.163 HD
BRANCH   5   8
ATOM      8  C   UNL A   1      35.695  33.828  32.908  1.00  0.00     0.274 C 
ATOM      9  N   UNL A   1      36.270  32.556  33.424  1.00  0.00    -0.317 N 
ATOM     10  C   UNL A   1      36.439  31.746  32.197  1.00  0.00     0.263 C 
ATOM     11  H   UNL A   1      35.675  32.134  34.137  1.00  0.00     0.349 HD
ATOM     12  C   UNL A   1      36.982  32.713  31.161  1.00  0.00     0.068 C 
ATOM     13  C   UNL A   1      36.345  34.046  31.530  1.00  0.00     0.081 C 
BRANCH   9  14
ATOM     14  C   UNL A   1      37.601  32.749  34.077  1.00  0.00     0.364 C 
BRANCH  14  15
ATOM     15  C   UNL A   1      37.808  31.962  35.376  1.00  0.00     0.279 C 
ATOM     16  N   UNL A   1      38.748  30.999  35.609  1.00  0.00    -0.319 N 
ATOM     17  H   UNL A   1      38.571  30.486  36.430  1.00  0.00     0.170 HD
ATOM     18  O   UNL A   1      37.093  32.230  36.356  1.00  0.00    -0.268 OA
BRANCH  16  19
ATOM     19  C   UNL A   1      39.918  30.570  34.939  1.00  0.00     0.079 A 
ATOM     20  C   UNL A   1      43.717  30.171  35.347  1.00  0.00     0.046 C 
ATOM     21  C   UNL A   1      42.308  30.066  34.824  1.00  0.00    -0.030 A 
ATOM     22  C   UNL A   1      42.036  29.035  33.913  1.00  0.00     0.006 A 
ATOM     23  C   UNL A   1      41.245  30.882  35.276  1.00  0.00     0.069 A 
ATOM     24  C   UNL A   1      40.761  28.883  33.385  1.00  0.00     0.023 A 
ATOM     25  Cl  UNL A   1      41.616  32.411  36.005  1.00  0.00    -0.082 Cl
ATOM     26  C   UNL A   1      39.716  29.664  33.876  1.00  0.00     0.066 A 
ATOM     27  Cl  UNL A   1      38.150  29.437  33.169  1.00  0.00    -0.082 Cl
ENDBRANCH  16  19
ENDBRANCH  14  15
ENDBRANCH   9  14
ENDBRANCH   5   8
ENDBRANCH   3   4
ENDBRANCH   2   3
ENDBRANCH   1   2
BRANCH   1  28
ATOM     28  C   UNL A   1      32.801  34.589  28.644  1.00  0.00     0.002 C 
BRANCH  28  29
ATOM     29  C   UNL A   1      34.249  34.435  28.163  1.00  0.00     0.021 C 
BRANCH  29  30
ATOM     30  C   UNL A   1      34.897  33.089  28.481  1.00  0.00     0.116 C 
BRANCH  30  31
ATOM     31  N   UNL A   1      34.102  31.974  27.989  1.00  0.00    -0.352 N 
ATOM     32  C   UNL A   1      34.480  30.696  27.660  1.00  0.00     0.251 C 
ATOM     33  H   UNL A   1      33.143  32.166  27.874  1.00  0.00     0.163 HD
ATOM     34  O   UNL A   1      33.706  29.975  27.039  1.00  0.00    -0.269 OA
BRANCH  32  35
ATOM     35  C   UNL A   1      35.814  30.184  28.048  1.00  0.00     0.039 A 
ATOM     36  C   UNL A   1      36.842  30.192  27.102  1.00  0.00     0.014 A 
ATOM     37  C   UNL A   1      36.040  29.657  29.323  1.00  0.00     0.014 A 
ATOM     38  C   UNL A   1      38.112  29.722  27.451  1.00  0.00     0.010 A 
ATOM     39  C   UNL A   1      37.321  29.252  29.690  1.00  0.00     0.010 A 
ATOM     40  C   UNL A   1      38.369  29.273  28.757  1.00  0.00    -0.014 A 
BRANCH  40  41
ATOM     41  C   UNL A   1      39.727  28.831  29.166  1.00  0.00     0.031 A 
ATOM     42  C   UNL A   1      40.665  29.785  29.854  1.00  0.00     0.074 A 
ATOM     43  C   UNL A   1      40.146  27.591  28.845  1.00  0.00     0.049 A 
ATOM     44  N   UNL A   1      41.904  29.598  30.231  1.00  0.00    -0.248 NA
ATOM     45  C   UNL A   1      40.152  31.137  30.130  1.00  0.00     0.031 C 
ATOM     46  C   UNL A   1      39.354  26.591  28.127  1.00  0.00     0.029 A 
ATOM     47  N   UNL A   1      41.349  26.968  29.065  1.00  0.00    -0.354 N 
ATOM     48  C   UNL A   1      42.327  30.810  30.765  1.00  0.00     0.074 A 
ATOM     49  C   UNL A   1      41.225  31.737  30.621  1.00  0.00     0.031 C 
ATOM     50  C   UNL A   1      40.087  25.478  27.974  1.00  0.00     0.029 A 
ATOM     51  C   UNL A   1      41.411  25.695  28.549  1.00  0.00     0.049 A 
ATOM     52  H   UNL A   1      42.096  27.391  29.546  1.00  0.00     0.167 HD
ATOM     53  C   UNL A   1      43.518  31.120  31.333  1.00  0.00     0.031 A 
ATOM     54  C   UNL A   1      42.422  24.804  28.527  1.00  0.00     0.031 A 
ATOM     55  C   UNL A   1      44.609  30.192  31.476  1.00  0.00     0.049 A 
ATOM     56  C   UNL A   1      43.729  25.159  29.179  1.00  0.00     0.074 A 
ATOM     57  C   UNL A   1      45.827  30.386  32.102  1.00  0.00     0.029 A 
ATOM     58  N   UNL A   1      44.618  28.899  30.975  1.00  0.00    -0.354 N 
ATOM     59  N   UNL A   1      44.079  26.282  29.761  1.00  0.00    -0.248 NA
ATOM     60  C   UNL A   1      44.770  24.123  29.189  1.00  0.00     0.031 C 
ATOM     61  C   UNL A   1      46.595  29.228  31.932  1.00  0.00     0.029 A 
ATOM     62  C   UNL A   1      45.833  28.291  31.252  1.00  0.00     0.049 A 
ATOM     63  H   UNL A   1      43.873  28.474  30.493  1.00  0.00     0.167 HD
ATOM     64  C   UNL A   1      45.376  26.081  30.221  1.00  0.00     0.074 A 
ATOM     65  C   UNL A   1      45.739  24.724  29.865  1.00  0.00     0.031 C 
ATOM     66  C   UNL A   1      46.188  26.944  30.881  1.00  0.00     0.031 A 
BRANCH  53  67
ATOM     67  C   UNL A   1      43.702  32.535  31.821  1.00  0.00    -0.014 A 
ATOM     68  C   UNL A   1      43.816  32.827  33.194  1.00  0.00     0.010 A 
ATOM     69  C   UNL A   1      43.766  33.590  30.893  1.00  0.00     0.010 A 
ATOM     70  C   UNL A   1      43.921  34.150  33.631  1.00  0.00     0.020 A 
ATOM     71  C   UNL A   1      43.904  34.913  31.324  1.00  0.00     0.020 A 
ATOM     72  C   UNL A   1      43.953  35.187  32.692  1.00  0.00     0.054 A 
BRANCH  72  73
ATOM     73  S   UNL A   1      44.070  36.896  33.287  1.00  0.00     0.124 S 
ATOM     74  O   UNL A   1      42.735  37.113  33.839  1.00  0.00    -0.237 OA
ATOM     75  O   UNL A   1      45.151  36.824  34.266  1.00  0.00    -0.237 OA
ATOM     76  O   UNL A   1      44.376  37.662  32.080  1.00  0.00    -0.744 OA
ENDBRANCH  72  73
ENDBRANCH  53  67
BRANCH  54  77
ATOM     77  C   UNL A   1      42.217  23.486  27.869  1.00  0.00    -0.014 A 
ATOM     78  C   UNL A   1      42.638  23.272  26.545  1.00  0.00     0.010 A 
ATOM     79  C   UNL A   1      41.652  22.417  28.589  1.00  0.00     0.010 A 
ATOM     80  C   UNL A   1      42.499  22.013  25.953  1.00  0.00     0.020 A 
ATOM     81  C   UNL A   1      41.535  21.150  28.009  1.00  0.00     0.020 A 
ATOM     82  C   UNL A   1      41.957  20.958  26.692  1.00  0.00     0.054 A 
BRANCH  82  83
ATOM     83  S   UNL A   1      41.871  19.311  25.933  1.00  0.00     0.124 S 
ATOM     84  O   UNL A   1      40.444  19.175  25.659  1.00  0.00    -0.237 OA
ATOM     85  O   UNL A   1      42.730  19.459  24.761  1.00  0.00    -0.237 OA
ATOM     86  O   UNL A   1      42.398  18.428  26.972  1.00  0.00    -0.744 OA
ENDBRANCH  82  83
ENDBRANCH  54  77
BRANCH  66  87
ATOM     87  C   UNL A   1      47.551  26.442  31.282  1.00  0.00    -0.014 A 
ATOM     88  C   UNL A   1      47.751  25.773  32.502  1.00  0.00     0.010 A 
ATOM     89  C   UNL A   1      48.634  26.592  30.397  1.00  0.00     0.010 A 
ATOM     90  C   UNL A   1      49.018  25.288  32.842  1.00  0.00     0.020 A 
ATOM     91  C   UNL A   1      49.895  26.086  30.722  1.00  0.00     0.020 A 
ATOM     92  C   UNL A   1      50.082  25.448  31.949  1.00  0.00     0.054 A 
BRANCH  92  93
ATOM     93  S   UNL A   1      51.705  24.770  32.392  1.00  0.00     0.124 S 
ATOM     94  O   UNL A   1      52.597  25.506  31.501  1.00  0.00    -0.237 OA
ATOM     95  O   UNL A   1      51.818  25.105  33.810  1.00  0.00    -0.237 OA
ATOM     96  O   UNL A   1      51.575  23.344  32.105  1.00  0.00    -0.744 OA
ENDBRANCH  92  93
ENDBRANCH  66  87
ENDBRANCH  40  41
ENDBRANCH  32  35
ENDBRANCH  30  31
ENDBRANCH  29  30
ENDBRANCH  28  29
ENDBRANCH   1  28
TORSDOF 19
ENDMDL
