MODEL 1
REMARK VINA RESULT:     -11.1      0.000      0.000
REMARK SMILES [NH3+]Cc1c(-c2ccccc2)c(C(=O)NCCCCCCNC(=O)c2ccc(-c3c4nc(c(-c5ccc(S(=O)(=O)[O-])cc5)c5ccc([nH]5)c(-c5ccc(S(=O)(=O)[O-])cc5)c5nc(c(-c6ccc(S(=O)(=O)[O-])cc6)c6ccc3[nH]6)C=C5)C=C4)cc2)c2ccccn12
REMARK SMILES IDX 18 1 17 2 16 3 15 4 14 5 12 6 13 7 11 9 3 10 4 11 89 12
REMARK SMILES IDX 84 13 88 14 85 15 87 16 86 17 2 18 1 19 5 23 6 24 10 25 7 26
REMARK SMILES IDX 9 27 8 28 19 29 20 30 21 31 22 32 23 34 24 35 25 36 83 37
REMARK SMILES IDX 26 38 82 39 27 40 28 41 29 42 76 43 30 44 81 45 75 46 77 47
REMARK SMILES IDX 31 48 80 49 74 50 73 51 32 53 62 54 43 55 61 56 44 57 47 58
REMARK SMILES IDX 60 59 78 60 45 61 46 62 59 64 79 65 48 66 33 67 34 68 42 69
REMARK SMILES IDX 35 70 41 71 36 72 37 73 38 74 39 75 40 76 63 77 64 78 72 79
REMARK SMILES IDX 65 80 71 81 66 82 67 83 68 84 69 85 70 86 49 87 50 88 58 89
REMARK SMILES IDX 51 90 57 91 52 92 53 93 54 94 55 95 56 96
REMARK H PARENT 14 8 1 20 1 21 1 22 21 33 77 52 47 63
REMARK Flexibility Score: inf
ROOT
ATOM      1  C   UNL A   1      34.447  30.767  27.687  1.00  0.00     0.002 C 
ENDROOT
BRANCH   1   2
ATOM      2  C   UNL A   1      33.054  30.579  27.081  1.00  0.00     0.002 C 
BRANCH   2   3
ATOM      3  C   UNL A   1      32.949  29.839  25.743  1.00  0.00     0.021 C 
BRANCH   3   4
ATOM      4  C   UNL A   1      34.015  28.789  25.437  1.00  0.00     0.116 C 
BRANCH   4   5
ATOM      5  N   UNL A   1      34.280  28.579  24.031  1.00  0.00    -0.352 N 
ATOM      6  C   UNL A   1      33.606  27.840  23.083  1.00  0.00     0.254 C 
ATOM      7  O   UNL A   1      34.046  27.901  21.933  1.00  0.00    -0.269 OA
ATOM      8  H   UNL A   1      35.079  29.044  23.693  1.00  0.00     0.163 HD
BRANCH   6   9
ATOM      9  C   UNL A   1      32.472  26.970  23.428  1.00  0.00     0.073 A 
ATOM     10  C   UNL A   1      31.303  25.117  24.181  1.00  0.00     0.086 A 
ATOM     11  C   UNL A   1      32.581  25.611  23.912  1.00  0.00     0.022 A 
ATOM     12  N   UNL A   1      30.414  26.139  23.861  1.00  0.00    -0.314 N 
ATOM     13  C   UNL A   1      31.112  27.180  23.246  1.00  0.00     0.059 A 
ATOM     14  C   UNL A   1      29.026  26.191  24.066  1.00  0.00     0.092 A 
ATOM     15  C   UNL A   1      30.320  28.187  22.611  1.00  0.00     0.027 A 
ATOM     16  C   UNL A   1      28.316  27.232  23.607  1.00  0.00     0.018 A 
ATOM     17  C   UNL A   1      28.990  28.236  22.813  1.00  0.00     0.004 A 
BRANCH  10  18
ATOM     18  C   UNL A   1      30.767  23.795  24.653  1.00  0.00     0.315 C 
BRANCH  18  19
ATOM     19  N   UNL A   1      30.788  23.588  26.092  1.00  0.00    -0.353 N 
ATOM     20  H   UNL A   1      29.940  23.098  26.376  1.00  0.00     0.344 HD
ATOM     21  H   UNL A   1      30.833  24.492  26.563  1.00  0.00     0.344 HD
ATOM     22  H   UNL A   1      31.604  23.032  26.344  1.00  0.00     0.344 HD
ENDBRANCH  18  19
ENDBRANCH  10  18
BRANCH  11  23
ATOM     23  C   UNL A   1      33.801  24.837  24.083  1.00  0.00    -0.016 A 
ATOM     24  C   UNL A   1      34.555  24.954  25.254  1.00  0.00     0.009 A 
ATOM     25  C   UNL A   1      34.230  23.974  23.066  1.00  0.00     0.009 A 
ATOM     26  C   UNL A   1      35.719  24.198  25.414  1.00  0.00     0.001 A 
ATOM     27  C   UNL A   1      35.386  23.211  23.234  1.00  0.00     0.001 A 
ATOM     28  C   UNL A   1      36.129  23.323  24.408  1.00  0.00     0.000 A 
ENDBRANCH  11  23
ENDBRANCH   6   9
ENDBRANCH   4   5
ENDBRANCH   3   4
ENDBRANCH   2   3
ENDBRANCH   1   2
BRANCH   1  29
ATOM     29  C   UNL A   1      34.887  32.193  28.030  1.00  0.00     0.021 C 
BRANCH  29  30
ATOM     30  C   UNL A   1      36.004  32.349  29.058  1.00  0.00     0.116 C 
BRANCH  30  31
ATOM     31  N   UNL A   1      35.739  31.666  30.310  1.00  0.00    -0.352 N 
ATOM     32  C   UNL A   1      36.477  30.725  30.986  1.00  0.00     0.251 C 
ATOM     33  H   UNL A   1      34.894  31.920  30.746  1.00  0.00     0.163 HD
ATOM     34  O   UNL A   1      36.004  30.221  32.003  1.00  0.00    -0.269 OA
BRANCH  32  35
ATOM     35  C   UNL A   1      37.807  30.279  30.500  1.00  0.00     0.039 A 
ATOM     36  C   UNL A   1      38.006  30.191  29.117  1.00  0.00     0.014 A 
ATOM     37  C   UNL A   1      38.838  29.902  31.367  1.00  0.00     0.014 A 
ATOM     38  C   UNL A   1      39.242  29.782  28.609  1.00  0.00     0.010 A 
ATOM     39  C   UNL A   1      40.094  29.555  30.857  1.00  0.00     0.010 A 
ATOM     40  C   UNL A   1      40.309  29.487  29.473  1.00  0.00    -0.014 A 
BRANCH  40  41
ATOM     41  C   UNL A   1      41.644  29.128  28.922  1.00  0.00     0.031 A 
ATOM     42  C   UNL A   1      42.745  30.150  28.829  1.00  0.00     0.074 A 
ATOM     43  C   UNL A   1      41.861  27.871  28.484  1.00  0.00     0.049 A 
ATOM     44  N   UNL A   1      43.982  29.993  28.424  1.00  0.00    -0.248 NA
ATOM     45  C   UNL A   1      42.414  31.528  29.220  1.00  0.00     0.031 C 
ATOM     46  C   UNL A   1      40.863  26.798  28.467  1.00  0.00     0.029 A 
ATOM     47  N   UNL A   1      42.992  27.279  27.978  1.00  0.00    -0.354 N 
ATOM     48  C   UNL A   1      44.572  31.250  28.506  1.00  0.00     0.074 A 
ATOM     49  C   UNL A   1      43.545  32.166  28.952  1.00  0.00     0.031 C 
ATOM     50  C   UNL A   1      41.436  25.672  28.012  1.00  0.00     0.029 A 
ATOM     51  C   UNL A   1      42.831  25.946  27.682  1.00  0.00     0.049 A 
ATOM     52  H   UNL A   1      43.838  27.764  27.842  1.00  0.00     0.167 HD
ATOM     53  C   UNL A   1      45.856  31.606  28.253  1.00  0.00     0.031 A 
ATOM     54  C   UNL A   1      43.708  25.039  27.209  1.00  0.00     0.031 A 
ATOM     55  C   UNL A   1      46.880  30.694  27.815  1.00  0.00     0.049 A 
ATOM     56  C   UNL A   1      45.131  25.453  26.957  1.00  0.00     0.074 A 
ATOM     57  C   UNL A   1      48.222  30.949  27.589  1.00  0.00     0.029 A 
ATOM     58  N   UNL A   1      46.678  29.351  27.534  1.00  0.00    -0.354 N 
ATOM     59  N   UNL A   1      45.688  26.630  27.115  1.00  0.00    -0.248 NA
ATOM     60  C   UNL A   1      46.048  24.409  26.480  1.00  0.00     0.031 C 
ATOM     61  C   UNL A   1      48.822  29.772  27.128  1.00  0.00     0.029 A 
ATOM     62  C   UNL A   1      47.865  28.771  27.116  1.00  0.00     0.049 A 
ATOM     63  H   UNL A   1      45.819  28.880  27.619  1.00  0.00     0.167 HD
ATOM     64  C   UNL A   1      47.025  26.464  26.774  1.00  0.00     0.074 A 
ATOM     65  C   UNL A   1      47.198  25.069  26.424  1.00  0.00     0.031 C 
ATOM     66  C   UNL A   1      48.020  27.385  26.753  1.00  0.00     0.031 A 
BRANCH  53  67
ATOM     67  C   UNL A   1      46.223  33.055  28.441  1.00  0.00    -0.014 A 
ATOM     68  C   UNL A   1      46.095  33.978  27.387  1.00  0.00     0.010 A 
ATOM     69  C   UNL A   1      46.666  33.510  29.696  1.00  0.00     0.010 A 
ATOM     70  C   UNL A   1      46.445  35.319  27.571  1.00  0.00     0.020 A 
ATOM     71  C   UNL A   1      46.994  34.856  29.892  1.00  0.00     0.020 A 
ATOM     72  C   UNL A   1      46.898  35.747  28.822  1.00  0.00     0.054 A 
BRANCH  72  73
ATOM     73  S   UNL A   1      47.334  37.495  29.039  1.00  0.00     0.124 S 
ATOM     74  O   UNL A   1      47.413  37.607  30.494  1.00  0.00    -0.237 OA
ATOM     75  O   UNL A   1      48.608  37.600  28.332  1.00  0.00    -0.237 OA
ATOM     76  O   UNL A   1      46.221  38.209  28.418  1.00  0.00    -0.744 OA
ENDBRANCH  72  73
ENDBRANCH  53  67
BRANCH  54  77
ATOM     77  C   UNL A   1      43.268  23.637  26.976  1.00  0.00    -0.014 A 
ATOM     78  C   UNL A   1      43.113  22.749  28.055  1.00  0.00     0.010 A 
ATOM     79  C   UNL A   1      42.982  23.190  25.674  1.00  0.00     0.010 A 
ATOM     80  C   UNL A   1      42.691  21.435  27.835  1.00  0.00     0.020 A 
ATOM     81  C   UNL A   1      42.536  21.884  25.452  1.00  0.00     0.020 A 
ATOM     82  C   UNL A   1      42.404  21.011  26.534  1.00  0.00     0.054 A 
BRANCH  82  83
ATOM     83  S   UNL A   1      41.796  19.321  26.275  1.00  0.00     0.124 S 
ATOM     84  O   UNL A   1      42.215  18.658  27.506  1.00  0.00    -0.237 OA
ATOM     85  O   UNL A   1      40.358  19.520  26.120  1.00  0.00    -0.237 OA
ATOM     86  O   UNL A   1      42.491  18.892  25.063  1.00  0.00    -0.744 OA
ENDBRANCH  82  83
ENDBRANCH  54  77
BRANCH  66  87
ATOM     87  C   UNL A   1      49.389  26.904  26.350  1.00  0.00    -0.014 A 
ATOM     88  C   UNL A   1      49.885  27.126  25.053  1.00  0.00     0.010 A 
ATOM     89  C   UNL A   1      50.197  26.233  27.287  1.00  0.00     0.010 A 
ATOM     90  C   UNL A   1      51.145  26.646  24.686  1.00  0.00     0.020 A 
ATOM     91  C   UNL A   1      51.468  25.775  26.931  1.00  0.00     0.020 A 
ATOM     92  C   UNL A   1      51.926  25.967  25.626  1.00  0.00     0.054 A 
BRANCH  92  93
ATOM     93  S   UNL A   1      53.563  25.362  25.132  1.00  0.00     0.124 S 
ATOM     94  O   UNL A   1      54.449  26.169  25.968  1.00  0.00    -0.237 OA
ATOM     95  O   UNL A   1      53.499  23.942  25.474  1.00  0.00    -0.237 OA
ATOM     96  O   UNL A   1      53.620  25.650  23.701  1.00  0.00    -0.744 OA
ENDBRANCH  92  93
ENDBRANCH  66  87
ENDBRANCH  40  41
ENDBRANCH  32  35
ENDBRANCH  30  31
ENDBRANCH  29  30
ENDBRANCH   1  29
TORSDOF 19
ENDMDL
MODEL 2
REMARK VINA RESULT:     -11.0      5.825      8.338
REMARK SMILES [NH3+]Cc1c(-c2ccccc2)c(C(=O)NCCCCCCNC(=O)c2ccc(-c3c4nc(c(-c5ccc(S(=O)(=O)[O-])cc5)c5ccc([nH]5)c(-c5ccc(S(=O)(=O)[O-])cc5)c5nc(c(-c6ccc(S(=O)(=O)[O-])cc6)c6ccc3[nH]6)C=C5)C=C4)cc2)c2ccccn12
REMARK SMILES IDX 18 1 17 2 16 3 15 4 14 5 12 6 13 7 11 9 3 10 4 11 89 12
REMARK SMILES IDX 84 13 88 14 85 15 87 16 86 17 2 18 1 19 5 23 6 24 10 25 7 26
REMARK SMILES IDX 9 27 8 28 19 29 20 30 21 31 22 32 23 34 24 35 25 36 83 37
REMARK SMILES IDX 26 38 82 39 27 40 28 41 29 42 76 43 30 44 81 45 75 46 77 47
REMARK SMILES IDX 31 48 80 49 74 50 73 51 32 53 62 54 43 55 61 56 44 57 47 58
REMARK SMILES IDX 60 59 78 60 45 61 46 62 59 64 79 65 48 66 33 67 34 68 42 69
REMARK SMILES IDX 35 70 41 71 36 72 37 73 38 74 39 75 40 76 63 77 64 78 72 79
REMARK SMILES IDX 65 80 71 81 66 82 67 83 68 84 69 85 70 86 49 87 50 88 58 89
REMARK SMILES IDX 51 90 57 91 52 92 53 93 54 94 55 95 56 96
REMARK H PARENT 14 8 1 20 1 21 1 22 21 33 77 52 47 63
REMARK Flexibility Score: inf
ROOT
ATOM      1  C   UNL A   1      34.462  30.370  27.548  1.00  0.00     0.002 C 
ENDROOT
BRANCH   1   2
ATOM      2  C   UNL A   1      34.253  29.102  26.715  1.00  0.00     0.002 C 
BRANCH   2   3
ATOM      3  C   UNL A   1      33.279  28.047  27.249  1.00  0.00     0.021 C 
BRANCH   3   4
ATOM      4  C   UNL A   1      31.790  28.275  26.994  1.00  0.00     0.116 C 
BRANCH   4   5
ATOM      5  N   UNL A   1      30.959  27.099  27.129  1.00  0.00    -0.352 N 
ATOM      6  C   UNL A   1      30.919  25.930  26.400  1.00  0.00     0.254 C 
ATOM      7  O   UNL A   1      30.131  25.070  26.797  1.00  0.00    -0.269 OA
ATOM      8  H   UNL A   1      30.313  27.140  27.870  1.00  0.00     0.163 HD
BRANCH   6   9
ATOM      9  C   UNL A   1      31.711  25.743  25.176  1.00  0.00     0.073 A 
ATOM     10  C   UNL A   1      32.488  26.065  23.017  1.00  0.00     0.086 A 
ATOM     11  C   UNL A   1      31.525  26.473  23.941  1.00  0.00     0.022 A 
ATOM     12  N   UNL A   1      33.253  25.093  23.655  1.00  0.00    -0.314 N 
ATOM     13  C   UNL A   1      32.670  24.782  24.885  1.00  0.00     0.059 A 
ATOM     14  C   UNL A   1      34.420  24.457  23.202  1.00  0.00     0.092 A 
ATOM     15  C   UNL A   1      33.168  23.617  25.548  1.00  0.00     0.027 A 
ATOM     16  C   UNL A   1      34.974  23.471  23.923  1.00  0.00     0.018 A 
ATOM     17  C   UNL A   1      34.289  23.013  25.111  1.00  0.00     0.004 A 
BRANCH  10  18
ATOM     18  C   UNL A   1      32.782  26.412  21.585  1.00  0.00     0.315 C 
BRANCH  18  19
ATOM     19  N   UNL A   1      32.085  25.614  20.591  1.00  0.00    -0.353 N 
ATOM     20  H   UNL A   1      32.764  25.100  20.031  1.00  0.00     0.344 HD
ATOM     21  H   UNL A   1      31.539  26.227  19.986  1.00  0.00     0.344 HD
ATOM     22  H   UNL A   1      31.463  24.956  21.059  1.00  0.00     0.344 HD
ENDBRANCH  18  19
ENDBRANCH  10  18
BRANCH  11  23
ATOM     23  C   UNL A   1      30.497  27.463  23.656  1.00  0.00    -0.016 A 
ATOM     24  C   UNL A   1      30.831  28.816  23.539  1.00  0.00     0.009 A 
ATOM     25  C   UNL A   1      29.163  27.063  23.505  1.00  0.00     0.009 A 
ATOM     26  C   UNL A   1      29.840  29.758  23.253  1.00  0.00     0.001 A 
ATOM     27  C   UNL A   1      28.177  28.005  23.208  1.00  0.00     0.001 A 
ATOM     28  C   UNL A   1      28.516  29.351  23.081  1.00  0.00     0.000 A 
ENDBRANCH  11  23
ENDBRANCH   6   9
ENDBRANCH   4   5
ENDBRANCH   3   4
ENDBRANCH   2   3
ENDBRANCH   1   2
BRANCH   1  29
ATOM     29  C   UNL A   1      33.292  31.352  27.654  1.00  0.00     0.021 C 
BRANCH  29  30
ATOM     30  C   UNL A   1      33.431  32.681  26.915  1.00  0.00     0.116 C 
BRANCH  30  31
ATOM     31  N   UNL A   1      32.903  33.813  27.653  1.00  0.00    -0.352 N 
ATOM     32  C   UNL A   1      33.327  34.387  28.827  1.00  0.00     0.251 C 
ATOM     33  H   UNL A   1      32.114  34.237  27.246  1.00  0.00     0.163 HD
ATOM     34  O   UNL A   1      32.662  35.301  29.311  1.00  0.00    -0.269 OA
BRANCH  32  35
ATOM     35  C   UNL A   1      34.541  33.911  29.536  1.00  0.00     0.039 A 
ATOM     36  C   UNL A   1      34.368  33.065  30.638  1.00  0.00     0.014 A 
ATOM     37  C   UNL A   1      35.831  34.311  29.175  1.00  0.00     0.014 A 
ATOM     38  C   UNL A   1      35.478  32.584  31.338  1.00  0.00     0.010 A 
ATOM     39  C   UNL A   1      36.944  33.779  29.835  1.00  0.00     0.010 A 
ATOM     40  C   UNL A   1      36.780  32.913  30.926  1.00  0.00    -0.014 A 
BRANCH  40  41
ATOM     41  C   UNL A   1      37.958  32.334  31.627  1.00  0.00     0.031 A 
ATOM     42  C   UNL A   1      38.392  32.852  32.972  1.00  0.00     0.074 A 
ATOM     43  C   UNL A   1      38.656  31.342  31.037  1.00  0.00     0.049 A 
ATOM     44  N   UNL A   1      39.362  32.428  33.745  1.00  0.00    -0.248 NA
ATOM     45  C   UNL A   1      37.657  34.006  33.513  1.00  0.00     0.031 C 
ATOM     46  C   UNL A   1      38.376  30.785  29.711  1.00  0.00     0.029 A 
ATOM     47  N   UNL A   1      39.738  30.620  31.479  1.00  0.00    -0.354 N 
ATOM     48  C   UNL A   1      39.359  33.264  34.856  1.00  0.00     0.074 A 
ATOM     49  C   UNL A   1      38.323  34.250  34.635  1.00  0.00     0.031 C 
ATOM     50  C   UNL A   1      39.237  29.785  29.464  1.00  0.00     0.029 A 
ATOM     51  C   UNL A   1      40.145  29.645  30.599  1.00  0.00     0.049 A 
ATOM     52  H   UNL A   1      40.178  30.785  32.343  1.00  0.00     0.167 HD
ATOM     53  C   UNL A   1      40.132  33.206  35.968  1.00  0.00     0.031 A 
ATOM     54  C   UNL A   1      41.130  28.731  30.695  1.00  0.00     0.031 A 
ATOM     55  C   UNL A   1      41.159  32.222  36.192  1.00  0.00     0.049 A 
ATOM     56  C   UNL A   1      41.960  28.672  31.947  1.00  0.00     0.074 A 
ATOM     57  C   UNL A   1      41.955  32.046  37.311  1.00  0.00     0.029 A 
ATOM     58  N   UNL A   1      41.535  31.247  35.280  1.00  0.00    -0.354 N 
ATOM     59  N   UNL A   1      41.889  29.424  33.019  1.00  0.00    -0.248 NA
ATOM     60  C   UNL A   1      42.992  27.628  32.007  1.00  0.00     0.031 C 
ATOM     61  C   UNL A   1      42.843  30.995  37.059  1.00  0.00     0.029 A 
ATOM     62  C   UNL A   1      42.566  30.482  35.802  1.00  0.00     0.049 A 
ATOM     63  H   UNL A   1      41.130  31.118  34.393  1.00  0.00     0.167 HD
ATOM     64  C   UNL A   1      42.854  28.932  33.890  1.00  0.00     0.074 A 
ATOM     65  C   UNL A   1      43.479  27.805  33.228  1.00  0.00     0.031 C 
ATOM     66  C   UNL A   1      43.192  29.374  35.127  1.00  0.00     0.031 A 
BRANCH  53  67
ATOM     67  C   UNL A   1      39.897  34.247  37.032  1.00  0.00    -0.014 A 
ATOM     68  C   UNL A   1      39.103  33.965  38.158  1.00  0.00     0.010 A 
ATOM     69  C   UNL A   1      40.508  35.509  36.925  1.00  0.00     0.010 A 
ATOM     70  C   UNL A   1      38.886  34.941  39.136  1.00  0.00     0.020 A 
ATOM     71  C   UNL A   1      40.315  36.480  37.914  1.00  0.00     0.020 A 
ATOM     72  C   UNL A   1      39.490  36.195  39.003  1.00  0.00     0.054 A 
BRANCH  72  73
ATOM     73  S   UNL A   1      39.203  37.440  40.292  1.00  0.00     0.124 S 
ATOM     74  O   UNL A   1      38.719  36.618  41.400  1.00  0.00    -0.237 OA
ATOM     75  O   UNL A   1      40.530  38.023  40.477  1.00  0.00    -0.237 OA
ATOM     76  O   UNL A   1      38.211  38.332  39.698  1.00  0.00    -0.744 OA
ENDBRANCH  72  73
ENDBRANCH  53  67
BRANCH  54  77
ATOM     77  C   UNL A   1      41.361  27.773  29.580  1.00  0.00    -0.014 A 
ATOM     78  C   UNL A   1      42.466  27.925  28.725  1.00  0.00     0.010 A 
ATOM     79  C   UNL A   1      40.485  26.690  29.383  1.00  0.00     0.010 A 
ATOM     80  C   UNL A   1      42.686  27.019  27.684  1.00  0.00     0.020 A 
ATOM     81  C   UNL A   1      40.714  25.768  28.358  1.00  0.00     0.020 A 
ATOM     82  C   UNL A   1      41.809  25.944  27.508  1.00  0.00     0.054 A 
BRANCH  82  83
ATOM     83  S   UNL A   1      42.146  24.742  26.191  1.00  0.00     0.124 S 
ATOM     84  O   UNL A   1      42.005  25.561  24.992  1.00  0.00    -0.237 OA
ATOM     85  O   UNL A   1      43.503  24.302  26.502  1.00  0.00    -0.237 OA
ATOM     86  O   UNL A   1      41.112  23.728  26.384  1.00  0.00    -0.744 OA
ENDBRANCH  82  83
ENDBRANCH  54  77
BRANCH  66  87
ATOM     87  C   UNL A   1      44.280  28.624  35.848  1.00  0.00    -0.014 A 
ATOM     88  C   UNL A   1      45.629  28.999  35.720  1.00  0.00     0.010 A 
ATOM     89  C   UNL A   1      43.946  27.538  36.678  1.00  0.00     0.010 A 
ATOM     90  C   UNL A   1      46.630  28.273  36.371  1.00  0.00     0.020 A 
ATOM     91  C   UNL A   1      44.942  26.825  37.352  1.00  0.00     0.020 A 
ATOM     92  C   UNL A   1      46.280  27.186  37.178  1.00  0.00     0.054 A 
BRANCH  92  93
ATOM     93  S   UNL A   1      47.593  26.264  38.024  1.00  0.00     0.124 S 
ATOM     94  O   UNL A   1      47.948  25.258  37.027  1.00  0.00    -0.237 OA
ATOM     95  O   UNL A   1      48.604  27.290  38.267  1.00  0.00    -0.237 OA
ATOM     96  O   UNL A   1      46.936  25.749  39.223  1.00  0.00    -0.744 OA
ENDBRANCH  92  93
ENDBRANCH  66  87
ENDBRANCH  40  41
ENDBRANCH  32  35
ENDBRANCH  30  31
ENDBRANCH  29  30
ENDBRANCH   1  29
TORSDOF 19
ENDMDL
MODEL 3
REMARK VINA RESULT:     -11.0      5.813      7.898
REMARK SMILES [NH3+]Cc1c(-c2ccccc2)c(C(=O)NCCCCCCNC(=O)c2ccc(-c3c4nc(c(-c5ccc(S(=O)(=O)[O-])cc5)c5ccc([nH]5)c(-c5ccc(S(=O)(=O)[O-])cc5)c5nc(c(-c6ccc(S(=O)(=O)[O-])cc6)c6ccc3[nH]6)C=C5)C=C4)cc2)c2ccccn12
REMARK SMILES IDX 18 1 17 2 16 3 15 4 14 5 12 6 13 7 11 9 3 10 4 11 89 12
REMARK SMILES IDX 84 13 88 14 85 15 87 16 86 17 2 18 1 19 5 23 6 24 10 25 7 26
REMARK SMILES IDX 9 27 8 28 19 29 20 30 21 31 22 32 23 34 24 35 25 36 83 37
REMARK SMILES IDX 26 38 82 39 27 40 28 41 29 42 76 43 30 44 81 45 75 46 77 47
REMARK SMILES IDX 31 48 80 49 74 50 73 51 32 53 62 54 43 55 61 56 44 57 47 58
REMARK SMILES IDX 60 59 78 60 45 61 46 62 59 64 79 65 48 66 33 67 34 68 42 69
REMARK SMILES IDX 35 70 41 71 36 72 37 73 38 74 39 75 40 76 63 77 64 78 72 79
REMARK SMILES IDX 65 80 71 81 66 82 67 83 68 84 69 85 70 86 49 87 50 88 58 89
REMARK SMILES IDX 51 90 57 91 52 92 53 93 54 94 55 95 56 96
REMARK H PARENT 14 8 1 20 1 21 1 22 21 33 77 52 47 63
REMARK Flexibility Score: inf
ROOT
ATOM      1  C   UNL A   1      35.101  31.092  27.995  1.00  0.00     0.002 C 
ENDROOT
BRANCH   1   2
ATOM      2  C   UNL A   1      35.279  29.690  27.407  1.00  0.00     0.002 C 
BRANCH   2   3
ATOM      3  C   UNL A   1      34.019  28.916  27.006  1.00  0.00     0.021 C 
BRANCH   3   4
ATOM      4  C   UNL A   1      33.274  29.389  25.759  1.00  0.00     0.116 C 
BRANCH   4   5
ATOM      5  N   UNL A   1      33.915  29.061  24.504  1.00  0.00    -0.352 N 
ATOM      6  C   UNL A   1      33.545  28.196  23.497  1.00  0.00     0.254 C 
ATOM      7  O   UNL A   1      34.276  28.173  22.505  1.00  0.00    -0.269 OA
ATOM      8  H   UNL A   1      34.760  29.538  24.341  1.00  0.00     0.163 HD
BRANCH   6   9
ATOM      9  C   UNL A   1      32.389  27.297  23.622  1.00  0.00     0.073 A 
ATOM     10  C   UNL A   1      31.164  25.372  24.024  1.00  0.00     0.086 A 
ATOM     11  C   UNL A   1      32.458  25.888  23.941  1.00  0.00     0.022 A 
ATOM     12  N   UNL A   1      30.304  26.432  23.752  1.00  0.00    -0.314 N 
ATOM     13  C   UNL A   1      31.051  27.536  23.340  1.00  0.00     0.059 A 
ATOM     14  C   UNL A   1      28.902  26.466  23.829  1.00  0.00     0.092 A 
ATOM     15  C   UNL A   1      30.317  28.620  22.763  1.00  0.00     0.027 A 
ATOM     16  C   UNL A   1      28.233  27.561  23.438  1.00  0.00     0.018 A 
ATOM     17  C   UNL A   1      28.973  28.651  22.843  1.00  0.00     0.004 A 
BRANCH  10  18
ATOM     18  C   UNL A   1      30.593  24.005  24.275  1.00  0.00     0.315 C 
BRANCH  18  19
ATOM     19  N   UNL A   1      30.370  23.665  25.670  1.00  0.00    -0.353 N 
ATOM     20  H   UNL A   1      31.237  23.791  26.193  1.00  0.00     0.344 HD
ATOM     21  H   UNL A   1      30.070  22.693  25.739  1.00  0.00     0.344 HD
ATOM     22  H   UNL A   1      29.649  24.272  26.057  1.00  0.00     0.344 HD
ENDBRANCH  18  19
ENDBRANCH  10  18
BRANCH  11  23
ATOM     23  C   UNL A   1      33.661  25.090  24.129  1.00  0.00    -0.016 A 
ATOM     24  C   UNL A   1      34.372  25.154  25.331  1.00  0.00     0.009 A 
ATOM     25  C   UNL A   1      34.117  24.259  23.097  1.00  0.00     0.009 A 
ATOM     26  C   UNL A   1      35.518  24.376  25.507  1.00  0.00     0.001 A 
ATOM     27  C   UNL A   1      35.257  23.474  23.281  1.00  0.00     0.001 A 
ATOM     28  C   UNL A   1      35.956  23.533  24.485  1.00  0.00     0.000 A 
ENDBRANCH  11  23
ENDBRANCH   6   9
ENDBRANCH   4   5
ENDBRANCH   3   4
ENDBRANCH   2   3
ENDBRANCH   1   2
BRANCH   1  29
ATOM     29  C   UNL A   1      33.688  31.682  28.014  1.00  0.00     0.021 C 
BRANCH  29  30
ATOM     30  C   UNL A   1      33.446  32.935  27.176  1.00  0.00     0.116 C 
BRANCH  30  31
ATOM     31  N   UNL A   1      32.924  34.052  27.940  1.00  0.00    -0.352 N 
ATOM     32  C   UNL A   1      33.367  34.613  29.113  1.00  0.00     0.251 C 
ATOM     33  H   UNL A   1      32.124  34.476  27.555  1.00  0.00     0.163 HD
ATOM     34  O   UNL A   1      32.706  35.515  29.624  1.00  0.00    -0.269 OA
BRANCH  32  35
ATOM     35  C   UNL A   1      34.599  34.137  29.791  1.00  0.00     0.039 A 
ATOM     36  C   UNL A   1      34.454  33.371  30.954  1.00  0.00     0.014 A 
ATOM     37  C   UNL A   1      35.882  34.463  29.341  1.00  0.00     0.014 A 
ATOM     38  C   UNL A   1      35.582  32.894  31.628  1.00  0.00     0.010 A 
ATOM     39  C   UNL A   1      37.008  33.931  29.978  1.00  0.00     0.010 A 
ATOM     40  C   UNL A   1      36.871  33.144  31.130  1.00  0.00    -0.014 A 
BRANCH  40  41
ATOM     41  C   UNL A   1      38.063  32.566  31.809  1.00  0.00     0.031 A 
ATOM     42  C   UNL A   1      38.512  33.073  33.153  1.00  0.00     0.074 A 
ATOM     43  C   UNL A   1      38.759  31.585  31.199  1.00  0.00     0.049 A 
ATOM     44  N   UNL A   1      39.496  32.648  33.908  1.00  0.00    -0.248 NA
ATOM     45  C   UNL A   1      37.778  34.217  33.716  1.00  0.00     0.031 C 
ATOM     46  C   UNL A   1      38.464  31.039  29.872  1.00  0.00     0.029 A 
ATOM     47  N   UNL A   1      39.852  30.866  31.618  1.00  0.00    -0.354 N 
ATOM     48  C   UNL A   1      39.503  33.473  35.027  1.00  0.00     0.074 A 
ATOM     49  C   UNL A   1      38.457  34.454  34.831  1.00  0.00     0.031 C 
ATOM     50  C   UNL A   1      39.328  30.048  29.603  1.00  0.00     0.029 A 
ATOM     51  C   UNL A   1      40.253  29.902  30.722  1.00  0.00     0.049 A 
ATOM     52  H   UNL A   1      40.303  31.025  32.478  1.00  0.00     0.167 HD
ATOM     53  C   UNL A   1      40.293  33.409  36.127  1.00  0.00     0.031 A 
ATOM     54  C   UNL A   1      41.245  28.995  30.795  1.00  0.00     0.031 A 
ATOM     55  C   UNL A   1      41.329  32.430  36.327  1.00  0.00     0.049 A 
ATOM     56  C   UNL A   1      42.094  28.929  32.034  1.00  0.00     0.074 A 
ATOM     57  C   UNL A   1      42.142  32.248  37.433  1.00  0.00     0.029 A 
ATOM     58  N   UNL A   1      41.699  31.467  35.400  1.00  0.00    -0.354 N 
ATOM     59  N   UNL A   1      42.032  29.669  33.116  1.00  0.00    -0.248 NA
ATOM     60  C   UNL A   1      43.133  27.891  32.070  1.00  0.00     0.031 C 
ATOM     61  C   UNL A   1      43.034  31.205  37.157  1.00  0.00     0.029 A 
ATOM     62  C   UNL A   1      42.742  30.703  35.899  1.00  0.00     0.049 A 
ATOM     63  H   UNL A   1      41.282  31.344  34.517  1.00  0.00     0.167 HD
ATOM     64  C   UNL A   1      43.013  29.175  33.967  1.00  0.00     0.074 A 
ATOM     65  C   UNL A   1      43.637  28.059  33.285  1.00  0.00     0.031 C 
ATOM     66  C   UNL A   1      43.366  29.606  35.204  1.00  0.00     0.031 A 
BRANCH  53  67
ATOM     67  C   UNL A   1      40.066  34.437  37.205  1.00  0.00    -0.014 A 
ATOM     68  C   UNL A   1      39.107  34.231  38.214  1.00  0.00     0.010 A 
ATOM     69  C   UNL A   1      40.845  35.608  37.234  1.00  0.00     0.010 A 
ATOM     70  C   UNL A   1      38.901  35.194  39.205  1.00  0.00     0.020 A 
ATOM     71  C   UNL A   1      40.660  36.563  38.238  1.00  0.00     0.020 A 
ATOM     72  C   UNL A   1      39.676  36.358  39.206  1.00  0.00     0.054 A 
BRANCH  72  73
ATOM     73  S   UNL A   1      39.397  37.588  40.511  1.00  0.00     0.124 S 
ATOM     74  O   UNL A   1      39.120  36.739  41.669  1.00  0.00    -0.237 OA
ATOM     75  O   UNL A   1      40.668  38.308  40.552  1.00  0.00    -0.237 OA
ATOM     76  O   UNL A   1      38.261  38.363  40.020  1.00  0.00    -0.744 OA
ENDBRANCH  72  73
ENDBRANCH  53  67
BRANCH  54  77
ATOM     77  C   UNL A   1      41.466  28.049  29.668  1.00  0.00    -0.014 A 
ATOM     78  C   UNL A   1      40.652  26.913  29.518  1.00  0.00     0.010 A 
ATOM     79  C   UNL A   1      42.481  28.294  28.725  1.00  0.00     0.010 A 
ATOM     80  C   UNL A   1      40.856  26.031  28.454  1.00  0.00     0.020 A 
ATOM     81  C   UNL A   1      42.673  27.428  27.645  1.00  0.00     0.020 A 
ATOM     82  C   UNL A   1      41.864  26.295  27.522  1.00  0.00     0.054 A 
BRANCH  82  83
ATOM     83  S   UNL A   1      42.072  25.173  26.111  1.00  0.00     0.124 S 
ATOM     84  O   UNL A   1      41.728  26.035  24.986  1.00  0.00    -0.237 OA
ATOM     85  O   UNL A   1      43.479  24.793  26.212  1.00  0.00    -0.237 OA
ATOM     86  O   UNL A   1      41.124  24.097  26.391  1.00  0.00    -0.744 OA
ENDBRANCH  82  83
ENDBRANCH  54  77
BRANCH  66  87
ATOM     87  C   UNL A   1      44.469  28.857  35.902  1.00  0.00    -0.014 A 
ATOM     88  C   UNL A   1      45.815  29.237  35.751  1.00  0.00     0.010 A 
ATOM     89  C   UNL A   1      44.153  27.765  36.732  1.00  0.00     0.010 A 
ATOM     90  C   UNL A   1      46.829  28.511  36.382  1.00  0.00     0.020 A 
ATOM     91  C   UNL A   1      45.164  27.053  37.385  1.00  0.00     0.020 A 
ATOM     92  C   UNL A   1      46.497  27.419  37.189  1.00  0.00     0.054 A 
BRANCH  92  93
ATOM     93  S   UNL A   1      47.828  26.497  38.007  1.00  0.00     0.124 S 
ATOM     94  O   UNL A   1      47.092  25.723  39.004  1.00  0.00    -0.237 OA
ATOM     95  O   UNL A   1      48.405  25.722  36.911  1.00  0.00    -0.237 OA
ATOM     96  O   UNL A   1      48.694  27.544  38.544  1.00  0.00    -0.744 OA
ENDBRANCH  92  93
ENDBRANCH  66  87
ENDBRANCH  40  41
ENDBRANCH  32  35
ENDBRANCH  30  31
ENDBRANCH  29  30
ENDBRANCH   1  29
TORSDOF 19
ENDMDL
