MODEL 1
REMARK VINA RESULT:     -12.6      0.000      0.000
REMARK SMILES Cc1ccc([C@@H](C)Nc2ccc(N)cc2C(=O)NCCCCCCNC(=O)c2ccc(-c3c4nc(c(-c5ccc(S(=O)(=O)[O-])cc5)c5ccc([nH]5)c(-c5ccc(S(=O)(=O)[O-])cc5)c5nc(c(-c6ccc(S(=O)(=O)[O-])cc6)c6ccc3[nH]6)C=C5)C=C4)cc2)cc1F
REMARK SMILES IDX 21 1 20 2 19 3 18 4 16 5 17 6 15 8 9 9 10 10 11 11 14 12
REMARK SMILES IDX 12 13 8 14 6 16 7 17 5 18 1 19 2 20 3 21 89 22 4 23 88 24
REMARK SMILES IDX 90 25 13 26 22 29 23 30 24 31 25 32 26 33 27 35 28 36 29 37
REMARK SMILES IDX 87 38 30 39 86 40 31 41 32 42 33 43 80 44 34 45 85 46 79 47
REMARK SMILES IDX 81 48 35 49 84 50 78 51 77 52 36 54 66 55 47 56 65 57 48 58
REMARK SMILES IDX 51 59 64 60 82 61 49 62 50 63 63 65 83 66 52 67 37 68 38 69
REMARK SMILES IDX 46 70 39 71 45 72 40 73 41 74 42 75 43 76 44 77 67 78 68 79
REMARK SMILES IDX 76 80 69 81 75 82 70 83 71 84 72 85 73 86 74 87 53 88 54 89
REMARK SMILES IDX 62 90 55 91 61 92 56 93 57 94 58 95 59 96 60 97
REMARK H PARENT 18 7 8 15 13 27 13 28 25 34 81 53 51 64
REMARK Flexibility Score: inf
ROOT
ATOM      1  C   UNL A   1      38.907  23.204  26.288  1.00  0.00     0.002 C 
ENDROOT
BRANCH   1   2
ATOM      2  C   UNL A   1      36.742  23.461  26.122  1.00  0.00     0.021 C 
BRANCH   2   3
ATOM      3  C   UNL A   1      35.595  24.211  25.052  1.00  0.00     0.116 C 
BRANCH   3   4
ATOM      4  N   UNL A   1      35.313  23.667  23.727  1.00  0.00    -0.352 N 
ATOM      5  C   UNL A   1      34.120  23.366  23.118  1.00  0.00     0.253 C 
ATOM      6  O   UNL A   1      34.108  23.061  21.926  1.00  0.00    -0.269 OA
ATOM      7  H   UNL A   1      36.112  23.484  23.180  1.00  0.00     0.163 HD
BRANCH   5   8
ATOM      8  C   UNL A   1      32.886  23.248  23.921  1.00  0.00     0.065 A 
ATOM      9  C   UNL A   1      31.744  24.036  23.750  1.00  0.00     0.048 A 
ATOM     10  C   UNL A   1      30.986  24.229  24.922  1.00  0.00     0.028 A 
ATOM     11  C   UNL A   1      31.256  23.545  26.124  1.00  0.00     0.027 A 
ATOM     12  C   UNL A   1      33.065  22.441  25.070  1.00  0.00     0.041 A 
ATOM     13  C   UNL A   1      32.230  22.556  26.171  1.00  0.00     0.032 A 
BRANCH   9  14
ATOM     14  N   UNL A   1      31.305  24.652  22.587  1.00  0.00    -0.378 N 
ATOM     15  H   UNL A   1      30.609  24.148  22.108  1.00  0.00     0.161 HD
BRANCH  14  16
ATOM     16  C   UNL A   1      31.683  25.920  21.932  1.00  0.00     0.106 C 
ATOM     17  C   UNL A   1      32.610  25.755  20.736  1.00  0.00     0.036 C 
BRANCH  16  18
ATOM     18  C   UNL A   1      31.924  27.033  22.955  1.00  0.00    -0.023 A 
ATOM     19  C   UNL A   1      32.057  30.775  26.453  1.00  0.00     0.047 C 
ATOM     20  C   UNL A   1      32.019  29.634  25.492  1.00  0.00    -0.015 A 
ATOM     21  C   UNL A   1      30.649  29.550  24.328  1.00  0.00     0.007 A 
ATOM     22  C   UNL A   1      33.367  28.438  25.359  1.00  0.00     0.126 A 
ATOM     23  C   UNL A   1      30.589  28.242  23.087  1.00  0.00     0.006 A 
ATOM     24  C   UNL A   1      33.326  27.139  24.094  1.00  0.00     0.045 A 
ATOM     25  F   UNL A   1      34.379  28.479  26.236  1.00  0.00    -0.207 F 
ENDBRANCH  16  18
ENDBRANCH  14  16
ENDBRANCH   9  14
BRANCH  13  26
ATOM     26  N   UNL A   1      32.500  21.858  27.336  1.00  0.00    -0.399 N 
ATOM     27  H   UNL A   1      33.425  21.798  27.670  1.00  0.00     0.156 HD
ATOM     28  H   UNL A   1      31.769  21.422  27.831  1.00  0.00     0.156 HD
ENDBRANCH  13  26
ENDBRANCH   5   8
ENDBRANCH   3   4
ENDBRANCH   2   3
ENDBRANCH   1   2
BRANCH   1  29
ATOM     29  C   UNL A   1      40.036  22.082  26.887  1.00  0.00     0.002 C 
BRANCH  29  30
ATOM     30  C   UNL A   1      41.054  22.361  28.012  1.00  0.00     0.021 C 
BRANCH  30  31
ATOM     31  C   UNL A   1      42.238  23.305  27.806  1.00  0.00     0.116 C 
BRANCH  31  32
ATOM     32  N   UNL A   1      42.432  23.850  26.476  1.00  0.00    -0.352 N 
ATOM     33  C   UNL A   1      42.212  25.168  26.120  1.00  0.00     0.251 C 
ATOM     34  H   UNL A   1      42.744  23.235  25.773  1.00  0.00     0.163 HD
ATOM     35  O   UNL A   1      42.289  25.549  24.958  1.00  0.00    -0.269 OA
BRANCH  33  36
ATOM     36  C   UNL A   1      41.855  26.118  27.199  1.00  0.00     0.039 A 
ATOM     37  C   UNL A   1      40.613  26.017  27.827  1.00  0.00     0.014 A 
ATOM     38  C   UNL A   1      42.807  27.039  27.644  1.00  0.00     0.014 A 
ATOM     39  C   UNL A   1      40.340  26.825  28.934  1.00  0.00     0.010 A 
ATOM     40  C   UNL A   1      42.556  27.793  28.789  1.00  0.00     0.010 A 
ATOM     41  C   UNL A   1      41.314  27.706  29.437  1.00  0.00    -0.014 A 
BRANCH  41  42
ATOM     42  C   UNL A   1      41.016  28.563  30.617  1.00  0.00     0.031 A 
ATOM     43  C   UNL A   1      41.844  28.432  31.868  1.00  0.00     0.074 A 
ATOM     44  C   UNL A   1      40.013  29.463  30.561  1.00  0.00     0.049 A 
ATOM     45  N   UNL A   1      41.781  29.128  32.974  1.00  0.00    -0.248 NA
ATOM     46  C   UNL A   1      42.862  27.369  31.889  1.00  0.00     0.031 C 
ATOM     47  C   UNL A   1      39.118  29.662  29.417  1.00  0.00     0.029 A 
ATOM     48  N   UNL A   1      39.587  30.394  31.477  1.00  0.00    -0.354 N 
ATOM     49  C   UNL A   1      42.748  28.589  33.816  1.00  0.00     0.074 A 
ATOM     50  C   UNL A   1      43.333  27.465  33.123  1.00  0.00     0.031 C 
ATOM     51  C   UNL A   1      38.286  30.681  29.681  1.00  0.00     0.029 A 
ATOM     52  C   UNL A   1      38.554  31.184  31.026  1.00  0.00     0.049 A 
ATOM     53  H   UNL A   1      39.983  30.487  32.373  1.00  0.00     0.167 HD
ATOM     54  C   UNL A   1      43.133  29.008  35.045  1.00  0.00     0.031 A 
ATOM     55  C   UNL A   1      37.897  32.198  31.625  1.00  0.00     0.031 A 
ATOM     56  C   UNL A   1      42.543  30.125  35.732  1.00  0.00     0.049 A 
ATOM     57  C   UNL A   1      38.319  32.620  33.007  1.00  0.00     0.074 A 
ATOM     58  C   UNL A   1      42.887  30.658  36.961  1.00  0.00     0.029 A 
ATOM     59  N   UNL A   1      41.479  30.877  35.254  1.00  0.00    -0.354 N 
ATOM     60  N   UNL A   1      39.288  32.145  33.754  1.00  0.00    -0.248 NA
ATOM     61  C   UNL A   1      37.569  33.724  33.622  1.00  0.00     0.031 C 
ATOM     62  C   UNL A   1      41.982  31.679  37.261  1.00  0.00     0.029 A 
ATOM     63  C   UNL A   1      41.130  31.842  36.181  1.00  0.00     0.049 A 
ATOM     64  H   UNL A   1      41.040  30.743  34.383  1.00  0.00     0.167 HD
ATOM     65  C   UNL A   1      39.281  32.911  34.916  1.00  0.00     0.074 A 
ATOM     66  C   UNL A   1      38.229  33.894  34.759  1.00  0.00     0.031 C 
ATOM     67  C   UNL A   1      40.073  32.811  36.012  1.00  0.00     0.031 A 
BRANCH  54  68
ATOM     68  C   UNL A   1      44.236  28.240  35.731  1.00  0.00    -0.014 A 
ATOM     69  C   UNL A   1      45.588  28.600  35.575  1.00  0.00     0.010 A 
ATOM     70  C   UNL A   1      43.913  27.164  36.578  1.00  0.00     0.010 A 
ATOM     71  C   UNL A   1      46.595  27.875  36.217  1.00  0.00     0.020 A 
ATOM     72  C   UNL A   1      44.915  26.458  37.251  1.00  0.00     0.020 A 
ATOM     73  C   UNL A   1      46.251  26.809  37.053  1.00  0.00     0.054 A 
BRANCH  73  74
ATOM     74  S   UNL A   1      47.578  25.907  37.897  1.00  0.00     0.124 S 
ATOM     75  O   UNL A   1      48.508  25.642  36.802  1.00  0.00    -0.237 OA
ATOM     76  O   UNL A   1      48.037  26.874  38.891  1.00  0.00    -0.237 OA
ATOM     77  O   UNL A   1      46.907  24.729  38.441  1.00  0.00    -0.744 OA
ENDBRANCH  73  74
ENDBRANCH  54  68
BRANCH  55  78
ATOM     78  C   UNL A   1      36.776  32.886  30.921  1.00  0.00    -0.014 A 
ATOM     79  C   UNL A   1      35.436  32.609  31.247  1.00  0.00     0.010 A 
ATOM     80  C   UNL A   1      37.049  33.826  29.911  1.00  0.00     0.010 A 
ATOM     81  C   UNL A   1      34.393  33.243  30.563  1.00  0.00     0.020 A 
ATOM     82  C   UNL A   1      36.011  34.489  29.249  1.00  0.00     0.020 A 
ATOM     83  C   UNL A   1      34.688  34.185  29.573  1.00  0.00     0.054 A 
BRANCH  83  84
ATOM     84  S   UNL A   1      33.320  35.031  28.733  1.00  0.00     0.124 S 
ATOM     85  O   UNL A   1      34.021  36.051  27.959  1.00  0.00    -0.237 OA
ATOM     86  O   UNL A   1      32.713  33.952  27.959  1.00  0.00    -0.237 OA
ATOM     87  O   UNL A   1      32.501  35.534  29.836  1.00  0.00    -0.744 OA
ENDBRANCH  83  84
ENDBRANCH  55  78
BRANCH  67  88
ATOM     88  C   UNL A   1      39.856  33.809  37.120  1.00  0.00    -0.014 A 
ATOM     89  C   UNL A   1      40.295  35.141  37.007  1.00  0.00     0.010 A 
ATOM     90  C   UNL A   1      39.154  33.416  38.275  1.00  0.00     0.010 A 
ATOM     91  C   UNL A   1      40.070  36.049  38.045  1.00  0.00     0.020 A 
ATOM     92  C   UNL A   1      38.892  34.331  39.297  1.00  0.00     0.020 A 
ATOM     93  C   UNL A   1      39.367  35.639  39.182  1.00  0.00     0.054 A 
BRANCH  93  94
ATOM     94  S   UNL A   1      39.055  36.849  40.495  1.00  0.00     0.124 S 
ATOM     95  O   UNL A   1      38.110  36.136  41.349  1.00  0.00    -0.237 OA
ATOM     96  O   UNL A   1      40.385  37.052  41.061  1.00  0.00    -0.237 OA
ATOM     97  O   UNL A   1      38.504  38.000  39.783  1.00  0.00    -0.744 OA
ENDBRANCH  93  94
ENDBRANCH  67  88
ENDBRANCH  41  42
ENDBRANCH  33  36
ENDBRANCH  31  32
ENDBRANCH  30  31
ENDBRANCH  29  30
ENDBRANCH   1  29
TORSDOF 20
ENDMDL
MODEL 2
REMARK VINA RESULT:     -11.5      2.147      3.652
REMARK SMILES Cc1ccc([C@@H](C)Nc2ccc(N)cc2C(=O)NCCCCCCNC(=O)c2ccc(-c3c4nc(c(-c5ccc(S(=O)(=O)[O-])cc5)c5ccc([nH]5)c(-c5ccc(S(=O)(=O)[O-])cc5)c5nc(c(-c6ccc(S(=O)(=O)[O-])cc6)c6ccc3[nH]6)C=C5)C=C4)cc2)cc1F
REMARK SMILES IDX 21 1 20 2 19 3 18 4 16 5 17 6 15 8 9 9 10 10 11 11 14 12
REMARK SMILES IDX 12 13 8 14 6 16 7 17 5 18 1 19 2 20 3 21 89 22 4 23 88 24
REMARK SMILES IDX 90 25 13 26 22 29 23 30 24 31 25 32 26 33 27 35 28 36 29 37
REMARK SMILES IDX 87 38 30 39 86 40 31 41 32 42 33 43 80 44 34 45 85 46 79 47
REMARK SMILES IDX 81 48 35 49 84 50 78 51 77 52 36 54 66 55 47 56 65 57 48 58
REMARK SMILES IDX 51 59 64 60 82 61 49 62 50 63 63 65 83 66 52 67 37 68 38 69
REMARK SMILES IDX 46 70 39 71 45 72 40 73 41 74 42 75 43 76 44 77 67 78 68 79
REMARK SMILES IDX 76 80 69 81 75 82 70 83 71 84 72 85 73 86 74 87 53 88 54 89
REMARK SMILES IDX 62 90 55 91 61 92 56 93 57 94 58 95 59 96 60 97
REMARK H PARENT 18 7 8 15 13 27 13 28 25 34 81 53 51 64
REMARK Flexibility Score: inf
ROOT
ATOM      1  C   UNL A   1      36.910  23.862  26.163  1.00  0.00     0.002 C 
ENDROOT
BRANCH   1   2
ATOM      2  C   UNL A   1      35.245  24.493  24.896  1.00  0.00     0.021 C 
BRANCH   2   3
ATOM      3  C   UNL A   1      33.834  25.503  25.000  1.00  0.00     0.116 C 
BRANCH   3   4
ATOM      4  N   UNL A   1      33.721  26.561  25.999  1.00  0.00    -0.352 N 
ATOM      5  C   UNL A   1      32.622  27.246  26.457  1.00  0.00     0.253 C 
ATOM      6  O   UNL A   1      32.736  27.998  27.424  1.00  0.00    -0.269 OA
ATOM      7  H   UNL A   1      34.574  26.830  26.411  1.00  0.00     0.163 HD
BRANCH   5   8
ATOM      8  C   UNL A   1      31.356  27.211  25.696  1.00  0.00     0.065 A 
ATOM      9  C   UNL A   1      30.510  26.102  25.607  1.00  0.00     0.048 A 
ATOM     10  C   UNL A   1      29.764  26.031  24.413  1.00  0.00     0.028 A 
ATOM     11  C   UNL A   1      29.740  27.075  23.468  1.00  0.00     0.027 A 
ATOM     12  C   UNL A   1      31.213  28.325  24.836  1.00  0.00     0.041 A 
ATOM     13  C   UNL A   1      30.375  28.281  23.731  1.00  0.00     0.032 A 
BRANCH   9  14
ATOM     14  N   UNL A   1      30.350  25.080  26.531  1.00  0.00    -0.378 N 
ATOM     15  H   UNL A   1      30.428  25.374  27.467  1.00  0.00     0.161 HD
BRANCH  14  16
ATOM     16  C   UNL A   1      30.086  23.635  26.378  1.00  0.00     0.106 C 
ATOM     17  C   UNL A   1      28.979  23.103  27.278  1.00  0.00     0.036 C 
BRANCH  16  18
ATOM     18  C   UNL A   1      31.382  22.843  26.188  1.00  0.00    -0.023 A 
ATOM     19  C   UNL A   1      35.736  20.454  24.926  1.00  0.00     0.047 C 
ATOM     20  C   UNL A   1      34.510  21.211  25.315  1.00  0.00    -0.015 A 
ATOM     21  C   UNL A   1      33.250  21.490  24.061  1.00  0.00     0.007 A 
ATOM     22  C   UNL A   1      34.186  21.712  27.021  1.00  0.00     0.126 A 
ATOM     23  C   UNL A   1      31.710  22.325  24.489  1.00  0.00     0.006 A 
ATOM     24  C   UNL A   1      32.626  22.525  27.463  1.00  0.00     0.045 A 
ATOM     25  F   UNL A   1      35.127  21.529  27.956  1.00  0.00    -0.207 F 
ENDBRANCH  16  18
ENDBRANCH  14  16
ENDBRANCH   9  14
BRANCH  13  26
ATOM     26  N   UNL A   1      30.350  29.328  22.825  1.00  0.00    -0.399 N 
ATOM     27  H   UNL A   1      30.371  29.143  21.857  1.00  0.00     0.156 HD
ATOM     28  H   UNL A   1      30.311  30.258  23.147  1.00  0.00     0.156 HD
ENDBRANCH  13  26
ENDBRANCH   5   8
ENDBRANCH   3   4
ENDBRANCH   2   3
ENDBRANCH   1   2
BRANCH   1  29
ATOM     29  C   UNL A   1      38.600  24.027  26.260  1.00  0.00     0.002 C 
BRANCH  29  30
ATOM     30  C   UNL A   1      39.371  24.584  27.475  1.00  0.00     0.021 C 
BRANCH  30  31
ATOM     31  C   UNL A   1      40.834  25.014  27.368  1.00  0.00     0.116 C 
BRANCH  31  32
ATOM     32  N   UNL A   1      41.213  25.804  26.212  1.00  0.00    -0.352 N 
ATOM     33  C   UNL A   1      41.287  27.185  26.185  1.00  0.00     0.251 C 
ATOM     34  H   UNL A   1      41.435  25.321  25.383  1.00  0.00     0.163 HD
ATOM     35  O   UNL A   1      41.509  27.804  25.152  1.00  0.00    -0.269 OA
BRANCH  33  36
ATOM     36  C   UNL A   1      41.067  27.907  27.459  1.00  0.00     0.039 A 
ATOM     37  C   UNL A   1      39.992  27.554  28.277  1.00  0.00     0.014 A 
ATOM     38  C   UNL A   1      41.997  28.863  27.875  1.00  0.00     0.014 A 
ATOM     39  C   UNL A   1      39.873  28.144  29.539  1.00  0.00     0.010 A 
ATOM     40  C   UNL A   1      41.912  29.395  29.160  1.00  0.00     0.010 A 
ATOM     41  C   UNL A   1      40.841  29.054  30.001  1.00  0.00    -0.014 A 
BRANCH  41  42
ATOM     42  C   UNL A   1      40.707  29.677  31.346  1.00  0.00     0.031 A 
ATOM     43  C   UNL A   1      41.748  29.414  32.402  1.00  0.00     0.074 A 
ATOM     44  C   UNL A   1      39.661  30.485  31.614  1.00  0.00     0.049 A 
ATOM     45  N   UNL A   1      41.842  29.911  33.609  1.00  0.00    -0.248 NA
ATOM     46  C   UNL A   1      42.813  28.453  32.068  1.00  0.00     0.031 C 
ATOM     47  C   UNL A   1      38.569  30.791  30.686  1.00  0.00     0.029 A 
ATOM     48  N   UNL A   1      39.351  31.212  32.737  1.00  0.00    -0.354 N 
ATOM     49  C   UNL A   1      42.971  29.325  34.172  1.00  0.00     0.074 A 
ATOM     50  C   UNL A   1      43.487  28.384  33.205  1.00  0.00     0.031 C 
ATOM     51  C   UNL A   1      37.740  31.678  31.258  1.00  0.00     0.029 A 
ATOM     52  C   UNL A   1      38.212  31.974  32.608  1.00  0.00     0.049 A 
ATOM     53  H   UNL A   1      39.893  31.190  33.559  1.00  0.00     0.167 HD
ATOM     54  C   UNL A   1      43.542  29.567  35.376  1.00  0.00     0.031 A 
ATOM     55  C   UNL A   1      37.615  32.816  33.476  1.00  0.00     0.031 A 
ATOM     56  C   UNL A   1      43.020  30.502  36.336  1.00  0.00     0.049 A 
ATOM     57  C   UNL A   1      38.249  33.040  34.823  1.00  0.00     0.074 A 
ATOM     58  C   UNL A   1      43.544  30.853  37.567  1.00  0.00     0.029 A 
ATOM     59  N   UNL A   1      41.848  31.228  36.179  1.00  0.00    -0.354 N 
ATOM     60  N   UNL A   1      39.360  32.533  35.306  1.00  0.00    -0.248 NA
ATOM     61  C   UNL A   1      37.558  33.959  35.737  1.00  0.00     0.031 C 
ATOM     62  C   UNL A   1      42.650  31.730  38.187  1.00  0.00     0.029 A 
ATOM     63  C   UNL A   1      41.613  31.995  37.306  1.00  0.00     0.049 A 
ATOM     64  H   UNL A   1      41.271  31.202  35.382  1.00  0.00     0.167 HD
ATOM     65  C   UNL A   1      39.513  33.095  36.570  1.00  0.00     0.074 A 
ATOM     66  C   UNL A   1      38.397  33.996  36.763  1.00  0.00     0.031 C 
ATOM     67  C   UNL A   1      40.491  32.884  37.486  1.00  0.00     0.031 A 
BRANCH  54  68
ATOM     68  C   UNL A   1      44.790  28.795  35.726  1.00  0.00    -0.014 A 
ATOM     69  C   UNL A   1      46.072  29.328  35.495  1.00  0.00     0.010 A 
ATOM     70  C   UNL A   1      44.678  27.530  36.332  1.00  0.00     0.010 A 
ATOM     71  C   UNL A   1      47.216  28.595  35.824  1.00  0.00     0.020 A 
ATOM     72  C   UNL A   1      45.820  26.808  36.695  1.00  0.00     0.020 A 
ATOM     73  C   UNL A   1      47.081  27.341  36.424  1.00  0.00     0.054 A 
BRANCH  73  74
ATOM     74  S   UNL A   1      48.584  26.428  36.869  1.00  0.00     0.124 S 
ATOM     75  O   UNL A   1      48.713  26.733  38.291  1.00  0.00    -0.237 OA
ATOM     76  O   UNL A   1      48.223  25.049  36.551  1.00  0.00    -0.237 OA
ATOM     77  O   UNL A   1      49.613  27.013  36.012  1.00  0.00    -0.744 OA
ENDBRANCH  73  74
ENDBRANCH  54  68
BRANCH  55  78
ATOM     78  C   UNL A   1      36.351  33.511  33.097  1.00  0.00    -0.014 A 
ATOM     79  C   UNL A   1      35.096  32.942  33.382  1.00  0.00     0.010 A 
ATOM     80  C   UNL A   1      36.399  34.755  32.442  1.00  0.00     0.010 A 
ATOM     81  C   UNL A   1      33.917  33.593  33.001  1.00  0.00     0.020 A 
ATOM     82  C   UNL A   1      35.224  35.427  32.091  1.00  0.00     0.020 A 
ATOM     83  C   UNL A   1      33.990  34.835  32.364  1.00  0.00     0.054 A 
BRANCH  83  84
ATOM     84  S   UNL A   1      32.448  35.685  31.923  1.00  0.00     0.124 S 
ATOM     85  O   UNL A   1      32.774  37.078  32.211  1.00  0.00    -0.237 OA
ATOM     86  O   UNL A   1      32.299  35.347  30.510  1.00  0.00    -0.237 OA
ATOM     87  O   UNL A   1      31.457  35.077  32.809  1.00  0.00    -0.744 OA
ENDBRANCH  83  84
ENDBRANCH  55  78
BRANCH  67  88
ATOM     88  C   UNL A   1      40.416  33.664  38.774  1.00  0.00    -0.014 A 
ATOM     89  C   UNL A   1      40.999  34.938  38.896  1.00  0.00     0.010 A 
ATOM     90  C   UNL A   1      39.704  33.130  39.864  1.00  0.00     0.010 A 
ATOM     91  C   UNL A   1      40.905  35.645  40.098  1.00  0.00     0.020 A 
ATOM     92  C   UNL A   1      39.573  33.851  41.053  1.00  0.00     0.020 A 
ATOM     93  C   UNL A   1      40.189  35.098  41.168  1.00  0.00     0.054 A 
BRANCH  93  94
ATOM     94  S   UNL A   1      40.050  36.055  42.700  1.00  0.00     0.124 S 
ATOM     95  O   UNL A   1      39.116  35.248  43.480  1.00  0.00    -0.237 OA
ATOM     96  O   UNL A   1      41.426  36.074  43.189  1.00  0.00    -0.237 OA
ATOM     97  O   UNL A   1      39.534  37.348  42.257  1.00  0.00    -0.744 OA
ENDBRANCH  93  94
ENDBRANCH  67  88
ENDBRANCH  41  42
ENDBRANCH  33  36
ENDBRANCH  31  32
ENDBRANCH  30  31
ENDBRANCH  29  30
ENDBRANCH   1  29
TORSDOF 20
ENDMDL
MODEL 3
REMARK VINA RESULT:     -11.5      6.012      8.200
REMARK SMILES Cc1ccc([C@@H](C)Nc2ccc(N)cc2C(=O)NCCCCCCNC(=O)c2ccc(-c3c4nc(c(-c5ccc(S(=O)(=O)[O-])cc5)c5ccc([nH]5)c(-c5ccc(S(=O)(=O)[O-])cc5)c5nc(c(-c6ccc(S(=O)(=O)[O-])cc6)c6ccc3[nH]6)C=C5)C=C4)cc2)cc1F
REMARK SMILES IDX 21 1 20 2 19 3 18 4 16 5 17 6 15 8 9 9 10 10 11 11 14 12
REMARK SMILES IDX 12 13 8 14 6 16 7 17 5 18 1 19 2 20 3 21 89 22 4 23 88 24
REMARK SMILES IDX 90 25 13 26 22 29 23 30 24 31 25 32 26 33 27 35 28 36 29 37
REMARK SMILES IDX 87 38 30 39 86 40 31 41 32 42 33 43 80 44 34 45 85 46 79 47
REMARK SMILES IDX 81 48 35 49 84 50 78 51 77 52 36 54 66 55 47 56 65 57 48 58
REMARK SMILES IDX 51 59 64 60 82 61 49 62 50 63 63 65 83 66 52 67 37 68 38 69
REMARK SMILES IDX 46 70 39 71 45 72 40 73 41 74 42 75 43 76 44 77 67 78 68 79
REMARK SMILES IDX 76 80 69 81 75 82 70 83 71 84 72 85 73 86 74 87 53 88 54 89
REMARK SMILES IDX 62 90 55 91 61 92 56 93 57 94 58 95 59 96 60 97
REMARK H PARENT 18 7 8 15 13 27 13 28 25 34 81 53 51 64
REMARK Flexibility Score: inf
ROOT
ATOM      1  C   UNL A   1      37.886  23.277  25.653  1.00  0.00     0.002 C 
ENDROOT
BRANCH   1   2
ATOM      2  C   UNL A   1      35.848  24.065  25.633  1.00  0.00     0.021 C 
BRANCH   2   3
ATOM      3  C   UNL A   1      34.217  23.469  25.544  1.00  0.00     0.116 C 
BRANCH   3   4
ATOM      4  N   UNL A   1      33.780  22.591  24.463  1.00  0.00    -0.352 N 
ATOM      5  C   UNL A   1      32.578  22.514  23.804  1.00  0.00     0.253 C 
ATOM      6  O   UNL A   1      32.477  21.797  22.809  1.00  0.00    -0.269 OA
ATOM      7  H   UNL A   1      34.458  21.946  24.158  1.00  0.00     0.163 HD
BRANCH   5   8
ATOM      8  C   UNL A   1      31.375  23.152  24.377  1.00  0.00     0.065 A 
ATOM      9  C   UNL A   1      30.855  24.384  23.970  1.00  0.00     0.048 A 
ATOM     10  C   UNL A   1      30.168  25.090  24.977  1.00  0.00     0.028 A 
ATOM     11  C   UNL A   1      29.878  24.529  26.236  1.00  0.00     0.027 A 
ATOM     12  C   UNL A   1      30.950  22.526  25.573  1.00  0.00     0.041 A 
ATOM     13  C   UNL A   1      30.167  23.197  26.500  1.00  0.00     0.032 A 
BRANCH   9  14
ATOM     14  N   UNL A   1      30.963  24.979  22.721  1.00  0.00    -0.378 N 
ATOM     15  H   UNL A   1      30.320  24.635  22.060  1.00  0.00     0.161 HD
BRANCH  14  16
ATOM     16  C   UNL A   1      31.857  26.030  22.196  1.00  0.00     0.106 C 
ATOM     17  C   UNL A   1      32.952  25.516  21.273  1.00  0.00     0.036 C 
BRANCH  16  18
ATOM     18  C   UNL A   1      32.168  27.087  23.258  1.00  0.00    -0.023 A 
ATOM     19  C   UNL A   1      32.538  30.704  26.869  1.00  0.00     0.047 C 
ATOM     20  C   UNL A   1      32.424  29.598  25.874  1.00  0.00    -0.015 A 
ATOM     21  C   UNL A   1      31.087  29.672  24.672  1.00  0.00     0.007 A 
ATOM     22  C   UNL A   1      33.662  28.288  25.741  1.00  0.00     0.126 A 
ATOM     23  C   UNL A   1      30.945  28.410  23.391  1.00  0.00     0.006 A 
ATOM     24  C   UNL A   1      33.540  27.033  24.437  1.00  0.00     0.045 A 
ATOM     25  F   UNL A   1      34.647  28.212  26.645  1.00  0.00    -0.207 F 
ENDBRANCH  16  18
ENDBRANCH  14  16
ENDBRANCH   9  14
BRANCH  13  26
ATOM     26  N   UNL A   1      29.874  22.619  27.724  1.00  0.00    -0.399 N 
ATOM     27  H   UNL A   1      30.475  22.759  28.492  1.00  0.00     0.156 HD
ATOM     28  H   UNL A   1      29.064  22.067  27.828  1.00  0.00     0.156 HD
ENDBRANCH  13  26
ENDBRANCH   5   8
ENDBRANCH   3   4
ENDBRANCH   2   3
ENDBRANCH   1   2
BRANCH   1  29
ATOM     29  C   UNL A   1      38.719  21.849  26.053  1.00  0.00     0.002 C 
BRANCH  29  30
ATOM     30  C   UNL A   1      40.234  21.750  26.326  1.00  0.00     0.021 C 
BRANCH  30  31
ATOM     31  C   UNL A   1      40.852  20.518  26.986  1.00  0.00     0.116 C 
BRANCH  31  32
ATOM     32  N   UNL A   1      41.660  19.649  26.151  1.00  0.00    -0.352 N 
ATOM     33  C   UNL A   1      42.857  20.008  25.559  1.00  0.00     0.251 C 
ATOM     34  H   UNL A   1      41.331  18.735  25.993  1.00  0.00     0.163 HD
ATOM     35  O   UNL A   1      43.442  19.269  24.777  1.00  0.00    -0.269 OA
BRANCH  33  36
ATOM     36  C   UNL A   1      43.410  21.341  25.888  1.00  0.00     0.039 A 
ATOM     37  C   UNL A   1      43.360  22.365  24.940  1.00  0.00     0.014 A 
ATOM     38  C   UNL A   1      43.884  21.588  27.179  1.00  0.00     0.014 A 
ATOM     39  C   UNL A   1      43.757  23.654  25.305  1.00  0.00     0.010 A 
ATOM     40  C   UNL A   1      44.213  22.888  27.557  1.00  0.00     0.010 A 
ATOM     41  C   UNL A   1      44.168  23.933  26.621  1.00  0.00    -0.014 A 
BRANCH  41  42
ATOM     42  C   UNL A   1      44.589  25.308  27.003  1.00  0.00     0.031 A 
ATOM     43  C   UNL A   1      46.002  25.760  26.745  1.00  0.00     0.074 A 
ATOM     44  C   UNL A   1      43.702  26.152  27.569  1.00  0.00     0.049 A 
ATOM     45  N   UNL A   1      46.543  26.934  26.948  1.00  0.00    -0.248 NA
ATOM     46  C   UNL A   1      46.937  24.757  26.207  1.00  0.00     0.031 C 
ATOM     47  C   UNL A   1      42.314  25.823  27.901  1.00  0.00     0.029 A 
ATOM     48  N   UNL A   1      43.828  27.466  27.949  1.00  0.00    -0.354 N 
ATOM     49  C   UNL A   1      47.873  26.810  26.562  1.00  0.00     0.074 A 
ATOM     50  C   UNL A   1      48.077  25.431  26.182  1.00  0.00     0.031 C 
ATOM     51  C   UNL A   1      41.705  26.916  28.387  1.00  0.00     0.029 A 
ATOM     52  C   UNL A   1      42.666  28.014  28.444  1.00  0.00     0.049 A 
ATOM     53  H   UNL A   1      44.671  27.969  27.876  1.00  0.00     0.167 HD
ATOM     54  C   UNL A   1      48.833  27.763  26.504  1.00  0.00     0.031 A 
ATOM     55  C   UNL A   1      42.402  29.259  28.891  1.00  0.00     0.031 A 
ATOM     56  C   UNL A   1      48.625  29.133  26.889  1.00  0.00     0.049 A 
ATOM     57  C   UNL A   1      43.497  30.291  28.852  1.00  0.00     0.074 A 
ATOM     58  C   UNL A   1      49.518  30.188  26.830  1.00  0.00     0.029 A 
ATOM     59  N   UNL A   1      47.444  29.638  27.414  1.00  0.00    -0.354 N 
ATOM     60  N   UNL A   1      44.728  30.172  28.412  1.00  0.00    -0.248 NA
ATOM     61  C   UNL A   1      43.165  31.630  29.358  1.00  0.00     0.031 C 
ATOM     62  C   UNL A   1      48.903  31.310  27.392  1.00  0.00     0.029 A 
ATOM     63  C   UNL A   1      47.598  30.979  27.719  1.00  0.00     0.049 A 
ATOM     64  H   UNL A   1      46.618  29.119  27.548  1.00  0.00     0.167 HD
ATOM     65  C   UNL A   1      45.307  31.428  28.562  1.00  0.00     0.074 A 
ATOM     66  C   UNL A   1      44.285  32.295  29.109  1.00  0.00     0.031 C 
ATOM     67  C   UNL A   1      46.570  31.827  28.271  1.00  0.00     0.031 A 
BRANCH  54  68
ATOM     68  C   UNL A   1      50.201  27.349  26.021  1.00  0.00    -0.014 A 
ATOM     69  C   UNL A   1      50.535  27.372  24.654  1.00  0.00     0.010 A 
ATOM     70  C   UNL A   1      51.183  26.968  26.955  1.00  0.00     0.010 A 
ATOM     71  C   UNL A   1      51.807  26.982  24.227  1.00  0.00     0.020 A 
ATOM     72  C   UNL A   1      52.468  26.612  26.535  1.00  0.00     0.020 A 
ATOM     73  C   UNL A   1      52.766  26.607  25.171  1.00  0.00     0.054 A 
BRANCH  73  74
ATOM     74  S   UNL A   1      54.418  26.137  24.588  1.00  0.00     0.124 S 
ATOM     75  O   UNL A   1      54.326  26.422  23.158  1.00  0.00    -0.237 OA
ATOM     76  O   UNL A   1      55.289  27.027  25.352  1.00  0.00    -0.237 OA
ATOM     77  O   UNL A   1      54.519  24.721  24.933  1.00  0.00    -0.744 OA
ENDBRANCH  73  74
ENDBRANCH  54  68
BRANCH  55  78
ATOM     78  C   UNL A   1      41.045  29.598  29.411  1.00  0.00    -0.014 A 
ATOM     79  C   UNL A   1      39.965  29.808  28.535  1.00  0.00     0.010 A 
ATOM     80  C   UNL A   1      40.829  29.716  30.796  1.00  0.00     0.010 A 
ATOM     81  C   UNL A   1      38.702  30.148  29.033  1.00  0.00     0.020 A 
ATOM     82  C   UNL A   1      39.562  30.020  31.300  1.00  0.00     0.020 A 
ATOM     83  C   UNL A   1      38.508  30.246  30.414  1.00  0.00     0.054 A 
BRANCH  83  84
ATOM     84  S   UNL A   1      36.851  30.640  31.040  1.00  0.00     0.124 S 
ATOM     85  O   UNL A   1      37.153  31.363  32.272  1.00  0.00    -0.237 OA
ATOM     86  O   UNL A   1      36.290  31.441  29.955  1.00  0.00    -0.237 OA
ATOM     87  O   UNL A   1      36.232  29.328  31.219  1.00  0.00    -0.744 OA
ENDBRANCH  83  84
ENDBRANCH  55  78
BRANCH  67  88
ATOM     88  C   UNL A   1      46.914  33.276  28.511  1.00  0.00    -0.014 A 
ATOM     89  C   UNL A   1      47.468  33.709  29.729  1.00  0.00     0.010 A 
ATOM     90  C   UNL A   1      46.725  34.210  27.475  1.00  0.00     0.010 A 
ATOM     91  C   UNL A   1      47.787  35.056  29.920  1.00  0.00     0.020 A 
ATOM     92  C   UNL A   1      47.081  35.549  27.648  1.00  0.00     0.020 A 
ATOM     93  C   UNL A   1      47.595  35.967  28.876  1.00  0.00     0.054 A 
BRANCH  93  94
ATOM     94  S   UNL A   1      48.056  37.699  29.139  1.00  0.00     0.124 S 
ATOM     95  O   UNL A   1      48.890  37.615  30.335  1.00  0.00    -0.237 OA
ATOM     96  O   UNL A   1      48.761  38.031  27.904  1.00  0.00    -0.237 OA
ATOM     97  O   UNL A   1      46.775  38.377  29.320  1.00  0.00    -0.744 OA
ENDBRANCH  93  94
ENDBRANCH  67  88
ENDBRANCH  41  42
ENDBRANCH  33  36
ENDBRANCH  31  32
ENDBRANCH  30  31
ENDBRANCH  29  30
ENDBRANCH   1  29
TORSDOF 20
ENDMDL
