MODEL 1
REMARK VINA RESULT:     -10.6      0.000      0.000
REMARK SMILES COc1c(C)cc([C@H](C(=O)NCCCCCCNC(=O)c2ccc(-c3c4nc(c(-c5ccc(S(=O)(=O)[O-])cc5)c5ccc([nH]5)c(-c5ccc(S(=O)(=O)[O-])cc5)c5nc(c(-c6ccc(S(=O)(=O)[O-])cc6)c6ccc3[nH]6)C=C5)C=C4)cc2)[N@@H+](C)CCN2CCCCC2=O)cc1C
REMARK SMILES IDX 14 1 13 2 12 3 11 4 9 5 10 6 8 8 7 9 3 10 4 11 93 12 5 13
REMARK SMILES IDX 6 14 92 15 94 16 2 17 1 18 81 19 82 20 83 22 84 23 85 24
REMARK SMILES IDX 86 25 90 26 87 27 89 28 91 29 88 30 15 31 16 32 17 33 18 34
REMARK SMILES IDX 19 35 20 37 21 38 22 39 80 40 23 41 79 42 24 43 25 44 26 45
REMARK SMILES IDX 73 46 27 47 78 48 72 49 74 50 28 51 77 52 71 53 70 54 29 56
REMARK SMILES IDX 59 57 40 58 58 59 41 60 44 61 57 62 75 63 42 64 43 65 56 67
REMARK SMILES IDX 76 68 45 69 30 70 31 71 39 72 32 73 38 74 33 75 34 76 35 77
REMARK SMILES IDX 36 78 37 79 60 80 61 81 69 82 62 83 68 84 63 85 64 86 65 87
REMARK SMILES IDX 66 88 67 89 46 90 47 91 55 92 48 93 54 94 49 95 50 96 51 97
REMARK SMILES IDX 52 98 53 99
REMARK H PARENT 11 7 81 21 18 36 74 55 44 66
REMARK Flexibility Score: inf
ROOT
ATOM      1  C   UNL A   1      39.574  21.737  26.145  1.00  0.00     0.002 C 
ENDROOT
BRANCH   1   2
ATOM      2  C   UNL A   1      39.156  23.091  26.738  1.00  0.00     0.021 C 
BRANCH   2   3
ATOM      3  C   UNL A   1      38.149  24.015  26.039  1.00  0.00     0.116 C 
BRANCH   3   4
ATOM      4  N   UNL A   1      37.760  23.558  24.685  1.00  0.00    -0.351 N 
ATOM      5  C   UNL A   1      36.571  23.321  24.023  1.00  0.00     0.283 C 
ATOM      6  O   UNL A   1      36.696  23.078  22.811  1.00  0.00    -0.268 OA
ATOM      7  H   UNL A   1      38.543  23.380  24.114  1.00  0.00     0.163 HD
BRANCH   5   8
ATOM      8  C   UNL A   1      35.129  23.338  24.677  1.00  0.00     0.305 C 
BRANCH   8   9
ATOM      9  C   UNL A   1      34.127  24.495  24.307  1.00  0.00     0.020 A 
ATOM     10  C   UNL A   1      32.492  26.789  23.677  1.00  0.00     0.124 A 
ATOM     11  C   UNL A   1      32.756  25.799  22.710  1.00  0.00    -0.008 A 
ATOM     12  C   UNL A   1      33.071  26.683  24.928  1.00  0.00    -0.008 A 
ATOM     13  C   UNL A   1      32.174  25.946  21.330  1.00  0.00     0.048 C 
ATOM     14  C   UNL A   1      33.548  24.652  23.038  1.00  0.00     0.017 A 
ATOM     15  C   UNL A   1      33.821  25.532  25.200  1.00  0.00     0.017 A 
ATOM     16  C   UNL A   1      33.024  27.718  26.018  1.00  0.00     0.048 C 
BRANCH  10  17
ATOM     17  O   UNL A   1      31.747  27.882  23.320  1.00  0.00    -0.496 OA
ATOM     18  C   UNL A   1      30.359  27.745  23.631  1.00  0.00     0.278 C 
ENDBRANCH  10  17
ENDBRANCH   8   9
BRANCH   8  19
ATOM     19  N   UNL A   1      34.560  21.961  24.764  1.00  0.00    -0.322 N 
ATOM     20  C   UNL A   1      35.252  21.270  25.878  1.00  0.00     0.333 C 
ATOM     21  H   UNL A   1      34.724  21.610  23.821  1.00  0.00     0.348 HD
BRANCH  19  22
ATOM     22  C   UNL A   1      33.099  21.703  24.868  1.00  0.00     0.284 C 
BRANCH  22  23
ATOM     23  C   UNL A   1      32.232  20.353  24.911  1.00  0.00     0.180 C 
BRANCH  23  24
ATOM     24  N   UNL A   1      32.708  18.957  24.682  1.00  0.00    -0.337 N 
ATOM     25  C   UNL A   1      32.777  17.990  25.757  1.00  0.00     0.119 C 
ATOM     26  C   UNL A   1      32.613  18.455  23.378  1.00  0.00     0.222 C 
ATOM     27  C   UNL A   1      33.730  16.832  25.514  1.00  0.00     0.022 C 
ATOM     28  C   UNL A   1      33.228  17.081  23.109  1.00  0.00     0.100 C 
ATOM     29  O   UNL A   1      32.163  19.110  22.450  1.00  0.00    -0.275 OA
ATOM     30  C   UNL A   1      33.275  16.108  24.273  1.00  0.00     0.012 C 
ENDBRANCH  23  24
ENDBRANCH  22  23
ENDBRANCH  19  22
ENDBRANCH   8  19
ENDBRANCH   5   8
ENDBRANCH   3   4
ENDBRANCH   2   3
ENDBRANCH   1   2
BRANCH   1  31
ATOM     31  C   UNL A   1      40.929  21.134  26.519  1.00  0.00     0.002 C 
BRANCH  31  32
ATOM     32  C   UNL A   1      41.213  19.687  26.109  1.00  0.00     0.021 C 
BRANCH  32  33
ATOM     33  C   UNL A   1      42.588  19.107  26.458  1.00  0.00     0.116 C 
BRANCH  33  34
ATOM     34  N   UNL A   1      43.404  18.784  25.296  1.00  0.00    -0.352 N 
ATOM     35  C   UNL A   1      44.256  19.553  24.538  1.00  0.00     0.251 C 
ATOM     36  H   UNL A   1      43.334  17.847  25.001  1.00  0.00     0.163 HD
ATOM     37  O   UNL A   1      44.750  19.065  23.518  1.00  0.00    -0.269 OA
BRANCH  35  38
ATOM     38  C   UNL A   1      44.582  20.957  24.891  1.00  0.00     0.039 A 
ATOM     39  C   UNL A   1      44.321  21.963  23.951  1.00  0.00     0.014 A 
ATOM     40  C   UNL A   1      45.200  21.295  26.097  1.00  0.00     0.014 A 
ATOM     41  C   UNL A   1      44.602  23.302  24.249  1.00  0.00     0.010 A 
ATOM     42  C   UNL A   1      45.430  22.637  26.417  1.00  0.00     0.010 A 
ATOM     43  C   UNL A   1      45.128  23.657  25.500  1.00  0.00    -0.014 A 
BRANCH  43  44
ATOM     44  C   UNL A   1      45.342  25.083  25.873  1.00  0.00     0.031 A 
ATOM     45  C   UNL A   1      46.722  25.686  25.861  1.00  0.00     0.074 A 
ATOM     46  C   UNL A   1      44.302  25.822  26.308  1.00  0.00     0.049 A 
ATOM     47  N   UNL A   1      47.101  26.887  26.218  1.00  0.00    -0.248 NA
ATOM     48  C   UNL A   1      47.818  24.816  25.413  1.00  0.00     0.031 C 
ATOM     49  C   UNL A   1      42.921  25.350  26.422  1.00  0.00     0.029 A 
ATOM     50  N   UNL A   1      44.247  27.120  26.752  1.00  0.00    -0.354 N 
ATOM     51  C   UNL A   1      48.482  26.912  26.063  1.00  0.00     0.074 A 
ATOM     52  C   UNL A   1      48.875  25.591  25.614  1.00  0.00     0.031 C 
ATOM     53  C   UNL A   1      42.155  26.343  26.902  1.00  0.00     0.029 A 
ATOM     54  C   UNL A   1      42.992  27.513  27.156  1.00  0.00     0.049 A 
ATOM     55  H   UNL A   1      45.032  27.714  26.780  1.00  0.00     0.167 HD
ATOM     56  C   UNL A   1      49.347  27.937  26.266  1.00  0.00     0.031 A 
ATOM     57  C   UNL A   1      42.558  28.675  27.681  1.00  0.00     0.031 A 
ATOM     58  C   UNL A   1      48.960  29.251  26.708  1.00  0.00     0.049 A 
ATOM     59  C   UNL A   1      43.523  29.810  27.872  1.00  0.00     0.074 A 
ATOM     60  C   UNL A   1      49.754  30.374  26.874  1.00  0.00     0.029 A 
ATOM     61  N   UNL A   1      47.672  29.620  27.063  1.00  0.00    -0.354 N 
ATOM     62  N   UNL A   1      44.814  29.837  27.643  1.00  0.00    -0.248 NA
ATOM     63  C   UNL A   1      42.972  31.074  28.377  1.00  0.00     0.031 C 
ATOM     64  C   UNL A   1      48.952  31.410  27.369  1.00  0.00     0.029 A 
ATOM     65  C   UNL A   1      47.650  30.945  27.469  1.00  0.00     0.049 A 
ATOM     66  H   UNL A   1      46.886  29.027  27.031  1.00  0.00     0.167 HD
ATOM     67  C   UNL A   1      45.227  31.125  27.962  1.00  0.00     0.074 A 
ATOM     68  C   UNL A   1      44.048  31.851  28.386  1.00  0.00     0.031 C 
ATOM     69  C   UNL A   1      46.474  31.656  27.904  1.00  0.00     0.031 A 
BRANCH  56  70
ATOM     70  C   UNL A   1      50.809  27.656  26.028  1.00  0.00    -0.014 A 
ATOM     71  C   UNL A   1      51.631  27.162  27.056  1.00  0.00     0.010 A 
ATOM     72  C   UNL A   1      51.370  27.903  24.763  1.00  0.00     0.010 A 
ATOM     73  C   UNL A   1      53.002  26.987  26.845  1.00  0.00     0.020 A 
ATOM     74  C   UNL A   1      52.736  27.703  24.538  1.00  0.00     0.020 A 
ATOM     75  C   UNL A   1      53.548  27.276  25.590  1.00  0.00     0.054 A 
BRANCH  75  76
ATOM     76  S   UNL A   1      55.335  27.076  25.347  1.00  0.00     0.124 S 
ATOM     77  O   UNL A   1      55.397  25.804  24.629  1.00  0.00    -0.237 OA
ATOM     78  O   UNL A   1      55.689  28.256  24.563  1.00  0.00    -0.237 OA
ATOM     79  O   UNL A   1      55.869  27.051  26.706  1.00  0.00    -0.744 OA
ENDBRANCH  75  76
ENDBRANCH  56  70
BRANCH  57  80
ATOM     80  C   UNL A   1      41.122  28.812  28.045  1.00  0.00    -0.014 A 
ATOM     81  C   UNL A   1      40.700  28.597  29.369  1.00  0.00     0.010 A 
ATOM     82  C   UNL A   1      40.186  29.236  27.085  1.00  0.00     0.010 A 
ATOM     83  C   UNL A   1      39.367  28.816  29.728  1.00  0.00     0.020 A 
ATOM     84  C   UNL A   1      38.857  29.475  27.445  1.00  0.00     0.020 A 
ATOM     85  C   UNL A   1      38.455  29.263  28.766  1.00  0.00     0.054 A 
BRANCH  85  86
ATOM     86  S   UNL A   1      36.759  29.650  29.279  1.00  0.00     0.124 S 
ATOM     87  O   UNL A   1      35.975  29.098  28.179  1.00  0.00    -0.237 OA
ATOM     88  O   UNL A   1      36.643  28.946  30.554  1.00  0.00    -0.237 OA
ATOM     89  O   UNL A   1      36.758  31.108  29.381  1.00  0.00    -0.744 OA
ENDBRANCH  85  86
ENDBRANCH  57  80
BRANCH  69  90
ATOM     90  C   UNL A   1      46.630  33.100  28.299  1.00  0.00    -0.014 A 
ATOM     91  C   UNL A   1      46.939  33.461  29.622  1.00  0.00     0.010 A 
ATOM     92  C   UNL A   1      46.517  34.106  27.323  1.00  0.00     0.010 A 
ATOM     93  C   UNL A   1      47.108  34.805  29.967  1.00  0.00     0.020 A 
ATOM     94  C   UNL A   1      46.707  35.449  27.659  1.00  0.00     0.020 A 
ATOM     95  C   UNL A   1      46.988  35.792  28.983  1.00  0.00     0.054 A 
BRANCH  95  96
ATOM     96  S   UNL A   1      47.257  37.527  29.442  1.00  0.00     0.124 S 
ATOM     97  O   UNL A   1      46.745  38.233  28.271  1.00  0.00    -0.237 OA
ATOM     98  O   UNL A   1      46.458  37.666  30.658  1.00  0.00    -0.237 OA
ATOM     99  O   UNL A   1      48.702  37.611  29.641  1.00  0.00    -0.744 OA
ENDBRANCH  95  96
ENDBRANCH  69  90
ENDBRANCH  43  44
ENDBRANCH  35  38
ENDBRANCH  33  34
ENDBRANCH  32  33
ENDBRANCH  31  32
ENDBRANCH   1  31
TORSDOF 22
ENDMDL
MODEL 2
REMARK VINA RESULT:     -10.5      6.817      9.521
REMARK SMILES COc1c(C)cc([C@H](C(=O)NCCCCCCNC(=O)c2ccc(-c3c4nc(c(-c5ccc(S(=O)(=O)[O-])cc5)c5ccc([nH]5)c(-c5ccc(S(=O)(=O)[O-])cc5)c5nc(c(-c6ccc(S(=O)(=O)[O-])cc6)c6ccc3[nH]6)C=C5)C=C4)cc2)[N@@H+](C)CCN2CCCCC2=O)cc1C
REMARK SMILES IDX 14 1 13 2 12 3 11 4 9 5 10 6 8 8 7 9 3 10 4 11 93 12 5 13
REMARK SMILES IDX 6 14 92 15 94 16 2 17 1 18 81 19 82 20 83 22 84 23 85 24
REMARK SMILES IDX 86 25 90 26 87 27 89 28 91 29 88 30 15 31 16 32 17 33 18 34
REMARK SMILES IDX 19 35 20 37 21 38 22 39 80 40 23 41 79 42 24 43 25 44 26 45
REMARK SMILES IDX 73 46 27 47 78 48 72 49 74 50 28 51 77 52 71 53 70 54 29 56
REMARK SMILES IDX 59 57 40 58 58 59 41 60 44 61 57 62 75 63 42 64 43 65 56 67
REMARK SMILES IDX 76 68 45 69 30 70 31 71 39 72 32 73 38 74 33 75 34 76 35 77
REMARK SMILES IDX 36 78 37 79 60 80 61 81 69 82 62 83 68 84 63 85 64 86 65 87
REMARK SMILES IDX 66 88 67 89 46 90 47 91 55 92 48 93 54 94 49 95 50 96 51 97
REMARK SMILES IDX 52 98 53 99
REMARK H PARENT 11 7 81 21 18 36 74 55 44 66
REMARK Flexibility Score: inf
ROOT
ATOM      1  C   UNL A   1      35.931  23.632  24.149  1.00  0.00     0.002 C 
ENDROOT
BRANCH   1   2
ATOM      2  C   UNL A   1      34.582  22.898  24.216  1.00  0.00     0.021 C 
BRANCH   2   3
ATOM      3  C   UNL A   1      33.401  23.272  23.311  1.00  0.00     0.116 C 
BRANCH   3   4
ATOM      4  N   UNL A   1      33.404  24.689  22.880  1.00  0.00    -0.351 N 
ATOM      5  C   UNL A   1      33.190  25.910  23.490  1.00  0.00     0.283 C 
ATOM      6  O   UNL A   1      33.440  26.894  22.774  1.00  0.00    -0.268 OA
ATOM      7  H   UNL A   1      33.611  24.785  21.922  1.00  0.00     0.163 HD
BRANCH   5   8
ATOM      8  C   UNL A   1      32.673  26.126  24.970  1.00  0.00     0.305 C 
BRANCH   8   9
ATOM      9  C   UNL A   1      32.861  27.530  25.658  1.00  0.00     0.020 A 
ATOM     10  C   UNL A   1      33.432  30.133  26.770  1.00  0.00     0.124 A 
ATOM     11  C   UNL A   1      32.246  29.896  26.045  1.00  0.00    -0.008 A 
ATOM     12  C   UNL A   1      34.357  29.114  26.900  1.00  0.00    -0.008 A 
ATOM     13  C   UNL A   1      31.267  31.023  25.852  1.00  0.00     0.048 C 
ATOM     14  C   UNL A   1      31.959  28.596  25.518  1.00  0.00     0.017 A 
ATOM     15  C   UNL A   1      34.018  27.859  26.381  1.00  0.00     0.017 A 
ATOM     16  C   UNL A   1      35.732  29.235  27.499  1.00  0.00     0.048 C 
BRANCH  10  17
ATOM     17  O   UNL A   1      33.680  31.394  27.241  1.00  0.00    -0.496 OA
ATOM     18  C   UNL A   1      34.356  31.405  28.500  1.00  0.00     0.278 C 
ENDBRANCH  10  17
ENDBRANCH   8   9
BRANCH   8  19
ATOM     19  N   UNL A   1      31.363  25.444  25.189  1.00  0.00    -0.322 N 
ATOM     20  C   UNL A   1      31.452  24.730  26.486  1.00  0.00     0.333 C 
ATOM     21  H   UNL A   1      31.284  24.876  24.346  1.00  0.00     0.348 HD
BRANCH  19  22
ATOM     22  C   UNL A   1      30.064  26.163  25.120  1.00  0.00     0.284 C 
BRANCH  22  23
ATOM     23  C   UNL A   1      29.137  26.623  23.892  1.00  0.00     0.180 C 
BRANCH  23  24
ATOM     24  N   UNL A   1      29.109  27.957  23.223  1.00  0.00    -0.337 N 
ATOM     25  C   UNL A   1      30.162  28.381  22.324  1.00  0.00     0.119 C 
ATOM     26  C   UNL A   1      27.859  28.571  23.075  1.00  0.00     0.222 C 
ATOM     27  C   UNL A   1      30.277  29.884  22.138  1.00  0.00     0.022 C 
ATOM     28  C   UNL A   1      27.840  29.997  22.521  1.00  0.00     0.100 C 
ATOM     29  O   UNL A   1      26.822  28.060  23.468  1.00  0.00    -0.275 OA
ATOM     30  C   UNL A   1      28.969  30.386  21.584  1.00  0.00     0.012 C 
ENDBRANCH  23  24
ENDBRANCH  22  23
ENDBRANCH  19  22
ENDBRANCH   8  19
ENDBRANCH   5   8
ENDBRANCH   3   4
ENDBRANCH   2   3
ENDBRANCH   1   2
BRANCH   1  31
ATOM     31  C   UNL A   1      37.106  23.132  24.991  1.00  0.00     0.002 C 
BRANCH  31  32
ATOM     32  C   UNL A   1      37.443  23.888  26.279  1.00  0.00     0.021 C 
BRANCH  32  33
ATOM     33  C   UNL A   1      38.889  23.819  26.783  1.00  0.00     0.116 C 
BRANCH  33  34
ATOM     34  N   UNL A   1      39.857  24.431  25.883  1.00  0.00    -0.352 N 
ATOM     35  C   UNL A   1      40.586  25.593  25.980  1.00  0.00     0.251 C 
ATOM     36  H   UNL A   1      40.019  23.920  25.056  1.00  0.00     0.163 HD
ATOM     37  O   UNL A   1      41.263  25.954  25.014  1.00  0.00    -0.269 OA
BRANCH  35  38
ATOM     38  C   UNL A   1      40.565  26.441  27.199  1.00  0.00     0.039 A 
ATOM     39  C   UNL A   1      41.544  27.433  27.343  1.00  0.00     0.014 A 
ATOM     40  C   UNL A   1      39.647  26.234  28.231  1.00  0.00     0.014 A 
ATOM     41  C   UNL A   1      41.553  28.262  28.472  1.00  0.00     0.010 A 
ATOM     42  C   UNL A   1      39.620  27.097  29.331  1.00  0.00     0.010 A 
ATOM     43  C   UNL A   1      40.568  28.124  29.462  1.00  0.00    -0.014 A 
BRANCH  43  44
ATOM     44  C   UNL A   1      40.501  29.059  30.620  1.00  0.00     0.031 A 
ATOM     45  C   UNL A   1      41.356  28.839  31.840  1.00  0.00     0.074 A 
ATOM     46  C   UNL A   1      39.605  30.066  30.613  1.00  0.00     0.049 A 
ATOM     47  N   UNL A   1      41.379  29.511  32.964  1.00  0.00    -0.248 NA
ATOM     48  C   UNL A   1      42.285  27.701  31.799  1.00  0.00     0.031 C 
ATOM     49  C   UNL A   1      38.678  30.362  29.521  1.00  0.00     0.029 A 
ATOM     50  N   UNL A   1      39.315  31.015  31.563  1.00  0.00    -0.354 N 
ATOM     51  C   UNL A   1      42.305  28.865  33.774  1.00  0.00     0.074 A 
ATOM     52  C   UNL A   1      42.794  27.725  33.024  1.00  0.00     0.031 C 
ATOM     53  C   UNL A   1      37.924  31.421  29.860  1.00  0.00     0.029 A 
ATOM     54  C   UNL A   1      38.293  31.861  31.203  1.00  0.00     0.049 A 
ATOM     55  H   UNL A   1      39.792  31.082  32.421  1.00  0.00     0.167 HD
ATOM     56  C   UNL A   1      42.721  29.189  35.024  1.00  0.00     0.031 A 
ATOM     57  C   UNL A   1      37.707  32.872  31.873  1.00  0.00     0.031 A 
ATOM     58  C   UNL A   1      42.242  30.323  35.772  1.00  0.00     0.049 A 
ATOM     59  C   UNL A   1      38.198  33.237  33.244  1.00  0.00     0.074 A 
ATOM     60  C   UNL A   1      42.655  30.773  37.015  1.00  0.00     0.029 A 
ATOM     61  N   UNL A   1      41.238  31.182  35.351  1.00  0.00    -0.354 N 
ATOM     62  N   UNL A   1      39.133  32.660  33.962  1.00  0.00    -0.248 NA
ATOM     63  C   UNL A   1      37.569  34.397  33.890  1.00  0.00     0.031 C 
ATOM     64  C   UNL A   1      41.870  31.879  37.363  1.00  0.00     0.029 A 
ATOM     65  C   UNL A   1      41.000  32.145  36.318  1.00  0.00     0.049 A 
ATOM     66  H   UNL A   1      40.763  31.116  34.491  1.00  0.00     0.167 HD
ATOM     67  C   UNL A   1      39.214  33.397  35.138  1.00  0.00     0.074 A 
ATOM     68  C   UNL A   1      38.245  34.468  35.031  1.00  0.00     0.031 C 
ATOM     69  C   UNL A   1      40.023  33.200  36.209  1.00  0.00     0.031 A 
BRANCH  56  70
ATOM     70  C   UNL A   1      43.737  28.278  35.666  1.00  0.00    -0.014 A 
ATOM     71  C   UNL A   1      43.339  27.138  36.386  1.00  0.00     0.010 A 
ATOM     72  C   UNL A   1      45.107  28.576  35.558  1.00  0.00     0.010 A 
ATOM     73  C   UNL A   1      44.287  26.351  37.046  1.00  0.00     0.020 A 
ATOM     74  C   UNL A   1      46.062  27.775  36.193  1.00  0.00     0.020 A 
ATOM     75  C   UNL A   1      45.642  26.685  36.959  1.00  0.00     0.054 A 
BRANCH  75  76
ATOM     76  S   UNL A   1      46.853  25.672  37.852  1.00  0.00     0.124 S 
ATOM     77  O   UNL A   1      46.340  24.323  37.622  1.00  0.00    -0.237 OA
ATOM     78  O   UNL A   1      48.106  25.990  37.173  1.00  0.00    -0.237 OA
ATOM     79  O   UNL A   1      46.755  26.150  39.229  1.00  0.00    -0.744 OA
ENDBRANCH  75  76
ENDBRANCH  56  70
BRANCH  57  80
ATOM     80  C   UNL A   1      36.592  33.617  31.228  1.00  0.00    -0.014 A 
ATOM     81  C   UNL A   1      36.745  34.147  29.935  1.00  0.00     0.010 A 
ATOM     82  C   UNL A   1      35.349  33.730  31.875  1.00  0.00     0.010 A 
ATOM     83  C   UNL A   1      35.667  34.767  29.295  1.00  0.00     0.020 A 
ATOM     84  C   UNL A   1      34.264  34.331  31.230  1.00  0.00     0.020 A 
ATOM     85  C   UNL A   1      34.431  34.846  29.943  1.00  0.00     0.054 A 
BRANCH  85  86
ATOM     86  S   UNL A   1      33.017  35.551  29.051  1.00  0.00     0.124 S 
ATOM     87  O   UNL A   1      32.155  35.990  30.143  1.00  0.00    -0.237 OA
ATOM     88  O   UNL A   1      33.635  36.616  28.265  1.00  0.00    -0.237 OA
ATOM     89  O   UNL A   1      32.514  34.425  28.266  1.00  0.00    -0.744 OA
ENDBRANCH  85  86
ENDBRANCH  57  80
BRANCH  69  90
ATOM     90  C   UNL A   1      39.905  34.173  37.352  1.00  0.00    -0.014 A 
ATOM     91  C   UNL A   1      40.489  35.449  37.281  1.00  0.00     0.010 A 
ATOM     92  C   UNL A   1      39.155  33.824  38.489  1.00  0.00     0.010 A 
ATOM     93  C   UNL A   1      40.346  36.352  38.338  1.00  0.00     0.020 A 
ATOM     94  C   UNL A   1      38.992  34.731  39.540  1.00  0.00     0.020 A 
ATOM     95  C   UNL A   1      39.600  35.985  39.464  1.00  0.00     0.054 A 
BRANCH  95  96
ATOM     96  S   UNL A   1      39.388  37.188  40.806  1.00  0.00     0.124 S 
ATOM     97  O   UNL A   1      40.772  37.497  41.157  1.00  0.00    -0.237 OA
ATOM     98  O   UNL A   1      38.649  38.269  40.158  1.00  0.00    -0.237 OA
ATOM     99  O   UNL A   1      38.637  36.447  41.818  1.00  0.00    -0.744 OA
ENDBRANCH  95  96
ENDBRANCH  69  90
ENDBRANCH  43  44
ENDBRANCH  35  38
ENDBRANCH  33  34
ENDBRANCH  32  33
ENDBRANCH  31  32
ENDBRANCH   1  31
TORSDOF 22
ENDMDL
MODEL 3
REMARK VINA RESULT:      -9.5      6.293      8.050
REMARK SMILES COc1c(C)cc([C@H](C(=O)NCCCCCCNC(=O)c2ccc(-c3c4nc(c(-c5ccc(S(=O)(=O)[O-])cc5)c5ccc([nH]5)c(-c5ccc(S(=O)(=O)[O-])cc5)c5nc(c(-c6ccc(S(=O)(=O)[O-])cc6)c6ccc3[nH]6)C=C5)C=C4)cc2)[N@@H+](C)CCN2CCCCC2=O)cc1C
REMARK SMILES IDX 14 1 13 2 12 3 11 4 9 5 10 6 8 8 7 9 3 10 4 11 93 12 5 13
REMARK SMILES IDX 6 14 92 15 94 16 2 17 1 18 81 19 82 20 83 22 84 23 85 24
REMARK SMILES IDX 86 25 90 26 87 27 89 28 91 29 88 30 15 31 16 32 17 33 18 34
REMARK SMILES IDX 19 35 20 37 21 38 22 39 80 40 23 41 79 42 24 43 25 44 26 45
REMARK SMILES IDX 73 46 27 47 78 48 72 49 74 50 28 51 77 52 71 53 70 54 29 56
REMARK SMILES IDX 59 57 40 58 58 59 41 60 44 61 57 62 75 63 42 64 43 65 56 67
REMARK SMILES IDX 76 68 45 69 30 70 31 71 39 72 32 73 38 74 33 75 34 76 35 77
REMARK SMILES IDX 36 78 37 79 60 80 61 81 69 82 62 83 68 84 63 85 64 86 65 87
REMARK SMILES IDX 66 88 67 89 46 90 47 91 55 92 48 93 54 94 49 95 50 96 51 97
REMARK SMILES IDX 52 98 53 99
REMARK H PARENT 11 7 81 21 18 36 74 55 44 66
REMARK Flexibility Score: inf
ROOT
ATOM      1  C   UNL A   1      39.277  21.715  26.159  1.00  0.00     0.002 C 
ENDROOT
BRANCH   1   2
ATOM      2  C   UNL A   1      38.007  21.808  25.297  1.00  0.00     0.021 C 
BRANCH   2   3
ATOM      3  C   UNL A   1      37.053  23.007  25.372  1.00  0.00     0.116 C 
BRANCH   3   4
ATOM      4  N   UNL A   1      36.098  23.080  24.241  1.00  0.00    -0.351 N 
ATOM      5  C   UNL A   1      34.830  23.594  24.047  1.00  0.00     0.283 C 
ATOM      6  O   UNL A   1      34.440  23.568  22.868  1.00  0.00    -0.268 OA
ATOM      7  H   UNL A   1      36.455  22.659  23.426  1.00  0.00     0.163 HD
BRANCH   5   8
ATOM      8  C   UNL A   1      33.890  24.185  25.175  1.00  0.00     0.305 C 
BRANCH   8   9
ATOM      9  C   UNL A   1      33.470  25.701  25.115  1.00  0.00     0.020 A 
ATOM     10  C   UNL A   1      32.857  28.521  25.222  1.00  0.00     0.124 A 
ATOM     11  C   UNL A   1      33.503  27.960  24.102  1.00  0.00    -0.008 A 
ATOM     12  C   UNL A   1      32.564  27.714  26.306  1.00  0.00    -0.008 A 
ATOM     13  C   UNL A   1      33.876  28.851  22.948  1.00  0.00     0.048 C 
ATOM     14  C   UNL A   1      33.781  26.557  24.046  1.00  0.00     0.017 A 
ATOM     15  C   UNL A   1      32.842  26.346  26.190  1.00  0.00     0.017 A 
ATOM     16  C   UNL A   1      32.024  28.172  27.633  1.00  0.00     0.048 C 
BRANCH  10  17
ATOM     17  O   UNL A   1      32.626  29.870  25.247  1.00  0.00    -0.496 OA
ATOM     18  C   UNL A   1      31.258  30.214  25.015  1.00  0.00     0.278 C 
ENDBRANCH  10  17
ENDBRANCH   8   9
BRANCH   8  19
ATOM     19  N   UNL A   1      32.825  23.210  25.555  1.00  0.00    -0.322 N 
ATOM     20  C   UNL A   1      31.687  23.420  24.629  1.00  0.00     0.333 C 
ATOM     21  H   UNL A   1      32.678  23.440  26.538  1.00  0.00     0.348 HD
BRANCH  19  22
ATOM     22  C   UNL A   1      33.083  21.751  25.683  1.00  0.00     0.284 C 
BRANCH  22  23
ATOM     23  C   UNL A   1      32.422  20.464  24.988  1.00  0.00     0.180 C 
BRANCH  23  24
ATOM     24  N   UNL A   1      33.059  19.138  24.735  1.00  0.00    -0.337 N 
ATOM     25  C   UNL A   1      32.322  18.040  24.143  1.00  0.00     0.119 C 
ATOM     26  C   UNL A   1      34.453  19.112  24.608  1.00  0.00     0.222 C 
ATOM     27  C   UNL A   1      32.901  16.662  24.416  1.00  0.00     0.022 C 
ATOM     28  C   UNL A   1      35.121  17.742  24.491  1.00  0.00     0.100 C 
ATOM     29  O   UNL A   1      35.142  20.117  24.697  1.00  0.00    -0.275 OA
ATOM     30  C   UNL A   1      34.302  16.628  23.863  1.00  0.00     0.012 C 
ENDBRANCH  23  24
ENDBRANCH  22  23
ENDBRANCH  19  22
ENDBRANCH   8  19
ENDBRANCH   5   8
ENDBRANCH   3   4
ENDBRANCH   2   3
ENDBRANCH   1   2
BRANCH   1  31
ATOM     31  C   UNL A   1      39.913  22.994  26.706  1.00  0.00     0.002 C 
BRANCH  31  32
ATOM     32  C   UNL A   1      41.440  23.108  26.679  1.00  0.00     0.021 C 
BRANCH  32  33
ATOM     33  C   UNL A   1      42.046  24.336  25.990  1.00  0.00     0.116 C 
BRANCH  33  34
ATOM     34  N   UNL A   1      43.501  24.377  26.032  1.00  0.00    -0.352 N 
ATOM     35  C   UNL A   1      44.371  25.183  26.729  1.00  0.00     0.251 C 
ATOM     36  H   UNL A   1      43.941  23.708  25.458  1.00  0.00     0.163 HD
ATOM     37  O   UNL A   1      45.580  25.093  26.499  1.00  0.00    -0.269 OA
BRANCH  35  38
ATOM     38  C   UNL A   1      43.903  26.175  27.729  1.00  0.00     0.039 A 
ATOM     39  C   UNL A   1      43.073  25.738  28.770  1.00  0.00     0.014 A 
ATOM     40  C   UNL A   1      44.207  27.534  27.624  1.00  0.00     0.014 A 
ATOM     41  C   UNL A   1      42.619  26.639  29.740  1.00  0.00     0.010 A 
ATOM     42  C   UNL A   1      43.801  28.424  28.624  1.00  0.00     0.010 A 
ATOM     43  C   UNL A   1      43.007  27.986  29.697  1.00  0.00    -0.014 A 
BRANCH  43  44
ATOM     44  C   UNL A   1      42.616  28.939  30.773  1.00  0.00     0.031 A 
ATOM     45  C   UNL A   1      43.375  28.990  32.072  1.00  0.00     0.074 A 
ATOM     46  C   UNL A   1      41.520  29.708  30.617  1.00  0.00     0.049 A 
ATOM     47  N   UNL A   1      43.135  29.707  33.141  1.00  0.00    -0.248 NA
ATOM     48  C   UNL A   1      44.538  28.100  32.193  1.00  0.00     0.031 C 
ATOM     49  C   UNL A   1      40.661  29.721  29.432  1.00  0.00     0.029 A 
ATOM     50  N   UNL A   1      40.930  30.611  31.466  1.00  0.00    -0.354 N 
ATOM     51  C   UNL A   1      44.100  29.339  34.071  1.00  0.00     0.074 A 
ATOM     52  C   UNL A   1      44.906  28.307  33.450  1.00  0.00     0.031 C 
ATOM     53  C   UNL A   1      39.656  30.591  29.628  1.00  0.00     0.029 A 
ATOM     54  C   UNL A   1      39.782  31.176  30.961  1.00  0.00     0.049 A 
ATOM     55  H   UNL A   1      41.293  30.834  32.354  1.00  0.00     0.167 HD
ATOM     56  C   UNL A   1      44.307  29.817  35.324  1.00  0.00     0.031 A 
ATOM     57  C   UNL A   1      38.919  32.056  31.504  1.00  0.00     0.031 A 
ATOM     58  C   UNL A   1      43.512  30.846  35.943  1.00  0.00     0.049 A 
ATOM     59  C   UNL A   1      39.178  32.598  32.880  1.00  0.00     0.074 A 
ATOM     60  C   UNL A   1      43.688  31.445  37.179  1.00  0.00     0.029 A 
ATOM     61  N   UNL A   1      42.385  31.423  35.378  1.00  0.00    -0.354 N 
ATOM     62  N   UNL A   1      40.145  32.293  33.713  1.00  0.00    -0.248 NA
ATOM     63  C   UNL A   1      38.241  33.611  33.384  1.00  0.00     0.031 C 
ATOM     64  C   UNL A   1      42.642  32.355  37.379  1.00  0.00     0.029 A 
ATOM     65  C   UNL A   1      41.841  32.354  36.248  1.00  0.00     0.049 A 
ATOM     66  H   UNL A   1      42.024  31.203  34.489  1.00  0.00     0.167 HD
ATOM     67  C   UNL A   1      39.941  33.090  34.835  1.00  0.00     0.074 A 
ATOM     68  C   UNL A   1      38.768  33.898  34.568  1.00  0.00     0.031 C 
ATOM     69  C   UNL A   1      40.665  33.144  35.981  1.00  0.00     0.031 A 
BRANCH  56  70
ATOM     70  C   UNL A   1      45.436  29.204  36.113  1.00  0.00    -0.014 A 
ATOM     71  C   UNL A   1      46.756  29.669  35.977  1.00  0.00     0.010 A 
ATOM     72  C   UNL A   1      45.174  28.138  36.993  1.00  0.00     0.010 A 
ATOM     73  C   UNL A   1      47.803  29.035  36.650  1.00  0.00     0.020 A 
ATOM     74  C   UNL A   1      46.215  27.519  37.691  1.00  0.00     0.020 A 
ATOM     75  C   UNL A   1      47.527  27.952  37.491  1.00  0.00     0.054 A 
BRANCH  75  76
ATOM     76  S   UNL A   1      48.905  27.121  38.328  1.00  0.00     0.124 S 
ATOM     77  O   UNL A   1      48.940  27.821  39.611  1.00  0.00    -0.237 OA
ATOM     78  O   UNL A   1      48.460  25.731  38.385  1.00  0.00    -0.237 OA
ATOM     79  O   UNL A   1      50.045  27.372  37.451  1.00  0.00    -0.744 OA
ENDBRANCH  75  76
ENDBRANCH  56  70
BRANCH  57  80
ATOM     80  C   UNL A   1      37.733  32.486  30.716  1.00  0.00    -0.014 A 
ATOM     81  C   UNL A   1      36.502  31.823  30.865  1.00  0.00     0.010 A 
ATOM     82  C   UNL A   1      37.812  33.608  29.873  1.00  0.00     0.010 A 
ATOM     83  C   UNL A   1      35.366  32.285  30.193  1.00  0.00     0.020 A 
ATOM     84  C   UNL A   1      36.674  34.085  29.215  1.00  0.00     0.020 A 
ATOM     85  C   UNL A   1      35.457  33.419  29.380  1.00  0.00     0.054 A 
BRANCH  85  86
ATOM     86  S   UNL A   1      33.949  34.069  28.609  1.00  0.00     0.124 S 
ATOM     87  O   UNL A   1      33.152  34.448  29.771  1.00  0.00    -0.237 OA
ATOM     88  O   UNL A   1      34.456  35.176  27.801  1.00  0.00    -0.237 OA
ATOM     89  O   UNL A   1      33.442  32.933  27.842  1.00  0.00    -0.744 OA
ENDBRANCH  85  86
ENDBRANCH  57  80
BRANCH  69  90
ATOM     90  C   UNL A   1      40.218  34.122  37.035  1.00  0.00    -0.014 A 
ATOM     91  C   UNL A   1      39.689  33.677  38.258  1.00  0.00     0.010 A 
ATOM     92  C   UNL A   1      40.379  35.502  36.818  1.00  0.00     0.010 A 
ATOM     93  C   UNL A   1      39.305  34.597  39.238  1.00  0.00     0.020 A 
ATOM     94  C   UNL A   1      40.016  36.425  37.803  1.00  0.00     0.020 A 
ATOM     95  C   UNL A   1      39.469  35.967  39.003  1.00  0.00     0.054 A 
BRANCH  95  96
ATOM     96  S   UNL A   1      39.007  37.142  40.306  1.00  0.00     0.124 S 
ATOM     97  O   UNL A   1      38.105  36.341  41.131  1.00  0.00    -0.237 OA
ATOM     98  O   UNL A   1      40.293  37.469  40.918  1.00  0.00    -0.237 OA
ATOM     99  O   UNL A   1      38.376  38.238  39.574  1.00  0.00    -0.744 OA
ENDBRANCH  95  96
ENDBRANCH  69  90
ENDBRANCH  43  44
ENDBRANCH  35  38
ENDBRANCH  33  34
ENDBRANCH  32  33
ENDBRANCH  31  32
ENDBRANCH   1  31
TORSDOF 22
ENDMDL
