MODEL 1
REMARK VINA RESULT:     -11.7      0.000      0.000
REMARK SMILES CC(=O)Nc1ccc(/C=N/c2ccccc2C(=O)NCCCCCCNC(=O)c2ccc(-c3c4nc(c(-c5ccc(S(=O)(=O)[O-])cc5)c5ccc([nH]5)c(-c5ccc(S(=O)(=O)[O-])cc5)c5nc(c(-c6ccc(S(=O)(=O)[O-])cc6)c6ccc3[nH]6)C=C5)C=C4)cc2)cc1
REMARK SMILES IDX 22 1 21 2 20 3 19 4 17 5 18 6 16 8 11 9 12 10 13 11 15 12
REMARK SMILES IDX 14 13 10 14 9 15 8 16 5 17 6 18 90 19 7 20 89 21 4 22 1 23
REMARK SMILES IDX 2 24 3 25 23 27 24 28 25 29 26 30 27 31 28 33 29 34 30 35
REMARK SMILES IDX 88 36 31 37 87 38 32 39 33 40 34 41 81 42 35 43 86 44 80 45
REMARK SMILES IDX 82 46 36 47 85 48 79 49 78 50 37 52 67 53 48 54 66 55 49 56
REMARK SMILES IDX 52 57 65 58 83 59 50 60 51 61 64 63 84 64 53 65 38 66 39 67
REMARK SMILES IDX 47 68 40 69 46 70 41 71 42 72 43 73 44 74 45 75 68 76 69 77
REMARK SMILES IDX 77 78 70 79 76 80 71 81 72 82 73 83 74 84 75 85 54 86 55 87
REMARK SMILES IDX 63 88 56 89 62 90 57 91 58 92 59 93 60 94 61 95
REMARK H PARENT 19 7 4 26 26 32 82 51 52 62
REMARK Flexibility Score: inf
ROOT
ATOM      1  C   UNL A   1      33.642  28.258  26.451  1.00  0.00     0.002 C 
ENDROOT
BRANCH   1   2
ATOM      2  C   UNL A   1      32.395  27.384  26.635  1.00  0.00     0.021 C 
BRANCH   2   3
ATOM      3  C   UNL A   1      32.531  25.874  26.462  1.00  0.00     0.116 C 
BRANCH   3   4
ATOM      4  N   UNL A   1      31.468  25.073  27.021  1.00  0.00    -0.352 N 
ATOM      5  C   UNL A   1      30.971  23.861  26.593  1.00  0.00     0.253 C 
ATOM      6  O   UNL A   1      30.151  23.296  27.321  1.00  0.00    -0.269 OA
ATOM      7  H   UNL A   1      31.035  25.445  27.824  1.00  0.00     0.163 HD
BRANCH   5   8
ATOM      8  C   UNL A   1      31.283  23.235  25.271  1.00  0.00     0.065 A 
ATOM      9  C   UNL A   1      31.078  23.788  23.990  1.00  0.00     0.076 A 
ATOM     10  C   UNL A   1      31.434  23.028  22.860  1.00  0.00     0.029 A 
ATOM     11  C   UNL A   1      32.024  21.769  22.976  1.00  0.00     0.002 A 
ATOM     12  C   UNL A   1      31.908  21.970  25.370  1.00  0.00     0.016 A 
ATOM     13  C   UNL A   1      32.272  21.243  24.235  1.00  0.00     0.001 A 
BRANCH   9  14
ATOM     14  N   UNL A   1      30.458  25.017  23.710  1.00  0.00    -0.255 NA
ATOM     15  C   UNL A   1      31.115  25.908  23.043  1.00  0.00     0.119 C 
BRANCH  15  16
ATOM     16  C   UNL A   1      30.540  27.255  22.844  1.00  0.00    -0.007 A 
ATOM     17  C   UNL A   1      29.625  29.915  22.849  1.00  0.00     0.041 A 
ATOM     18  C   UNL A   1      28.753  28.860  23.156  1.00  0.00     0.027 A 
ATOM     19  C   UNL A   1      30.946  29.611  22.503  1.00  0.00     0.027 A 
ATOM     20  C   UNL A   1      29.207  27.535  23.160  1.00  0.00     0.012 A 
ATOM     21  C   UNL A   1      31.402  28.288  22.490  1.00  0.00     0.012 A 
BRANCH  17  22
ATOM     22  N   UNL A   1      29.154  31.224  23.065  1.00  0.00    -0.326 N 
ATOM     23  C   UNL A   1      28.126  31.808  20.866  1.00  0.00     0.114 C 
ATOM     24  C   UNL A   1      28.667  32.174  22.215  1.00  0.00     0.221 C 
ATOM     25  O   UNL A   1      28.639  33.350  22.579  1.00  0.00    -0.275 OA
ATOM     26  H   UNL A   1      29.181  31.507  24.007  1.00  0.00     0.169 HD
ENDBRANCH  17  22
ENDBRANCH  15  16
ENDBRANCH   9  14
ENDBRANCH   5   8
ENDBRANCH   3   4
ENDBRANCH   2   3
ENDBRANCH   1   2
BRANCH   1  27
ATOM     27  C   UNL A   1      33.483  29.781  26.464  1.00  0.00     0.002 C 
BRANCH  27  28
ATOM     28  C   UNL A   1      34.441  30.592  27.333  1.00  0.00     0.021 C 
BRANCH  28  29
ATOM     29  C   UNL A   1      35.785  29.977  27.709  1.00  0.00     0.116 C 
BRANCH  29  30
ATOM     30  N   UNL A   1      35.899  29.682  29.126  1.00  0.00    -0.352 N 
ATOM     31  C   UNL A   1      36.948  29.266  29.916  1.00  0.00     0.251 C 
ATOM     32  H   UNL A   1      35.057  29.803  29.622  1.00  0.00     0.163 HD
ATOM     33  O   UNL A   1      36.702  29.042  31.103  1.00  0.00    -0.269 OA
BRANCH  31  34
ATOM     34  C   UNL A   1      38.340  29.066  29.416  1.00  0.00     0.039 A 
ATOM     35  C   UNL A   1      39.312  28.644  30.337  1.00  0.00     0.014 A 
ATOM     36  C   UNL A   1      38.748  29.342  28.110  1.00  0.00     0.014 A 
ATOM     37  C   UNL A   1      40.644  28.440  29.950  1.00  0.00     0.010 A 
ATOM     38  C   UNL A   1      40.069  29.090  27.705  1.00  0.00     0.010 A 
ATOM     39  C   UNL A   1      41.036  28.650  28.624  1.00  0.00    -0.014 A 
BRANCH  39  40
ATOM     40  C   UNL A   1      42.461  28.510  28.210  1.00  0.00     0.031 A 
ATOM     41  C   UNL A   1      43.404  29.675  28.383  1.00  0.00     0.074 A 
ATOM     42  C   UNL A   1      42.918  27.363  27.666  1.00  0.00     0.049 A 
ATOM     43  N   UNL A   1      44.666  29.777  28.050  1.00  0.00    -0.248 NA
ATOM     44  C   UNL A   1      42.847  30.889  28.999  1.00  0.00     0.031 C 
ATOM     45  C   UNL A   1      42.126  26.151  27.452  1.00  0.00     0.029 A 
ATOM     46  N   UNL A   1      44.166  27.032  27.192  1.00  0.00    -0.354 N 
ATOM     47  C   UNL A   1      45.049  31.068  28.403  1.00  0.00     0.074 A 
ATOM     48  C   UNL A   1      43.873  31.725  28.931  1.00  0.00     0.031 C 
ATOM     49  C   UNL A   1      42.909  25.209  26.896  1.00  0.00     0.029 A 
ATOM     50  C   UNL A   1      44.249  25.754  26.686  1.00  0.00     0.049 A 
ATOM     51  H   UNL A   1      44.931  27.651  27.212  1.00  0.00     0.167 HD
ATOM     52  C   UNL A   1      46.268  31.651  28.314  1.00  0.00     0.031 A 
ATOM     53  C   UNL A   1      45.280  25.099  26.113  1.00  0.00     0.031 A 
ATOM     54  C   UNL A   1      47.443  31.001  27.796  1.00  0.00     0.049 A 
ATOM     55  C   UNL A   1      46.615  25.787  25.978  1.00  0.00     0.074 A 
ATOM     56  C   UNL A   1      48.731  31.500  27.704  1.00  0.00     0.029 A 
ATOM     57  N   UNL A   1      47.476  29.716  27.278  1.00  0.00    -0.354 N 
ATOM     58  N   UNL A   1      46.967  26.990  26.365  1.00  0.00    -0.248 NA
ATOM     59  C   UNL A   1      47.696  25.022  25.338  1.00  0.00     0.031 C 
ATOM     60  C   UNL A   1      49.528  30.541  27.071  1.00  0.00     0.029 A 
ATOM     61  C   UNL A   1      48.753  29.418  26.834  1.00  0.00     0.049 A 
ATOM     62  H   UNL A   1      46.705  29.106  27.231  1.00  0.00     0.167 HD
ATOM     63  C   UNL A   1      48.318  27.110  26.049  1.00  0.00     0.074 A 
ATOM     64  C   UNL A   1      48.722  25.855  25.449  1.00  0.00     0.031 C 
ATOM     65  C   UNL A   1      49.149  28.164  26.241  1.00  0.00     0.031 A 
BRANCH  52  66
ATOM     66  C   UNL A   1      46.390  33.083  28.769  1.00  0.00    -0.014 A 
ATOM     67  C   UNL A   1      46.209  34.153  27.873  1.00  0.00     0.010 A 
ATOM     68  C   UNL A   1      46.653  33.362  30.123  1.00  0.00     0.010 A 
ATOM     69  C   UNL A   1      46.332  35.474  28.313  1.00  0.00     0.020 A 
ATOM     70  C   UNL A   1      46.745  34.682  30.574  1.00  0.00     0.020 A 
ATOM     71  C   UNL A   1      46.603  35.730  29.661  1.00  0.00     0.054 A 
BRANCH  71  72
ATOM     72  S   UNL A   1      46.738  37.454  30.208  1.00  0.00     0.124 S 
ATOM     73  O   UNL A   1      45.843  37.475  31.361  1.00  0.00    -0.237 OA
ATOM     74  O   UNL A   1      48.159  37.583  30.512  1.00  0.00    -0.237 OA
ATOM     75  O   UNL A   1      46.280  38.222  29.050  1.00  0.00    -0.744 OA
ENDBRANCH  71  72
ENDBRANCH  52  66
BRANCH  53  76
ATOM     76  C   UNL A   1      45.101  23.702  25.618  1.00  0.00    -0.014 A 
ATOM     77  C   UNL A   1      45.549  22.607  26.378  1.00  0.00     0.010 A 
ATOM     78  C   UNL A   1      44.497  23.462  24.369  1.00  0.00     0.010 A 
ATOM     79  C   UNL A   1      45.421  21.302  25.890  1.00  0.00     0.020 A 
ATOM     80  C   UNL A   1      44.339  22.157  23.892  1.00  0.00     0.020 A 
ATOM     81  C   UNL A   1      44.815  21.086  24.649  1.00  0.00     0.054 A 
BRANCH  81  82
ATOM     82  S   UNL A   1      44.621  19.381  24.055  1.00  0.00     0.124 S 
ATOM     83  O   UNL A   1      45.857  18.756  24.514  1.00  0.00    -0.237 OA
ATOM     84  O   UNL A   1      43.402  18.948  24.730  1.00  0.00    -0.237 OA
ATOM     85  O   UNL A   1      44.500  19.538  22.606  1.00  0.00    -0.744 OA
ENDBRANCH  81  82
ENDBRANCH  53  76
BRANCH  65  86
ATOM     86  C   UNL A   1      50.595  28.003  25.842  1.00  0.00    -0.014 A 
ATOM     87  C   UNL A   1      51.040  28.331  24.549  1.00  0.00     0.010 A 
ATOM     88  C   UNL A   1      51.533  27.572  26.798  1.00  0.00     0.010 A 
ATOM     89  C   UNL A   1      52.391  28.199  24.212  1.00  0.00     0.020 A 
ATOM     90  C   UNL A   1      52.889  27.470  26.474  1.00  0.00     0.020 A 
ATOM     91  C   UNL A   1      53.308  27.771  25.178  1.00  0.00     0.054 A 
BRANCH  91  92
ATOM     92  S   UNL A   1      55.061  27.652  24.727  1.00  0.00     0.124 S 
ATOM     93  O   UNL A   1      55.070  26.487  23.845  1.00  0.00    -0.237 OA
ATOM     94  O   UNL A   1      55.311  28.935  24.075  1.00  0.00    -0.237 OA
ATOM     95  O   UNL A   1      55.738  27.467  26.008  1.00  0.00    -0.744 OA
ENDBRANCH  91  92
ENDBRANCH  65  86
ENDBRANCH  39  40
ENDBRANCH  31  34
ENDBRANCH  29  30
ENDBRANCH  28  29
ENDBRANCH  27  28
ENDBRANCH   1  27
TORSDOF 19
ENDMDL
MODEL 2
REMARK VINA RESULT:     -11.5      1.239      8.040
REMARK SMILES CC(=O)Nc1ccc(/C=N/c2ccccc2C(=O)NCCCCCCNC(=O)c2ccc(-c3c4nc(c(-c5ccc(S(=O)(=O)[O-])cc5)c5ccc([nH]5)c(-c5ccc(S(=O)(=O)[O-])cc5)c5nc(c(-c6ccc(S(=O)(=O)[O-])cc6)c6ccc3[nH]6)C=C5)C=C4)cc2)cc1
REMARK SMILES IDX 22 1 21 2 20 3 19 4 17 5 18 6 16 8 11 9 12 10 13 11 15 12
REMARK SMILES IDX 14 13 10 14 9 15 8 16 5 17 6 18 90 19 7 20 89 21 4 22 1 23
REMARK SMILES IDX 2 24 3 25 23 27 24 28 25 29 26 30 27 31 28 33 29 34 30 35
REMARK SMILES IDX 88 36 31 37 87 38 32 39 33 40 34 41 81 42 35 43 86 44 80 45
REMARK SMILES IDX 82 46 36 47 85 48 79 49 78 50 37 52 67 53 48 54 66 55 49 56
REMARK SMILES IDX 52 57 65 58 83 59 50 60 51 61 64 63 84 64 53 65 38 66 39 67
REMARK SMILES IDX 47 68 40 69 46 70 41 71 42 72 43 73 44 74 45 75 68 76 69 77
REMARK SMILES IDX 77 78 70 79 76 80 71 81 72 82 73 83 74 84 75 85 54 86 55 87
REMARK SMILES IDX 63 88 56 89 62 90 57 91 58 92 59 93 60 94 61 95
REMARK H PARENT 19 7 4 26 26 32 82 51 52 62
REMARK Flexibility Score: inf
ROOT
ATOM      1  C   UNL A   1      32.368  28.844  25.778  1.00  0.00     0.002 C 
ENDROOT
BRANCH   1   2
ATOM      2  C   UNL A   1      31.420  27.772  26.327  1.00  0.00     0.021 C 
BRANCH   2   3
ATOM      3  C   UNL A   1      31.881  26.317  26.318  1.00  0.00     0.116 C 
BRANCH   3   4
ATOM      4  N   UNL A   1      30.968  25.358  26.892  1.00  0.00    -0.352 N 
ATOM      5  C   UNL A   1      30.710  24.060  26.508  1.00  0.00     0.253 C 
ATOM      6  O   UNL A   1      29.988  23.383  27.246  1.00  0.00    -0.269 OA
ATOM      7  H   UNL A   1      30.455  25.676  27.671  1.00  0.00     0.163 HD
BRANCH   5   8
ATOM      8  C   UNL A   1      31.163  23.450  25.220  1.00  0.00     0.065 A 
ATOM      9  C   UNL A   1      30.998  23.970  23.920  1.00  0.00     0.076 A 
ATOM     10  C   UNL A   1      31.494  23.232  22.829  1.00  0.00     0.029 A 
ATOM     11  C   UNL A   1      32.182  22.030  23.004  1.00  0.00     0.002 A 
ATOM     12  C   UNL A   1      31.887  22.245  25.381  1.00  0.00     0.016 A 
ATOM     13  C   UNL A   1      32.389  21.541  24.284  1.00  0.00     0.001 A 
BRANCH   9  14
ATOM     14  N   UNL A   1      30.295  25.137  23.580  1.00  0.00    -0.255 NA
ATOM     15  C   UNL A   1      30.947  26.130  23.069  1.00  0.00     0.119 C 
BRANCH  15  16
ATOM     16  C   UNL A   1      30.259  27.415  22.820  1.00  0.00    -0.007 A 
ATOM     17  C   UNL A   1      29.173  30.006  22.691  1.00  0.00     0.041 A 
ATOM     18  C   UNL A   1      28.423  28.944  23.216  1.00  0.00     0.027 A 
ATOM     19  C   UNL A   1      30.455  29.740  22.198  1.00  0.00     0.027 A 
ATOM     20  C   UNL A   1      28.963  27.653  23.288  1.00  0.00     0.012 A 
ATOM     21  C   UNL A   1      30.995  28.450  22.252  1.00  0.00     0.012 A 
BRANCH  17  22
ATOM     22  N   UNL A   1      28.646  31.303  22.841  1.00  0.00    -0.326 N 
ATOM     23  C   UNL A   1      28.016  31.913  20.503  1.00  0.00     0.114 C 
ATOM     24  C   UNL A   1      28.301  32.261  21.933  1.00  0.00     0.221 C 
ATOM     25  O   UNL A   1      28.186  33.430  22.306  1.00  0.00    -0.275 OA
ATOM     26  H   UNL A   1      28.499  31.568  23.777  1.00  0.00     0.169 HD
ENDBRANCH  17  22
ENDBRANCH  15  16
ENDBRANCH   9  14
ENDBRANCH   5   8
ENDBRANCH   3   4
ENDBRANCH   2   3
ENDBRANCH   1   2
BRANCH   1  27
ATOM     27  C   UNL A   1      33.873  28.557  25.757  1.00  0.00     0.002 C 
BRANCH  27  28
ATOM     28  C   UNL A   1      34.634  28.633  27.078  1.00  0.00     0.021 C 
BRANCH  28  29
ATOM     29  C   UNL A   1      35.148  29.989  27.549  1.00  0.00     0.116 C 
BRANCH  29  30
ATOM     30  N   UNL A   1      35.234  30.096  28.994  1.00  0.00    -0.352 N 
ATOM     31  C   UNL A   1      36.266  29.916  29.888  1.00  0.00     0.251 C 
ATOM     32  H   UNL A   1      34.383  30.347  29.421  1.00  0.00     0.163 HD
ATOM     33  O   UNL A   1      35.997  30.026  31.086  1.00  0.00    -0.269 OA
BRANCH  31  34
ATOM     34  C   UNL A   1      37.667  29.590  29.489  1.00  0.00     0.039 A 
ATOM     35  C   UNL A   1      38.573  29.245  30.504  1.00  0.00     0.014 A 
ATOM     36  C   UNL A   1      38.147  29.676  28.181  1.00  0.00     0.014 A 
ATOM     37  C   UNL A   1      39.909  28.932  30.215  1.00  0.00     0.010 A 
ATOM     38  C   UNL A   1      39.470  29.314  27.880  1.00  0.00     0.010 A 
ATOM     39  C   UNL A   1      40.371  28.951  28.895  1.00  0.00    -0.014 A 
BRANCH  39  40
ATOM     40  C   UNL A   1      41.804  28.694  28.575  1.00  0.00     0.031 A 
ATOM     41  C   UNL A   1      42.234  27.313  28.144  1.00  0.00     0.074 A 
ATOM     42  C   UNL A   1      42.726  29.672  28.681  1.00  0.00     0.049 A 
ATOM     43  N   UNL A   1      43.432  26.868  27.861  1.00  0.00    -0.248 NA
ATOM     44  C   UNL A   1      41.175  26.298  28.031  1.00  0.00     0.031 C 
ATOM     45  C   UNL A   1      42.455  31.056  29.072  1.00  0.00     0.029 A 
ATOM     46  N   UNL A   1      44.085  29.648  28.470  1.00  0.00    -0.354 N 
ATOM     47  C   UNL A   1      43.273  25.521  27.551  1.00  0.00     0.074 A 
ATOM     48  C   UNL A   1      41.871  25.212  27.727  1.00  0.00     0.031 C 
ATOM     49  C   UNL A   1      43.608  31.748  29.064  1.00  0.00     0.029 A 
ATOM     50  C   UNL A   1      44.706  30.855  28.699  1.00  0.00     0.049 A 
ATOM     51  H   UNL A   1      44.570  28.842  28.181  1.00  0.00     0.167 HD
ATOM     52  C   UNL A   1      44.202  24.624  27.141  1.00  0.00     0.031 A 
ATOM     53  C   UNL A   1      46.008  31.203  28.630  1.00  0.00     0.031 A 
ATOM     54  C   UNL A   1      45.597  24.927  26.959  1.00  0.00     0.049 A 
ATOM     55  C   UNL A   1      47.032  30.173  28.221  1.00  0.00     0.074 A 
ATOM     56  C   UNL A   1      46.605  24.092  26.508  1.00  0.00     0.029 A 
ATOM     57  N   UNL A   1      46.184  26.155  27.221  1.00  0.00    -0.354 N 
ATOM     58  N   UNL A   1      46.852  28.919  27.883  1.00  0.00    -0.248 NA
ATOM     59  C   UNL A   1      48.435  30.613  28.172  1.00  0.00     0.031 C 
ATOM     60  C   UNL A   1      47.813  24.797  26.558  1.00  0.00     0.029 A 
ATOM     61  C   UNL A   1      47.545  26.091  26.973  1.00  0.00     0.049 A 
ATOM     62  H   UNL A   1      45.704  26.954  27.537  1.00  0.00     0.167 HD
ATOM     63  C   UNL A   1      48.113  28.432  27.547  1.00  0.00     0.074 A 
ATOM     64  C   UNL A   1      49.044  29.529  27.712  1.00  0.00     0.031 C 
ATOM     65  C   UNL A   1      48.466  27.189  27.136  1.00  0.00     0.031 A 
BRANCH  52  66
ATOM     66  C   UNL A   1      43.741  23.213  26.883  1.00  0.00    -0.014 A 
ATOM     67  C   UNL A   1      43.897  22.612  25.620  1.00  0.00     0.010 A 
ATOM     68  C   UNL A   1      43.176  22.463  27.932  1.00  0.00     0.010 A 
ATOM     69  C   UNL A   1      43.457  21.304  25.399  1.00  0.00     0.020 A 
ATOM     70  C   UNL A   1      42.765  21.143  27.724  1.00  0.00     0.020 A 
ATOM     71  C   UNL A   1      42.891  20.579  26.452  1.00  0.00     0.054 A 
BRANCH  71  72
ATOM     72  S   UNL A   1      42.347  18.876  26.141  1.00  0.00     0.124 S 
ATOM     73  O   UNL A   1      40.961  19.075  25.726  1.00  0.00    -0.237 OA
ATOM     74  O   UNL A   1      43.261  18.435  25.092  1.00  0.00    -0.237 OA
ATOM     75  O   UNL A   1      42.520  18.215  27.434  1.00  0.00    -0.744 OA
ENDBRANCH  71  72
ENDBRANCH  52  66
BRANCH  53  76
ATOM     76  C   UNL A   1      46.432  32.596  28.956  1.00  0.00    -0.014 A 
ATOM     77  C   UNL A   1      46.673  33.532  27.934  1.00  0.00     0.010 A 
ATOM     78  C   UNL A   1      46.619  32.989  30.295  1.00  0.00     0.010 A 
ATOM     79  C   UNL A   1      47.114  34.823  28.240  1.00  0.00     0.020 A 
ATOM     80  C   UNL A   1      47.031  34.288  30.607  1.00  0.00     0.020 A 
ATOM     81  C   UNL A   1      47.289  35.194  29.577  1.00  0.00     0.054 A 
BRANCH  81  82
ATOM     82  S   UNL A   1      47.823  36.887  29.953  1.00  0.00     0.124 S 
ATOM     83  O   UNL A   1      46.867  37.684  29.192  1.00  0.00    -0.237 OA
ATOM     84  O   UNL A   1      47.684  36.946  31.405  1.00  0.00    -0.237 OA
ATOM     85  O   UNL A   1      49.201  36.927  29.465  1.00  0.00    -0.744 OA
ENDBRANCH  81  82
ENDBRANCH  53  76
BRANCH  65  86
ATOM     86  C   UNL A   1      49.914  26.946  26.790  1.00  0.00    -0.014 A 
ATOM     87  C   UNL A   1      50.826  26.465  27.746  1.00  0.00     0.010 A 
ATOM     88  C   UNL A   1      50.353  27.148  25.469  1.00  0.00     0.010 A 
ATOM     89  C   UNL A   1      52.158  26.222  27.393  1.00  0.00     0.020 A 
ATOM     90  C   UNL A   1      51.675  26.875  25.105  1.00  0.00     0.020 A 
ATOM     91  C   UNL A   1      52.573  26.427  26.073  1.00  0.00     0.054 A 
BRANCH  91  92
ATOM     92  S   UNL A   1      54.294  26.061  25.632  1.00  0.00     0.124 S 
ATOM     93  O   UNL A   1      54.134  25.248  24.429  1.00  0.00    -0.237 OA
ATOM     94  O   UNL A   1      54.860  27.391  25.421  1.00  0.00    -0.237 OA
ATOM     95  O   UNL A   1      54.808  25.349  26.800  1.00  0.00    -0.744 OA
ENDBRANCH  91  92
ENDBRANCH  65  86
ENDBRANCH  39  40
ENDBRANCH  31  34
ENDBRANCH  29  30
ENDBRANCH  28  29
ENDBRANCH  27  28
ENDBRANCH   1  27
TORSDOF 19
ENDMDL
MODEL 3
REMARK VINA RESULT:     -11.4      3.286      8.604
REMARK SMILES CC(=O)Nc1ccc(/C=N/c2ccccc2C(=O)NCCCCCCNC(=O)c2ccc(-c3c4nc(c(-c5ccc(S(=O)(=O)[O-])cc5)c5ccc([nH]5)c(-c5ccc(S(=O)(=O)[O-])cc5)c5nc(c(-c6ccc(S(=O)(=O)[O-])cc6)c6ccc3[nH]6)C=C5)C=C4)cc2)cc1
REMARK SMILES IDX 22 1 21 2 20 3 19 4 17 5 18 6 16 8 11 9 12 10 13 11 15 12
REMARK SMILES IDX 14 13 10 14 9 15 8 16 5 17 6 18 90 19 7 20 89 21 4 22 1 23
REMARK SMILES IDX 2 24 3 25 23 27 24 28 25 29 26 30 27 31 28 33 29 34 30 35
REMARK SMILES IDX 88 36 31 37 87 38 32 39 33 40 34 41 81 42 35 43 86 44 80 45
REMARK SMILES IDX 82 46 36 47 85 48 79 49 78 50 37 52 67 53 48 54 66 55 49 56
REMARK SMILES IDX 52 57 65 58 83 59 50 60 51 61 64 63 84 64 53 65 38 66 39 67
REMARK SMILES IDX 47 68 40 69 46 70 41 71 42 72 43 73 44 74 45 75 68 76 69 77
REMARK SMILES IDX 77 78 70 79 76 80 71 81 72 82 73 83 74 84 75 85 54 86 55 87
REMARK SMILES IDX 63 88 56 89 62 90 57 91 58 92 59 93 60 94 61 95
REMARK H PARENT 19 7 4 26 26 32 82 51 52 62
REMARK Flexibility Score: inf
ROOT
ATOM      1  C   UNL A   1      36.325  21.916  25.611  1.00  0.00     0.002 C 
ENDROOT
BRANCH   1   2
ATOM      2  C   UNL A   1      36.418  23.163  24.724  1.00  0.00     0.021 C 
BRANCH   2   3
ATOM      3  C   UNL A   1      35.190  24.060  24.596  1.00  0.00     0.116 C 
BRANCH   3   4
ATOM      4  N   UNL A   1      34.731  24.320  23.252  1.00  0.00    -0.352 N 
ATOM      5  C   UNL A   1      33.545  24.878  22.828  1.00  0.00     0.253 C 
ATOM      6  O   UNL A   1      33.437  25.135  21.626  1.00  0.00    -0.269 OA
ATOM      7  H   UNL A   1      35.355  24.063  22.535  1.00  0.00     0.163 HD
BRANCH   5   8
ATOM      8  C   UNL A   1      32.353  25.103  23.702  1.00  0.00     0.065 A 
ATOM      9  C   UNL A   1      31.811  24.221  24.659  1.00  0.00     0.076 A 
ATOM     10  C   UNL A   1      30.670  24.621  25.379  1.00  0.00     0.029 A 
ATOM     11  C   UNL A   1      30.093  25.880  25.205  1.00  0.00     0.002 A 
ATOM     12  C   UNL A   1      31.772  26.386  23.559  1.00  0.00     0.016 A 
ATOM     13  C   UNL A   1      30.652  26.769  24.300  1.00  0.00     0.001 A 
BRANCH   9  14
ATOM     14  N   UNL A   1      32.249  22.912  24.917  1.00  0.00    -0.255 NA
ATOM     15  C   UNL A   1      32.144  22.025  23.981  1.00  0.00     0.119 C 
BRANCH  15  16
ATOM     16  C   UNL A   1      32.477  20.612  24.263  1.00  0.00    -0.007 A 
ATOM     17  C   UNL A   1      32.680  17.859  24.802  1.00  0.00     0.041 A 
ATOM     18  C   UNL A   1      32.876  18.802  25.822  1.00  0.00     0.027 A 
ATOM     19  C   UNL A   1      32.420  18.319  23.507  1.00  0.00     0.027 A 
ATOM     20  C   UNL A   1      32.769  20.174  25.558  1.00  0.00     0.012 A 
ATOM     21  C   UNL A   1      32.328  19.689  23.232  1.00  0.00     0.012 A 
BRANCH  17  22
ATOM     22  N   UNL A   1      32.598  16.506  25.183  1.00  0.00    -0.326 N 
ATOM     23  C   UNL A   1      34.996  15.813  25.262  1.00  0.00     0.114 C 
ATOM     24  C   UNL A   1      33.529  15.509  25.222  1.00  0.00     0.221 C 
ATOM     25  O   UNL A   1      33.153  14.336  25.261  1.00  0.00    -0.275 OA
ATOM     26  H   UNL A   1      31.701  16.227  25.476  1.00  0.00     0.169 HD
ENDBRANCH  17  22
ENDBRANCH  15  16
ENDBRANCH   9  14
ENDBRANCH   5   8
ENDBRANCH   3   4
ENDBRANCH   2   3
ENDBRANCH   1   2
BRANCH   1  27
ATOM     27  C   UNL A   1      36.392  20.534  24.952  1.00  0.00     0.002 C 
BRANCH  27  28
ATOM     28  C   UNL A   1      37.728  19.796  24.974  1.00  0.00     0.021 C 
BRANCH  28  29
ATOM     29  C   UNL A   1      38.897  20.424  25.726  1.00  0.00     0.116 C 
BRANCH  29  30
ATOM     30  N   UNL A   1      40.007  19.510  25.919  1.00  0.00    -0.352 N 
ATOM     31  C   UNL A   1      41.321  19.693  26.291  1.00  0.00     0.251 C 
ATOM     32  H   UNL A   1      39.775  18.568  25.749  1.00  0.00     0.163 HD
ATOM     33  O   UNL A   1      42.045  18.695  26.307  1.00  0.00    -0.269 OA
BRANCH  31  34
ATOM     34  C   UNL A   1      41.905  21.017  26.660  1.00  0.00     0.039 A 
ATOM     35  C   UNL A   1      42.085  21.960  25.636  1.00  0.00     0.014 A 
ATOM     36  C   UNL A   1      42.349  21.345  27.942  1.00  0.00     0.014 A 
ATOM     37  C   UNL A   1      42.635  23.224  25.897  1.00  0.00     0.010 A 
ATOM     38  C   UNL A   1      42.852  22.626  28.218  1.00  0.00     0.010 A 
ATOM     39  C   UNL A   1      43.014  23.576  27.196  1.00  0.00    -0.014 A 
BRANCH  39  40
ATOM     40  C   UNL A   1      43.668  24.885  27.480  1.00  0.00     0.031 A 
ATOM     41  C   UNL A   1      42.844  26.027  28.023  1.00  0.00     0.074 A 
ATOM     42  C   UNL A   1      44.983  25.072  27.243  1.00  0.00     0.049 A 
ATOM     43  N   UNL A   1      43.206  27.254  28.298  1.00  0.00    -0.248 NA
ATOM     44  C   UNL A   1      41.421  25.750  28.277  1.00  0.00     0.031 C 
ATOM     45  C   UNL A   1      45.906  24.057  26.733  1.00  0.00     0.029 A 
ATOM     46  N   UNL A   1      45.771  26.188  27.400  1.00  0.00    -0.354 N 
ATOM     47  C   UNL A   1      42.056  27.899  28.742  1.00  0.00     0.074 A 
ATOM     48  C   UNL A   1      40.976  26.940  28.655  1.00  0.00     0.031 C 
ATOM     49  C   UNL A   1      47.134  24.595  26.627  1.00  0.00     0.029 A 
ATOM     50  C   UNL A   1      47.084  25.999  27.030  1.00  0.00     0.049 A 
ATOM     51  H   UNL A   1      45.429  27.044  27.744  1.00  0.00     0.167 HD
ATOM     52  C   UNL A   1      41.909  29.166  29.198  1.00  0.00     0.031 A 
ATOM     53  C   UNL A   1      48.126  26.857  27.012  1.00  0.00     0.031 A 
ATOM     54  C   UNL A   1      42.980  30.123  29.293  1.00  0.00     0.049 A 
ATOM     55  C   UNL A   1      47.927  28.278  27.476  1.00  0.00     0.074 A 
ATOM     56  C   UNL A   1      42.934  31.418  29.780  1.00  0.00     0.029 A 
ATOM     57  N   UNL A   1      44.287  29.895  28.891  1.00  0.00    -0.354 N 
ATOM     58  N   UNL A   1      46.842  28.851  27.940  1.00  0.00    -0.248 NA
ATOM     59  C   UNL A   1      49.100  29.165  27.425  1.00  0.00     0.031 C 
ATOM     60  C   UNL A   1      44.198  31.994  29.613  1.00  0.00     0.029 A 
ATOM     61  C   UNL A   1      45.048  31.035  29.087  1.00  0.00     0.049 A 
ATOM     62  H   UNL A   1      44.624  29.048  28.520  1.00  0.00     0.167 HD
ATOM     63  C   UNL A   1      47.212  30.153  28.269  1.00  0.00     0.074 A 
ATOM     64  C   UNL A   1      48.622  30.279  27.962  1.00  0.00     0.031 C 
ATOM     65  C   UNL A   1      46.453  31.152  28.783  1.00  0.00     0.031 A 
BRANCH  52  66
ATOM     66  C   UNL A   1      40.527  29.603  29.609  1.00  0.00    -0.014 A 
ATOM     67  C   UNL A   1      40.091  29.493  30.942  1.00  0.00     0.010 A 
ATOM     68  C   UNL A   1      39.663  30.169  28.652  1.00  0.00     0.010 A 
ATOM     69  C   UNL A   1      38.803  29.898  31.302  1.00  0.00     0.020 A 
ATOM     70  C   UNL A   1      38.385  30.605  29.014  1.00  0.00     0.020 A 
ATOM     71  C   UNL A   1      37.957  30.450  30.335  1.00  0.00     0.054 A 
BRANCH  71  72
ATOM     72  S   UNL A   1      36.298  30.985  30.835  1.00  0.00     0.124 S 
ATOM     73  O   UNL A   1      35.531  30.771  29.611  1.00  0.00    -0.237 OA
ATOM     74  O   UNL A   1      35.988  30.081  31.937  1.00  0.00    -0.237 OA
ATOM     75  O   UNL A   1      36.484  32.385  31.215  1.00  0.00    -0.744 OA
ENDBRANCH  71  72
ENDBRANCH  52  66
BRANCH  53  76
ATOM     76  C   UNL A   1      49.466  26.402  26.537  1.00  0.00    -0.014 A 
ATOM     77  C   UNL A   1      50.345  25.728  27.405  1.00  0.00     0.010 A 
ATOM     78  C   UNL A   1      49.879  26.660  25.217  1.00  0.00     0.010 A 
ATOM     79  C   UNL A   1      51.617  25.343  26.969  1.00  0.00     0.020 A 
ATOM     80  C   UNL A   1      51.138  26.250  24.769  1.00  0.00     0.020 A 
ATOM     81  C   UNL A   1      52.005  25.606  25.653  1.00  0.00     0.054 A 
BRANCH  81  82
ATOM     82  S   UNL A   1      53.645  25.060  25.098  1.00  0.00     0.124 S 
ATOM     83  O   UNL A   1      53.699  25.590  23.739  1.00  0.00    -0.237 OA
ATOM     84  O   UNL A   1      54.534  25.699  26.064  1.00  0.00    -0.237 OA
ATOM     85  O   UNL A   1      53.572  23.603  25.199  1.00  0.00    -0.744 OA
ENDBRANCH  81  82
ENDBRANCH  53  76
BRANCH  65  86
ATOM     86  C   UNL A   1      47.130  32.465  29.090  1.00  0.00    -0.014 A 
ATOM     87  C   UNL A   1      47.864  32.652  30.275  1.00  0.00     0.010 A 
ATOM     88  C   UNL A   1      47.079  33.508  28.147  1.00  0.00     0.010 A 
ATOM     89  C   UNL A   1      48.506  33.869  30.524  1.00  0.00     0.020 A 
ATOM     90  C   UNL A   1      47.747  34.714  28.378  1.00  0.00     0.020 A 
ATOM     91  C   UNL A   1      48.444  34.892  29.572  1.00  0.00     0.054 A 
BRANCH  91  92
ATOM     92  S   UNL A   1      49.324  36.445  29.901  1.00  0.00     0.124 S 
ATOM     93  O   UNL A   1      50.379  36.010  30.812  1.00  0.00    -0.237 OA
ATOM     94  O   UNL A   1      49.770  36.847  28.569  1.00  0.00    -0.237 OA
ATOM     95  O   UNL A   1      48.302  37.304  30.495  1.00  0.00    -0.744 OA
ENDBRANCH  91  92
ENDBRANCH  65  86
ENDBRANCH  39  40
ENDBRANCH  31  34
ENDBRANCH  29  30
ENDBRANCH  28  29
ENDBRANCH  27  28
ENDBRANCH   1  27
TORSDOF 19
ENDMDL
