MODEL 1
REMARK VINA RESULT:     -10.3      0.000      0.000
REMARK SMILES COc1ccc(OC)c(-c2cc(C(=O)NCCCCCCNC(=O)c3ccc(-c4c5nc(c(-c6ccc(S(=O)(=O)[O-])cc6)c6ccc([nH]6)c(-c6ccc(S(=O)(=O)[O-])cc6)c6nc(c(-c7ccc(S(=O)(=O)[O-])cc7)c7ccc4[nH]7)C=C6)C=C5)cc3)ccn2)c1
REMARK SMILES IDX 19 1 18 2 17 3 16 4 15 5 13 6 14 7 12 9 10 10 11 11 87 12
REMARK SMILES IDX 86 13 85 14 9 15 3 16 4 17 88 18 5 19 6 20 2 21 1 22 7 23
REMARK SMILES IDX 8 24 20 25 21 26 22 27 23 28 24 30 25 31 26 32 84 33 27 34
REMARK SMILES IDX 83 35 28 36 29 37 30 38 77 39 31 40 82 41 76 42 78 43 32 44
REMARK SMILES IDX 81 45 75 46 74 47 33 49 63 50 44 51 62 52 45 53 48 54 61 55
REMARK SMILES IDX 79 56 46 57 47 58 60 60 80 61 49 62 34 63 35 64 43 65 36 66
REMARK SMILES IDX 42 67 37 68 38 69 39 70 40 71 41 72 64 73 65 74 73 75 66 76
REMARK SMILES IDX 72 77 67 78 68 79 69 80 70 81 71 82 50 83 51 84 59 85 52 86
REMARK SMILES IDX 58 87 53 88 54 89 55 90 56 91 57 92
REMARK H PARENT 15 8 22 29 78 48 48 59
REMARK Flexibility Score: inf
ROOT
ATOM      1  C   UNL A   1      35.770  22.984  23.790  1.00  0.00     0.002 C 
ENDROOT
BRANCH   1   2
ATOM      2  C   UNL A   1      34.588  22.750  22.840  1.00  0.00     0.002 C 
BRANCH   2   3
ATOM      3  C   UNL A   1      33.211  22.810  23.515  1.00  0.00     0.021 C 
BRANCH   3   4
ATOM      4  C   UNL A   1      32.892  21.543  24.312  1.00  0.00     0.116 C 
BRANCH   4   5
ATOM      5  N   UNL A   1      33.408  21.674  25.664  1.00  0.00    -0.352 N 
ATOM      6  C   UNL A   1      33.085  22.496  26.711  1.00  0.00     0.251 C 
ATOM      7  O   UNL A   1      33.735  22.388  27.752  1.00  0.00    -0.269 OA
ATOM      8  H   UNL A   1      34.138  21.046  25.869  1.00  0.00     0.163 HD
BRANCH   6   9
ATOM      9  C   UNL A   1      31.940  23.441  26.678  1.00  0.00     0.043 A 
ATOM     10  C   UNL A   1      30.875  25.518  26.142  1.00  0.00     0.075 A 
ATOM     11  C   UNL A   1      32.041  24.780  26.324  1.00  0.00     0.043 A 
ATOM     12  N   UNL A   1      29.647  25.014  26.406  1.00  0.00    -0.256 NA
ATOM     13  C   UNL A   1      29.583  23.750  26.875  1.00  0.00     0.112 A 
ATOM     14  C   UNL A   1      30.685  22.929  27.011  1.00  0.00     0.034 A 
BRANCH  10  15
ATOM     15  C   UNL A   1      30.940  26.856  25.546  1.00  0.00     0.046 A 
ATOM     16  C   UNL A   1      30.403  28.186  23.541  1.00  0.00     0.119 A 
ATOM     17  C   UNL A   1      31.179  29.223  24.040  1.00  0.00     0.050 A 
ATOM     18  C   UNL A   1      30.274  27.021  24.297  1.00  0.00     0.060 A 
ATOM     19  C   UNL A   1      31.807  29.100  25.279  1.00  0.00     0.051 A 
ATOM     20  C   UNL A   1      31.707  27.925  26.041  1.00  0.00     0.128 A 
BRANCH  16  21
ATOM     21  O   UNL A   1      29.895  28.402  22.293  1.00  0.00    -0.497 OA
ATOM     22  C   UNL A   1      29.319  29.674  22.029  1.00  0.00     0.278 C 
ENDBRANCH  16  21
BRANCH  20  23
ATOM     23  O   UNL A   1      32.478  27.999  27.170  1.00  0.00    -0.496 OA
ATOM     24  C   UNL A   1      33.769  28.580  27.112  1.00  0.00     0.278 C 
ENDBRANCH  20  23
ENDBRANCH  10  15
ENDBRANCH   6   9
ENDBRANCH   4   5
ENDBRANCH   3   4
ENDBRANCH   2   3
ENDBRANCH   1   2
BRANCH   1  25
ATOM     25  C   UNL A   1      35.591  24.157  24.757  1.00  0.00     0.021 C 
BRANCH  25  26
ATOM     26  C   UNL A   1      36.344  23.994  26.072  1.00  0.00     0.116 C 
BRANCH  26  27
ATOM     27  N   UNL A   1      37.366  22.963  25.973  1.00  0.00    -0.352 N 
ATOM     28  C   UNL A   1      38.720  23.064  26.180  1.00  0.00     0.251 C 
ATOM     29  H   UNL A   1      37.042  22.069  25.723  1.00  0.00     0.163 HD
ATOM     30  O   UNL A   1      39.467  22.168  25.802  1.00  0.00    -0.269 OA
BRANCH  28  31
ATOM     31  C   UNL A   1      39.266  24.259  26.854  1.00  0.00     0.039 A 
ATOM     32  C   UNL A   1      40.034  25.164  26.119  1.00  0.00     0.014 A 
ATOM     33  C   UNL A   1      39.026  24.478  28.215  1.00  0.00     0.014 A 
ATOM     34  C   UNL A   1      40.520  26.317  26.739  1.00  0.00     0.010 A 
ATOM     35  C   UNL A   1      39.446  25.663  28.809  1.00  0.00     0.010 A 
ATOM     36  C   UNL A   1      40.205  26.590  28.080  1.00  0.00    -0.014 A 
BRANCH  36  37
ATOM     37  C   UNL A   1      40.662  27.838  28.741  1.00  0.00     0.031 A 
ATOM     38  C   UNL A   1      42.061  27.936  29.287  1.00  0.00     0.074 A 
ATOM     39  C   UNL A   1      39.798  28.859  28.902  1.00  0.00     0.049 A 
ATOM     40  N   UNL A   1      42.628  28.925  29.928  1.00  0.00    -0.248 NA
ATOM     41  C   UNL A   1      42.929  26.759  29.112  1.00  0.00     0.031 C 
ATOM     42  C   UNL A   1      38.405  28.870  28.448  1.00  0.00     0.029 A 
ATOM     43  N   UNL A   1      39.963  30.085  29.496  1.00  0.00    -0.354 N 
ATOM     44  C   UNL A   1      43.906  28.483  30.253  1.00  0.00     0.074 A 
ATOM     45  C   UNL A   1      44.015  27.121  29.780  1.00  0.00     0.031 C 
ATOM     46  C   UNL A   1      37.856  30.059  28.745  1.00  0.00     0.029 A 
ATOM     47  C   UNL A   1      38.838  30.876  29.449  1.00  0.00     0.049 A 
ATOM     48  H   UNL A   1      40.806  30.372  29.916  1.00  0.00     0.167 HD
ATOM     49  C   UNL A   1      44.903  29.156  30.876  1.00  0.00     0.031 A 
ATOM     50  C   UNL A   1      38.621  32.117  29.924  1.00  0.00     0.031 A 
ATOM     51  C   UNL A   1      44.790  30.515  31.336  1.00  0.00     0.049 A 
ATOM     52  C   UNL A   1      39.739  32.838  30.627  1.00  0.00     0.074 A 
ATOM     53  C   UNL A   1      45.764  31.310  31.914  1.00  0.00     0.029 A 
ATOM     54  N   UNL A   1      43.633  31.277  31.278  1.00  0.00    -0.354 N 
ATOM     55  N   UNL A   1      40.965  32.432  30.856  1.00  0.00    -0.248 NA
ATOM     56  C   UNL A   1      39.445  34.187  31.128  1.00  0.00     0.031 C 
ATOM     57  C   UNL A   1      45.177  32.531  32.266  1.00  0.00     0.029 A 
ATOM     58  C   UNL A   1      43.858  32.521  31.843  1.00  0.00     0.049 A 
ATOM     59  H   UNL A   1      42.778  30.978  30.891  1.00  0.00     0.167 HD
ATOM     60  C   UNL A   1      41.599  33.490  31.500  1.00  0.00     0.074 A 
ATOM     61  C   UNL A   1      40.624  34.555  31.612  1.00  0.00     0.031 C 
ATOM     62  C   UNL A   1      42.875  33.572  31.952  1.00  0.00     0.031 A 
BRANCH  49  63
ATOM     63  C   UNL A   1      46.197  28.420  31.119  1.00  0.00    -0.014 A 
ATOM     64  C   UNL A   1      47.223  28.402  30.155  1.00  0.00     0.010 A 
ATOM     65  C   UNL A   1      46.403  27.763  32.346  1.00  0.00     0.010 A 
ATOM     66  C   UNL A   1      48.406  27.698  30.394  1.00  0.00     0.020 A 
ATOM     67  C   UNL A   1      47.598  27.085  32.601  1.00  0.00     0.020 A 
ATOM     68  C   UNL A   1      48.585  27.040  31.615  1.00  0.00     0.054 A 
BRANCH  68  69
ATOM     69  S   UNL A   1      50.136  26.145  31.901  1.00  0.00     0.124 S 
ATOM     70  O   UNL A   1      51.097  26.969  31.172  1.00  0.00    -0.237 OA
ATOM     71  O   UNL A   1      50.259  26.174  33.355  1.00  0.00    -0.237 OA
ATOM     72  O   UNL A   1      49.886  24.825  31.325  1.00  0.00    -0.744 OA
ENDBRANCH  68  69
ENDBRANCH  49  63
BRANCH  50  73
ATOM     73  C   UNL A   1      37.298  32.770  29.721  1.00  0.00    -0.014 A 
ATOM     74  C   UNL A   1      36.329  32.740  30.738  1.00  0.00     0.010 A 
ATOM     75  C   UNL A   1      37.006  33.439  28.518  1.00  0.00     0.010 A 
ATOM     76  C   UNL A   1      35.087  33.356  30.554  1.00  0.00     0.020 A 
ATOM     77  C   UNL A   1      35.777  34.082  28.341  1.00  0.00     0.020 A 
ATOM     78  C   UNL A   1      34.822  34.028  29.358  1.00  0.00     0.054 A 
BRANCH  78  79
ATOM     79  S   UNL A   1      33.227  34.871  29.166  1.00  0.00     0.124 S 
ATOM     80  O   UNL A   1      32.705  34.850  30.528  1.00  0.00    -0.237 OA
ATOM     81  O   UNL A   1      33.623  36.182  28.658  1.00  0.00    -0.237 OA
ATOM     82  O   UNL A   1      32.510  34.031  28.208  1.00  0.00    -0.744 OA
ENDBRANCH  78  79
ENDBRANCH  50  73
BRANCH  62  83
ATOM     83  C   UNL A   1      43.307  34.871  32.578  1.00  0.00    -0.014 A 
ATOM     84  C   UNL A   1      43.756  35.950  31.795  1.00  0.00     0.010 A 
ATOM     85  C   UNL A   1      43.208  35.033  33.973  1.00  0.00     0.010 A 
ATOM     86  C   UNL A   1      44.129  37.153  32.399  1.00  0.00     0.020 A 
ATOM     87  C   UNL A   1      43.548  36.245  34.577  1.00  0.00     0.020 A 
ATOM     88  C   UNL A   1      44.021  37.294  33.787  1.00  0.00     0.054 A 
BRANCH  88  89
ATOM     89  S   UNL A   1      44.468  38.882  34.540  1.00  0.00     0.124 S 
ATOM     90  O   UNL A   1      44.178  38.642  35.951  1.00  0.00    -0.237 OA
ATOM     91  O   UNL A   1      45.884  39.009  34.202  1.00  0.00    -0.237 OA
ATOM     92  O   UNL A   1      43.587  39.840  33.876  1.00  0.00    -0.744 OA
ENDBRANCH  88  89
ENDBRANCH  62  83
ENDBRANCH  36  37
ENDBRANCH  28  31
ENDBRANCH  26  27
ENDBRANCH  25  26
ENDBRANCH   1  25
TORSDOF 19
ENDMDL
MODEL 2
REMARK VINA RESULT:     -10.0      2.156      8.347
REMARK SMILES COc1ccc(OC)c(-c2cc(C(=O)NCCCCCCNC(=O)c3ccc(-c4c5nc(c(-c6ccc(S(=O)(=O)[O-])cc6)c6ccc([nH]6)c(-c6ccc(S(=O)(=O)[O-])cc6)c6nc(c(-c7ccc(S(=O)(=O)[O-])cc7)c7ccc4[nH]7)C=C6)C=C5)cc3)ccn2)c1
REMARK SMILES IDX 19 1 18 2 17 3 16 4 15 5 13 6 14 7 12 9 10 10 11 11 87 12
REMARK SMILES IDX 86 13 85 14 9 15 3 16 4 17 88 18 5 19 6 20 2 21 1 22 7 23
REMARK SMILES IDX 8 24 20 25 21 26 22 27 23 28 24 30 25 31 26 32 84 33 27 34
REMARK SMILES IDX 83 35 28 36 29 37 30 38 77 39 31 40 82 41 76 42 78 43 32 44
REMARK SMILES IDX 81 45 75 46 74 47 33 49 63 50 44 51 62 52 45 53 48 54 61 55
REMARK SMILES IDX 79 56 46 57 47 58 60 60 80 61 49 62 34 63 35 64 43 65 36 66
REMARK SMILES IDX 42 67 37 68 38 69 39 70 40 71 41 72 64 73 65 74 73 75 66 76
REMARK SMILES IDX 72 77 67 78 68 79 69 80 70 81 71 82 50 83 51 84 59 85 52 86
REMARK SMILES IDX 58 87 53 88 54 89 55 90 56 91 57 92
REMARK H PARENT 15 8 22 29 78 48 48 59
REMARK Flexibility Score: inf
ROOT
ATOM      1  C   UNL A   1      36.614  22.909  23.645  1.00  0.00     0.002 C 
ENDROOT
BRANCH   1   2
ATOM      2  C   UNL A   1      35.283  22.800  22.890  1.00  0.00     0.002 C 
BRANCH   2   3
ATOM      3  C   UNL A   1      34.060  23.271  23.688  1.00  0.00     0.021 C 
BRANCH   3   4
ATOM      4  C   UNL A   1      33.219  22.107  24.216  1.00  0.00     0.116 C 
BRANCH   4   5
ATOM      5  N   UNL A   1      33.474  21.925  25.635  1.00  0.00    -0.352 N 
ATOM      6  C   UNL A   1      33.018  22.566  26.756  1.00  0.00     0.251 C 
ATOM      7  O   UNL A   1      33.446  22.194  27.849  1.00  0.00    -0.269 OA
ATOM      8  H   UNL A   1      34.102  21.192  25.830  1.00  0.00     0.163 HD
BRANCH   6   9
ATOM      9  C   UNL A   1      31.974  23.622  26.719  1.00  0.00     0.043 A 
ATOM     10  C   UNL A   1      31.167  25.842  26.323  1.00  0.00     0.075 A 
ATOM     11  C   UNL A   1      32.234  24.973  26.533  1.00  0.00     0.043 A 
ATOM     12  N   UNL A   1      29.877  25.441  26.404  1.00  0.00    -0.256 NA
ATOM     13  C   UNL A   1      29.647  24.148  26.716  1.00  0.00     0.112 A 
ATOM     14  C   UNL A   1      30.649  23.209  26.865  1.00  0.00     0.034 A 
BRANCH  10  15
ATOM     15  C   UNL A   1      31.418  27.221  25.894  1.00  0.00     0.046 A 
ATOM     16  C   UNL A   1      32.203  29.439  26.629  1.00  0.00     0.119 A 
ATOM     17  C   UNL A   1      31.728  29.984  25.444  1.00  0.00     0.050 A 
ATOM     18  C   UNL A   1      32.062  28.068  26.842  1.00  0.00     0.060 A 
ATOM     19  C   UNL A   1      31.131  29.168  24.483  1.00  0.00     0.051 A 
ATOM     20  C   UNL A   1      30.960  27.789  24.692  1.00  0.00     0.128 A 
BRANCH  16  21
ATOM     21  O   UNL A   1      32.706  30.348  27.515  1.00  0.00    -0.497 OA
ATOM     22  C   UNL A   1      34.058  30.752  27.344  1.00  0.00     0.278 C 
ENDBRANCH  16  21
BRANCH  20  23
ATOM     23  O   UNL A   1      30.271  27.213  23.658  1.00  0.00    -0.496 OA
ATOM     24  C   UNL A   1      29.063  27.793  23.200  1.00  0.00     0.278 C 
ENDBRANCH  20  23
ENDBRANCH  10  15
ENDBRANCH   6   9
ENDBRANCH   4   5
ENDBRANCH   3   4
ENDBRANCH   2   3
ENDBRANCH   1   2
BRANCH   1  25
ATOM     25  C   UNL A   1      36.606  23.891  24.819  1.00  0.00     0.021 C 
BRANCH  25  26
ATOM     26  C   UNL A   1      36.789  23.230  26.179  1.00  0.00     0.116 C 
BRANCH  26  27
ATOM     27  N   UNL A   1      37.778  22.164  26.121  1.00  0.00    -0.352 N 
ATOM     28  C   UNL A   1      39.144  22.243  26.236  1.00  0.00     0.251 C 
ATOM     29  H   UNL A   1      37.417  21.259  25.980  1.00  0.00     0.163 HD
ATOM     30  O   UNL A   1      39.844  21.293  25.903  1.00  0.00    -0.269 OA
BRANCH  28  31
ATOM     31  C   UNL A   1      39.760  23.481  26.755  1.00  0.00     0.039 A 
ATOM     32  C   UNL A   1      40.349  23.470  28.021  1.00  0.00     0.014 A 
ATOM     33  C   UNL A   1      39.747  24.653  25.992  1.00  0.00     0.014 A 
ATOM     34  C   UNL A   1      40.971  24.624  28.501  1.00  0.00     0.010 A 
ATOM     35  C   UNL A   1      40.432  25.778  26.440  1.00  0.00     0.010 A 
ATOM     36  C   UNL A   1      41.042  25.778  27.703  1.00  0.00    -0.014 A 
BRANCH  36  37
ATOM     37  C   UNL A   1      41.748  26.996  28.171  1.00  0.00     0.031 A 
ATOM     38  C   UNL A   1      40.968  28.158  28.724  1.00  0.00     0.074 A 
ATOM     39  C   UNL A   1      43.087  27.079  28.041  1.00  0.00     0.049 A 
ATOM     40  N   UNL A   1      41.403  29.317  29.145  1.00  0.00    -0.248 NA
ATOM     41  C   UNL A   1      39.504  28.007  28.788  1.00  0.00     0.031 C 
ATOM     42  C   UNL A   1      43.951  26.033  27.487  1.00  0.00     0.029 A 
ATOM     43  N   UNL A   1      43.956  28.091  28.363  1.00  0.00    -0.354 N 
ATOM     44  C   UNL A   1      40.269  30.041  29.501  1.00  0.00     0.074 A 
ATOM     45  C   UNL A   1      39.125  29.207  29.203  1.00  0.00     0.031 C 
ATOM     46  C   UNL A   1      45.229  26.443  27.545  1.00  0.00     0.029 A 
ATOM     47  C   UNL A   1      45.272  27.794  28.095  1.00  0.00     0.049 A 
ATOM     48  H   UNL A   1      43.666  28.949  28.750  1.00  0.00     0.167 HD
ATOM     49  C   UNL A   1      40.189  31.281  30.041  1.00  0.00     0.031 A 
ATOM     50  C   UNL A   1      46.388  28.529  28.268  1.00  0.00     0.031 A 
ATOM     51  C   UNL A   1      41.333  32.100  30.344  1.00  0.00     0.049 A 
ATOM     52  C   UNL A   1      46.272  29.909  28.853  1.00  0.00     0.074 A 
ATOM     53  C   UNL A   1      41.363  33.340  30.957  1.00  0.00     0.029 A 
ATOM     54  N   UNL A   1      42.647  31.767  30.048  1.00  0.00    -0.354 N 
ATOM     55  N   UNL A   1      45.198  30.545  29.256  1.00  0.00    -0.248 NA
ATOM     56  C   UNL A   1      47.520  30.667  29.016  1.00  0.00     0.031 C 
ATOM     57  C   UNL A   1      42.690  33.786  30.972  1.00  0.00     0.029 A 
ATOM     58  C   UNL A   1      43.493  32.793  30.434  1.00  0.00     0.049 A 
ATOM     59  H   UNL A   1      42.935  30.925  29.627  1.00  0.00     0.167 HD
ATOM     60  C   UNL A   1      45.645  31.766  29.750  1.00  0.00     0.074 A 
ATOM     61  C   UNL A   1      47.086  31.772  29.605  1.00  0.00     0.031 C 
ATOM     62  C   UNL A   1      44.927  32.787  30.279  1.00  0.00     0.031 A 
BRANCH  49  63
ATOM     63  C   UNL A   1      38.814  31.836  30.316  1.00  0.00    -0.014 A 
ATOM     64  C   UNL A   1      38.116  32.579  29.347  1.00  0.00     0.010 A 
ATOM     65  C   UNL A   1      38.198  31.581  31.555  1.00  0.00     0.010 A 
ATOM     66  C   UNL A   1      36.850  33.100  29.631  1.00  0.00     0.020 A 
ATOM     67  C   UNL A   1      36.919  32.072  31.831  1.00  0.00     0.020 A 
ATOM     68  C   UNL A   1      36.261  32.846  30.873  1.00  0.00     0.054 A 
BRANCH  68  69
ATOM     69  S   UNL A   1      34.613  33.524  31.209  1.00  0.00     0.124 S 
ATOM     70  O   UNL A   1      34.008  33.515  29.879  1.00  0.00    -0.237 OA
ATOM     71  O   UNL A   1      34.058  32.564  32.158  1.00  0.00    -0.237 OA
ATOM     72  O   UNL A   1      34.888  34.851  31.756  1.00  0.00    -0.744 OA
ENDBRANCH  68  69
ENDBRANCH  49  63
BRANCH  50  73
ATOM     73  C   UNL A   1      47.716  27.957  27.910  1.00  0.00    -0.014 A 
ATOM     74  C   UNL A   1      48.248  28.151  26.624  1.00  0.00     0.010 A 
ATOM     75  C   UNL A   1      48.464  27.234  28.857  1.00  0.00     0.010 A 
ATOM     76  C   UNL A   1      49.497  27.622  26.285  1.00  0.00     0.020 A 
ATOM     77  C   UNL A   1      49.726  26.728  28.532  1.00  0.00     0.020 A 
ATOM     78  C   UNL A   1      50.231  26.918  27.244  1.00  0.00     0.054 A 
BRANCH  78  79
ATOM     79  S   UNL A   1      51.874  26.293  26.799  1.00  0.00     0.124 S 
ATOM     80  O   UNL A   1      52.656  26.620  27.986  1.00  0.00    -0.237 OA
ATOM     81  O   UNL A   1      51.620  24.871  26.578  1.00  0.00    -0.237 OA
ATOM     82  O   UNL A   1      52.215  27.050  25.596  1.00  0.00    -0.744 OA
ENDBRANCH  78  79
ENDBRANCH  50  73
BRANCH  62  83
ATOM     83  C   UNL A   1      45.689  33.987  30.779  1.00  0.00    -0.014 A 
ATOM     84  C   UNL A   1      45.932  35.098  29.951  1.00  0.00     0.010 A 
ATOM     85  C   UNL A   1      46.121  34.023  32.118  1.00  0.00     0.010 A 
ATOM     86  C   UNL A   1      46.621  36.208  30.445  1.00  0.00     0.020 A 
ATOM     87  C   UNL A   1      46.782  35.144  32.624  1.00  0.00     0.020 A 
ATOM     88  C   UNL A   1      47.040  36.225  31.780  1.00  0.00     0.054 A 
BRANCH  88  89
ATOM     89  S   UNL A   1      47.893  37.697  32.408  1.00  0.00     0.124 S 
ATOM     90  O   UNL A   1      47.936  38.552  31.225  1.00  0.00    -0.237 OA
ATOM     91  O   UNL A   1      47.004  38.148  33.478  1.00  0.00    -0.237 OA
ATOM     92  O   UNL A   1      49.185  37.185  32.856  1.00  0.00    -0.744 OA
ENDBRANCH  88  89
ENDBRANCH  62  83
ENDBRANCH  36  37
ENDBRANCH  28  31
ENDBRANCH  26  27
ENDBRANCH  25  26
ENDBRANCH   1  25
TORSDOF 19
ENDMDL
MODEL 3
REMARK VINA RESULT:      -9.9      3.888      8.158
REMARK SMILES COc1ccc(OC)c(-c2cc(C(=O)NCCCCCCNC(=O)c3ccc(-c4c5nc(c(-c6ccc(S(=O)(=O)[O-])cc6)c6ccc([nH]6)c(-c6ccc(S(=O)(=O)[O-])cc6)c6nc(c(-c7ccc(S(=O)(=O)[O-])cc7)c7ccc4[nH]7)C=C6)C=C5)cc3)ccn2)c1
REMARK SMILES IDX 19 1 18 2 17 3 16 4 15 5 13 6 14 7 12 9 10 10 11 11 87 12
REMARK SMILES IDX 86 13 85 14 9 15 3 16 4 17 88 18 5 19 6 20 2 21 1 22 7 23
REMARK SMILES IDX 8 24 20 25 21 26 22 27 23 28 24 30 25 31 26 32 84 33 27 34
REMARK SMILES IDX 83 35 28 36 29 37 30 38 77 39 31 40 82 41 76 42 78 43 32 44
REMARK SMILES IDX 81 45 75 46 74 47 33 49 63 50 44 51 62 52 45 53 48 54 61 55
REMARK SMILES IDX 79 56 46 57 47 58 60 60 80 61 49 62 34 63 35 64 43 65 36 66
REMARK SMILES IDX 42 67 37 68 38 69 39 70 40 71 41 72 64 73 65 74 73 75 66 76
REMARK SMILES IDX 72 77 67 78 68 79 69 80 70 81 71 82 50 83 51 84 59 85 52 86
REMARK SMILES IDX 58 87 53 88 54 89 55 90 56 91 57 92
REMARK H PARENT 15 8 22 29 78 48 48 59
REMARK Flexibility Score: inf
ROOT
ATOM      1  C   UNL A   1      42.123  22.050  28.506  1.00  0.00     0.002 C 
ENDROOT
BRANCH   1   2
ATOM      2  C   UNL A   1      42.773  23.304  27.909  1.00  0.00     0.002 C 
BRANCH   2   3
ATOM      3  C   UNL A   1      44.193  23.087  27.368  1.00  0.00     0.021 C 
BRANCH   3   4
ATOM      4  C   UNL A   1      44.809  24.369  26.803  1.00  0.00     0.116 C 
BRANCH   4   5
ATOM      5  N   UNL A   1      46.258  24.279  26.859  1.00  0.00    -0.352 N 
ATOM      6  C   UNL A   1      47.262  25.137  26.497  1.00  0.00     0.251 C 
ATOM      7  O   UNL A   1      48.425  24.761  26.644  1.00  0.00    -0.269 OA
ATOM      8  H   UNL A   1      46.585  23.429  27.234  1.00  0.00     0.163 HD
BRANCH   6   9
ATOM      9  C   UNL A   1      47.013  26.521  26.020  1.00  0.00     0.043 A 
ATOM     10  C   UNL A   1      46.942  28.904  26.259  1.00  0.00     0.075 A 
ATOM     11  C   UNL A   1      46.992  27.640  26.842  1.00  0.00     0.043 A 
ATOM     12  N   UNL A   1      46.799  29.084  24.926  1.00  0.00    -0.256 NA
ATOM     13  C   UNL A   1      46.690  27.979  24.158  1.00  0.00     0.112 A 
ATOM     14  C   UNL A   1      46.805  26.693  24.651  1.00  0.00     0.034 A 
BRANCH  10  15
ATOM     15  C   UNL A   1      47.153  30.099  27.082  1.00  0.00     0.046 A 
ATOM     16  C   UNL A   1      48.847  31.452  28.256  1.00  0.00     0.119 A 
ATOM     17  C   UNL A   1      47.828  32.150  28.889  1.00  0.00     0.050 A 
ATOM     18  C   UNL A   1      48.509  30.447  27.349  1.00  0.00     0.060 A 
ATOM     19  C   UNL A   1      46.494  31.855  28.613  1.00  0.00     0.051 A 
ATOM     20  C   UNL A   1      46.136  30.830  27.721  1.00  0.00     0.128 A 
BRANCH  16  21
ATOM     21  O   UNL A   1      50.107  31.789  28.658  1.00  0.00    -0.497 OA
ATOM     22  C   UNL A   1      50.449  31.548  30.016  1.00  0.00     0.278 C 
ENDBRANCH  16  21
BRANCH  20  23
ATOM     23  O   UNL A   1      44.778  30.661  27.678  1.00  0.00    -0.496 OA
ATOM     24  C   UNL A   1      43.918  31.773  27.845  1.00  0.00     0.278 C 
ENDBRANCH  20  23
ENDBRANCH  10  15
ENDBRANCH   6   9
ENDBRANCH   4   5
ENDBRANCH   3   4
ENDBRANCH   2   3
ENDBRANCH   1   2
BRANCH   1  25
ATOM     25  C   UNL A   1      41.030  21.420  27.638  1.00  0.00     0.021 C 
BRANCH  25  26
ATOM     26  C   UNL A   1      41.005  21.937  26.204  1.00  0.00     0.116 C 
BRANCH  26  27
ATOM     27  N   UNL A   1      39.645  22.198  25.758  1.00  0.00    -0.352 N 
ATOM     28  C   UNL A   1      38.799  23.218  26.115  1.00  0.00     0.251 C 
ATOM     29  H   UNL A   1      39.282  21.554  25.109  1.00  0.00     0.163 HD
ATOM     30  O   UNL A   1      37.604  23.145  25.851  1.00  0.00    -0.269 OA
BRANCH  28  31
ATOM     31  C   UNL A   1      39.337  24.396  26.824  1.00  0.00     0.039 A 
ATOM     32  C   UNL A   1      40.107  25.323  26.119  1.00  0.00     0.014 A 
ATOM     33  C   UNL A   1      39.087  24.578  28.188  1.00  0.00     0.014 A 
ATOM     34  C   UNL A   1      40.584  26.461  26.772  1.00  0.00     0.010 A 
ATOM     35  C   UNL A   1      39.498  25.749  28.817  1.00  0.00     0.010 A 
ATOM     36  C   UNL A   1      40.259  26.697  28.118  1.00  0.00    -0.014 A 
BRANCH  36  37
ATOM     37  C   UNL A   1      40.708  27.928  28.814  1.00  0.00     0.031 A 
ATOM     38  C   UNL A   1      42.099  28.012  29.383  1.00  0.00     0.074 A 
ATOM     39  C   UNL A   1      39.842  28.946  28.988  1.00  0.00     0.049 A 
ATOM     40  N   UNL A   1      42.657  28.985  30.055  1.00  0.00    -0.248 NA
ATOM     41  C   UNL A   1      42.968  26.838  29.192  1.00  0.00     0.031 C 
ATOM     42  C   UNL A   1      38.455  28.970  28.515  1.00  0.00     0.029 A 
ATOM     43  N   UNL A   1      39.999  30.157  29.614  1.00  0.00    -0.354 N 
ATOM     44  C   UNL A   1      43.930  28.534  30.388  1.00  0.00     0.074 A 
ATOM     45  C   UNL A   1      44.045  27.183  29.884  1.00  0.00     0.031 C 
ATOM     46  C   UNL A   1      37.903  30.151  28.832  1.00  0.00     0.029 A 
ATOM     47  C   UNL A   1      38.876  30.950  29.569  1.00  0.00     0.049 A 
ATOM     48  H   UNL A   1      40.836  30.434  30.052  1.00  0.00     0.167 HD
ATOM     49  C   UNL A   1      44.919  29.191  31.041  1.00  0.00     0.031 A 
ATOM     50  C   UNL A   1      38.653  32.180  30.071  1.00  0.00     0.031 A 
ATOM     51  C   UNL A   1      44.800  30.539  31.531  1.00  0.00     0.049 A 
ATOM     52  C   UNL A   1      39.760  32.883  30.807  1.00  0.00     0.074 A 
ATOM     53  C   UNL A   1      45.766  31.319  32.143  1.00  0.00     0.029 A 
ATOM     54  N   UNL A   1      43.644  31.303  31.475  1.00  0.00    -0.354 N 
ATOM     55  N   UNL A   1      40.983  32.470  31.043  1.00  0.00    -0.248 NA
ATOM     56  C   UNL A   1      39.461  34.220  31.336  1.00  0.00     0.031 C 
ATOM     57  C   UNL A   1      45.175  32.531  32.515  1.00  0.00     0.029 A 
ATOM     58  C   UNL A   1      43.861  32.534  32.073  1.00  0.00     0.049 A 
ATOM     59  H   UNL A   1      42.794  31.014  31.070  1.00  0.00     0.167 HD
ATOM     60  C   UNL A   1      41.608  33.512  31.721  1.00  0.00     0.074 A 
ATOM     61  C   UNL A   1      40.632  34.575  31.845  1.00  0.00     0.031 C 
ATOM     62  C   UNL A   1      42.878  33.582  32.193  1.00  0.00     0.031 A 
BRANCH  49  63
ATOM     63  C   UNL A   1      46.209  28.449  31.285  1.00  0.00    -0.014 A 
ATOM     64  C   UNL A   1      46.364  27.589  32.387  1.00  0.00     0.010 A 
ATOM     65  C   UNL A   1      47.273  28.590  30.375  1.00  0.00     0.010 A 
ATOM     66  C   UNL A   1      47.575  26.925  32.604  1.00  0.00     0.020 A 
ATOM     67  C   UNL A   1      48.474  27.903  30.570  1.00  0.00     0.020 A 
ATOM     68  C   UNL A   1      48.624  27.090  31.694  1.00  0.00     0.054 A 
BRANCH  68  69
ATOM     69  S   UNL A   1      50.180  26.207  31.994  1.00  0.00     0.124 S 
ATOM     70  O   UNL A   1      50.349  26.378  33.435  1.00  0.00    -0.237 OA
ATOM     71  O   UNL A   1      49.868  24.850  31.556  1.00  0.00    -0.237 OA
ATOM     72  O   UNL A   1      51.149  26.920  31.166  1.00  0.00    -0.744 OA
ENDBRANCH  68  69
ENDBRANCH  49  63
BRANCH  50  73
ATOM     73  C   UNL A   1      37.333  32.839  29.864  1.00  0.00    -0.014 A 
ATOM     74  C   UNL A   1      36.326  32.729  30.838  1.00  0.00     0.010 A 
ATOM     75  C   UNL A   1      37.082  33.594  28.704  1.00  0.00     0.010 A 
ATOM     76  C   UNL A   1      35.087  33.350  30.651  1.00  0.00     0.020 A 
ATOM     77  C   UNL A   1      35.856  34.241  28.526  1.00  0.00     0.020 A 
ATOM     78  C   UNL A   1      34.862  34.107  29.498  1.00  0.00     0.054 A 
BRANCH  78  79
ATOM     79  S   UNL A   1      33.269  34.952  29.306  1.00  0.00     0.124 S 
ATOM     80  O   UNL A   1      32.594  34.111  28.324  1.00  0.00    -0.237 OA
ATOM     81  O   UNL A   1      32.724  34.908  30.661  1.00  0.00    -0.237 OA
ATOM     82  O   UNL A   1      33.643  36.286  28.838  1.00  0.00    -0.744 OA
ENDBRANCH  78  79
ENDBRANCH  50  73
BRANCH  62  83
ATOM     83  C   UNL A   1      43.302  34.866  32.857  1.00  0.00    -0.014 A 
ATOM     84  C   UNL A   1      43.807  35.946  32.110  1.00  0.00     0.010 A 
ATOM     85  C   UNL A   1      43.138  35.012  34.247  1.00  0.00     0.010 A 
ATOM     86  C   UNL A   1      44.170  37.135  32.747  1.00  0.00     0.020 A 
ATOM     87  C   UNL A   1      43.471  36.210  34.882  1.00  0.00     0.020 A 
ATOM     88  C   UNL A   1      43.999  37.260  34.129  1.00  0.00     0.054 A 
BRANCH  88  89
ATOM     89  S   UNL A   1      44.436  38.831  34.924  1.00  0.00     0.124 S 
ATOM     90  O   UNL A   1      44.133  38.557  36.326  1.00  0.00    -0.237 OA
ATOM     91  O   UNL A   1      45.855  38.967  34.603  1.00  0.00    -0.237 OA
ATOM     92  O   UNL A   1      43.560  39.803  34.275  1.00  0.00    -0.744 OA
ENDBRANCH  88  89
ENDBRANCH  62  83
ENDBRANCH  36  37
ENDBRANCH  28  31
ENDBRANCH  26  27
ENDBRANCH  25  26
ENDBRANCH   1  25
TORSDOF 19
ENDMDL
