MODEL 1
REMARK VINA RESULT:     -10.6      0.000      0.000
REMARK SMILES COc1ccc([C@H]2CC(c3ccc(S(C)(=O)=O)cc3)=NN2c2ccc(C(=O)NCCCCCCNC(=O)c3ccc(-c4c5nc(c(-c6ccc(S(=O)(=O)[O-])cc6)c6ccc([nH]6)c(-c6ccc(S(=O)(=O)[O-])cc6)c6nc(c(-c7ccc(S(=O)(=O)[O-])cc7)c7ccc4[nH]7)C=C6)C=C5)cc3)cc2)cc1
REMARK SMILES IDX 31 1 30 2 29 3 28 4 26 5 27 6 25 8 22 9 23 10 99 11 24 12
REMARK SMILES IDX 98 13 21 14 7 15 8 16 9 17 20 18 6 19 3 20 4 21 101 22 5 23
REMARK SMILES IDX 100 24 2 25 1 26 10 27 11 28 19 29 12 30 18 31 13 32 14 33
REMARK SMILES IDX 15 34 16 35 17 36 32 37 33 38 34 39 35 40 36 41 37 43 38 44
REMARK SMILES IDX 39 45 97 46 40 47 96 48 41 49 42 50 43 51 90 52 44 53 95 54
REMARK SMILES IDX 89 55 91 56 45 57 94 58 88 59 87 60 46 62 76 63 57 64 75 65
REMARK SMILES IDX 58 66 61 67 74 68 92 69 59 70 60 71 73 73 93 74 62 75 47 76
REMARK SMILES IDX 48 77 56 78 49 79 55 80 50 81 51 82 52 83 53 84 54 85 77 86
REMARK SMILES IDX 78 87 86 88 79 89 85 90 80 91 81 92 82 93 83 94 84 95 63 96
REMARK SMILES IDX 64 97 72 98 65 99 71 100 66 101 67 102 68 103 69 104 70 105
REMARK H PARENT 28 7 35 42 91 61 61 72
REMARK Flexibility Score: inf
ROOT
ATOM      1  C   UNL A   1      42.444  24.411  27.000  1.00  0.00     0.002 C 
ENDROOT
BRANCH   1   2
ATOM      2  C   UNL A   1      41.431  25.255  26.212  1.00  0.00     0.021 C 
BRANCH   2   3
ATOM      3  C   UNL A   1      39.991  24.764  26.371  1.00  0.00     0.116 C 
BRANCH   3   4
ATOM      4  N   UNL A   1      39.984  23.327  26.561  1.00  0.00    -0.352 N 
ATOM      5  C   UNL A   1      39.043  22.363  26.315  1.00  0.00     0.251 C 
ATOM      6  O   UNL A   1      39.325  21.205  26.631  1.00  0.00    -0.269 OA
ATOM      7  H   UNL A   1      40.821  22.974  26.941  1.00  0.00     0.163 HD
BRANCH   5   8
ATOM      8  C   UNL A   1      37.749  22.632  25.628  1.00  0.00     0.039 A 
ATOM      9  C   UNL A   1      35.178  23.150  24.570  1.00  0.00     0.060 A 
ATOM     10  C   UNL A   1      35.596  23.749  25.761  1.00  0.00     0.029 A 
ATOM     11  C   UNL A   1      36.088  22.349  23.877  1.00  0.00     0.029 A 
ATOM     12  C   UNL A   1      36.855  23.477  26.297  1.00  0.00     0.016 A 
ATOM     13  C   UNL A   1      37.377  22.127  24.380  1.00  0.00     0.016 A 
BRANCH   9  14
ATOM     14  N   UNL A   1      33.891  23.374  24.112  1.00  0.00    -0.257 N 
ATOM     15  C   UNL A   1      33.156  22.464  23.234  1.00  0.00     0.144 C 
ATOM     16  C   UNL A   1      31.875  23.258  22.938  1.00  0.00     0.091 C 
ATOM     17  C   UNL A   1      32.269  24.592  23.507  1.00  0.00     0.071 C 
ATOM     18  N   UNL A   1      33.384  24.630  24.165  1.00  0.00    -0.176 NA
BRANCH  15  19
ATOM     19  C   UNL A   1      32.892  21.129  23.909  1.00  0.00    -0.023 A 
ATOM     20  C   UNL A   1      32.480  18.619  25.137  1.00  0.00     0.118 A 
ATOM     21  C   UNL A   1      32.342  18.766  23.756  1.00  0.00     0.047 A 
ATOM     22  C   UNL A   1      32.836  19.724  25.907  1.00  0.00     0.047 A 
ATOM     23  C   UNL A   1      32.537  20.009  23.145  1.00  0.00     0.010 A 
ATOM     24  C   UNL A   1      33.040  20.966  25.297  1.00  0.00     0.010 A 
BRANCH  20  25
ATOM     25  O   UNL A   1      32.281  17.350  25.607  1.00  0.00    -0.497 OA
ATOM     26  C   UNL A   1      32.959  16.307  24.917  1.00  0.00     0.278 C 
ENDBRANCH  20  25
ENDBRANCH  15  19
BRANCH  17  27
ATOM     27  C   UNL A   1      31.439  25.784  23.313  1.00  0.00    -0.002 A 
ATOM     28  C   UNL A   1      30.299  25.936  24.108  1.00  0.00     0.011 A 
ATOM     29  C   UNL A   1      31.752  26.707  22.314  1.00  0.00     0.011 A 
ATOM     30  C   UNL A   1      29.461  27.033  23.910  1.00  0.00     0.021 A 
ATOM     31  C   UNL A   1      30.900  27.791  22.096  1.00  0.00     0.021 A 
ATOM     32  C   UNL A   1      29.757  27.944  22.890  1.00  0.00     0.067 A 
BRANCH  32  33
ATOM     33  S   UNL A   1      28.657  29.312  22.608  1.00  0.00     0.175 S 
ATOM     34  C   UNL A   1      29.205  30.555  23.751  1.00  0.00     0.163 C 
ATOM     35  O   UNL A   1      28.906  29.782  21.261  1.00  0.00    -0.224 OA
ATOM     36  O   UNL A   1      27.329  28.899  23.023  1.00  0.00    -0.224 OA
ENDBRANCH  32  33
ENDBRANCH  17  27
ENDBRANCH   9  14
ENDBRANCH   5   8
ENDBRANCH   3   4
ENDBRANCH   2   3
ENDBRANCH   1   2
BRANCH   1  37
ATOM     37  C   UNL A   1      43.843  25.029  27.114  1.00  0.00     0.002 C 
BRANCH  37  38
ATOM     38  C   UNL A   1      44.897  24.406  26.195  1.00  0.00     0.021 C 
BRANCH  38  39
ATOM     39  C   UNL A   1      46.241  24.150  26.869  1.00  0.00     0.116 C 
BRANCH  39  40
ATOM     40  N   UNL A   1      47.351  24.387  25.959  1.00  0.00    -0.352 N 
ATOM     41  C   UNL A   1      47.837  25.578  25.480  1.00  0.00     0.251 C 
ATOM     42  H   UNL A   1      47.818  23.580  25.642  1.00  0.00     0.163 HD
ATOM     43  O   UNL A   1      48.625  25.588  24.540  1.00  0.00    -0.269 OA
BRANCH  41  44
ATOM     44  C   UNL A   1      47.397  26.847  26.097  1.00  0.00     0.039 A 
ATOM     45  C   UNL A   1      47.881  27.192  27.361  1.00  0.00     0.014 A 
ATOM     46  C   UNL A   1      46.497  27.686  25.434  1.00  0.00     0.014 A 
ATOM     47  C   UNL A   1      47.500  28.404  27.940  1.00  0.00     0.010 A 
ATOM     48  C   UNL A   1      46.171  28.923  25.981  1.00  0.00     0.010 A 
ATOM     49  C   UNL A   1      46.660  29.290  27.243  1.00  0.00    -0.014 A 
BRANCH  49  50
ATOM     50  C   UNL A   1      46.274  30.600  27.821  1.00  0.00     0.031 A 
ATOM     51  C   UNL A   1      47.197  31.782  27.696  1.00  0.00     0.074 A 
ATOM     52  C   UNL A   1      45.124  30.712  28.513  1.00  0.00     0.049 A 
ATOM     53  N   UNL A   1      47.058  32.991  28.174  1.00  0.00    -0.248 NA
ATOM     54  C   UNL A   1      48.450  31.566  26.956  1.00  0.00     0.031 C 
ATOM     55  C   UNL A   1      44.159  29.632  28.732  1.00  0.00     0.029 A 
ATOM     56  N   UNL A   1      44.572  31.788  29.162  1.00  0.00    -0.354 N 
ATOM     57  C   UNL A   1      48.213  33.675  27.809  1.00  0.00     0.074 A 
ATOM     58  C   UNL A   1      49.061  32.730  27.117  1.00  0.00     0.031 C 
ATOM     59  C   UNL A   1      43.118  30.110  29.434  1.00  0.00     0.029 A 
ATOM     60  C   UNL A   1      43.359  31.516  29.748  1.00  0.00     0.049 A 
ATOM     61  H   UNL A   1      45.004  32.673  29.202  1.00  0.00     0.167 HD
ATOM     62  C   UNL A   1      48.532  34.976  28.017  1.00  0.00     0.031 A 
ATOM     63  C   UNL A   1      42.533  32.307  30.459  1.00  0.00     0.031 A 
ATOM     64  C   UNL A   1      47.684  35.913  28.704  1.00  0.00     0.049 A 
ATOM     65  C   UNL A   1      42.912  33.742  30.692  1.00  0.00     0.074 A 
ATOM     66  C   UNL A   1      47.891  37.264  28.923  1.00  0.00     0.029 A 
ATOM     67  N   UNL A   1      46.468  35.595  29.291  1.00  0.00    -0.354 N 
ATOM     68  N   UNL A   1      43.983  34.386  30.292  1.00  0.00    -0.248 NA
ATOM     69  C   UNL A   1      41.967  34.559  31.465  1.00  0.00     0.031 C 
ATOM     70  C   UNL A   1      46.822  37.751  29.684  1.00  0.00     0.029 A 
ATOM     71  C   UNL A   1      45.923  36.717  29.893  1.00  0.00     0.049 A 
ATOM     72  H   UNL A   1      46.052  34.702  29.281  1.00  0.00     0.167 HD
ATOM     73  C   UNL A   1      43.829  35.693  30.744  1.00  0.00     0.074 A 
ATOM     74  C   UNL A   1      42.558  35.747  31.439  1.00  0.00     0.031 C 
ATOM     75  C   UNL A   1      44.662  36.752  30.591  1.00  0.00     0.031 A 
BRANCH  62  76
ATOM     76  C   UNL A   1      49.870  35.443  27.504  1.00  0.00    -0.014 A 
ATOM     77  C   UNL A   1      50.025  35.890  26.178  1.00  0.00     0.010 A 
ATOM     78  C   UNL A   1      50.991  35.419  28.352  1.00  0.00     0.010 A 
ATOM     79  C   UNL A   1      51.288  36.237  25.691  1.00  0.00     0.020 A 
ATOM     80  C   UNL A   1      52.251  35.795  27.878  1.00  0.00     0.020 A 
ATOM     81  C   UNL A   1      52.396  36.174  26.541  1.00  0.00     0.054 A 
BRANCH  81  82
ATOM     82  S   UNL A   1      54.029  36.599  25.878  1.00  0.00     0.124 S 
ATOM     83  O   UNL A   1      54.008  38.058  25.942  1.00  0.00    -0.237 OA
ATOM     84  O   UNL A   1      54.939  35.944  26.812  1.00  0.00    -0.237 OA
ATOM     85  O   UNL A   1      54.012  36.035  24.529  1.00  0.00    -0.744 OA
ENDBRANCH  81  82
ENDBRANCH  62  76
BRANCH  63  86
ATOM     86  C   UNL A   1      41.244  31.760  30.959  1.00  0.00    -0.014 A 
ATOM     87  C   UNL A   1      40.099  31.795  30.145  1.00  0.00     0.010 A 
ATOM     88  C   UNL A   1      41.167  31.153  32.226  1.00  0.00     0.010 A 
ATOM     89  C   UNL A   1      38.898  31.232  30.586  1.00  0.00     0.020 A 
ATOM     90  C   UNL A   1      39.974  30.568  32.661  1.00  0.00     0.020 A 
ATOM     91  C   UNL A   1      38.846  30.615  31.839  1.00  0.00     0.054 A 
BRANCH  91  92
ATOM     92  S   UNL A   1      37.300  29.815  32.354  1.00  0.00     0.124 S 
ATOM     93  O   UNL A   1      36.706  30.830  33.219  1.00  0.00    -0.237 OA
ATOM     94  O   UNL A   1      36.622  29.591  31.080  1.00  0.00    -0.237 OA
ATOM     95  O   UNL A   1      37.754  28.601  33.029  1.00  0.00    -0.744 OA
ENDBRANCH  91  92
ENDBRANCH  63  86
BRANCH  75  96
ATOM     96  C   UNL A   1      44.216  38.069  31.167  1.00  0.00    -0.014 A 
ATOM     97  C   UNL A   1      43.942  39.171  30.338  1.00  0.00     0.010 A 
ATOM     98  C   UNL A   1      44.022  38.189  32.555  1.00  0.00     0.010 A 
ATOM     99  C   UNL A   1      43.506  40.378  30.890  1.00  0.00     0.020 A 
ATOM    100  C   UNL A   1      43.561  39.386  33.109  1.00  0.00     0.020 A 
ATOM    101  C   UNL A   1      43.320  40.478  32.273  1.00  0.00     0.054 A 
BRANCH 101 102
ATOM    102  S   UNL A   1      42.710  42.042  32.962  1.00  0.00     0.124 S 
ATOM    103  O   UNL A   1      41.807  41.579  34.012  1.00  0.00    -0.237 OA
ATOM    104  O   UNL A   1      43.935  42.689  33.424  1.00  0.00    -0.237 OA
ATOM    105  O   UNL A   1      42.062  42.691  31.824  1.00  0.00    -0.744 OA
ENDBRANCH 101 102
ENDBRANCH  75  96
ENDBRANCH  49  50
ENDBRANCH  41  44
ENDBRANCH  39  40
ENDBRANCH  38  39
ENDBRANCH  37  38
ENDBRANCH   1  37
TORSDOF 21
ENDMDL
MODEL 2
REMARK VINA RESULT:     -10.4      7.598     13.088
REMARK SMILES COc1ccc([C@H]2CC(c3ccc(S(C)(=O)=O)cc3)=NN2c2ccc(C(=O)NCCCCCCNC(=O)c3ccc(-c4c5nc(c(-c6ccc(S(=O)(=O)[O-])cc6)c6ccc([nH]6)c(-c6ccc(S(=O)(=O)[O-])cc6)c6nc(c(-c7ccc(S(=O)(=O)[O-])cc7)c7ccc4[nH]7)C=C6)C=C5)cc3)cc2)cc1
REMARK SMILES IDX 31 1 30 2 29 3 28 4 26 5 27 6 25 8 22 9 23 10 99 11 24 12
REMARK SMILES IDX 98 13 21 14 7 15 8 16 9 17 20 18 6 19 3 20 4 21 101 22 5 23
REMARK SMILES IDX 100 24 2 25 1 26 10 27 11 28 19 29 12 30 18 31 13 32 14 33
REMARK SMILES IDX 15 34 16 35 17 36 32 37 33 38 34 39 35 40 36 41 37 43 38 44
REMARK SMILES IDX 39 45 97 46 40 47 96 48 41 49 42 50 43 51 90 52 44 53 95 54
REMARK SMILES IDX 89 55 91 56 45 57 94 58 88 59 87 60 46 62 76 63 57 64 75 65
REMARK SMILES IDX 58 66 61 67 74 68 92 69 59 70 60 71 73 73 93 74 62 75 47 76
REMARK SMILES IDX 48 77 56 78 49 79 55 80 50 81 51 82 52 83 53 84 54 85 77 86
REMARK SMILES IDX 78 87 86 88 79 89 85 90 80 91 81 92 82 93 83 94 84 95 63 96
REMARK SMILES IDX 64 97 72 98 65 99 71 100 66 101 67 102 68 103 69 104 70 105
REMARK H PARENT 28 7 35 42 91 61 61 72
REMARK Flexibility Score: inf
ROOT
ATOM      1  C   UNL A   1      51.700  24.476  38.020  1.00  0.00     0.002 C 
ENDROOT
BRANCH   1   2
ATOM      2  C   UNL A   1      51.154  23.634  39.182  1.00  0.00     0.021 C 
BRANCH   2   3
ATOM      3  C   UNL A   1      50.558  22.301  38.726  1.00  0.00     0.116 C 
BRANCH   3   4
ATOM      4  N   UNL A   1      49.384  21.996  39.520  1.00  0.00    -0.352 N 
ATOM      5  C   UNL A   1      48.057  22.296  39.367  1.00  0.00     0.251 C 
ATOM      6  O   UNL A   1      47.287  21.923  40.255  1.00  0.00    -0.269 OA
ATOM      7  H   UNL A   1      49.579  21.468  40.329  1.00  0.00     0.163 HD
BRANCH   5   8
ATOM      8  C   UNL A   1      47.500  22.975  38.164  1.00  0.00     0.039 A 
ATOM      9  C   UNL A   1      46.584  24.090  35.730  1.00  0.00     0.060 A 
ATOM     10  C   UNL A   1      46.782  22.713  35.857  1.00  0.00     0.029 A 
ATOM     11  C   UNL A   1      46.779  24.893  36.857  1.00  0.00     0.029 A 
ATOM     12  C   UNL A   1      47.255  22.163  37.050  1.00  0.00     0.016 A 
ATOM     13  C   UNL A   1      47.190  24.335  38.075  1.00  0.00     0.016 A 
BRANCH   9  14
ATOM     14  N   UNL A   1      46.197  24.611  34.509  1.00  0.00    -0.257 N 
ATOM     15  C   UNL A   1      44.927  24.313  33.847  1.00  0.00     0.144 C 
ATOM     16  C   UNL A   1      45.085  25.027  32.496  1.00  0.00     0.091 C 
ATOM     17  C   UNL A   1      46.547  25.369  32.563  1.00  0.00     0.071 C 
ATOM     18  N   UNL A   1      47.140  25.143  33.692  1.00  0.00    -0.176 NA
BRANCH  15  19
ATOM     19  C   UNL A   1      43.745  24.819  34.657  1.00  0.00    -0.023 A 
ATOM     20  C   UNL A   1      41.580  25.717  36.234  1.00  0.00     0.118 A 
ATOM     21  C   UNL A   1      41.628  24.399  35.777  1.00  0.00     0.047 A 
ATOM     22  C   UNL A   1      42.620  26.586  35.914  1.00  0.00     0.047 A 
ATOM     23  C   UNL A   1      42.694  23.952  34.989  1.00  0.00     0.010 A 
ATOM     24  C   UNL A   1      43.692  26.140  35.133  1.00  0.00     0.010 A 
BRANCH  20  25
ATOM     25  O   UNL A   1      40.496  26.021  37.010  1.00  0.00    -0.497 OA
ATOM     26  C   UNL A   1      40.071  25.018  37.924  1.00  0.00     0.278 C 
ENDBRANCH  20  25
ENDBRANCH  15  19
BRANCH  17  27
ATOM     27  C   UNL A   1      47.261  25.916  31.406  1.00  0.00    -0.002 A 
ATOM     28  C   UNL A   1      48.428  26.652  31.634  1.00  0.00     0.011 A 
ATOM     29  C   UNL A   1      46.747  25.757  30.119  1.00  0.00     0.011 A 
ATOM     30  C   UNL A   1      49.100  27.230  30.557  1.00  0.00     0.021 A 
ATOM     31  C   UNL A   1      47.403  26.358  29.043  1.00  0.00     0.021 A 
ATOM     32  C   UNL A   1      48.571  27.095  29.269  1.00  0.00     0.067 A 
BRANCH  32  33
ATOM     33  S   UNL A   1      49.403  27.879  27.908  1.00  0.00     0.175 S 
ATOM     34  C   UNL A   1      49.669  29.545  28.460  1.00  0.00     0.163 C 
ATOM     35  O   UNL A   1      50.690  27.229  27.771  1.00  0.00    -0.224 OA
ATOM     36  O   UNL A   1      48.471  27.936  26.797  1.00  0.00    -0.224 OA
ENDBRANCH  32  33
ENDBRANCH  17  27
ENDBRANCH   9  14
ENDBRANCH   5   8
ENDBRANCH   3   4
ENDBRANCH   2   3
ENDBRANCH   1   2
BRANCH   1  37
ATOM     37  C   UNL A   1      50.680  24.785  36.918  1.00  0.00     0.002 C 
BRANCH  37  38
ATOM     38  C   UNL A   1      50.929  26.091  36.158  1.00  0.00     0.021 C 
BRANCH  38  39
ATOM     39  C   UNL A   1      49.779  27.090  36.237  1.00  0.00     0.116 C 
BRANCH  39  40
ATOM     40  N   UNL A   1      49.749  27.771  37.521  1.00  0.00    -0.352 N 
ATOM     41  C   UNL A   1      48.928  28.788  37.942  1.00  0.00     0.251 C 
ATOM     42  H   UNL A   1      50.409  27.458  38.182  1.00  0.00     0.163 HD
ATOM     43  O   UNL A   1      49.191  29.405  38.969  1.00  0.00    -0.269 OA
BRANCH  41  44
ATOM     44  C   UNL A   1      47.735  29.140  37.144  1.00  0.00     0.039 A 
ATOM     45  C   UNL A   1      46.514  28.532  37.443  1.00  0.00     0.014 A 
ATOM     46  C   UNL A   1      47.827  30.060  36.094  1.00  0.00     0.014 A 
ATOM     47  C   UNL A   1      45.373  28.882  36.718  1.00  0.00     0.010 A 
ATOM     48  C   UNL A   1      46.678  30.457  35.420  1.00  0.00     0.010 A 
ATOM     49  C   UNL A   1      45.442  29.865  35.716  1.00  0.00    -0.014 A 
BRANCH  49  50
ATOM     50  C   UNL A   1      44.234  30.281  34.962  1.00  0.00     0.031 A 
ATOM     51  C   UNL A   1      43.947  29.688  33.609  1.00  0.00     0.074 A 
ATOM     52  C   UNL A   1      43.430  31.238  35.463  1.00  0.00     0.049 A 
ATOM     53  N   UNL A   1      42.974  29.959  32.779  1.00  0.00    -0.248 NA
ATOM     54  C   UNL A   1      44.896  28.676  33.117  1.00  0.00     0.031 C 
ATOM     55  C   UNL A   1      43.618  31.913  36.750  1.00  0.00     0.029 A 
ATOM     56  N   UNL A   1      42.293  31.810  34.950  1.00  0.00    -0.354 N 
ATOM     57  C   UNL A   1      43.200  29.165  31.660  1.00  0.00     0.074 A 
ATOM     58  C   UNL A   1      44.432  28.443  31.898  1.00  0.00     0.031 C 
ATOM     59  C   UNL A   1      42.611  32.782  36.939  1.00  0.00     0.029 A 
ATOM     60  C   UNL A   1      41.731  32.755  35.775  1.00  0.00     0.049 A 
ATOM     61  H   UNL A   1      41.916  31.566  34.074  1.00  0.00     0.167 HD
ATOM     62  C   UNL A   1      42.444  29.034  30.543  1.00  0.00     0.031 A 
ATOM     63  C   UNL A   1      40.631  33.515  35.613  1.00  0.00     0.031 A 
ATOM     64  C   UNL A   1      41.219  29.751  30.311  1.00  0.00     0.049 A 
ATOM     65  C   UNL A   1      39.815  33.367  34.360  1.00  0.00     0.074 A 
ATOM     66  C   UNL A   1      40.353  29.654  29.237  1.00  0.00     0.029 A 
ATOM     67  N   UNL A   1      40.689  30.706  31.167  1.00  0.00    -0.354 N 
ATOM     68  N   UNL A   1      40.015  32.571  33.336  1.00  0.00    -0.248 NA
ATOM     69  C   UNL A   1      38.621  34.215  34.244  1.00  0.00     0.031 C 
ATOM     70  C   UNL A   1      39.324  30.585  29.421  1.00  0.00     0.029 A 
ATOM     71  C   UNL A   1      39.520  31.224  30.635  1.00  0.00     0.049 A 
ATOM     72  H   UNL A   1      41.086  30.976  32.027  1.00  0.00     0.167 HD
ATOM     73  C   UNL A   1      38.956  32.804  32.465  1.00  0.00     0.074 A 
ATOM     74  C   UNL A   1      38.116  33.808  33.086  1.00  0.00     0.031 C 
ATOM     75  C   UNL A   1      38.701  32.232  31.262  1.00  0.00     0.031 A 
BRANCH  62  76
ATOM     76  C   UNL A   1      42.947  28.088  29.483  1.00  0.00    -0.014 A 
ATOM     77  C   UNL A   1      42.577  26.729  29.485  1.00  0.00     0.010 A 
ATOM     78  C   UNL A   1      43.814  28.557  28.481  1.00  0.00     0.010 A 
ATOM     79  C   UNL A   1      43.120  25.846  28.549  1.00  0.00     0.020 A 
ATOM     80  C   UNL A   1      44.336  27.683  27.523  1.00  0.00     0.020 A 
ATOM     81  C   UNL A   1      44.007  26.326  27.581  1.00  0.00     0.054 A 
BRANCH  81  82
ATOM     82  S   UNL A   1      44.722  25.155  26.396  1.00  0.00     0.124 S 
ATOM     83  O   UNL A   1      45.691  25.993  25.694  1.00  0.00    -0.237 OA
ATOM     84  O   UNL A   1      45.294  24.127  27.261  1.00  0.00    -0.237 OA
ATOM     85  O   UNL A   1      43.575  24.726  25.598  1.00  0.00    -0.744 OA
ENDBRANCH  81  82
ENDBRANCH  62  76
BRANCH  63  86
ATOM     86  C   UNL A   1      40.220  34.450  36.694  1.00  0.00    -0.014 A 
ATOM     87  C   UNL A   1      39.408  33.997  37.747  1.00  0.00     0.010 A 
ATOM     88  C   UNL A   1      40.682  35.779  36.706  1.00  0.00     0.010 A 
ATOM     89  C   UNL A   1      39.064  34.854  38.796  1.00  0.00     0.020 A 
ATOM     90  C   UNL A   1      40.359  36.633  37.764  1.00  0.00     0.020 A 
ATOM     91  C   UNL A   1      39.549  36.165  38.801  1.00  0.00     0.054 A 
BRANCH  91  92
ATOM     92  S   UNL A   1      39.162  37.234  40.217  1.00  0.00     0.124 S 
ATOM     93  O   UNL A   1      38.440  38.331  39.580  1.00  0.00    -0.237 OA
ATOM     94  O   UNL A   1      38.361  36.355  41.065  1.00  0.00    -0.237 OA
ATOM     95  O   UNL A   1      40.476  37.576  40.755  1.00  0.00    -0.744 OA
ENDBRANCH  91  92
ENDBRANCH  63  86
BRANCH  75  96
ATOM     96  C   UNL A   1      37.449  32.661  30.545  1.00  0.00    -0.014 A 
ATOM     97  C   UNL A   1      36.198  32.111  30.871  1.00  0.00     0.010 A 
ATOM     98  C   UNL A   1      37.522  33.669  29.565  1.00  0.00     0.010 A 
ATOM     99  C   UNL A   1      35.044  32.541  30.210  1.00  0.00     0.020 A 
ATOM    100  C   UNL A   1      36.368  34.119  28.921  1.00  0.00     0.020 A 
ATOM    101  C   UNL A   1      35.137  33.542  29.238  1.00  0.00     0.054 A 
BRANCH 101 102
ATOM    102  S   UNL A   1      33.619  34.115  28.427  1.00  0.00     0.124 S 
ATOM    103  O   UNL A   1      34.120  35.183  27.565  1.00  0.00    -0.237 OA
ATOM    104  O   UNL A   1      33.151  32.916  27.736  1.00  0.00    -0.237 OA
ATOM    105  O   UNL A   1      32.778  34.554  29.538  1.00  0.00    -0.744 OA
ENDBRANCH 101 102
ENDBRANCH  75  96
ENDBRANCH  49  50
ENDBRANCH  41  44
ENDBRANCH  39  40
ENDBRANCH  38  39
ENDBRANCH  37  38
ENDBRANCH   1  37
TORSDOF 21
ENDMDL
MODEL 3
REMARK VINA RESULT:     -10.4      6.250     14.120
REMARK SMILES COc1ccc([C@H]2CC(c3ccc(S(C)(=O)=O)cc3)=NN2c2ccc(C(=O)NCCCCCCNC(=O)c3ccc(-c4c5nc(c(-c6ccc(S(=O)(=O)[O-])cc6)c6ccc([nH]6)c(-c6ccc(S(=O)(=O)[O-])cc6)c6nc(c(-c7ccc(S(=O)(=O)[O-])cc7)c7ccc4[nH]7)C=C6)C=C5)cc3)cc2)cc1
REMARK SMILES IDX 31 1 30 2 29 3 28 4 26 5 27 6 25 8 22 9 23 10 99 11 24 12
REMARK SMILES IDX 98 13 21 14 7 15 8 16 9 17 20 18 6 19 3 20 4 21 101 22 5 23
REMARK SMILES IDX 100 24 2 25 1 26 10 27 11 28 19 29 12 30 18 31 13 32 14 33
REMARK SMILES IDX 15 34 16 35 17 36 32 37 33 38 34 39 35 40 36 41 37 43 38 44
REMARK SMILES IDX 39 45 97 46 40 47 96 48 41 49 42 50 43 51 90 52 44 53 95 54
REMARK SMILES IDX 89 55 91 56 45 57 94 58 88 59 87 60 46 62 76 63 57 64 75 65
REMARK SMILES IDX 58 66 61 67 74 68 92 69 59 70 60 71 73 73 93 74 62 75 47 76
REMARK SMILES IDX 48 77 56 78 49 79 55 80 50 81 51 82 52 83 53 84 54 85 77 86
REMARK SMILES IDX 78 87 86 88 79 89 85 90 80 91 81 92 82 93 83 94 84 95 63 96
REMARK SMILES IDX 64 97 72 98 65 99 71 100 66 101 67 102 68 103 69 104 70 105
REMARK H PARENT 28 7 35 42 91 61 61 72
REMARK Flexibility Score: inf
ROOT
ATOM      1  C   UNL A   1      37.430  33.369  29.088  1.00  0.00     0.002 C 
ENDROOT
BRANCH   1   2
ATOM      2  C   UNL A   1      38.318  34.422  29.768  1.00  0.00     0.021 C 
BRANCH   2   3
ATOM      3  C   UNL A   1      39.813  34.156  29.579  1.00  0.00     0.116 C 
BRANCH   3   4
ATOM      4  N   UNL A   1      40.442  35.315  28.978  1.00  0.00    -0.352 N 
ATOM      5  C   UNL A   1      41.752  35.681  28.818  1.00  0.00     0.251 C 
ATOM      6  O   UNL A   1      41.972  36.774  28.291  1.00  0.00    -0.269 OA
ATOM      7  H   UNL A   1      39.802  35.967  28.611  1.00  0.00     0.163 HD
BRANCH   5   8
ATOM      8  C   UNL A   1      42.902  34.805  29.176  1.00  0.00     0.039 A 
ATOM      9  C   UNL A   1      45.165  33.162  29.601  1.00  0.00     0.060 A 
ATOM     10  C   UNL A   1      45.227  34.257  28.735  1.00  0.00     0.029 A 
ATOM     11  C   UNL A   1      43.979  32.943  30.307  1.00  0.00     0.029 A 
ATOM     12  C   UNL A   1      44.106  35.056  28.507  1.00  0.00     0.016 A 
ATOM     13  C   UNL A   1      42.872  33.784  30.130  1.00  0.00     0.016 A 
BRANCH   9  14
ATOM     14  N   UNL A   1      46.269  32.340  29.738  1.00  0.00    -0.257 N 
ATOM     15  C   UNL A   1      47.563  32.774  30.266  1.00  0.00     0.144 C 
ATOM     16  C   UNL A   1      48.435  31.526  30.063  1.00  0.00     0.091 C 
ATOM     17  C   UNL A   1      47.511  30.711  29.202  1.00  0.00     0.071 C 
ATOM     18  N   UNL A   1      46.312  31.174  29.047  1.00  0.00    -0.176 NA
BRANCH  15  19
ATOM     19  C   UNL A   1      47.457  33.201  31.720  1.00  0.00    -0.023 A 
ATOM     20  C   UNL A   1      47.182  33.947  34.431  1.00  0.00     0.118 A 
ATOM     21  C   UNL A   1      46.409  34.559  33.443  1.00  0.00     0.047 A 
ATOM     22  C   UNL A   1      48.087  32.952  34.067  1.00  0.00     0.047 A 
ATOM     23  C   UNL A   1      46.547  34.198  32.099  1.00  0.00     0.010 A 
ATOM     24  C   UNL A   1      48.220  32.582  32.724  1.00  0.00     0.010 A 
BRANCH  20  25
ATOM     25  O   UNL A   1      46.938  34.376  35.706  1.00  0.00    -0.497 OA
ATOM     26  C   UNL A   1      46.503  33.390  36.633  1.00  0.00     0.278 C 
ENDBRANCH  20  25
ENDBRANCH  15  19
BRANCH  17  27
ATOM     27  C   UNL A   1      47.953  29.468  28.566  1.00  0.00    -0.002 A 
ATOM     28  C   UNL A   1      47.078  28.826  27.683  1.00  0.00     0.011 A 
ATOM     29  C   UNL A   1      49.192  28.912  28.887  1.00  0.00     0.011 A 
ATOM     30  C   UNL A   1      47.449  27.614  27.103  1.00  0.00     0.021 A 
ATOM     31  C   UNL A   1      49.554  27.684  28.328  1.00  0.00     0.021 A 
ATOM     32  C   UNL A   1      48.678  27.040  27.445  1.00  0.00     0.067 A 
BRANCH  32  33
ATOM     33  S   UNL A   1      49.123  25.469  26.742  1.00  0.00     0.175 S 
ATOM     34  C   UNL A   1      50.779  25.188  27.315  1.00  0.00     0.163 C 
ATOM     35  O   UNL A   1      48.254  24.478  27.344  1.00  0.00    -0.224 OA
ATOM     36  O   UNL A   1      49.185  25.634  25.302  1.00  0.00    -0.224 OA
ENDBRANCH  32  33
ENDBRANCH  17  27
ENDBRANCH   9  14
ENDBRANCH   5   8
ENDBRANCH   3   4
ENDBRANCH   2   3
ENDBRANCH   1   2
BRANCH   1  37
ATOM     37  C   UNL A   1      35.961  33.777  28.929  1.00  0.00     0.002 C 
BRANCH  37  38
ATOM     38  C   UNL A   1      35.158  32.921  27.945  1.00  0.00     0.021 C 
BRANCH  38  39
ATOM     39  C   UNL A   1      34.136  32.002  28.605  1.00  0.00     0.116 C 
BRANCH  39  40
ATOM     40  N   UNL A   1      33.871  30.825  27.792  1.00  0.00    -0.352 N 
ATOM     41  C   UNL A   1      34.739  29.843  27.383  1.00  0.00     0.251 C 
ATOM     42  H   UNL A   1      32.939  30.718  27.493  1.00  0.00     0.163 HD
ATOM     43  O   UNL A   1      34.404  29.051  26.509  1.00  0.00    -0.269 OA
BRANCH  41  44
ATOM     44  C   UNL A   1      36.081  29.755  27.995  1.00  0.00     0.039 A 
ATOM     45  C   UNL A   1      36.198  29.333  29.321  1.00  0.00     0.014 A 
ATOM     46  C   UNL A   1      37.221  30.102  27.263  1.00  0.00     0.014 A 
ATOM     47  C   UNL A   1      37.463  29.213  29.899  1.00  0.00     0.010 A 
ATOM     48  C   UNL A   1      38.483  29.918  27.818  1.00  0.00     0.010 A 
ATOM     49  C   UNL A   1      38.617  29.482  29.144  1.00  0.00    -0.014 A 
BRANCH  49  50
ATOM     50  C   UNL A   1      39.973  29.322  29.725  1.00  0.00     0.031 A 
ATOM     51  C   UNL A   1      40.892  28.246  29.214  1.00  0.00     0.074 A 
ATOM     52  C   UNL A   1      40.354  30.102  30.754  1.00  0.00     0.049 A 
ATOM     53  N   UNL A   1      42.089  27.921  29.625  1.00  0.00    -0.248 NA
ATOM     54  C   UNL A   1      40.384  27.413  28.112  1.00  0.00     0.031 C 
ATOM     55  C   UNL A   1      39.542  31.160  31.361  1.00  0.00     0.029 A 
ATOM     56  N   UNL A   1      41.522  30.125  31.474  1.00  0.00    -0.354 N 
ATOM     57  C   UNL A   1      42.473  26.835  28.845  1.00  0.00     0.074 A 
ATOM     58  C   UNL A   1      41.359  26.526  27.975  1.00  0.00     0.031 C 
ATOM     59  C   UNL A   1      40.251  31.751  32.337  1.00  0.00     0.029 A 
ATOM     60  C   UNL A   1      41.548  31.090  32.453  1.00  0.00     0.049 A 
ATOM     61  H   UNL A   1      42.271  29.509  31.304  1.00  0.00     0.167 HD
ATOM     62  C   UNL A   1      43.651  26.164  28.841  1.00  0.00     0.031 A 
ATOM     63  C   UNL A   1      42.507  31.408  33.343  1.00  0.00     0.031 A 
ATOM     64  C   UNL A   1      44.757  26.475  29.707  1.00  0.00     0.049 A 
ATOM     65  C   UNL A   1      43.800  30.643  33.333  1.00  0.00     0.074 A 
ATOM     66  C   UNL A   1      46.011  25.891  29.748  1.00  0.00     0.029 A 
ATOM     67  N   UNL A   1      44.740  27.454  30.690  1.00  0.00    -0.354 N 
ATOM     68  N   UNL A   1      44.166  29.654  32.553  1.00  0.00    -0.248 NA
ATOM     69  C   UNL A   1      44.812  31.041  34.321  1.00  0.00     0.031 C 
ATOM     70  C   UNL A   1      46.735  26.485  30.789  1.00  0.00     0.029 A 
ATOM     71  C   UNL A   1      45.951  27.475  31.361  1.00  0.00     0.049 A 
ATOM     72  H   UNL A   1      43.978  28.047  30.883  1.00  0.00     0.167 HD
ATOM     73  C   UNL A   1      45.462  29.329  32.937  1.00  0.00     0.074 A 
ATOM     74  C   UNL A   1      45.817  30.232  34.014  1.00  0.00     0.031 C 
ATOM     75  C   UNL A   1      46.285  28.373  32.439  1.00  0.00     0.031 A 
BRANCH  62  76
ATOM     76  C   UNL A   1      43.782  25.014  27.876  1.00  0.00    -0.014 A 
ATOM     77  C   UNL A   1      43.369  23.716  28.231  1.00  0.00     0.010 A 
ATOM     78  C   UNL A   1      44.341  25.230  26.604  1.00  0.00     0.010 A 
ATOM     79  C   UNL A   1      43.576  22.644  27.359  1.00  0.00     0.020 A 
ATOM     80  C   UNL A   1      44.522  24.165  25.716  1.00  0.00     0.020 A 
ATOM     81  C   UNL A   1      44.164  22.873  26.111  1.00  0.00     0.054 A 
BRANCH  81  82
ATOM     82  S   UNL A   1      44.452  21.462  25.011  1.00  0.00     0.124 S 
ATOM     83  O   UNL A   1      45.754  20.984  25.470  1.00  0.00    -0.237 OA
ATOM     84  O   UNL A   1      43.323  20.585  25.306  1.00  0.00    -0.237 OA
ATOM     85  O   UNL A   1      44.442  22.057  23.675  1.00  0.00    -0.744 OA
ENDBRANCH  81  82
ENDBRANCH  62  76
BRANCH  63  86
ATOM     86  C   UNL A   1      42.287  32.537  34.285  1.00  0.00    -0.014 A 
ATOM     87  C   UNL A   1      41.754  32.296  35.562  1.00  0.00     0.010 A 
ATOM     88  C   UNL A   1      42.657  33.848  33.932  1.00  0.00     0.010 A 
ATOM     89  C   UNL A   1      41.596  33.344  36.474  1.00  0.00     0.020 A 
ATOM     90  C   UNL A   1      42.522  34.895  34.849  1.00  0.00     0.020 A 
ATOM     91  C   UNL A   1      41.988  34.636  36.113  1.00  0.00     0.054 A 
BRANCH  91  92
ATOM     92  S   UNL A   1      41.855  35.964  37.343  1.00  0.00     0.124 S 
ATOM     93  O   UNL A   1      41.575  35.218  38.566  1.00  0.00    -0.237 OA
ATOM     94  O   UNL A   1      43.171  36.594  37.271  1.00  0.00    -0.237 OA
ATOM     95  O   UNL A   1      40.753  36.783  36.842  1.00  0.00    -0.744 OA
ENDBRANCH  91  92
ENDBRANCH  63  86
BRANCH  75  96
ATOM     96  C   UNL A   1      47.662  28.267  33.037  1.00  0.00    -0.014 A 
ATOM     97  C   UNL A   1      48.743  28.996  32.512  1.00  0.00     0.010 A 
ATOM     98  C   UNL A   1      47.864  27.462  34.174  1.00  0.00     0.010 A 
ATOM     99  C   UNL A   1      50.008  28.902  33.098  1.00  0.00     0.020 A 
ATOM    100  C   UNL A   1      49.121  27.385  34.777  1.00  0.00     0.020 A 
ATOM    101  C   UNL A   1      50.189  28.096  34.226  1.00  0.00     0.054 A 
BRANCH 101 102
ATOM    102  S   UNL A   1      51.831  28.026  34.995  1.00  0.00     0.124 S 
ATOM    103  O   UNL A   1      52.550  29.071  34.271  1.00  0.00    -0.237 OA
ATOM    104  O   UNL A   1      51.542  28.316  36.398  1.00  0.00    -0.237 OA
ATOM    105  O   UNL A   1      52.279  26.661  34.728  1.00  0.00    -0.744 OA
ENDBRANCH 101 102
ENDBRANCH  75  96
ENDBRANCH  49  50
ENDBRANCH  41  44
ENDBRANCH  39  40
ENDBRANCH  38  39
ENDBRANCH  37  38
ENDBRANCH   1  37
TORSDOF 21
ENDMDL
