MODEL 1
REMARK VINA RESULT:     -11.2      0.000      0.000
REMARK SMILES O=C(C[C@H]1c2ccccc2CCN1C(=O)Nc1ccccc1Br)NCCCCCCNC(=O)c1ccc(-c2c3nc(c(-c4ccc(S(=O)(=O)[O-])cc4)c4ccc([nH]4)c(-c4ccc(S(=O)(=O)[O-])cc4)c4nc(c(-c5ccc(S(=O)(=O)[O-])cc5)c5ccc2[nH]5)C=C4)C=C3)cc1
REMARK SMILES IDX 27 1 26 2 25 3 24 4 1 5 2 6 3 8 4 9 5 10 13 11 6 12 10 13
REMARK SMILES IDX 12 14 7 15 9 16 11 17 8 18 14 19 15 20 16 21 17 23 18 24
REMARK SMILES IDX 22 25 19 26 21 27 23 28 20 29 28 30 29 31 30 32 31 33 32 34
REMARK SMILES IDX 33 36 34 37 35 38 93 39 36 40 92 41 37 42 38 43 39 44 86 45
REMARK SMILES IDX 40 46 91 47 85 48 87 49 41 50 90 51 84 52 83 53 42 55 72 56
REMARK SMILES IDX 53 57 71 58 54 59 57 60 70 61 88 62 55 63 56 64 69 66 89 67
REMARK SMILES IDX 58 68 43 69 44 70 52 71 45 72 51 73 46 74 47 75 48 76 49 77
REMARK SMILES IDX 50 78 73 79 74 80 82 81 75 82 81 83 76 84 77 85 78 86 79 87
REMARK SMILES IDX 80 88 59 89 60 90 68 91 61 92 67 93 62 94 63 95 64 96 65 97
REMARK SMILES IDX 66 98
REMARK H PARENT 24 7 16 22 31 35 87 54 57 65
REMARK Flexibility Score: inf
ROOT
ATOM      1  C   UNL A   1      35.693  20.153  25.023  1.00  0.00     0.002 C 
ENDROOT
BRANCH   1   2
ATOM      2  C   UNL A   1      34.402  19.422  24.626  1.00  0.00     0.021 C 
BRANCH   2   3
ATOM      3  C   UNL A   1      33.192  19.732  25.505  1.00  0.00     0.116 C 
BRANCH   3   4
ATOM      4  N   UNL A   1      32.485  20.899  25.022  1.00  0.00    -0.356 N 
ATOM      5  O   UNL A   1      32.464  22.027  27.011  1.00  0.00    -0.275 OA
ATOM      6  C   UNL A   1      32.194  21.979  25.815  1.00  0.00     0.222 C 
ATOM      7  H   UNL A   1      32.200  20.918  24.081  1.00  0.00     0.163 HD
BRANCH   6   8
ATOM      8  C   UNL A   1      31.420  23.080  25.119  1.00  0.00     0.130 C 
BRANCH   8   9
ATOM      9  C   UNL A   1      32.229  24.382  24.918  1.00  0.00     0.127 C 
ATOM     10  C   UNL A   1      33.721  24.091  24.687  1.00  0.00    -0.022 A 
ATOM     11  N   UNL A   1      31.646  25.151  23.776  1.00  0.00    -0.317 N 
ATOM     12  C   UNL A   1      34.681  24.232  25.694  1.00  0.00     0.006 A 
ATOM     13  C   UNL A   1      34.149  23.696  23.404  1.00  0.00    -0.041 A 
ATOM     14  C   UNL A   1      32.440  25.161  22.535  1.00  0.00     0.127 C 
ATOM     15  C   UNL A   1      36.018  23.902  25.442  1.00  0.00     0.000 A 
ATOM     16  C   UNL A   1      35.473  23.328  23.163  1.00  0.00     0.004 A 
ATOM     17  C   UNL A   1      33.160  23.835  22.286  1.00  0.00     0.057 C 
ATOM     18  C   UNL A   1      36.407  23.427  24.189  1.00  0.00     0.000 A 
BRANCH  11  19
ATOM     19  C   UNL A   1      30.553  25.941  24.075  1.00  0.00     0.322 C 
ATOM     20  O   UNL A   1      29.428  25.675  23.640  1.00  0.00    -0.248 OA
ATOM     21  N   UNL A   1      30.622  26.965  24.965  1.00  0.00    -0.307 N 
ATOM     22  H   UNL A   1      29.758  27.190  25.380  1.00  0.00     0.171 HD
BRANCH  21  23
ATOM     23  C   UNL A   1      31.686  27.760  25.402  1.00  0.00     0.057 A 
ATOM     24  C   UNL A   1      32.006  27.652  26.759  1.00  0.00     0.027 A 
ATOM     25  C   UNL A   1      32.475  28.571  24.566  1.00  0.00     0.041 A 
ATOM     26  C   UNL A   1      33.187  28.211  27.247  1.00  0.00     0.002 A 
ATOM     27  C   UNL A   1      33.651  29.140  25.064  1.00  0.00     0.018 A 
ATOM     28  Br  UNL A   1      32.016  28.943  22.762  1.00  0.00    -0.049 Br
ATOM     29  C   UNL A   1      34.022  28.931  26.394  1.00  0.00     0.001 A 
ENDBRANCH  21  23
ENDBRANCH  11  19
ENDBRANCH   8   9
ENDBRANCH   6   8
ENDBRANCH   3   4
ENDBRANCH   2   3
ENDBRANCH   1   2
BRANCH   1  30
ATOM     30  C   UNL A   1      36.964  19.300  25.002  1.00  0.00     0.002 C 
BRANCH  30  31
ATOM     31  C   UNL A   1      38.261  20.080  24.781  1.00  0.00     0.021 C 
BRANCH  31  32
ATOM     32  C   UNL A   1      39.137  20.227  26.021  1.00  0.00     0.116 C 
BRANCH  32  33
ATOM     33  N   UNL A   1      40.263  19.304  26.021  1.00  0.00    -0.352 N 
ATOM     34  C   UNL A   1      41.608  19.582  26.132  1.00  0.00     0.251 C 
ATOM     35  H   UNL A   1      40.032  18.352  25.929  1.00  0.00     0.163 HD
ATOM     36  O   UNL A   1      42.436  18.703  25.952  1.00  0.00    -0.269 OA
BRANCH  34  37
ATOM     37  C   UNL A   1      42.037  20.965  26.444  1.00  0.00     0.039 A 
ATOM     38  C   UNL A   1      42.295  21.312  27.773  1.00  0.00     0.014 A 
ATOM     39  C   UNL A   1      42.204  21.906  25.425  1.00  0.00     0.014 A 
ATOM     40  C   UNL A   1      42.791  22.585  28.071  1.00  0.00     0.010 A 
ATOM     41  C   UNL A   1      42.763  23.148  25.717  1.00  0.00     0.010 A 
ATOM     42  C   UNL A   1      43.065  23.500  27.042  1.00  0.00    -0.014 A 
BRANCH  42  43
ATOM     43  C   UNL A   1      43.669  24.831  27.319  1.00  0.00     0.031 A 
ATOM     44  C   UNL A   1      42.804  25.958  27.819  1.00  0.00     0.074 A 
ATOM     45  C   UNL A   1      44.970  25.050  27.037  1.00  0.00     0.049 A 
ATOM     46  N   UNL A   1      43.115  27.214  28.010  1.00  0.00    -0.248 NA
ATOM     47  C   UNL A   1      41.398  25.637  28.124  1.00  0.00     0.031 C 
ATOM     48  C   UNL A   1      45.909  24.052  26.516  1.00  0.00     0.029 A 
ATOM     49  N   UNL A   1      45.727  26.193  27.133  1.00  0.00    -0.354 N 
ATOM     50  C   UNL A   1      41.943  27.838  28.422  1.00  0.00     0.074 A 
ATOM     51  C   UNL A   1      40.906  26.831  28.425  1.00  0.00     0.031 C 
ATOM     52  C   UNL A   1      47.114  24.621  26.354  1.00  0.00     0.029 A 
ATOM     53  C   UNL A   1      47.028  26.034  26.712  1.00  0.00     0.049 A 
ATOM     54  H   UNL A   1      45.371  27.047  27.471  1.00  0.00     0.167 HD
ATOM     55  C   UNL A   1      41.752  29.131  28.774  1.00  0.00     0.031 A 
ATOM     56  C   UNL A   1      48.033  26.927  26.607  1.00  0.00     0.031 A 
ATOM     57  C   UNL A   1      42.794  30.122  28.802  1.00  0.00     0.049 A 
ATOM     58  C   UNL A   1      47.785  28.360  27.000  1.00  0.00     0.074 A 
ATOM     59  C   UNL A   1      42.712  31.438  29.225  1.00  0.00     0.029 A 
ATOM     60  N   UNL A   1      44.101  29.912  28.395  1.00  0.00    -0.354 N 
ATOM     61  N   UNL A   1      46.688  28.910  27.465  1.00  0.00    -0.248 NA
ATOM     62  C   UNL A   1      48.914  29.293  26.864  1.00  0.00     0.031 C 
ATOM     63  C   UNL A   1      43.954  32.041  29.017  1.00  0.00     0.029 A 
ATOM     64  C   UNL A   1      44.827  31.083  28.526  1.00  0.00     0.049 A 
ATOM     65  H   UNL A   1      44.459  29.058  28.060  1.00  0.00     0.167 HD
ATOM     66  C   UNL A   1      47.009  30.241  27.713  1.00  0.00     0.074 A 
ATOM     67  C   UNL A   1      48.402  30.411  27.358  1.00  0.00     0.031 C 
ATOM     68  C   UNL A   1      46.220  31.233  28.195  1.00  0.00     0.031 A 
BRANCH  55  69
ATOM     69  C   UNL A   1      40.363  29.564  29.159  1.00  0.00    -0.014 A 
ATOM     70  C   UNL A   1      40.056  29.946  30.476  1.00  0.00     0.010 A 
ATOM     71  C   UNL A   1      39.376  29.685  28.162  1.00  0.00     0.010 A 
ATOM     72  C   UNL A   1      38.783  30.427  30.793  1.00  0.00     0.020 A 
ATOM     73  C   UNL A   1      38.110  30.191  28.470  1.00  0.00     0.020 A 
ATOM     74  C   UNL A   1      37.819  30.552  29.787  1.00  0.00     0.054 A 
BRANCH  74  75
ATOM     75  S   UNL A   1      36.199  31.246  30.216  1.00  0.00     0.124 S 
ATOM     76  O   UNL A   1      36.529  32.647  30.466  1.00  0.00    -0.237 OA
ATOM     77  O   UNL A   1      35.414  30.991  29.012  1.00  0.00    -0.237 OA
ATOM     78  O   UNL A   1      35.794  30.484  31.395  1.00  0.00    -0.744 OA
ENDBRANCH  74  75
ENDBRANCH  55  69
BRANCH  56  79
ATOM     79  C   UNL A   1      49.370  26.508  26.101  1.00  0.00    -0.014 A 
ATOM     80  C   UNL A   1      50.294  25.882  26.957  1.00  0.00     0.010 A 
ATOM     81  C   UNL A   1      49.746  26.772  24.772  1.00  0.00     0.010 A 
ATOM     82  C   UNL A   1      51.581  25.572  26.508  1.00  0.00     0.020 A 
ATOM     83  C   UNL A   1      51.021  26.435  24.309  1.00  0.00     0.020 A 
ATOM     84  C   UNL A   1      51.939  25.857  25.188  1.00  0.00     0.054 A 
BRANCH  84  85
ATOM     85  S   UNL A   1      53.616  25.449  24.627  1.00  0.00     0.124 S 
ATOM     86  O   UNL A   1      53.637  23.997  24.770  1.00  0.00    -0.237 OA
ATOM     87  O   UNL A   1      53.622  25.951  23.256  1.00  0.00    -0.237 OA
ATOM     88  O   UNL A   1      54.473  26.184  25.556  1.00  0.00    -0.744 OA
ENDBRANCH  84  85
ENDBRANCH  56  79
BRANCH  68  89
ATOM     89  C   UNL A   1      46.850  32.580  28.430  1.00  0.00    -0.014 A 
ATOM     90  C   UNL A   1      46.789  33.598  27.465  1.00  0.00     0.010 A 
ATOM     91  C   UNL A   1      47.446  32.850  29.677  1.00  0.00     0.010 A 
ATOM     92  C   UNL A   1      47.331  34.858  27.734  1.00  0.00     0.020 A 
ATOM     93  C   UNL A   1      47.962  34.116  29.960  1.00  0.00     0.020 A 
ATOM     94  C   UNL A   1      47.911  35.111  28.982  1.00  0.00     0.054 A 
BRANCH  94  95
ATOM     95  S   UNL A   1      48.547  36.773  29.329  1.00  0.00     0.124 S 
ATOM     96  O   UNL A   1      47.657  37.612  28.532  1.00  0.00    -0.237 OA
ATOM     97  O   UNL A   1      48.385  36.882  30.777  1.00  0.00    -0.237 OA
ATOM     98  O   UNL A   1      49.932  36.718  28.866  1.00  0.00    -0.744 OA
ENDBRANCH  94  95
ENDBRANCH  68  89
ENDBRANCH  42  43
ENDBRANCH  34  37
ENDBRANCH  32  33
ENDBRANCH  31  32
ENDBRANCH  30  31
ENDBRANCH   1  30
TORSDOF 19
ENDMDL
MODEL 2
REMARK VINA RESULT:     -11.2      0.794      7.957
REMARK SMILES O=C(C[C@H]1c2ccccc2CCN1C(=O)Nc1ccccc1Br)NCCCCCCNC(=O)c1ccc(-c2c3nc(c(-c4ccc(S(=O)(=O)[O-])cc4)c4ccc([nH]4)c(-c4ccc(S(=O)(=O)[O-])cc4)c4nc(c(-c5ccc(S(=O)(=O)[O-])cc5)c5ccc2[nH]5)C=C4)C=C3)cc1
REMARK SMILES IDX 27 1 26 2 25 3 24 4 1 5 2 6 3 8 4 9 5 10 13 11 6 12 10 13
REMARK SMILES IDX 12 14 7 15 9 16 11 17 8 18 14 19 15 20 16 21 17 23 18 24
REMARK SMILES IDX 22 25 19 26 21 27 23 28 20 29 28 30 29 31 30 32 31 33 32 34
REMARK SMILES IDX 33 36 34 37 35 38 93 39 36 40 92 41 37 42 38 43 39 44 86 45
REMARK SMILES IDX 40 46 91 47 85 48 87 49 41 50 90 51 84 52 83 53 42 55 72 56
REMARK SMILES IDX 53 57 71 58 54 59 57 60 70 61 88 62 55 63 56 64 69 66 89 67
REMARK SMILES IDX 58 68 43 69 44 70 52 71 45 72 51 73 46 74 47 75 48 76 49 77
REMARK SMILES IDX 50 78 73 79 74 80 82 81 75 82 81 83 76 84 77 85 78 86 79 87
REMARK SMILES IDX 80 88 59 89 60 90 68 91 61 92 67 93 62 94 63 95 64 96 65 97
REMARK SMILES IDX 66 98
REMARK H PARENT 24 7 16 22 31 35 87 54 57 65
REMARK Flexibility Score: inf
ROOT
ATOM      1  C   UNL A   1      35.940  20.586  25.305  1.00  0.00     0.002 C 
ENDROOT
BRANCH   1   2
ATOM      2  C   UNL A   1      34.635  19.919  24.845  1.00  0.00     0.021 C 
BRANCH   2   3
ATOM      3  C   UNL A   1      33.586  19.737  25.941  1.00  0.00     0.116 C 
BRANCH   3   4
ATOM      4  N   UNL A   1      32.697  20.878  26.004  1.00  0.00    -0.356 N 
ATOM      5  O   UNL A   1      33.811  21.979  27.670  1.00  0.00    -0.275 OA
ATOM      6  C   UNL A   1      32.894  21.934  26.856  1.00  0.00     0.222 C 
ATOM      7  H   UNL A   1      31.916  20.896  25.408  1.00  0.00     0.163 HD
BRANCH   6   8
ATOM      8  C   UNL A   1      31.829  23.008  26.783  1.00  0.00     0.130 C 
BRANCH   8   9
ATOM      9  C   UNL A   1      32.279  24.286  26.038  1.00  0.00     0.127 C 
ATOM     10  C   UNL A   1      33.407  23.989  25.036  1.00  0.00    -0.022 A 
ATOM     11  N   UNL A   1      31.099  24.899  25.357  1.00  0.00    -0.317 N 
ATOM     12  C   UNL A   1      34.750  24.267  25.309  1.00  0.00     0.006 A 
ATOM     13  C   UNL A   1      33.077  23.444  23.780  1.00  0.00    -0.041 A 
ATOM     14  C   UNL A   1      31.062  24.766  23.890  1.00  0.00     0.127 C 
ATOM     15  C   UNL A   1      35.740  23.927  24.380  1.00  0.00     0.000 A 
ATOM     16  C   UNL A   1      34.067  23.067  22.871  1.00  0.00     0.004 A 
ATOM     17  C   UNL A   1      31.625  23.429  23.406  1.00  0.00     0.057 C 
ATOM     18  C   UNL A   1      35.402  23.306  23.178  1.00  0.00     0.000 A 
BRANCH  11  19
ATOM     19  C   UNL A   1      30.298  25.705  26.143  1.00  0.00     0.322 C 
ATOM     20  O   UNL A   1      29.189  25.327  26.532  1.00  0.00    -0.248 OA
ATOM     21  N   UNL A   1      30.734  26.891  26.642  1.00  0.00    -0.307 N 
ATOM     22  H   UNL A   1      30.265  27.173  27.461  1.00  0.00     0.171 HD
BRANCH  21  23
ATOM     23  C   UNL A   1      31.719  27.786  26.214  1.00  0.00     0.057 A 
ATOM     24  C   UNL A   1      32.812  27.941  27.074  1.00  0.00     0.027 A 
ATOM     25  C   UNL A   1      31.711  28.451  24.976  1.00  0.00     0.041 A 
ATOM     26  C   UNL A   1      33.952  28.617  26.641  1.00  0.00     0.002 A 
ATOM     27  C   UNL A   1      32.853  29.139  24.553  1.00  0.00     0.018 A 
ATOM     28  Br  UNL A   1      30.201  28.468  23.825  1.00  0.00    -0.049 Br
ATOM     29  C   UNL A   1      33.983  29.192  25.372  1.00  0.00     0.001 A 
ENDBRANCH  21  23
ENDBRANCH  11  19
ENDBRANCH   8   9
ENDBRANCH   6   8
ENDBRANCH   3   4
ENDBRANCH   2   3
ENDBRANCH   1   2
BRANCH   1  30
ATOM     30  C   UNL A   1      37.227  19.921  24.810  1.00  0.00     0.002 C 
BRANCH  30  31
ATOM     31  C   UNL A   1      38.500  20.744  25.017  1.00  0.00     0.021 C 
BRANCH  31  32
ATOM     32  C   UNL A   1      39.241  20.459  26.319  1.00  0.00     0.116 C 
BRANCH  32  33
ATOM     33  N   UNL A   1      40.234  19.404  26.176  1.00  0.00    -0.352 N 
ATOM     34  C   UNL A   1      41.604  19.513  26.085  1.00  0.00     0.251 C 
ATOM     35  H   UNL A   1      39.876  18.487  26.139  1.00  0.00     0.163 HD
ATOM     36  O   UNL A   1      42.283  18.537  25.806  1.00  0.00    -0.269 OA
BRANCH  34  37
ATOM     37  C   UNL A   1      42.240  20.833  26.302  1.00  0.00     0.039 A 
ATOM     38  C   UNL A   1      42.651  21.578  25.194  1.00  0.00     0.014 A 
ATOM     39  C   UNL A   1      42.408  21.339  27.594  1.00  0.00     0.014 A 
ATOM     40  C   UNL A   1      43.167  22.866  25.380  1.00  0.00     0.010 A 
ATOM     41  C   UNL A   1      42.856  22.646  27.771  1.00  0.00     0.010 A 
ATOM     42  C   UNL A   1      43.238  23.424  26.666  1.00  0.00    -0.014 A 
BRANCH  42  43
ATOM     43  C   UNL A   1      43.704  24.818  26.889  1.00  0.00     0.031 A 
ATOM     44  C   UNL A   1      45.143  25.179  26.629  1.00  0.00     0.074 A 
ATOM     45  C   UNL A   1      42.860  25.735  27.407  1.00  0.00     0.049 A 
ATOM     46  N   UNL A   1      45.768  26.303  26.869  1.00  0.00    -0.248 NA
ATOM     47  C   UNL A   1      45.999  24.132  26.044  1.00  0.00     0.031 C 
ATOM     48  C   UNL A   1      41.450  25.505  27.735  1.00  0.00     0.029 A 
ATOM     49  N   UNL A   1      43.070  27.044  27.766  1.00  0.00    -0.354 N 
ATOM     50  C   UNL A   1      47.090  26.090  26.498  1.00  0.00     0.074 A 
ATOM     51  C   UNL A   1      47.188  24.721  26.045  1.00  0.00     0.031 C 
ATOM     52  C   UNL A   1      40.921  26.635  28.230  1.00  0.00     0.029 A 
ATOM     53  C   UNL A   1      41.960  27.657  28.302  1.00  0.00     0.049 A 
ATOM     54  H   UNL A   1      43.934  27.502  27.651  1.00  0.00     0.167 HD
ATOM     55  C   UNL A   1      48.127  26.960  26.524  1.00  0.00     0.031 A 
ATOM     56  C   UNL A   1      41.801  28.896  28.812  1.00  0.00     0.031 A 
ATOM     57  C   UNL A   1      48.019  28.332  26.943  1.00  0.00     0.049 A 
ATOM     58  C   UNL A   1      42.977  29.838  28.833  1.00  0.00     0.074 A 
ATOM     59  C   UNL A   1      48.996  29.312  26.925  1.00  0.00     0.029 A 
ATOM     60  N   UNL A   1      46.872  28.919  27.452  1.00  0.00    -0.354 N 
ATOM     61  N   UNL A   1      44.200  29.640  28.402  1.00  0.00    -0.248 NA
ATOM     62  C   UNL A   1      42.749  31.175  29.402  1.00  0.00     0.031 C 
ATOM     63  C   UNL A   1      48.459  30.475  27.479  1.00  0.00     0.029 A 
ATOM     64  C   UNL A   1      47.127  30.238  27.782  1.00  0.00     0.049 A 
ATOM     65  H   UNL A   1      46.006  28.464  27.565  1.00  0.00     0.167 HD
ATOM     66  C   UNL A   1      44.872  30.840  28.611  1.00  0.00     0.074 A 
ATOM     67  C   UNL A   1      43.921  31.759  29.196  1.00  0.00     0.031 C 
ATOM     68  C   UNL A   1      46.163  31.152  28.339  1.00  0.00     0.031 A 
BRANCH  55  69
ATOM     69  C   UNL A   1      49.481  26.465  26.091  1.00  0.00    -0.014 A 
ATOM     70  C   UNL A   1      49.985  26.745  24.810  1.00  0.00     0.010 A 
ATOM     71  C   UNL A   1      50.301  25.794  27.019  1.00  0.00     0.010 A 
ATOM     72  C   UNL A   1      51.279  26.350  24.458  1.00  0.00     0.020 A 
ATOM     73  C   UNL A   1      51.604  25.421  26.680  1.00  0.00     0.020 A 
ATOM     74  C   UNL A   1      52.082  25.696  25.397  1.00  0.00     0.054 A 
BRANCH  74  75
ATOM     75  S   UNL A   1      53.781  25.259  24.934  1.00  0.00     0.124 S 
ATOM     76  O   UNL A   1      54.552  25.853  26.024  1.00  0.00    -0.237 OA
ATOM     77  O   UNL A   1      53.741  23.799  24.916  1.00  0.00    -0.237 OA
ATOM     78  O   UNL A   1      53.960  25.892  23.630  1.00  0.00    -0.744 OA
ENDBRANCH  74  75
ENDBRANCH  55  69
BRANCH  56  79
ATOM     79  C   UNL A   1      40.483  29.328  29.357  1.00  0.00    -0.014 A 
ATOM     80  C   UNL A   1      39.458  29.754  28.492  1.00  0.00     0.010 A 
ATOM     81  C   UNL A   1      40.259  29.360  30.745  1.00  0.00     0.010 A 
ATOM     82  C   UNL A   1      38.255  30.247  29.006  1.00  0.00     0.020 A 
ATOM     83  C   UNL A   1      39.046  29.821  31.262  1.00  0.00     0.020 A 
ATOM     84  C   UNL A   1      38.059  30.284  30.389  1.00  0.00     0.054 A 
BRANCH  84  85
ATOM     85  S   UNL A   1      36.491  30.930  31.035  1.00  0.00     0.124 S 
ATOM     86  O   UNL A   1      36.078  29.866  31.945  1.00  0.00    -0.237 OA
ATOM     87  O   UNL A   1      36.900  32.181  31.667  1.00  0.00    -0.237 OA
ATOM     88  O   UNL A   1      35.668  31.085  29.836  1.00  0.00    -0.744 OA
ENDBRANCH  84  85
ENDBRANCH  56  79
BRANCH  68  89
ATOM     89  C   UNL A   1      46.618  32.562  28.609  1.00  0.00    -0.014 A 
ATOM     90  C   UNL A   1      47.217  32.919  29.828  1.00  0.00     0.010 A 
ATOM     91  C   UNL A   1      46.509  33.525  27.588  1.00  0.00     0.010 A 
ATOM     92  C   UNL A   1      47.683  34.222  30.029  1.00  0.00     0.020 A 
ATOM     93  C   UNL A   1      46.999  34.819  27.775  1.00  0.00     0.020 A 
ATOM     94  C   UNL A   1      47.575  35.163  28.999  1.00  0.00     0.054 A 
BRANCH  94  95
ATOM     95  S   UNL A   1      48.245  36.827  29.262  1.00  0.00     0.124 S 
ATOM     96  O   UNL A   1      49.009  36.656  30.495  1.00  0.00    -0.237 OA
ATOM     97  O   UNL A   1      49.039  37.046  28.056  1.00  0.00    -0.237 OA
ATOM     98  O   UNL A   1      47.055  37.666  29.380  1.00  0.00    -0.744 OA
ENDBRANCH  94  95
ENDBRANCH  68  89
ENDBRANCH  42  43
ENDBRANCH  34  37
ENDBRANCH  32  33
ENDBRANCH  31  32
ENDBRANCH  30  31
ENDBRANCH   1  30
TORSDOF 19
ENDMDL
MODEL 3
REMARK VINA RESULT:     -11.1      5.716      8.245
REMARK SMILES O=C(C[C@H]1c2ccccc2CCN1C(=O)Nc1ccccc1Br)NCCCCCCNC(=O)c1ccc(-c2c3nc(c(-c4ccc(S(=O)(=O)[O-])cc4)c4ccc([nH]4)c(-c4ccc(S(=O)(=O)[O-])cc4)c4nc(c(-c5ccc(S(=O)(=O)[O-])cc5)c5ccc2[nH]5)C=C4)C=C3)cc1
REMARK SMILES IDX 27 1 26 2 25 3 24 4 1 5 2 6 3 8 4 9 5 10 13 11 6 12 10 13
REMARK SMILES IDX 12 14 7 15 9 16 11 17 8 18 14 19 15 20 16 21 17 23 18 24
REMARK SMILES IDX 22 25 19 26 21 27 23 28 20 29 28 30 29 31 30 32 31 33 32 34
REMARK SMILES IDX 33 36 34 37 35 38 93 39 36 40 92 41 37 42 38 43 39 44 86 45
REMARK SMILES IDX 40 46 91 47 85 48 87 49 41 50 90 51 84 52 83 53 42 55 72 56
REMARK SMILES IDX 53 57 71 58 54 59 57 60 70 61 88 62 55 63 56 64 69 66 89 67
REMARK SMILES IDX 58 68 43 69 44 70 52 71 45 72 51 73 46 74 47 75 48 76 49 77
REMARK SMILES IDX 50 78 73 79 74 80 82 81 75 82 81 83 76 84 77 85 78 86 79 87
REMARK SMILES IDX 80 88 59 89 60 90 68 91 61 92 67 93 62 94 63 95 64 96 65 97
REMARK SMILES IDX 66 98
REMARK H PARENT 24 7 16 22 31 35 87 54 57 65
REMARK Flexibility Score: inf
ROOT
ATOM      1  C   UNL A   1      38.799  21.144  25.441  1.00  0.00     0.002 C 
ENDROOT
BRANCH   1   2
ATOM      2  C   UNL A   1      37.448  21.838  25.216  1.00  0.00     0.021 C 
BRANCH   2   3
ATOM      3  C   UNL A   1      37.329  23.228  25.839  1.00  0.00     0.116 C 
BRANCH   3   4
ATOM      4  N   UNL A   1      36.362  24.036  25.125  1.00  0.00    -0.356 N 
ATOM      5  O   UNL A   1      34.662  23.794  26.634  1.00  0.00    -0.275 OA
ATOM      6  C   UNL A   1      35.097  24.279  25.595  1.00  0.00     0.222 C 
ATOM      7  H   UNL A   1      36.626  24.428  24.263  1.00  0.00     0.163 HD
BRANCH   6   8
ATOM      8  C   UNL A   1      34.237  25.123  24.678  1.00  0.00     0.130 C 
BRANCH   8   9
ATOM      9  C   UNL A   1      33.572  24.324  23.533  1.00  0.00     0.127 C 
ATOM     10  C   UNL A   1      33.084  22.947  24.014  1.00  0.00    -0.022 A 
ATOM     11  N   UNL A   1      32.448  25.126  22.963  1.00  0.00    -0.317 N 
ATOM     12  C   UNL A   1      33.792  21.767  23.764  1.00  0.00     0.006 A 
ATOM     13  C   UNL A   1      31.860  22.861  24.706  1.00  0.00    -0.041 A 
ATOM     14  C   UNL A   1      31.090  24.656  23.289  1.00  0.00     0.127 C 
ATOM     15  C   UNL A   1      33.327  20.549  24.271  1.00  0.00     0.000 A 
ATOM     16  C   UNL A   1      31.418  21.653  25.247  1.00  0.00     0.004 A 
ATOM     17  C   UNL A   1      30.990  24.082  24.703  1.00  0.00     0.057 C 
ATOM     18  C   UNL A   1      32.159  20.496  25.032  1.00  0.00     0.000 A 
BRANCH  11  19
ATOM     19  C   UNL A   1      32.799  26.076  22.023  1.00  0.00     0.322 C 
ATOM     20  O   UNL A   1      33.274  25.755  20.929  1.00  0.00    -0.248 OA
ATOM     21  N   UNL A   1      32.519  27.395  22.188  1.00  0.00    -0.307 N 
ATOM     22  H   UNL A   1      32.452  27.896  21.343  1.00  0.00     0.171 HD
BRANCH  21  23
ATOM     23  C   UNL A   1      32.309  28.176  23.329  1.00  0.00     0.057 A 
ATOM     24  C   UNL A   1      33.453  28.470  24.080  1.00  0.00     0.027 A 
ATOM     25  C   UNL A   1      31.072  28.728  23.705  1.00  0.00     0.041 A 
ATOM     26  C   UNL A   1      33.398  29.428  25.092  1.00  0.00     0.002 A 
ATOM     27  C   UNL A   1      31.021  29.678  24.730  1.00  0.00     0.018 A 
ATOM     28  Br  UNL A   1      29.434  28.239  22.879  1.00  0.00    -0.049 Br
ATOM     29  C   UNL A   1      32.188  30.051  25.398  1.00  0.00     0.001 A 
ENDBRANCH  21  23
ENDBRANCH  11  19
ENDBRANCH   8   9
ENDBRANCH   6   8
ENDBRANCH   3   4
ENDBRANCH   2   3
ENDBRANCH   1   2
BRANCH   1  30
ATOM     30  C   UNL A   1      39.652  21.718  26.577  1.00  0.00     0.002 C 
BRANCH  30  31
ATOM     31  C   UNL A   1      41.071  22.123  26.177  1.00  0.00     0.021 C 
BRANCH  31  32
ATOM     32  C   UNL A   1      41.538  23.459  26.747  1.00  0.00     0.116 C 
BRANCH  32  33
ATOM     33  N   UNL A   1      41.908  24.410  25.709  1.00  0.00    -0.352 N 
ATOM     34  C   UNL A   1      41.968  25.784  25.778  1.00  0.00     0.251 C 
ATOM     35  H   UNL A   1      42.148  24.016  24.839  1.00  0.00     0.163 HD
ATOM     36  O   UNL A   1      42.142  26.445  24.766  1.00  0.00    -0.269 OA
BRANCH  34  37
ATOM     37  C   UNL A   1      41.791  26.451  27.089  1.00  0.00     0.039 A 
ATOM     38  C   UNL A   1      42.634  27.511  27.430  1.00  0.00     0.014 A 
ATOM     39  C   UNL A   1      40.782  26.042  27.965  1.00  0.00     0.014 A 
ATOM     40  C   UNL A   1      42.418  28.210  28.623  1.00  0.00     0.010 A 
ATOM     41  C   UNL A   1      40.527  26.782  29.117  1.00  0.00     0.010 A 
ATOM     42  C   UNL A   1      41.340  27.876  29.457  1.00  0.00    -0.014 A 
BRANCH  42  43
ATOM     43  C   UNL A   1      41.035  28.650  30.689  1.00  0.00     0.031 A 
ATOM     44  C   UNL A   1      39.893  29.632  30.695  1.00  0.00     0.074 A 
ATOM     45  C   UNL A   1      41.836  28.538  31.769  1.00  0.00     0.049 A 
ATOM     46  N   UNL A   1      39.539  30.480  31.626  1.00  0.00    -0.248 NA
ATOM     47  C   UNL A   1      39.051  29.685  29.487  1.00  0.00     0.031 C 
ATOM     48  C   UNL A   1      42.995  27.647  31.880  1.00  0.00     0.029 A 
ATOM     49  N   UNL A   1      41.807  29.190  32.978  1.00  0.00    -0.354 N 
ATOM     50  C   UNL A   1      38.461  31.187  31.107  1.00  0.00     0.074 A 
ATOM     51  C   UNL A   1      38.235  30.692  29.768  1.00  0.00     0.031 C 
ATOM     52  C   UNL A   1      43.554  27.799  33.092  1.00  0.00     0.029 A 
ATOM     53  C   UNL A   1      42.827  28.828  33.828  1.00  0.00     0.049 A 
ATOM     54  H   UNL A   1      41.120  29.855  33.214  1.00  0.00     0.167 HD
ATOM     55  C   UNL A   1      37.721  32.155  31.697  1.00  0.00     0.031 A 
ATOM     56  C   UNL A   1      43.153  29.287  35.054  1.00  0.00     0.031 A 
ATOM     57  C   UNL A   1      37.927  32.621  33.043  1.00  0.00     0.049 A 
ATOM     58  C   UNL A   1      42.313  30.370  35.680  1.00  0.00     0.074 A 
ATOM     59  C   UNL A   1      37.175  33.539  33.755  1.00  0.00     0.029 A 
ATOM     60  N   UNL A   1      38.953  32.209  33.877  1.00  0.00    -0.354 N 
ATOM     61  N   UNL A   1      41.248  30.968  35.201  1.00  0.00    -0.248 NA
ATOM     62  C   UNL A   1      42.715  30.835  37.016  1.00  0.00     0.031 C 
ATOM     63  C   UNL A   1      37.780  33.728  34.999  1.00  0.00     0.029 A 
ATOM     64  C   UNL A   1      38.872  32.879  35.086  1.00  0.00     0.049 A 
ATOM     65  H   UNL A   1      39.639  31.542  33.645  1.00  0.00     0.167 HD
ATOM     66  C   UNL A   1      40.831  31.847  36.196  1.00  0.00     0.074 A 
ATOM     67  C   UNL A   1      41.750  31.698  37.303  1.00  0.00     0.031 C 
ATOM     68  C   UNL A   1      39.778  32.701  36.191  1.00  0.00     0.031 A 
BRANCH  55  69
ATOM     69  C   UNL A   1      36.613  32.788  30.900  1.00  0.00    -0.014 A 
ATOM     70  C   UNL A   1      35.263  32.572  31.225  1.00  0.00     0.010 A 
ATOM     71  C   UNL A   1      36.934  33.693  29.869  1.00  0.00     0.010 A 
ATOM     72  C   UNL A   1      34.253  33.237  30.526  1.00  0.00     0.020 A 
ATOM     73  C   UNL A   1      35.927  34.381  29.186  1.00  0.00     0.020 A 
ATOM     74  C   UNL A   1      34.591  34.142  29.514  1.00  0.00     0.054 A 
BRANCH  74  75
ATOM     75  S   UNL A   1      33.260  35.043  28.673  1.00  0.00     0.124 S 
ATOM     76  O   UNL A   1      32.340  35.318  29.775  1.00  0.00    -0.237 OA
ATOM     77  O   UNL A   1      33.956  36.206  28.131  1.00  0.00    -0.237 OA
ATOM     78  O   UNL A   1      32.770  34.092  27.678  1.00  0.00    -0.744 OA
ENDBRANCH  74  75
ENDBRANCH  55  69
BRANCH  56  79
ATOM     79  C   UNL A   1      44.334  28.739  35.779  1.00  0.00    -0.014 A 
ATOM     80  C   UNL A   1      45.606  29.316  35.612  1.00  0.00     0.010 A 
ATOM     81  C   UNL A   1      44.202  27.610  36.608  1.00  0.00     0.010 A 
ATOM     82  C   UNL A   1      46.729  28.746  36.219  1.00  0.00     0.020 A 
ATOM     83  C   UNL A   1      45.318  27.057  37.243  1.00  0.00     0.020 A 
ATOM     84  C   UNL A   1      46.578  27.616  37.026  1.00  0.00     0.054 A 
BRANCH  84  85
ATOM     85  S   UNL A   1      48.050  26.892  37.803  1.00  0.00     0.124 S 
ATOM     86  O   UNL A   1      47.468  26.139  38.910  1.00  0.00    -0.237 OA
ATOM     87  O   UNL A   1      48.617  26.091  36.721  1.00  0.00    -0.237 OA
ATOM     88  O   UNL A   1      48.842  28.059  38.185  1.00  0.00    -0.744 OA
ENDBRANCH  84  85
ENDBRANCH  56  79
BRANCH  68  89
ATOM     89  C   UNL A   1      39.515  33.500  37.440  1.00  0.00    -0.014 A 
ATOM     90  C   UNL A   1      38.720  32.994  38.481  1.00  0.00     0.010 A 
ATOM     91  C   UNL A   1      40.145  34.749  37.601  1.00  0.00     0.010 A 
ATOM     92  C   UNL A   1      38.540  33.733  39.654  1.00  0.00     0.020 A 
ATOM     93  C   UNL A   1      39.992  35.476  38.783  1.00  0.00     0.020 A 
ATOM     94  C   UNL A   1      39.181  34.968  39.800  1.00  0.00     0.054 A 
BRANCH  94  95
ATOM     95  S   UNL A   1      38.986  35.876  41.357  1.00  0.00     0.124 S 
ATOM     96  O   UNL A   1      38.914  37.260  40.896  1.00  0.00    -0.237 OA
ATOM     97  O   UNL A   1      37.743  35.327  41.893  1.00  0.00    -0.237 OA
ATOM     98  O   UNL A   1      40.189  35.533  42.112  1.00  0.00    -0.744 OA
ENDBRANCH  94  95
ENDBRANCH  68  89
ENDBRANCH  42  43
ENDBRANCH  34  37
ENDBRANCH  32  33
ENDBRANCH  31  32
ENDBRANCH  30  31
ENDBRANCH   1  30
TORSDOF 19
ENDMDL
