MODEL 1
REMARK VINA RESULT:     -11.3      0.000      0.000
REMARK SMILES Cc1ccc(S(=O)(=O)n2cc(C(=O)C(=O)NCC(=O)NCC(=O)NCCCCCCNC(=O)c3ccc(-c4c5nc(c(-c6ccc(S(=O)(=O)[O-])cc6)c6ccc([nH]6)c(-c6ccc(S(=O)(=O)[O-])cc6)c6nc(c(-c7ccc(S(=O)(=O)[O-])cc7)c7ccc4[nH]7)C=C6)C=C5)cc3)c3ccccc32)cc1
REMARK SMILES IDX 25 1 24 2 22 3 23 4 21 6 20 7 18 8 19 9 17 11 16 12 14 13
REMARK SMILES IDX 15 14 12 16 13 17 11 18 9 19 10 20 99 21 94 22 98 23 95 24
REMARK SMILES IDX 97 25 96 26 6 27 7 28 8 29 5 30 1 31 2 32 3 33 101 34 4 35
REMARK SMILES IDX 100 36 26 37 27 38 28 39 29 40 30 41 31 42 32 43 33 45 34 46
REMARK SMILES IDX 35 47 93 48 36 49 92 50 37 51 38 52 39 53 86 54 40 55 91 56
REMARK SMILES IDX 85 57 87 58 41 59 90 60 84 61 83 62 42 64 72 65 53 66 71 67
REMARK SMILES IDX 54 68 57 69 70 70 88 71 55 72 56 73 69 75 89 76 58 77 43 78
REMARK SMILES IDX 44 79 52 80 45 81 51 82 46 83 47 84 48 85 49 86 50 87 73 88
REMARK SMILES IDX 74 89 82 90 75 91 81 92 76 93 77 94 78 95 79 96 80 97 59 98
REMARK SMILES IDX 60 99 68 100 61 101 67 102 62 103 63 104 64 105 65 106
REMARK SMILES IDX 66 107
REMARK H PARENT 24 5 20 10 16 15 31 44 87 63 57 74
REMARK Flexibility Score: inf
ROOT
ATOM      1  C   UNL A   1      33.935  29.197  25.974  1.00  0.00     0.116 C 
ENDROOT
BRANCH   1   2
ATOM      2  N   UNL A   1      33.181  30.422  26.108  1.00  0.00    -0.355 N 
ATOM      3  C   UNL A   1      31.871  30.660  25.811  1.00  0.00     0.239 C 
ATOM      4  O   UNL A   1      31.359  31.698  26.241  1.00  0.00    -0.273 OA
ATOM      5  H   UNL A   1      33.682  31.192  26.464  1.00  0.00     0.163 HD
BRANCH   3   6
ATOM      6  C   UNL A   1      31.000  29.594  25.121  1.00  0.00     0.216 C 
BRANCH   6   7
ATOM      7  N   UNL A   1      30.186  30.072  24.017  1.00  0.00    -0.346 N 
ATOM      8  C   UNL A   1      30.166  29.718  22.702  1.00  0.00     0.239 C 
ATOM      9  O   UNL A   1      29.322  30.258  21.982  1.00  0.00    -0.273 OA
ATOM     10  H   UNL A   1      29.538  30.771  24.261  1.00  0.00     0.164 HD
BRANCH   8  11
ATOM     11  C   UNL A   1      31.085  28.624  22.131  1.00  0.00     0.216 C 
BRANCH  11  12
ATOM     12  N   UNL A   1      32.526  28.859  22.250  1.00  0.00    -0.340 N 
ATOM     13  C   UNL A   1      33.603  27.997  22.276  1.00  0.00     0.292 C 
ATOM     14  O   UNL A   1      34.729  28.460  22.420  1.00  0.00    -0.265 OA
ATOM     15  H   UNL A   1      32.771  29.809  22.326  1.00  0.00     0.164 HD
BRANCH  13  16
ATOM     16  C   UNL A   1      33.402  26.476  22.123  1.00  0.00     0.252 C 
ATOM     17  O   UNL A   1      33.254  26.035  20.986  1.00  0.00    -0.283 OA
BRANCH  16  18
ATOM     18  C   UNL A   1      33.386  25.547  23.263  1.00  0.00     0.054 A 
ATOM     19  N   UNL A   1      33.884  23.971  24.766  1.00  0.00    -0.240 N 
ATOM     20  C   UNL A   1      34.350  24.634  23.655  1.00  0.00     0.117 A 
ATOM     21  C   UNL A   1      32.632  24.422  25.131  1.00  0.00     0.065 A 
ATOM     22  C   UNL A   1      32.298  25.411  24.200  1.00  0.00     0.012 A 
ATOM     23  C   UNL A   1      31.746  24.043  26.157  1.00  0.00     0.028 A 
ATOM     24  C   UNL A   1      31.041  26.045  24.315  1.00  0.00     0.011 A 
ATOM     25  C   UNL A   1      30.500  24.672  26.225  1.00  0.00     0.002 A 
ATOM     26  C   UNL A   1      30.150  25.664  25.319  1.00  0.00     0.001 A 
BRANCH  19  27
ATOM     27  S   UNL A   1      34.698  22.675  25.517  1.00  0.00     0.268 S 
ATOM     28  O   UNL A   1      34.252  22.690  26.895  1.00  0.00    -0.201 OA
ATOM     29  O   UNL A   1      36.099  22.819  25.156  1.00  0.00    -0.201 OA
BRANCH  27  30
ATOM     30  C   UNL A   1      34.120  21.163  24.786  1.00  0.00     0.088 A 
ATOM     31  C   UNL A   1      32.772  17.331  23.365  1.00  0.00     0.044 C 
ATOM     32  C   UNL A   1      33.246  18.672  23.842  1.00  0.00    -0.051 A 
ATOM     33  C   UNL A   1      34.450  18.775  24.551  1.00  0.00     0.005 A 
ATOM     34  C   UNL A   1      32.504  19.831  23.584  1.00  0.00     0.005 A 
ATOM     35  C   UNL A   1      34.883  20.015  25.028  1.00  0.00     0.022 A 
ATOM     36  C   UNL A   1      32.942  21.077  24.042  1.00  0.00     0.022 A 
ENDBRANCH  27  30
ENDBRANCH  19  27
ENDBRANCH  16  18
ENDBRANCH  13  16
ENDBRANCH  11  12
ENDBRANCH   8  11
ENDBRANCH   6   7
ENDBRANCH   3   6
ENDBRANCH   1   2
BRANCH   1  37
ATOM     37  C   UNL A   1      34.767  28.848  27.200  1.00  0.00     0.021 C 
BRANCH  37  38
ATOM     38  C   UNL A   1      35.744  29.940  27.636  1.00  0.00     0.002 C 
BRANCH  38  39
ATOM     39  C   UNL A   1      36.876  29.504  28.584  1.00  0.00     0.002 C 
BRANCH  39  40
ATOM     40  C   UNL A   1      38.245  30.146  28.354  1.00  0.00     0.021 C 
BRANCH  40  41
ATOM     41  C   UNL A   1      39.185  29.314  27.503  1.00  0.00     0.116 C 
BRANCH  41  42
ATOM     42  N   UNL A   1      38.808  27.912  27.403  1.00  0.00    -0.352 N 
ATOM     43  C   UNL A   1      39.514  26.848  27.950  1.00  0.00     0.251 C 
ATOM     44  H   UNL A   1      37.985  27.701  26.908  1.00  0.00     0.163 HD
ATOM     45  O   UNL A   1      39.629  25.755  27.413  1.00  0.00    -0.269 OA
BRANCH  43  46
ATOM     46  C   UNL A   1      40.001  27.053  29.328  1.00  0.00     0.039 A 
ATOM     47  C   UNL A   1      39.055  27.361  30.315  1.00  0.00     0.014 A 
ATOM     48  C   UNL A   1      41.357  27.287  29.523  1.00  0.00     0.014 A 
ATOM     49  C   UNL A   1      39.447  28.114  31.412  1.00  0.00     0.010 A 
ATOM     50  C   UNL A   1      41.716  28.156  30.515  1.00  0.00     0.010 A 
ATOM     51  C   UNL A   1      40.752  28.592  31.428  1.00  0.00    -0.014 A 
BRANCH  51  52
ATOM     52  C   UNL A   1      41.283  29.506  32.411  1.00  0.00     0.031 A 
ATOM     53  C   UNL A   1      41.703  28.900  33.692  1.00  0.00     0.074 A 
ATOM     54  C   UNL A   1      41.545  30.775  32.026  1.00  0.00     0.049 A 
ATOM     55  N   UNL A   1      41.799  29.532  34.804  1.00  0.00    -0.248 NA
ATOM     56  C   UNL A   1      42.006  27.467  33.830  1.00  0.00     0.031 C 
ATOM     57  C   UNL A   1      42.370  31.765  32.709  1.00  0.00     0.029 A 
ATOM     58  N   UNL A   1      41.030  31.508  30.954  1.00  0.00    -0.354 N 
ATOM     59  C   UNL A   1      42.505  28.717  35.666  1.00  0.00     0.074 A 
ATOM     60  C   UNL A   1      42.474  27.404  35.079  1.00  0.00     0.031 C 
ATOM     61  C   UNL A   1      42.030  32.991  32.263  1.00  0.00     0.029 A 
ATOM     62  C   UNL A   1      40.859  32.819  31.416  1.00  0.00     0.049 A 
ATOM     63  H   UNL A   1      40.829  31.171  30.052  1.00  0.00     0.167 HD
ATOM     64  C   UNL A   1      43.219  29.295  36.670  1.00  0.00     0.031 A 
ATOM     65  C   UNL A   1      39.634  33.374  31.684  1.00  0.00     0.031 A 
ATOM     66  C   UNL A   1      43.021  30.742  36.648  1.00  0.00     0.049 A 
ATOM     67  C   UNL A   1      39.485  33.719  33.159  1.00  0.00     0.074 A 
ATOM     68  C   UNL A   1      43.775  31.760  36.088  1.00  0.00     0.029 A 
ATOM     69  N   UNL A   1      41.755  31.258  36.879  1.00  0.00    -0.354 N 
ATOM     70  N   UNL A   1      40.126  33.099  34.115  1.00  0.00    -0.248 NA
ATOM     71  C   UNL A   1      38.639  34.796  33.669  1.00  0.00     0.031 C 
ATOM     72  C   UNL A   1      42.917  32.876  35.903  1.00  0.00     0.029 A 
ATOM     73  C   UNL A   1      41.659  32.540  36.373  1.00  0.00     0.049 A 
ATOM     74  H   UNL A   1      41.028  30.779  37.338  1.00  0.00     0.167 HD
ATOM     75  C   UNL A   1      39.841  33.688  35.319  1.00  0.00     0.074 A 
ATOM     76  C   UNL A   1      38.894  34.738  34.988  1.00  0.00     0.031 C 
ATOM     77  C   UNL A   1      40.415  33.285  36.493  1.00  0.00     0.031 A 
BRANCH  64  78
ATOM     78  C   UNL A   1      44.335  28.633  37.441  1.00  0.00    -0.014 A 
ATOM     79  C   UNL A   1      44.306  27.228  37.578  1.00  0.00     0.010 A 
ATOM     80  C   UNL A   1      45.402  29.296  38.075  1.00  0.00     0.010 A 
ATOM     81  C   UNL A   1      45.244  26.530  38.344  1.00  0.00     0.020 A 
ATOM     82  C   UNL A   1      46.345  28.610  38.862  1.00  0.00     0.020 A 
ATOM     83  C   UNL A   1      46.257  27.228  38.992  1.00  0.00     0.054 A 
BRANCH  83  84
ATOM     84  S   UNL A   1      47.459  26.294  39.971  1.00  0.00     0.124 S 
ATOM     85  O   UNL A   1      48.717  26.594  39.293  1.00  0.00    -0.237 OA
ATOM     86  O   UNL A   1      47.303  26.881  41.299  1.00  0.00    -0.237 OA
ATOM     87  O   UNL A   1      47.006  24.909  39.850  1.00  0.00    -0.744 OA
ENDBRANCH  83  84
ENDBRANCH  64  78
BRANCH  65  88
ATOM     88  C   UNL A   1      38.528  32.872  30.816  1.00  0.00    -0.014 A 
ATOM     89  C   UNL A   1      37.405  32.302  31.456  1.00  0.00     0.010 A 
ATOM     90  C   UNL A   1      38.389  33.334  29.497  1.00  0.00     0.010 A 
ATOM     91  C   UNL A   1      36.137  32.382  30.874  1.00  0.00     0.020 A 
ATOM     92  C   UNL A   1      37.118  33.401  28.904  1.00  0.00     0.020 A 
ATOM     93  C   UNL A   1      35.994  32.991  29.628  1.00  0.00     0.054 A 
BRANCH  93  94
ATOM     94  S   UNL A   1      34.314  33.421  29.074  1.00  0.00     0.124 S 
ATOM     95  O   UNL A   1      34.575  34.391  28.017  1.00  0.00    -0.237 OA
ATOM     96  O   UNL A   1      33.792  32.125  28.634  1.00  0.00    -0.237 OA
ATOM     97  O   UNL A   1      33.690  33.958  30.279  1.00  0.00    -0.744 OA
ENDBRANCH  93  94
ENDBRANCH  65  88
BRANCH  77  98
ATOM     98  C   UNL A   1      39.927  33.629  37.880  1.00  0.00    -0.014 A 
ATOM     99  C   UNL A   1      40.501  34.621  38.686  1.00  0.00     0.010 A 
ATOM    100  C   UNL A   1      38.742  33.020  38.365  1.00  0.00     0.010 A 
ATOM    101  C   UNL A   1      39.978  34.922  39.950  1.00  0.00     0.020 A 
ATOM    102  C   UNL A   1      38.172  33.360  39.592  1.00  0.00     0.020 A 
ATOM    103  C   UNL A   1      38.821  34.284  40.396  1.00  0.00     0.054 A 
BRANCH 103 104
ATOM    104  S   UNL A   1      38.162  34.692  42.028  1.00  0.00     0.124 S 
ATOM    105  O   UNL A   1      38.644  36.058  42.208  1.00  0.00    -0.237 OA
ATOM    106  O   UNL A   1      36.720  34.554  41.837  1.00  0.00    -0.237 OA
ATOM    107  O   UNL A   1      38.766  33.692  42.906  1.00  0.00    -0.744 OA
ENDBRANCH 103 104
ENDBRANCH  77  98
ENDBRANCH  51  52
ENDBRANCH  43  46
ENDBRANCH  41  42
ENDBRANCH  40  41
ENDBRANCH  39  40
ENDBRANCH  38  39
ENDBRANCH  37  38
ENDBRANCH   1  37
TORSDOF 23
ENDMDL
MODEL 2
REMARK VINA RESULT:     -10.4      1.660      3.520
REMARK SMILES Cc1ccc(S(=O)(=O)n2cc(C(=O)C(=O)NCC(=O)NCC(=O)NCCCCCCNC(=O)c3ccc(-c4c5nc(c(-c6ccc(S(=O)(=O)[O-])cc6)c6ccc([nH]6)c(-c6ccc(S(=O)(=O)[O-])cc6)c6nc(c(-c7ccc(S(=O)(=O)[O-])cc7)c7ccc4[nH]7)C=C6)C=C5)cc3)c3ccccc32)cc1
REMARK SMILES IDX 25 1 24 2 22 3 23 4 21 6 20 7 18 8 19 9 17 11 16 12 14 13
REMARK SMILES IDX 15 14 12 16 13 17 11 18 9 19 10 20 99 21 94 22 98 23 95 24
REMARK SMILES IDX 97 25 96 26 6 27 7 28 8 29 5 30 1 31 2 32 3 33 101 34 4 35
REMARK SMILES IDX 100 36 26 37 27 38 28 39 29 40 30 41 31 42 32 43 33 45 34 46
REMARK SMILES IDX 35 47 93 48 36 49 92 50 37 51 38 52 39 53 86 54 40 55 91 56
REMARK SMILES IDX 85 57 87 58 41 59 90 60 84 61 83 62 42 64 72 65 53 66 71 67
REMARK SMILES IDX 54 68 57 69 70 70 88 71 55 72 56 73 69 75 89 76 58 77 43 78
REMARK SMILES IDX 44 79 52 80 45 81 51 82 46 83 47 84 48 85 49 86 50 87 73 88
REMARK SMILES IDX 74 89 82 90 75 91 81 92 76 93 77 94 78 95 79 96 80 97 59 98
REMARK SMILES IDX 60 99 68 100 61 101 67 102 62 103 63 104 64 105 65 106
REMARK SMILES IDX 66 107
REMARK H PARENT 24 5 20 10 16 15 31 44 87 63 57 74
REMARK Flexibility Score: inf
ROOT
ATOM      1  C   UNL A   1      32.561  29.603  25.822  1.00  0.00     0.116 C 
ENDROOT
BRANCH   1   2
ATOM      2  N   UNL A   1      33.299  29.698  24.584  1.00  0.00    -0.355 N 
ATOM      3  C   UNL A   1      33.525  28.737  23.643  1.00  0.00     0.239 C 
ATOM      4  O   UNL A   1      33.957  29.093  22.542  1.00  0.00    -0.273 OA
ATOM      5  H   UNL A   1      33.695  30.580  24.392  1.00  0.00     0.163 HD
BRANCH   3   6
ATOM      6  C   UNL A   1      33.088  27.278  23.868  1.00  0.00     0.216 C 
BRANCH   6   7
ATOM      7  N   UNL A   1      31.662  27.027  23.754  1.00  0.00    -0.346 N 
ATOM      8  C   UNL A   1      30.936  25.889  23.937  1.00  0.00     0.239 C 
ATOM      9  O   UNL A   1      29.712  25.974  23.822  1.00  0.00    -0.273 OA
ATOM     10  H   UNL A   1      31.129  27.814  23.500  1.00  0.00     0.164 HD
BRANCH   8  11
ATOM     11  C   UNL A   1      31.585  24.561  24.363  1.00  0.00     0.216 C 
BRANCH  11  12
ATOM     12  N   UNL A   1      30.697  23.571  24.975  1.00  0.00    -0.340 N 
ATOM     13  C   UNL A   1      30.907  22.620  25.953  1.00  0.00     0.292 C 
ATOM     14  O   UNL A   1      29.983  21.878  26.268  1.00  0.00    -0.265 OA
ATOM     15  H   UNL A   1      29.777  23.586  24.623  1.00  0.00     0.164 HD
BRANCH  13  16
ATOM     16  C   UNL A   1      32.279  22.489  26.645  1.00  0.00     0.252 C 
ATOM     17  O   UNL A   1      32.391  22.957  27.775  1.00  0.00    -0.283 OA
BRANCH  16  18
ATOM     18  C   UNL A   1      33.437  21.832  26.019  1.00  0.00     0.054 A 
ATOM     19  N   UNL A   1      35.422  21.381  25.097  1.00  0.00    -0.240 N 
ATOM     20  C   UNL A   1      34.665  22.371  25.678  1.00  0.00     0.117 A 
ATOM     21  C   UNL A   1      34.731  20.188  25.045  1.00  0.00     0.065 A 
ATOM     22  C   UNL A   1      33.481  20.447  25.618  1.00  0.00     0.012 A 
ATOM     23  C   UNL A   1      35.059  18.920  24.528  1.00  0.00     0.028 A 
ATOM     24  C   UNL A   1      32.540  19.395  25.681  1.00  0.00     0.011 A 
ATOM     25  C   UNL A   1      34.094  17.910  24.582  1.00  0.00     0.002 A 
ATOM     26  C   UNL A   1      32.851  18.140  25.155  1.00  0.00     0.001 A 
BRANCH  19  27
ATOM     27  S   UNL A   1      36.965  21.631  24.418  1.00  0.00     0.268 S 
ATOM     28  O   UNL A   1      36.751  22.528  23.302  1.00  0.00    -0.201 OA
ATOM     29  O   UNL A   1      37.547  20.309  24.248  1.00  0.00    -0.201 OA
BRANCH  27  30
ATOM     30  C   UNL A   1      37.960  22.492  25.611  1.00  0.00     0.088 A 
ATOM     31  C   UNL A   1      40.683  24.476  28.289  1.00  0.00     0.044 C 
ATOM     32  C   UNL A   1      39.721  23.783  27.369  1.00  0.00    -0.051 A 
ATOM     33  C   UNL A   1      39.960  22.460  26.976  1.00  0.00     0.005 A 
ATOM     34  C   UNL A   1      38.577  24.439  26.899  1.00  0.00     0.005 A 
ATOM     35  C   UNL A   1      39.087  21.818  26.095  1.00  0.00     0.022 A 
ATOM     36  C   UNL A   1      37.689  23.795  26.032  1.00  0.00     0.022 A 
ENDBRANCH  27  30
ENDBRANCH  19  27
ENDBRANCH  16  18
ENDBRANCH  13  16
ENDBRANCH  11  12
ENDBRANCH   8  11
ENDBRANCH   6   7
ENDBRANCH   3   6
ENDBRANCH   1   2
BRANCH   1  37
ATOM     37  C   UNL A   1      33.394  29.900  27.060  1.00  0.00     0.021 C 
BRANCH  37  38
ATOM     38  C   UNL A   1      34.686  29.091  27.166  1.00  0.00     0.002 C 
BRANCH  38  39
ATOM     39  C   UNL A   1      35.689  29.544  28.243  1.00  0.00     0.002 C 
BRANCH  39  40
ATOM     40  C   UNL A   1      36.847  30.424  27.771  1.00  0.00     0.021 C 
BRANCH  40  41
ATOM     41  C   UNL A   1      38.219  29.900  28.152  1.00  0.00     0.116 C 
BRANCH  41  42
ATOM     42  N   UNL A   1      38.566  28.636  27.521  1.00  0.00    -0.352 N 
ATOM     43  C   UNL A   1      39.825  28.051  27.529  1.00  0.00     0.251 C 
ATOM     44  H   UNL A   1      37.848  28.156  27.049  1.00  0.00     0.163 HD
ATOM     45  O   UNL A   1      40.299  27.431  26.587  1.00  0.00    -0.269 OA
BRANCH  43  46
ATOM     46  C   UNL A   1      40.526  28.076  28.828  1.00  0.00     0.039 A 
ATOM     47  C   UNL A   1      39.786  27.757  29.975  1.00  0.00     0.014 A 
ATOM     48  C   UNL A   1      41.744  28.740  28.912  1.00  0.00     0.014 A 
ATOM     49  C   UNL A   1      40.160  28.306  31.192  1.00  0.00     0.010 A 
ATOM     50  C   UNL A   1      42.026  29.407  30.071  1.00  0.00     0.010 A 
ATOM     51  C   UNL A   1      41.211  29.215  31.189  1.00  0.00    -0.014 A 
BRANCH  51  52
ATOM     52  C   UNL A   1      41.636  29.988  32.332  1.00  0.00     0.031 A 
ATOM     53  C   UNL A   1      42.071  29.208  33.510  1.00  0.00     0.074 A 
ATOM     54  C   UNL A   1      41.798  31.320  32.175  1.00  0.00     0.049 A 
ATOM     55  N   UNL A   1      42.082  29.648  34.715  1.00  0.00    -0.248 NA
ATOM     56  C   UNL A   1      42.492  27.802  33.419  1.00  0.00     0.031 C 
ATOM     57  C   UNL A   1      42.517  32.243  33.048  1.00  0.00     0.029 A 
ATOM     58  N   UNL A   1      41.252  32.182  31.221  1.00  0.00    -0.354 N 
ATOM     59  C   UNL A   1      42.832  28.757  35.457  1.00  0.00     0.074 A 
ATOM     60  C   UNL A   1      42.929  27.564  34.658  1.00  0.00     0.031 C 
ATOM     61  C   UNL A   1      42.086  33.495  32.800  1.00  0.00     0.029 A 
ATOM     62  C   UNL A   1      40.956  33.377  31.888  1.00  0.00     0.049 A 
ATOM     63  H   UNL A   1      41.104  31.988  30.268  1.00  0.00     0.167 HD
ATOM     64  C   UNL A   1      43.467  29.211  36.572  1.00  0.00     0.031 A 
ATOM     65  C   UNL A   1      39.682  33.779  32.195  1.00  0.00     0.031 A 
ATOM     66  C   UNL A   1      43.147  30.620  36.783  1.00  0.00     0.049 A 
ATOM     67  C   UNL A   1      39.465  33.855  33.700  1.00  0.00     0.074 A 
ATOM     68  C   UNL A   1      43.826  31.776  36.433  1.00  0.00     0.029 A 
ATOM     69  N   UNL A   1      41.835  30.987  37.045  1.00  0.00    -0.354 N 
ATOM     70  N   UNL A   1      40.129  33.135  34.564  1.00  0.00    -0.248 NA
ATOM     71  C   UNL A   1      38.516  34.760  34.347  1.00  0.00     0.031 C 
ATOM     72  C   UNL A   1      42.881  32.834  36.402  1.00  0.00     0.029 A 
ATOM     73  C   UNL A   1      41.643  32.324  36.757  1.00  0.00     0.049 A 
ATOM     74  H   UNL A   1      41.139  30.380  37.388  1.00  0.00     0.167 HD
ATOM     75  C   UNL A   1      39.763  33.486  35.837  1.00  0.00     0.074 A 
ATOM     76  C   UNL A   1      38.739  34.498  35.647  1.00  0.00     0.031 C 
ATOM     77  C   UNL A   1      40.338  32.937  36.949  1.00  0.00     0.031 A 
BRANCH  64  78
ATOM     78  C   UNL A   1      44.614  28.518  37.266  1.00  0.00    -0.014 A 
ATOM     79  C   UNL A   1      44.355  27.295  37.921  1.00  0.00     0.010 A 
ATOM     80  C   UNL A   1      45.934  29.000  37.353  1.00  0.00     0.010 A 
ATOM     81  C   UNL A   1      45.328  26.621  38.664  1.00  0.00     0.020 A 
ATOM     82  C   UNL A   1      46.920  28.342  38.108  1.00  0.00     0.020 A 
ATOM     83  C   UNL A   1      46.608  27.155  38.762  1.00  0.00     0.054 A 
BRANCH  83  84
ATOM     84  S   UNL A   1      47.847  26.255  39.727  1.00  0.00     0.124 S 
ATOM     85  O   UNL A   1      49.008  26.272  38.841  1.00  0.00    -0.237 OA
ATOM     86  O   UNL A   1      47.960  27.073  40.930  1.00  0.00    -0.237 OA
ATOM     87  O   UNL A   1      47.243  24.938  39.928  1.00  0.00    -0.744 OA
ENDBRANCH  83  84
ENDBRANCH  64  78
BRANCH  65  88
ATOM     88  C   UNL A   1      38.646  33.345  31.210  1.00  0.00    -0.014 A 
ATOM     89  C   UNL A   1      37.535  32.628  31.707  1.00  0.00     0.010 A 
ATOM     90  C   UNL A   1      38.535  33.982  29.964  1.00  0.00     0.010 A 
ATOM     91  C   UNL A   1      36.290  32.720  31.078  1.00  0.00     0.020 A 
ATOM     92  C   UNL A   1      37.288  34.062  29.323  1.00  0.00     0.020 A 
ATOM     93  C   UNL A   1      36.162  33.492  29.924  1.00  0.00     0.054 A 
BRANCH  93  94
ATOM     94  S   UNL A   1      34.483  33.902  29.352  1.00  0.00     0.124 S 
ATOM     95  O   UNL A   1      34.139  32.739  28.543  1.00  0.00    -0.237 OA
ATOM     96  O   UNL A   1      33.751  34.039  30.614  1.00  0.00    -0.237 OA
ATOM     97  O   UNL A   1      34.674  35.147  28.615  1.00  0.00    -0.744 OA
ENDBRANCH  93  94
ENDBRANCH  65  88
BRANCH  77  98
ATOM     98  C   UNL A   1      39.785  33.000  38.353  1.00  0.00    -0.014 A 
ATOM     99  C   UNL A   1      38.447  32.746  38.677  1.00  0.00     0.010 A 
ATOM    100  C   UNL A   1      40.678  33.197  39.437  1.00  0.00     0.010 A 
ATOM    101  C   UNL A   1      38.002  32.781  40.005  1.00  0.00     0.020 A 
ATOM    102  C   UNL A   1      40.260  33.166  40.768  1.00  0.00     0.020 A 
ATOM    103  C   UNL A   1      38.911  32.999  41.040  1.00  0.00     0.054 A 
BRANCH 103 104
ATOM    104  S   UNL A   1      38.316  33.036  42.745  1.00  0.00     0.124 S 
ATOM    105  O   UNL A   1      39.408  32.376  43.455  1.00  0.00    -0.237 OA
ATOM    106  O   UNL A   1      38.171  34.466  43.004  1.00  0.00    -0.237 OA
ATOM    107  O   UNL A   1      37.061  32.289  42.690  1.00  0.00    -0.744 OA
ENDBRANCH 103 104
ENDBRANCH  77  98
ENDBRANCH  51  52
ENDBRANCH  43  46
ENDBRANCH  41  42
ENDBRANCH  40  41
ENDBRANCH  39  40
ENDBRANCH  38  39
ENDBRANCH  37  38
ENDBRANCH   1  37
TORSDOF 23
ENDMDL
MODEL 3
REMARK VINA RESULT:     -10.4      3.474      7.993
REMARK SMILES Cc1ccc(S(=O)(=O)n2cc(C(=O)C(=O)NCC(=O)NCC(=O)NCCCCCCNC(=O)c3ccc(-c4c5nc(c(-c6ccc(S(=O)(=O)[O-])cc6)c6ccc([nH]6)c(-c6ccc(S(=O)(=O)[O-])cc6)c6nc(c(-c7ccc(S(=O)(=O)[O-])cc7)c7ccc4[nH]7)C=C6)C=C5)cc3)c3ccccc32)cc1
REMARK SMILES IDX 25 1 24 2 22 3 23 4 21 6 20 7 18 8 19 9 17 11 16 12 14 13
REMARK SMILES IDX 15 14 12 16 13 17 11 18 9 19 10 20 99 21 94 22 98 23 95 24
REMARK SMILES IDX 97 25 96 26 6 27 7 28 8 29 5 30 1 31 2 32 3 33 101 34 4 35
REMARK SMILES IDX 100 36 26 37 27 38 28 39 29 40 30 41 31 42 32 43 33 45 34 46
REMARK SMILES IDX 35 47 93 48 36 49 92 50 37 51 38 52 39 53 86 54 40 55 91 56
REMARK SMILES IDX 85 57 87 58 41 59 90 60 84 61 83 62 42 64 72 65 53 66 71 67
REMARK SMILES IDX 54 68 57 69 70 70 88 71 55 72 56 73 69 75 89 76 58 77 43 78
REMARK SMILES IDX 44 79 52 80 45 81 51 82 46 83 47 84 48 85 49 86 50 87 73 88
REMARK SMILES IDX 74 89 82 90 75 91 81 92 76 93 77 94 78 95 79 96 80 97 59 98
REMARK SMILES IDX 60 99 68 100 61 101 67 102 62 103 63 104 64 105 65 106
REMARK SMILES IDX 66 107
REMARK H PARENT 24 5 20 10 16 15 31 44 87 63 57 74
REMARK Flexibility Score: inf
ROOT
ATOM      1  C   UNL A   1      33.947  29.359  27.379  1.00  0.00     0.116 C 
ENDROOT
BRANCH   1   2
ATOM      2  N   UNL A   1      33.095  30.523  27.309  1.00  0.00    -0.355 N 
ATOM      3  C   UNL A   1      32.060  30.779  26.457  1.00  0.00     0.239 C 
ATOM      4  O   UNL A   1      31.302  31.714  26.732  1.00  0.00    -0.273 OA
ATOM      5  H   UNL A   1      33.288  31.231  27.967  1.00  0.00     0.163 HD
BRANCH   3   6
ATOM      6  C   UNL A   1      31.731  29.832  25.289  1.00  0.00     0.216 C 
BRANCH   6   7
ATOM      7  N   UNL A   1      30.617  30.238  24.450  1.00  0.00    -0.346 N 
ATOM      8  C   UNL A   1      30.295  29.907  23.169  1.00  0.00     0.239 C 
ATOM      9  O   UNL A   1      29.246  30.365  22.712  1.00  0.00    -0.273 OA
ATOM     10  H   UNL A   1      29.987  30.859  24.881  1.00  0.00     0.164 HD
BRANCH   8  11
ATOM     11  C   UNL A   1      31.142  28.929  22.336  1.00  0.00     0.216 C 
BRANCH  11  12
ATOM     12  N   UNL A   1      32.593  29.119  22.387  1.00  0.00    -0.340 N 
ATOM     13  C   UNL A   1      33.644  28.225  22.354  1.00  0.00     0.292 C 
ATOM     14  O   UNL A   1      34.789  28.652  22.449  1.00  0.00    -0.265 OA
ATOM     15  H   UNL A   1      32.871  30.061  22.460  1.00  0.00     0.164 HD
BRANCH  13  16
ATOM     16  C   UNL A   1      33.389  26.712  22.198  1.00  0.00     0.252 C 
ATOM     17  O   UNL A   1      33.233  26.278  21.060  1.00  0.00    -0.283 OA
BRANCH  16  18
ATOM     18  C   UNL A   1      33.333  25.783  23.337  1.00  0.00     0.054 A 
ATOM     19  N   UNL A   1      33.774  24.201  24.852  1.00  0.00    -0.240 N 
ATOM     20  C   UNL A   1      34.276  24.860  23.755  1.00  0.00     0.117 A 
ATOM     21  C   UNL A   1      32.517  24.666  25.184  1.00  0.00     0.065 A 
ATOM     22  C   UNL A   1      32.219  25.659  24.244  1.00  0.00     0.012 A 
ATOM     23  C   UNL A   1      31.600  24.296  26.186  1.00  0.00     0.028 A 
ATOM     24  C   UNL A   1      30.966  26.306  24.326  1.00  0.00     0.011 A 
ATOM     25  C   UNL A   1      30.359  24.939  26.220  1.00  0.00     0.002 A 
ATOM     26  C   UNL A   1      30.044  25.934  25.306  1.00  0.00     0.001 A 
BRANCH  19  27
ATOM     27  S   UNL A   1      34.553  22.896  25.624  1.00  0.00     0.268 S 
ATOM     28  O   UNL A   1      34.055  22.904  26.984  1.00  0.00    -0.201 OA
ATOM     29  O   UNL A   1      35.968  23.037  25.318  1.00  0.00    -0.201 OA
BRANCH  27  30
ATOM     30  C   UNL A   1      33.998  21.393  24.860  1.00  0.00     0.088 A 
ATOM     31  C   UNL A   1      32.691  17.576  23.361  1.00  0.00     0.044 C 
ATOM     32  C   UNL A   1      33.152  18.911  23.866  1.00  0.00    -0.051 A 
ATOM     33  C   UNL A   1      34.330  19.006  24.616  1.00  0.00     0.005 A 
ATOM     34  C   UNL A   1      32.421  20.075  23.592  1.00  0.00     0.005 A 
ATOM     35  C   UNL A   1      34.749  20.240  25.119  1.00  0.00     0.022 A 
ATOM     36  C   UNL A   1      32.846  21.316  24.076  1.00  0.00     0.022 A 
ENDBRANCH  27  30
ENDBRANCH  19  27
ENDBRANCH  16  18
ENDBRANCH  13  16
ENDBRANCH  11  12
ENDBRANCH   8  11
ENDBRANCH   6   7
ENDBRANCH   3   6
ENDBRANCH   1   2
BRANCH   1  37
ATOM     37  C   UNL A   1      35.236  29.584  28.157  1.00  0.00     0.021 C 
BRANCH  37  38
ATOM     38  C   UNL A   1      36.107  30.723  27.626  1.00  0.00     0.002 C 
BRANCH  38  39
ATOM     39  C   UNL A   1      35.661  32.150  27.991  1.00  0.00     0.002 C 
BRANCH  39  40
ATOM     40  C   UNL A   1      36.734  33.072  28.574  1.00  0.00     0.021 C 
BRANCH  40  41
ATOM     41  C   UNL A   1      36.515  33.434  30.032  1.00  0.00     0.116 C 
BRANCH  41  42
ATOM     42  N   UNL A   1      37.563  34.271  30.597  1.00  0.00    -0.352 N 
ATOM     43  C   UNL A   1      38.566  33.837  31.454  1.00  0.00     0.251 C 
ATOM     44  H   UNL A   1      37.561  35.224  30.350  1.00  0.00     0.163 HD
ATOM     45  O   UNL A   1      39.008  34.500  32.382  1.00  0.00    -0.269 OA
BRANCH  43  46
ATOM     46  C   UNL A   1      39.205  32.559  31.085  1.00  0.00     0.039 A 
ATOM     47  C   UNL A   1      39.002  31.460  31.930  1.00  0.00     0.014 A 
ATOM     48  C   UNL A   1      40.239  32.579  30.156  1.00  0.00     0.014 A 
ATOM     49  C   UNL A   1      39.974  30.474  31.999  1.00  0.00     0.010 A 
ATOM     50  C   UNL A   1      41.269  31.698  30.332  1.00  0.00     0.010 A 
ATOM     51  C   UNL A   1      41.145  30.676  31.277  1.00  0.00    -0.014 A 
BRANCH  51  52
ATOM     52  C   UNL A   1      42.313  29.832  31.348  1.00  0.00     0.031 A 
ATOM     53  C   UNL A   1      42.232  28.559  30.601  1.00  0.00     0.074 A 
ATOM     54  C   UNL A   1      43.437  30.343  31.899  1.00  0.00     0.049 A 
ATOM     55  N   UNL A   1      42.938  27.517  30.852  1.00  0.00    -0.248 NA
ATOM     56  C   UNL A   1      41.273  28.340  29.508  1.00  0.00     0.031 C 
ATOM     57  C   UNL A   1      44.799  29.833  31.788  1.00  0.00     0.029 A 
ATOM     58  N   UNL A   1      43.592  31.409  32.788  1.00  0.00    -0.354 N 
ATOM     59  C   UNL A   1      42.801  26.673  29.768  1.00  0.00     0.074 A 
ATOM     60  C   UNL A   1      41.653  27.147  29.043  1.00  0.00     0.031 C 
ATOM     61  C   UNL A   1      45.531  30.336  32.802  1.00  0.00     0.029 A 
ATOM     62  C   UNL A   1      44.605  31.037  33.680  1.00  0.00     0.049 A 
ATOM     63  H   UNL A   1      43.089  32.254  32.788  1.00  0.00     0.167 HD
ATOM     64  C   UNL A   1      43.809  25.800  29.492  1.00  0.00     0.031 A 
ATOM     65  C   UNL A   1      44.376  30.685  34.985  1.00  0.00     0.031 A 
ATOM     66  C   UNL A   1      44.855  25.917  30.504  1.00  0.00     0.049 A 
ATOM     67  C   UNL A   1      44.755  29.234  35.250  1.00  0.00     0.074 A 
ATOM     68  C   UNL A   1      46.040  26.633  30.517  1.00  0.00     0.029 A 
ATOM     69  N   UNL A   1      44.565  25.594  31.821  1.00  0.00    -0.354 N 
ATOM     70  N   UNL A   1      44.749  28.306  34.330  1.00  0.00    -0.248 NA
ATOM     71  C   UNL A   1      45.195  28.725  36.547  1.00  0.00     0.031 C 
ATOM     72  C   UNL A   1      46.416  26.815  31.873  1.00  0.00     0.029 A 
ATOM     73  C   UNL A   1      45.476  26.187  32.673  1.00  0.00     0.049 A 
ATOM     74  H   UNL A   1      43.816  25.023  32.108  1.00  0.00     0.167 HD
ATOM     75  C   UNL A   1      45.211  27.129  34.858  1.00  0.00     0.074 A 
ATOM     76  C   UNL A   1      45.464  27.440  36.254  1.00  0.00     0.031 C 
ATOM     77  C   UNL A   1      45.369  25.995  34.111  1.00  0.00     0.031 A 
BRANCH  64  78
ATOM     78  C   UNL A   1      44.021  25.103  28.170  1.00  0.00    -0.014 A 
ATOM     79  C   UNL A   1      43.986  23.692  28.149  1.00  0.00     0.010 A 
ATOM     80  C   UNL A   1      44.290  25.735  26.941  1.00  0.00     0.010 A 
ATOM     81  C   UNL A   1      44.256  22.952  26.994  1.00  0.00     0.020 A 
ATOM     82  C   UNL A   1      44.579  25.005  25.775  1.00  0.00     0.020 A 
ATOM     83  C   UNL A   1      44.562  23.615  25.811  1.00  0.00     0.054 A 
BRANCH  83  84
ATOM     84  S   UNL A   1      44.902  22.628  24.332  1.00  0.00     0.124 S 
ATOM     85  O   UNL A   1      43.598  22.586  23.675  1.00  0.00    -0.237 OA
ATOM     86  O   UNL A   1      45.923  23.422  23.655  1.00  0.00    -0.237 OA
ATOM     87  O   UNL A   1      45.366  21.348  24.867  1.00  0.00    -0.744 OA
ENDBRANCH  83  84
ENDBRANCH  64  78
BRANCH  65  88
ATOM     88  C   UNL A   1      43.219  31.387  35.617  1.00  0.00    -0.014 A 
ATOM     89  C   UNL A   1      42.508  32.314  34.824  1.00  0.00     0.010 A 
ATOM     90  C   UNL A   1      42.591  30.848  36.752  1.00  0.00     0.010 A 
ATOM     91  C   UNL A   1      41.145  32.537  35.039  1.00  0.00     0.020 A 
ATOM     92  C   UNL A   1      41.225  31.083  36.978  1.00  0.00     0.020 A 
ATOM     93  C   UNL A   1      40.498  31.866  36.076  1.00  0.00     0.054 A 
BRANCH  93  94
ATOM     94  S   UNL A   1      38.677  31.874  36.095  1.00  0.00     0.124 S 
ATOM     95  O   UNL A   1      38.383  31.958  37.521  1.00  0.00    -0.237 OA
ATOM     96  O   UNL A   1      38.365  33.072  35.310  1.00  0.00    -0.237 OA
ATOM     97  O   UNL A   1      38.329  30.611  35.454  1.00  0.00    -0.744 OA
ENDBRANCH  93  94
ENDBRANCH  65  88
BRANCH  77  98
ATOM     98  C   UNL A   1      45.539  24.596  34.653  1.00  0.00    -0.014 A 
ATOM     99  C   UNL A   1      44.478  23.707  34.867  1.00  0.00     0.010 A 
ATOM    100  C   UNL A   1      46.849  24.083  34.839  1.00  0.00     0.010 A 
ATOM    101  C   UNL A   1      44.704  22.406  35.334  1.00  0.00     0.020 A 
ATOM    102  C   UNL A   1      47.090  22.768  35.238  1.00  0.00     0.020 A 
ATOM    103  C   UNL A   1      46.008  21.949  35.523  1.00  0.00     0.054 A 
BRANCH 103 104
ATOM    104  S   UNL A   1      46.275  20.266  36.122  1.00  0.00     0.124 S 
ATOM    105  O   UNL A   1      45.498  19.484  35.165  1.00  0.00    -0.237 OA
ATOM    106  O   UNL A   1      47.725  20.116  36.025  1.00  0.00    -0.237 OA
ATOM    107  O   UNL A   1      45.749  20.295  37.484  1.00  0.00    -0.744 OA
ENDBRANCH 103 104
ENDBRANCH  77  98
ENDBRANCH  51  52
ENDBRANCH  43  46
ENDBRANCH  41  42
ENDBRANCH  40  41
ENDBRANCH  39  40
ENDBRANCH  38  39
ENDBRANCH  37  38
ENDBRANCH   1  37
TORSDOF 23
ENDMDL
