MODEL 1
REMARK VINA RESULT:     -11.6      0.000      0.000
REMARK SMILES CC[C@@H](C)[C@@H](C(=O)NCCCCCCNC(=O)c1ccc(-c2c3nc(c(-c4ccc(S(=O)(=O)[O-])cc4)c4ccc([nH]4)c(-c4ccc(S(=O)(=O)[O-])cc4)c4nc(c(-c5ccc(S(=O)(=O)[O-])cc5)c5ccc2[nH]5)C=C4)C=C3)cc1)N1C(=O)/C(=C/c2ccc(O)cc2)SC1=S
REMARK SMILES IDX 11 1 10 2 9 3 8 4 6 5 7 6 5 8 3 9 4 10 2 11 1 12 78 13 79 14
REMARK SMILES IDX 91 15 80 16 81 17 90 18 92 19 82 20 83 21 84 22 89 23 85 24
REMARK SMILES IDX 88 25 86 26 87 27 12 29 13 30 14 31 15 32 16 33 17 35 18 36
REMARK SMILES IDX 19 37 77 38 20 39 76 40 21 41 22 42 23 43 70 44 24 45 75 46
REMARK SMILES IDX 69 47 71 48 25 49 74 50 68 51 67 52 26 54 56 55 37 56 55 57
REMARK SMILES IDX 38 58 41 59 54 60 72 61 39 62 40 63 53 65 73 66 42 67 27 68
REMARK SMILES IDX 28 69 36 70 29 71 35 72 30 73 31 74 32 75 33 76 34 77 57 78
REMARK SMILES IDX 58 79 66 80 59 81 65 82 60 83 61 84 62 85 63 86 64 87 43 88
REMARK SMILES IDX 44 89 52 90 45 91 51 92 46 93 47 94 48 95 49 96 50 97
REMARK H PARENT 8 7 87 28 15 34 71 53 41 64
REMARK Flexibility Score: inf
ROOT
ATOM      1  C   UNL A   1      32.479  30.401  26.905  1.00  0.00     0.002 C 
ENDROOT
BRANCH   1   2
ATOM      2  C   UNL A   1      33.160  29.243  26.171  1.00  0.00     0.021 C 
BRANCH   2   3
ATOM      3  C   UNL A   1      32.957  27.868  26.822  1.00  0.00     0.116 C 
BRANCH   3   4
ATOM      4  N   UNL A   1      33.702  26.860  26.085  1.00  0.00    -0.354 N 
ATOM      5  C   UNL A   1      33.275  25.666  25.578  1.00  0.00     0.243 C 
ATOM      6  O   UNL A   1      34.107  24.757  25.482  1.00  0.00    -0.273 OA
ATOM      7  H   UNL A   1      34.651  27.070  25.928  1.00  0.00     0.163 HD
BRANCH   5   8
ATOM      8  C   UNL A   1      31.791  25.454  25.148  1.00  0.00     0.184 C 
BRANCH   8   9
ATOM      9  C   UNL A   1      31.765  23.986  24.528  1.00  0.00     0.018 C 
ATOM     10  C   UNL A   1      31.079  23.802  23.173  1.00  0.00     0.010 C 
BRANCH   9  11
ATOM     11  C   UNL A   1      31.159  23.003  25.561  1.00  0.00     0.002 C 
ATOM     12  C   UNL A   1      30.402  23.628  26.724  1.00  0.00     0.004 C 
ENDBRANCH   9  11
ENDBRANCH   8   9
BRANCH   8  13
ATOM     13  N   UNL A   1      31.315  26.524  24.207  1.00  0.00    -0.280 N 
ATOM     14  C   UNL A   1      29.978  26.878  24.082  1.00  0.00     0.266 C 
ATOM     15  C   UNL A   1      32.064  27.032  23.165  1.00  0.00     0.149 C 
ATOM     16  O   UNL A   1      28.998  26.200  24.355  1.00  0.00    -0.268 OA
ATOM     17  C   UNL A   1      29.845  28.157  23.327  1.00  0.00     0.081 C 
ATOM     18  S   UNL A   1      31.349  28.542  22.605  1.00  0.00    -0.054 SA
ATOM     19  S   UNL A   1      33.395  26.369  22.403  1.00  0.00    -0.052 S 
ATOM     20  C   UNL A   1      28.686  28.830  23.280  1.00  0.00     0.029 C 
BRANCH  20  21
ATOM     21  C   UNL A   1      28.428  30.126  22.633  1.00  0.00    -0.024 A 
ATOM     22  C   UNL A   1      28.135  30.142  21.262  1.00  0.00     0.012 A 
ATOM     23  C   UNL A   1      28.492  31.343  23.324  1.00  0.00     0.012 A 
ATOM     24  C   UNL A   1      27.859  31.346  20.609  1.00  0.00     0.047 A 
ATOM     25  C   UNL A   1      28.204  32.547  22.675  1.00  0.00     0.047 A 
ATOM     26  C   UNL A   1      27.879  32.537  21.323  1.00  0.00     0.115 A 
BRANCH  26  27
ATOM     27  O   UNL A   1      27.571  33.685  20.658  1.00  0.00    -0.508 OA
ATOM     28  H   UNL A   1      26.708  34.047  20.720  1.00  0.00     0.293 HD
ENDBRANCH  26  27
ENDBRANCH  20  21
ENDBRANCH   8  13
ENDBRANCH   5   8
ENDBRANCH   3   4
ENDBRANCH   2   3
ENDBRANCH   1   2
BRANCH   1  29
ATOM     29  C   UNL A   1      33.429  31.355  27.632  1.00  0.00     0.002 C 
BRANCH  29  30
ATOM     30  C   UNL A   1      34.910  30.958  27.631  1.00  0.00     0.021 C 
BRANCH  30  31
ATOM     31  C   UNL A   1      35.816  31.741  28.581  1.00  0.00     0.116 C 
BRANCH  31  32
ATOM     32  N   UNL A   1      35.655  31.338  29.966  1.00  0.00    -0.352 N 
ATOM     33  C   UNL A   1      36.476  30.579  30.762  1.00  0.00     0.251 C 
ATOM     34  H   UNL A   1      34.830  31.656  30.400  1.00  0.00     0.163 HD
ATOM     35  O   UNL A   1      36.077  30.212  31.865  1.00  0.00    -0.269 OA
BRANCH  33  36
ATOM     36  C   UNL A   1      37.828  30.183  30.302  1.00  0.00     0.039 A 
ATOM     37  C   UNL A   1      38.056  30.057  28.928  1.00  0.00     0.014 A 
ATOM     38  C   UNL A   1      38.851  29.883  31.206  1.00  0.00     0.014 A 
ATOM     39  C   UNL A   1      39.315  29.672  28.460  1.00  0.00     0.010 A 
ATOM     40  C   UNL A   1      40.122  29.548  30.738  1.00  0.00     0.010 A 
ATOM     41  C   UNL A   1      40.365  29.430  29.360  1.00  0.00    -0.014 A 
BRANCH  41  42
ATOM     42  C   UNL A   1      41.709  29.028  28.871  1.00  0.00     0.031 A 
ATOM     43  C   UNL A   1      42.824  30.036  28.802  1.00  0.00     0.074 A 
ATOM     44  C   UNL A   1      41.921  27.764  28.455  1.00  0.00     0.049 A 
ATOM     45  N   UNL A   1      44.054  29.879  28.381  1.00  0.00    -0.248 NA
ATOM     46  C   UNL A   1      42.510  31.404  29.245  1.00  0.00     0.031 C 
ATOM     47  C   UNL A   1      40.918  26.698  28.434  1.00  0.00     0.029 A 
ATOM     48  N   UNL A   1      43.055  27.163  27.966  1.00  0.00    -0.354 N 
ATOM     49  C   UNL A   1      44.653  31.128  28.487  1.00  0.00     0.074 A 
ATOM     50  C   UNL A   1      43.643  32.040  28.980  1.00  0.00     0.031 C 
ATOM     51  C   UNL A   1      41.486  25.570  27.976  1.00  0.00     0.029 A 
ATOM     52  C   UNL A   1      42.883  25.837  27.650  1.00  0.00     0.049 A 
ATOM     53  H   UNL A   1      43.909  27.639  27.851  1.00  0.00     0.167 HD
ATOM     54  C   UNL A   1      45.932  31.485  28.214  1.00  0.00     0.031 A 
ATOM     55  C   UNL A   1      43.754  24.934  27.159  1.00  0.00     0.031 A 
ATOM     56  C   UNL A   1      46.945  30.580  27.745  1.00  0.00     0.049 A 
ATOM     57  C   UNL A   1      45.178  25.341  26.901  1.00  0.00     0.074 A 
ATOM     58  C   UNL A   1      48.279  30.839  27.481  1.00  0.00     0.029 A 
ATOM     59  N   UNL A   1      46.740  29.235  27.474  1.00  0.00    -0.354 N 
ATOM     60  N   UNL A   1      45.737  26.519  27.053  1.00  0.00    -0.248 NA
ATOM     61  C   UNL A   1      46.091  24.295  26.423  1.00  0.00     0.031 C 
ATOM     62  C   UNL A   1      48.875  29.655  27.028  1.00  0.00     0.029 A 
ATOM     63  C   UNL A   1      47.920  28.653  27.045  1.00  0.00     0.049 A 
ATOM     64  H   UNL A   1      45.880  28.765  27.574  1.00  0.00     0.167 HD
ATOM     65  C   UNL A   1      47.073  26.347  26.712  1.00  0.00     0.074 A 
ATOM     66  C   UNL A   1      47.241  24.953  26.356  1.00  0.00     0.031 C 
ATOM     67  C   UNL A   1      48.072  27.264  26.698  1.00  0.00     0.031 A 
BRANCH  54  68
ATOM     68  C   UNL A   1      46.300  32.930  28.417  1.00  0.00    -0.014 A 
ATOM     69  C   UNL A   1      46.312  33.831  27.337  1.00  0.00     0.010 A 
ATOM     70  C   UNL A   1      46.623  33.397  29.703  1.00  0.00     0.010 A 
ATOM     71  C   UNL A   1      46.691  35.162  27.531  1.00  0.00     0.020 A 
ATOM     72  C   UNL A   1      46.979  34.733  29.905  1.00  0.00     0.020 A 
ATOM     73  C   UNL A   1      47.031  35.602  28.813  1.00  0.00     0.054 A 
BRANCH  73  74
ATOM     74  S   UNL A   1      47.520  37.334  29.045  1.00  0.00     0.124 S 
ATOM     75  O   UNL A   1      46.887  37.979  27.896  1.00  0.00    -0.237 OA
ATOM     76  O   UNL A   1      46.941  37.664  30.346  1.00  0.00    -0.237 OA
ATOM     77  O   UNL A   1      48.979  37.288  29.009  1.00  0.00    -0.744 OA
ENDBRANCH  73  74
ENDBRANCH  54  68
BRANCH  55  78
ATOM     78  C   UNL A   1      43.308  23.537  26.914  1.00  0.00    -0.014 A 
ATOM     79  C   UNL A   1      43.099  23.080  25.601  1.00  0.00     0.010 A 
ATOM     80  C   UNL A   1      43.109  22.654  27.989  1.00  0.00     0.010 A 
ATOM     81  C   UNL A   1      42.687  21.766  25.368  1.00  0.00     0.020 A 
ATOM     82  C   UNL A   1      42.717  21.332  27.758  1.00  0.00     0.020 A 
ATOM     83  C   UNL A   1      42.498  20.899  26.449  1.00  0.00     0.054 A 
BRANCH  83  84
ATOM     84  S   UNL A   1      42.026  19.177  26.125  1.00  0.00     0.124 S 
ATOM     85  O   UNL A   1      42.857  18.847  24.970  1.00  0.00    -0.237 OA
ATOM     86  O   UNL A   1      42.383  18.507  27.374  1.00  0.00    -0.237 OA
ATOM     87  O   UNL A   1      40.592  19.264  25.864  1.00  0.00    -0.744 OA
ENDBRANCH  83  84
ENDBRANCH  55  78
BRANCH  67  88
ATOM     88  C   UNL A   1      49.443  26.779  26.317  1.00  0.00    -0.014 A 
ATOM     89  C   UNL A   1      49.947  26.972  25.020  1.00  0.00     0.010 A 
ATOM     90  C   UNL A   1      50.252  26.156  27.285  1.00  0.00     0.010 A 
ATOM     91  C   UNL A   1      51.227  26.519  24.685  1.00  0.00     0.020 A 
ATOM     92  C   UNL A   1      51.538  25.719  26.959  1.00  0.00     0.020 A 
ATOM     93  C   UNL A   1      52.012  25.890  25.657  1.00  0.00     0.054 A 
BRANCH  93  94
ATOM     94  S   UNL A   1      53.683  25.339  25.216  1.00  0.00     0.124 S 
ATOM     95  O   UNL A   1      53.619  23.911  25.515  1.00  0.00    -0.237 OA
ATOM     96  O   UNL A   1      53.776  25.680  23.799  1.00  0.00    -0.237 OA
ATOM     97  O   UNL A   1      54.547  26.123  26.097  1.00  0.00    -0.744 OA
ENDBRANCH  93  94
ENDBRANCH  67  88
ENDBRANCH  41  42
ENDBRANCH  33  36
ENDBRANCH  31  32
ENDBRANCH  30  31
ENDBRANCH  29  30
ENDBRANCH   1  29
TORSDOF 21
ENDMDL
MODEL 2
REMARK VINA RESULT:     -11.3      0.630      7.920
REMARK SMILES CC[C@@H](C)[C@@H](C(=O)NCCCCCCNC(=O)c1ccc(-c2c3nc(c(-c4ccc(S(=O)(=O)[O-])cc4)c4ccc([nH]4)c(-c4ccc(S(=O)(=O)[O-])cc4)c4nc(c(-c5ccc(S(=O)(=O)[O-])cc5)c5ccc2[nH]5)C=C4)C=C3)cc1)N1C(=O)/C(=C/c2ccc(O)cc2)SC1=S
REMARK SMILES IDX 11 1 10 2 9 3 8 4 6 5 7 6 5 8 3 9 4 10 2 11 1 12 78 13 79 14
REMARK SMILES IDX 91 15 80 16 81 17 90 18 92 19 82 20 83 21 84 22 89 23 85 24
REMARK SMILES IDX 88 25 86 26 87 27 12 29 13 30 14 31 15 32 16 33 17 35 18 36
REMARK SMILES IDX 19 37 77 38 20 39 76 40 21 41 22 42 23 43 70 44 24 45 75 46
REMARK SMILES IDX 69 47 71 48 25 49 74 50 68 51 67 52 26 54 56 55 37 56 55 57
REMARK SMILES IDX 38 58 41 59 54 60 72 61 39 62 40 63 53 65 73 66 42 67 27 68
REMARK SMILES IDX 28 69 36 70 29 71 35 72 30 73 31 74 32 75 33 76 34 77 57 78
REMARK SMILES IDX 58 79 66 80 59 81 65 82 60 83 61 84 62 85 63 86 64 87 43 88
REMARK SMILES IDX 44 89 52 90 45 91 51 92 46 93 47 94 48 95 49 96 50 97
REMARK H PARENT 8 7 87 28 15 34 71 53 41 64
REMARK Flexibility Score: inf
ROOT
ATOM      1  C   UNL A   1      34.292  30.215  26.832  1.00  0.00     0.002 C 
ENDROOT
BRANCH   1   2
ATOM      2  C   UNL A   1      34.370  28.768  27.327  1.00  0.00     0.021 C 
BRANCH   2   3
ATOM      3  C   UNL A   1      33.339  27.822  26.697  1.00  0.00     0.116 C 
BRANCH   3   4
ATOM      4  N   UNL A   1      34.021  26.770  25.961  1.00  0.00    -0.354 N 
ATOM      5  C   UNL A   1      33.546  25.562  25.537  1.00  0.00     0.243 C 
ATOM      6  O   UNL A   1      34.358  24.636  25.431  1.00  0.00    -0.273 OA
ATOM      7  H   UNL A   1      34.961  26.957  25.735  1.00  0.00     0.163 HD
BRANCH   5   8
ATOM      8  C   UNL A   1      32.036  25.356  25.212  1.00  0.00     0.184 C 
BRANCH   8   9
ATOM      9  C   UNL A   1      31.957  23.880  24.614  1.00  0.00     0.018 C 
ATOM     10  C   UNL A   1      30.946  23.622  23.495  1.00  0.00     0.010 C 
BRANCH   9  11
ATOM     11  C   UNL A   1      31.733  22.871  25.768  1.00  0.00     0.002 C 
ATOM     12  C   UNL A   1      30.331  22.818  26.356  1.00  0.00     0.004 C 
ENDBRANCH   9  11
ENDBRANCH   8   9
BRANCH   8  13
ATOM     13  N   UNL A   1      31.504  26.417  24.291  1.00  0.00    -0.280 N 
ATOM     14  C   UNL A   1      30.176  26.825  24.298  1.00  0.00     0.266 C 
ATOM     15  C   UNL A   1      32.155  26.862  23.159  1.00  0.00     0.149 C 
ATOM     16  O   UNL A   1      29.206  26.198  24.697  1.00  0.00    -0.268 OA
ATOM     17  C   UNL A   1      30.014  28.086  23.519  1.00  0.00     0.081 C 
ATOM     18  S   UNL A   1      31.444  28.384  22.629  1.00  0.00    -0.054 SA
ATOM     19  S   UNL A   1      33.368  26.121  22.282  1.00  0.00    -0.052 S 
ATOM     20  C   UNL A   1      28.883  28.807  23.573  1.00  0.00     0.029 C 
BRANCH  20  21
ATOM     21  C   UNL A   1      28.609  30.092  22.914  1.00  0.00    -0.024 A 
ATOM     22  C   UNL A   1      28.175  30.082  21.581  1.00  0.00     0.012 A 
ATOM     23  C   UNL A   1      28.792  31.325  23.554  1.00  0.00     0.012 A 
ATOM     24  C   UNL A   1      27.877  31.277  20.921  1.00  0.00     0.047 A 
ATOM     25  C   UNL A   1      28.483  32.522  22.899  1.00  0.00     0.047 A 
ATOM     26  C   UNL A   1      28.018  32.485  21.590  1.00  0.00     0.115 A 
BRANCH  26  27
ATOM     27  O   UNL A   1      27.686  33.626  20.922  1.00  0.00    -0.508 OA
ATOM     28  H   UNL A   1      28.170  33.883  20.162  1.00  0.00     0.293 HD
ENDBRANCH  26  27
ENDBRANCH  20  21
ENDBRANCH   8  13
ENDBRANCH   5   8
ENDBRANCH   3   4
ENDBRANCH   2   3
ENDBRANCH   1   2
BRANCH   1  29
ATOM     29  C   UNL A   1      34.397  31.280  27.926  1.00  0.00     0.002 C 
BRANCH  29  30
ATOM     30  C   UNL A   1      35.569  32.260  27.799  1.00  0.00     0.021 C 
BRANCH  30  31
ATOM     31  C   UNL A   1      36.311  32.591  29.094  1.00  0.00     0.116 C 
BRANCH  31  32
ATOM     32  N   UNL A   1      35.963  31.694  30.181  1.00  0.00    -0.352 N 
ATOM     33  C   UNL A   1      36.610  30.573  30.638  1.00  0.00     0.251 C 
ATOM     34  H   UNL A   1      35.136  31.925  30.664  1.00  0.00     0.163 HD
ATOM     35  O   UNL A   1      36.060  29.856  31.470  1.00  0.00    -0.269 OA
BRANCH  33  36
ATOM     36  C   UNL A   1      37.952  30.208  30.127  1.00  0.00     0.039 A 
ATOM     37  C   UNL A   1      39.010  30.114  31.036  1.00  0.00     0.014 A 
ATOM     38  C   UNL A   1      38.189  30.012  28.763  1.00  0.00     0.014 A 
ATOM     39  C   UNL A   1      40.292  29.784  30.587  1.00  0.00     0.010 A 
ATOM     40  C   UNL A   1      39.457  29.633  28.321  1.00  0.00     0.010 A 
ATOM     41  C   UNL A   1      40.524  29.525  29.227  1.00  0.00    -0.014 A 
BRANCH  41  42
ATOM     42  C   UNL A   1      41.881  29.167  28.741  1.00  0.00     0.031 A 
ATOM     43  C   UNL A   1      42.178  27.764  28.285  1.00  0.00     0.074 A 
ATOM     44  C   UNL A   1      42.860  30.093  28.742  1.00  0.00     0.049 A 
ATOM     45  N   UNL A   1      43.306  27.258  27.853  1.00  0.00    -0.248 NA
ATOM     46  C   UNL A   1      41.068  26.800  28.340  1.00  0.00     0.031 C 
ATOM     47  C   UNL A   1      42.717  31.478  29.193  1.00  0.00     0.029 A 
ATOM     48  N   UNL A   1      44.174  30.004  28.352  1.00  0.00    -0.354 N 
ATOM     49  C   UNL A   1      43.049  25.915  27.606  1.00  0.00     0.074 A 
ATOM     50  C   UNL A   1      41.667  25.677  27.968  1.00  0.00     0.031 C 
ATOM     51  C   UNL A   1      43.890  32.115  29.035  1.00  0.00     0.029 A 
ATOM     52  C   UNL A   1      44.872  31.179  28.495  1.00  0.00     0.049 A 
ATOM     53  H   UNL A   1      44.577  29.176  28.005  1.00  0.00     0.167 HD
ATOM     54  C   UNL A   1      43.879  24.965  27.109  1.00  0.00     0.031 A 
ATOM     55  C   UNL A   1      46.157  31.474  28.216  1.00  0.00     0.031 A 
ATOM     56  C   UNL A   1      45.245  25.201  26.728  1.00  0.00     0.049 A 
ATOM     57  C   UNL A   1      47.049  30.417  27.628  1.00  0.00     0.074 A 
ATOM     58  C   UNL A   1      46.152  24.312  26.176  1.00  0.00     0.029 A 
ATOM     59  N   UNL A   1      45.902  26.416  26.853  1.00  0.00    -0.354 N 
ATOM     60  N   UNL A   1      46.772  29.163  27.359  1.00  0.00    -0.248 NA
ATOM     61  C   UNL A   1      48.421  30.819  27.292  1.00  0.00     0.031 C 
ATOM     62  C   UNL A   1      47.366  24.985  25.988  1.00  0.00     0.029 A 
ATOM     63  C   UNL A   1      47.202  26.300  26.391  1.00  0.00     0.049 A 
ATOM     64  H   UNL A   1      45.502  27.239  27.216  1.00  0.00     0.167 HD
ATOM     65  C   UNL A   1      47.928  28.634  26.798  1.00  0.00     0.074 A 
ATOM     66  C   UNL A   1      48.904  29.705  26.758  1.00  0.00     0.031 C 
ATOM     67  C   UNL A   1      48.159  27.375  26.354  1.00  0.00     0.031 A 
BRANCH  54  68
ATOM     68  C   UNL A   1      43.320  23.576  26.956  1.00  0.00    -0.014 A 
ATOM     69  C   UNL A   1      42.865  23.114  25.708  1.00  0.00     0.010 A 
ATOM     70  C   UNL A   1      43.262  22.719  28.069  1.00  0.00     0.010 A 
ATOM     71  C   UNL A   1      42.315  21.835  25.587  1.00  0.00     0.020 A 
ATOM     72  C   UNL A   1      42.734  21.430  27.946  1.00  0.00     0.020 A 
ATOM     73  C   UNL A   1      42.244  21.005  26.709  1.00  0.00     0.054 A 
BRANCH  73  74
ATOM     74  S   UNL A   1      41.526  19.349  26.530  1.00  0.00     0.124 S 
ATOM     75  O   UNL A   1      42.469  18.712  25.613  1.00  0.00    -0.237 OA
ATOM     76  O   UNL A   1      41.543  18.837  27.899  1.00  0.00    -0.237 OA
ATOM     77  O   UNL A   1      40.198  19.606  25.981  1.00  0.00    -0.744 OA
ENDBRANCH  73  74
ENDBRANCH  54  68
BRANCH  55  78
ATOM     78  C   UNL A   1      46.666  32.849  28.457  1.00  0.00    -0.014 A 
ATOM     79  C   UNL A   1      46.602  33.818  27.439  1.00  0.00     0.010 A 
ATOM     80  C   UNL A   1      47.200  33.202  29.708  1.00  0.00     0.010 A 
ATOM     81  C   UNL A   1      47.073  35.113  27.666  1.00  0.00     0.020 A 
ATOM     82  C   UNL A   1      47.653  34.503  29.945  1.00  0.00     0.020 A 
ATOM     83  C   UNL A   1      47.596  35.448  28.918  1.00  0.00     0.054 A 
BRANCH  83  84
ATOM     84  S   UNL A   1      48.144  37.152  29.216  1.00  0.00     0.124 S 
ATOM     85  O   UNL A   1      46.903  37.903  29.049  1.00  0.00    -0.237 OA
ATOM     86  O   UNL A   1      48.665  37.087  30.580  1.00  0.00    -0.237 OA
ATOM     87  O   UNL A   1      49.154  37.368  28.183  1.00  0.00    -0.744 OA
ENDBRANCH  83  84
ENDBRANCH  55  78
BRANCH  67  88
ATOM     88  C   UNL A   1      49.509  27.095  25.754  1.00  0.00    -0.014 A 
ATOM     89  C   UNL A   1      49.755  27.310  24.387  1.00  0.00     0.010 A 
ATOM     90  C   UNL A   1      50.556  26.649  26.580  1.00  0.00     0.010 A 
ATOM     91  C   UNL A   1      51.018  27.050  23.848  1.00  0.00     0.020 A 
ATOM     92  C   UNL A   1      51.825  26.406  26.048  1.00  0.00     0.020 A 
ATOM     93  C   UNL A   1      52.044  26.594  24.682  1.00  0.00     0.054 A 
BRANCH  93  94
ATOM     94  S   UNL A   1      53.687  26.295  23.973  1.00  0.00     0.124 S 
ATOM     95  O   UNL A   1      53.387  26.195  22.547  1.00  0.00    -0.237 OA
ATOM     96  O   UNL A   1      54.438  27.481  24.375  1.00  0.00    -0.237 OA
ATOM     97  O   UNL A   1      54.114  25.050  24.610  1.00  0.00    -0.744 OA
ENDBRANCH  93  94
ENDBRANCH  67  88
ENDBRANCH  41  42
ENDBRANCH  33  36
ENDBRANCH  31  32
ENDBRANCH  30  31
ENDBRANCH  29  30
ENDBRANCH   1  29
TORSDOF 21
ENDMDL
MODEL 3
REMARK VINA RESULT:     -11.3      5.703      7.737
REMARK SMILES CC[C@@H](C)[C@@H](C(=O)NCCCCCCNC(=O)c1ccc(-c2c3nc(c(-c4ccc(S(=O)(=O)[O-])cc4)c4ccc([nH]4)c(-c4ccc(S(=O)(=O)[O-])cc4)c4nc(c(-c5ccc(S(=O)(=O)[O-])cc5)c5ccc2[nH]5)C=C4)C=C3)cc1)N1C(=O)/C(=C/c2ccc(O)cc2)SC1=S
REMARK SMILES IDX 11 1 10 2 9 3 8 4 6 5 7 6 5 8 3 9 4 10 2 11 1 12 78 13 79 14
REMARK SMILES IDX 91 15 80 16 81 17 90 18 92 19 82 20 83 21 84 22 89 23 85 24
REMARK SMILES IDX 88 25 86 26 87 27 12 29 13 30 14 31 15 32 16 33 17 35 18 36
REMARK SMILES IDX 19 37 77 38 20 39 76 40 21 41 22 42 23 43 70 44 24 45 75 46
REMARK SMILES IDX 69 47 71 48 25 49 74 50 68 51 67 52 26 54 56 55 37 56 55 57
REMARK SMILES IDX 38 58 41 59 54 60 72 61 39 62 40 63 53 65 73 66 42 67 27 68
REMARK SMILES IDX 28 69 36 70 29 71 35 72 30 73 31 74 32 75 33 76 34 77 57 78
REMARK SMILES IDX 58 79 66 80 59 81 65 82 60 83 61 84 62 85 63 86 64 87 43 88
REMARK SMILES IDX 44 89 52 90 45 91 51 92 46 93 47 94 48 95 49 96 50 97
REMARK H PARENT 8 7 87 28 15 34 71 53 41 64
REMARK Flexibility Score: inf
ROOT
ATOM      1  C   UNL A   1      32.355  29.719  25.442  1.00  0.00     0.002 C 
ENDROOT
BRANCH   1   2
ATOM      2  C   UNL A   1      33.574  29.027  26.058  1.00  0.00     0.021 C 
BRANCH   2   3
ATOM      3  C   UNL A   1      33.300  27.618  26.602  1.00  0.00     0.116 C 
BRANCH   3   4
ATOM      4  N   UNL A   1      33.960  26.631  25.765  1.00  0.00    -0.354 N 
ATOM      5  C   UNL A   1      33.479  25.449  25.276  1.00  0.00     0.243 C 
ATOM      6  O   UNL A   1      34.295  24.544  25.069  1.00  0.00    -0.273 OA
ATOM      7  H   UNL A   1      34.887  26.845  25.512  1.00  0.00     0.163 HD
BRANCH   5   8
ATOM      8  C   UNL A   1      31.958  25.246  25.003  1.00  0.00     0.184 C 
BRANCH   8   9
ATOM      9  C   UNL A   1      31.855  23.770  24.410  1.00  0.00     0.018 C 
ATOM     10  C   UNL A   1      30.856  23.530  23.277  1.00  0.00     0.010 C 
BRANCH   9  11
ATOM     11  C   UNL A   1      31.592  22.770  25.564  1.00  0.00     0.002 C 
ATOM     12  C   UNL A   1      30.713  23.269  26.702  1.00  0.00     0.004 C 
ENDBRANCH   9  11
ENDBRANCH   8   9
BRANCH   8  13
ATOM     13  N   UNL A   1      31.397  26.308  24.101  1.00  0.00    -0.280 N 
ATOM     14  C   UNL A   1      30.089  26.765  24.197  1.00  0.00     0.266 C 
ATOM     15  C   UNL A   1      31.977  26.704  22.913  1.00  0.00     0.149 C 
ATOM     16  O   UNL A   1      29.129  26.184  24.681  1.00  0.00    -0.268 OA
ATOM     17  C   UNL A   1      29.914  28.016  23.403  1.00  0.00     0.081 C 
ATOM     18  S   UNL A   1      31.284  28.242  22.402  1.00  0.00    -0.054 SA
ATOM     19  S   UNL A   1      33.093  25.900  21.966  1.00  0.00    -0.052 S 
ATOM     20  C   UNL A   1      28.818  28.780  23.525  1.00  0.00     0.029 C 
BRANCH  20  21
ATOM     21  C   UNL A   1      28.541  30.062  22.858  1.00  0.00    -0.024 A 
ATOM     22  C   UNL A   1      28.197  30.048  21.499  1.00  0.00     0.012 A 
ATOM     23  C   UNL A   1      28.638  31.294  23.518  1.00  0.00     0.012 A 
ATOM     24  C   UNL A   1      27.901  31.239  20.830  1.00  0.00     0.047 A 
ATOM     25  C   UNL A   1      28.331  32.485  22.853  1.00  0.00     0.047 A 
ATOM     26  C   UNL A   1      27.954  32.445  21.516  1.00  0.00     0.115 A 
BRANCH  26  27
ATOM     27  O   UNL A   1      27.626  33.580  20.836  1.00  0.00    -0.508 OA
ATOM     28  H   UNL A   1      27.927  34.413  21.141  1.00  0.00     0.293 HD
ENDBRANCH  26  27
ENDBRANCH  20  21
ENDBRANCH   8  13
ENDBRANCH   5   8
ENDBRANCH   3   4
ENDBRANCH   2   3
ENDBRANCH   1   2
BRANCH   1  29
ATOM     29  C   UNL A   1      31.770  30.862  26.274  1.00  0.00     0.002 C 
BRANCH  29  30
ATOM     30  C   UNL A   1      32.602  31.307  27.484  1.00  0.00     0.021 C 
BRANCH  30  31
ATOM     31  C   UNL A   1      33.537  32.494  27.256  1.00  0.00     0.116 C 
BRANCH  31  32
ATOM     32  N   UNL A   1      33.116  33.682  27.977  1.00  0.00    -0.352 N 
ATOM     33  C   UNL A   1      33.578  34.203  29.160  1.00  0.00     0.251 C 
ATOM     34  H   UNL A   1      32.386  34.190  27.554  1.00  0.00     0.163 HD
ATOM     35  O   UNL A   1      32.973  35.133  29.688  1.00  0.00    -0.269 OA
BRANCH  33  36
ATOM     36  C   UNL A   1      34.785  33.647  29.816  1.00  0.00     0.039 A 
ATOM     37  C   UNL A   1      34.626  32.607  30.736  1.00  0.00     0.014 A 
ATOM     38  C   UNL A   1      36.058  34.174  29.575  1.00  0.00     0.014 A 
ATOM     39  C   UNL A   1      35.742  32.068  31.383  1.00  0.00     0.010 A 
ATOM     40  C   UNL A   1      37.177  33.602  30.182  1.00  0.00     0.010 A 
ATOM     41  C   UNL A   1      37.029  32.550  31.100  1.00  0.00    -0.014 A 
BRANCH  41  42
ATOM     42  C   UNL A   1      38.222  31.978  31.777  1.00  0.00     0.031 A 
ATOM     43  C   UNL A   1      38.590  32.420  33.167  1.00  0.00     0.074 A 
ATOM     44  C   UNL A   1      38.998  31.087  31.129  1.00  0.00     0.049 A 
ATOM     45  N   UNL A   1      39.606  32.053  33.908  1.00  0.00    -0.248 NA
ATOM     46  C   UNL A   1      37.713  33.418  33.800  1.00  0.00     0.031 C 
ATOM     47  C   UNL A   1      38.777  30.602  29.765  1.00  0.00     0.029 A 
ATOM     48  N   UNL A   1      40.135  30.432  31.535  1.00  0.00    -0.354 N 
ATOM     49  C   UNL A   1      39.503  32.789  35.083  1.00  0.00     0.074 A 
ATOM     50  C   UNL A   1      38.345  33.648  34.942  1.00  0.00     0.031 C 
ATOM     51  C   UNL A   1      39.735  29.712  29.455  1.00  0.00     0.029 A 
ATOM     52  C   UNL A   1      40.648  29.581  30.586  1.00  0.00     0.049 A 
ATOM     53  H   UNL A   1      40.544  30.562  32.420  1.00  0.00     0.167 HD
ATOM     54  C   UNL A   1      40.289  32.747  36.186  1.00  0.00     0.031 A 
ATOM     55  C   UNL A   1      41.730  28.778  30.623  1.00  0.00     0.031 A 
ATOM     56  C   UNL A   1      41.427  31.881  36.340  1.00  0.00     0.049 A 
ATOM     57  C   UNL A   1      42.565  28.717  31.871  1.00  0.00     0.074 A 
ATOM     58  C   UNL A   1      42.259  31.737  37.436  1.00  0.00     0.029 A 
ATOM     59  N   UNL A   1      41.890  31.006  35.369  1.00  0.00    -0.354 N 
ATOM     60  N   UNL A   1      42.423  29.388  32.989  1.00  0.00    -0.248 NA
ATOM     61  C   UNL A   1      43.695  27.778  31.868  1.00  0.00     0.031 C 
ATOM     62  C   UNL A   1      43.241  30.790  37.120  1.00  0.00     0.029 A 
ATOM     63  C   UNL A   1      42.997  30.320  35.840  1.00  0.00     0.049 A 
ATOM     64  H   UNL A   1      41.490  30.889  34.477  1.00  0.00     0.167 HD
ATOM     65  C   UNL A   1      43.432  28.934  33.831  1.00  0.00     0.074 A 
ATOM     66  C   UNL A   1      44.169  27.925  33.098  1.00  0.00     0.031 C 
ATOM     67  C   UNL A   1      43.718  29.318  35.100  1.00  0.00     0.031 A 
BRANCH  54  68
ATOM     68  C   UNL A   1      39.938  33.678  37.316  1.00  0.00    -0.014 A 
ATOM     69  C   UNL A   1      39.020  33.293  38.309  1.00  0.00     0.010 A 
ATOM     70  C   UNL A   1      40.543  34.945  37.393  1.00  0.00     0.010 A 
ATOM     71  C   UNL A   1      38.674  34.180  39.332  1.00  0.00     0.020 A 
ATOM     72  C   UNL A   1      40.217  35.825  38.428  1.00  0.00     0.020 A 
ATOM     73  C   UNL A   1      39.268  35.444  39.379  1.00  0.00     0.054 A 
BRANCH  73  74
ATOM     74  S   UNL A   1      38.806  36.580  40.716  1.00  0.00     0.124 S 
ATOM     75  O   UNL A   1      37.782  35.812  41.421  1.00  0.00    -0.237 OA
ATOM     76  O   UNL A   1      40.063  36.760  41.440  1.00  0.00    -0.237 OA
ATOM     77  O   UNL A   1      38.322  37.764  40.011  1.00  0.00    -0.744 OA
ENDBRANCH  73  74
ENDBRANCH  54  68
BRANCH  55  78
ATOM     78  C   UNL A   1      42.063  27.935  29.445  1.00  0.00    -0.014 A 
ATOM     79  C   UNL A   1      41.410  26.705  29.246  1.00  0.00     0.010 A 
ATOM     80  C   UNL A   1      43.019  28.366  28.509  1.00  0.00     0.010 A 
ATOM     81  C   UNL A   1      41.717  25.915  28.135  1.00  0.00     0.020 A 
ATOM     82  C   UNL A   1      43.312  27.587  27.385  1.00  0.00     0.020 A 
ATOM     83  C   UNL A   1      42.666  26.361  27.211  1.00  0.00     0.054 A 
BRANCH  83  84
ATOM     84  S   UNL A   1      43.005  25.353  25.741  1.00  0.00     0.124 S 
ATOM     85  O   UNL A   1      44.464  25.354  25.702  1.00  0.00    -0.237 OA
ATOM     86  O   UNL A   1      42.381  24.075  26.077  1.00  0.00    -0.237 OA
ATOM     87  O   UNL A   1      42.346  26.092  24.666  1.00  0.00    -0.744 OA
ENDBRANCH  83  84
ENDBRANCH  55  78
BRANCH  67  88
ATOM     88  C   UNL A   1      44.857  28.618  35.787  1.00  0.00    -0.014 A 
ATOM     89  C   UNL A   1      44.645  27.448  36.536  1.00  0.00     0.010 A 
ATOM     90  C   UNL A   1      46.164  29.119  35.648  1.00  0.00     0.010 A 
ATOM     91  C   UNL A   1      45.718  26.808  37.164  1.00  0.00     0.020 A 
ATOM     92  C   UNL A   1      47.241  28.472  36.259  1.00  0.00     0.020 A 
ATOM     93  C   UNL A   1      47.009  27.328  37.025  1.00  0.00     0.054 A 
BRANCH  93  94
ATOM     94  S   UNL A   1      48.394  26.466  37.818  1.00  0.00     0.124 S 
ATOM     95  O   UNL A   1      48.424  27.091  39.137  1.00  0.00    -0.237 OA
ATOM     96  O   UNL A   1      47.966  25.069  37.794  1.00  0.00    -0.237 OA
ATOM     97  O   UNL A   1      49.532  26.776  36.954  1.00  0.00    -0.744 OA
ENDBRANCH  93  94
ENDBRANCH  67  88
ENDBRANCH  41  42
ENDBRANCH  33  36
ENDBRANCH  31  32
ENDBRANCH  30  31
ENDBRANCH  29  30
ENDBRANCH   1  29
TORSDOF 21
ENDMDL
