MODEL 1
REMARK VINA RESULT:     -11.9      0.000      0.000
REMARK SMILES CC1(C)C[C@@H]1n1c(SCC(=O)NCCCCCCNC(=O)c2ccc(-c3c4nc(c(-c5ccc(S(=O)(=O)[O-])cc5)c5ccc([nH]5)c(-c5ccc(S(=O)(=O)[O-])cc5)c5nc(c(-c6ccc(S(=O)(=O)[O-])cc6)c6ccc3[nH]6)C=C5)C=C4)cc2)nc2cc(Cl)c(Cl)cc21
REMARK SMILES IDX 15 1 14 2 13 3 12 4 10 5 11 6 9 8 8 9 7 10 6 11 90 12 82 13
REMARK SMILES IDX 83 14 89 15 84 16 87 17 85 18 88 19 86 20 5 21 1 22 2 23
REMARK SMILES IDX 3 24 4 25 16 26 17 27 18 28 19 29 20 30 21 32 22 33 23 34
REMARK SMILES IDX 81 35 24 36 80 37 25 38 26 39 27 40 74 41 28 42 79 43 73 44
REMARK SMILES IDX 75 45 29 46 78 47 72 48 71 49 30 51 60 52 41 53 59 54 42 55
REMARK SMILES IDX 45 56 58 57 76 58 43 59 44 60 57 62 77 63 46 64 31 65 32 66
REMARK SMILES IDX 40 67 33 68 39 69 34 70 35 71 36 72 37 73 38 74 61 75 62 76
REMARK SMILES IDX 70 77 63 78 69 79 64 80 65 81 66 82 67 83 68 84 47 85 48 86
REMARK SMILES IDX 56 87 49 88 55 89 50 90 51 91 52 92 53 93 54 94
REMARK H PARENT 12 7 19 31 75 50 45 61
REMARK Flexibility Score: inf
ROOT
ATOM      1  C   UNL A   1      38.039  21.756  25.222  1.00  0.00     0.002 C 
ENDROOT
BRANCH   1   2
ATOM      2  C   UNL A   1      36.909  22.794  25.212  1.00  0.00     0.021 C 
BRANCH   2   3
ATOM      3  C   UNL A   1      36.192  22.971  23.874  1.00  0.00     0.116 C 
BRANCH   3   4
ATOM      4  N   UNL A   1      34.790  22.616  23.931  1.00  0.00    -0.355 N 
ATOM      5  C   UNL A   1      33.717  23.191  23.333  1.00  0.00     0.230 C 
ATOM      6  O   UNL A   1      32.741  22.452  23.144  1.00  0.00    -0.274 OA
ATOM      7  H   UNL A   1      34.583  21.833  24.490  1.00  0.00     0.163 HD
BRANCH   5   8
ATOM      8  C   UNL A   1      33.646  24.630  22.852  1.00  0.00     0.178 C 
BRANCH   8   9
ATOM      9  S   UNL A   1      33.757  25.944  24.042  1.00  0.00    -0.078 SA
BRANCH   9  10
ATOM     10  C   UNL A   1      32.624  27.228  23.832  1.00  0.00     0.169 A 
ATOM     11  N   UNL A   1      32.496  28.473  24.409  1.00  0.00    -0.315 N 
ATOM     12  C   UNL A   1      31.312  29.034  23.956  1.00  0.00     0.071 A 
ATOM     13  N   UNL A   1      31.660  27.037  22.948  1.00  0.00    -0.222 NA
ATOM     14  C   UNL A   1      30.858  28.137  23.000  1.00  0.00     0.091 A 
ATOM     15  C   UNL A   1      30.617  30.216  24.255  1.00  0.00     0.050 A 
ATOM     16  C   UNL A   1      29.705  28.427  22.255  1.00  0.00     0.052 A 
ATOM     17  C   UNL A   1      29.479  30.511  23.489  1.00  0.00     0.061 A 
ATOM     18  C   UNL A   1      29.032  29.630  22.495  1.00  0.00     0.061 A 
ATOM     19  Cl  UNL A   1      28.680  32.011  23.816  1.00  0.00    -0.083 Cl
ATOM     20  Cl  UNL A   1      27.641  29.969  21.522  1.00  0.00    -0.083 Cl
BRANCH  11  21
ATOM     21  C   UNL A   1      33.333  29.142  25.374  1.00  0.00     0.096 C 
ATOM     22  C   UNL A   1      34.571  28.886  27.674  1.00  0.00     0.013 C 
ATOM     23  C   UNL A   1      33.282  28.898  26.893  1.00  0.00    -0.012 C 
ATOM     24  C   UNL A   1      32.135  28.197  27.583  1.00  0.00     0.013 C 
ATOM     25  C   UNL A   1      32.888  30.223  26.303  1.00  0.00     0.034 C 
ENDBRANCH  11  21
ENDBRANCH   9  10
ENDBRANCH   8   9
ENDBRANCH   5   8
ENDBRANCH   3   4
ENDBRANCH   2   3
ENDBRANCH   1   2
BRANCH   1  26
ATOM     26  C   UNL A   1      39.219  22.058  26.150  1.00  0.00     0.002 C 
BRANCH  26  27
ATOM     27  C   UNL A   1      40.299  20.972  26.227  1.00  0.00     0.021 C 
BRANCH  27  28
ATOM     28  C   UNL A   1      41.674  21.475  26.666  1.00  0.00     0.116 C 
BRANCH  28  29
ATOM     29  N   UNL A   1      42.381  22.199  25.633  1.00  0.00    -0.352 N 
ATOM     30  C   UNL A   1      42.680  23.515  25.421  1.00  0.00     0.251 C 
ATOM     31  H   UNL A   1      42.725  21.610  24.923  1.00  0.00     0.163 HD
ATOM     32  O   UNL A   1      43.445  23.749  24.480  1.00  0.00    -0.269 OA
BRANCH  30  33
ATOM     33  C   UNL A   1      42.098  24.658  26.175  1.00  0.00     0.039 A 
ATOM     34  C   UNL A   1      41.122  25.535  25.704  1.00  0.00     0.014 A 
ATOM     35  C   UNL A   1      42.668  24.906  27.440  1.00  0.00     0.014 A 
ATOM     36  C   UNL A   1      40.831  26.700  26.404  1.00  0.00     0.010 A 
ATOM     37  C   UNL A   1      42.362  26.055  28.155  1.00  0.00     0.010 A 
ATOM     38  C   UNL A   1      41.495  26.986  27.599  1.00  0.00    -0.014 A 
BRANCH  38  39
ATOM     39  C   UNL A   1      41.200  28.257  28.253  1.00  0.00     0.031 A 
ATOM     40  C   UNL A   1      42.239  29.306  28.062  1.00  0.00     0.074 A 
ATOM     41  C   UNL A   1      40.061  28.492  28.936  1.00  0.00     0.049 A 
ATOM     42  N   UNL A   1      43.007  29.840  28.954  1.00  0.00    -0.248 NA
ATOM     43  C   UNL A   1      42.552  29.710  26.683  1.00  0.00     0.031 C 
ATOM     44  C   UNL A   1      38.847  27.671  28.993  1.00  0.00     0.029 A 
ATOM     45  N   UNL A   1      39.720  29.587  29.671  1.00  0.00    -0.354 N 
ATOM     46  C   UNL A   1      43.792  30.775  28.281  1.00  0.00     0.074 A 
ATOM     47  C   UNL A   1      43.562  30.558  26.875  1.00  0.00     0.031 C 
ATOM     48  C   UNL A   1      37.834  28.401  29.518  1.00  0.00     0.029 A 
ATOM     49  C   UNL A   1      38.370  29.664  29.992  1.00  0.00     0.049 A 
ATOM     50  H   UNL A   1      40.376  30.266  29.950  1.00  0.00     0.167 HD
ATOM     51  C   UNL A   1      44.442  31.779  28.931  1.00  0.00     0.031 A 
ATOM     52  C   UNL A   1      37.737  30.709  30.579  1.00  0.00     0.031 A 
ATOM     53  C   UNL A   1      44.519  31.532  30.344  1.00  0.00     0.049 A 
ATOM     54  C   UNL A   1      38.776  31.489  31.291  1.00  0.00     0.074 A 
ATOM     55  C   UNL A   1      45.220  30.667  31.154  1.00  0.00     0.029 A 
ATOM     56  N   UNL A   1      43.480  32.028  31.090  1.00  0.00    -0.354 N 
ATOM     57  N   UNL A   1      39.459  31.033  32.304  1.00  0.00    -0.248 NA
ATOM     58  C   UNL A   1      39.333  32.661  30.637  1.00  0.00     0.031 C 
ATOM     59  C   UNL A   1      44.343  30.381  32.241  1.00  0.00     0.029 A 
ATOM     60  C   UNL A   1      43.174  31.131  32.081  1.00  0.00     0.049 A 
ATOM     61  H   UNL A   1      43.028  32.889  30.939  1.00  0.00     0.167 HD
ATOM     62  C   UNL A   1      40.720  31.589  32.158  1.00  0.00     0.074 A 
ATOM     63  C   UNL A   1      40.542  32.678  31.202  1.00  0.00     0.031 C 
ATOM     64  C   UNL A   1      41.835  30.951  32.621  1.00  0.00     0.031 A 
BRANCH  51  65
ATOM     65  C   UNL A   1      44.693  33.147  28.344  1.00  0.00    -0.014 A 
ATOM     66  C   UNL A   1      43.656  34.036  27.998  1.00  0.00     0.010 A 
ATOM     67  C   UNL A   1      46.003  33.677  28.359  1.00  0.00     0.010 A 
ATOM     68  C   UNL A   1      43.901  35.369  27.658  1.00  0.00     0.020 A 
ATOM     69  C   UNL A   1      46.256  35.025  28.058  1.00  0.00     0.020 A 
ATOM     70  C   UNL A   1      45.200  35.860  27.699  1.00  0.00     0.054 A 
BRANCH  70  71
ATOM     71  S   UNL A   1      45.463  37.611  27.329  1.00  0.00     0.124 S 
ATOM     72  O   UNL A   1      45.882  38.132  28.628  1.00  0.00    -0.237 OA
ATOM     73  O   UNL A   1      46.506  37.563  26.306  1.00  0.00    -0.237 OA
ATOM     74  O   UNL A   1      44.157  38.067  26.866  1.00  0.00    -0.744 OA
ENDBRANCH  70  71
ENDBRANCH  51  65
BRANCH  52  75
ATOM     75  C   UNL A   1      36.466  31.338  30.128  1.00  0.00    -0.014 A 
ATOM     76  C   UNL A   1      36.280  31.631  28.761  1.00  0.00     0.010 A 
ATOM     77  C   UNL A   1      35.600  31.954  31.054  1.00  0.00     0.010 A 
ATOM     78  C   UNL A   1      35.330  32.569  28.340  1.00  0.00     0.020 A 
ATOM     79  C   UNL A   1      34.641  32.894  30.637  1.00  0.00     0.020 A 
ATOM     80  C   UNL A   1      34.541  33.223  29.284  1.00  0.00     0.054 A 
BRANCH  80  81
ATOM     81  S   UNL A   1      33.456  34.569  28.720  1.00  0.00     0.124 S 
ATOM     82  O   UNL A   1      32.705  34.882  29.935  1.00  0.00    -0.237 OA
ATOM     83  O   UNL A   1      34.417  35.591  28.300  1.00  0.00    -0.237 OA
ATOM     84  O   UNL A   1      32.683  33.967  27.644  1.00  0.00    -0.744 OA
ENDBRANCH  80  81
ENDBRANCH  52  75
BRANCH  64  85
ATOM     85  C   UNL A   1      41.671  29.824  33.621  1.00  0.00    -0.014 A 
ATOM     86  C   UNL A   1      41.778  30.167  34.982  1.00  0.00     0.010 A 
ATOM     87  C   UNL A   1      41.611  28.459  33.277  1.00  0.00     0.010 A 
ATOM     88  C   UNL A   1      41.884  29.186  35.968  1.00  0.00     0.020 A 
ATOM     89  C   UNL A   1      41.688  27.465  34.270  1.00  0.00     0.020 A 
ATOM     90  C   UNL A   1      41.856  27.839  35.607  1.00  0.00     0.054 A 
BRANCH  90  91
ATOM     91  S   UNL A   1      42.079  26.604  36.916  1.00  0.00     0.124 S 
ATOM     92  O   UNL A   1      43.214  27.144  37.661  1.00  0.00    -0.237 OA
ATOM     93  O   UNL A   1      40.798  26.643  37.620  1.00  0.00    -0.237 OA
ATOM     94  O   UNL A   1      42.347  25.363  36.194  1.00  0.00    -0.744 OA
ENDBRANCH  90  91
ENDBRANCH  64  85
ENDBRANCH  38  39
ENDBRANCH  30  33
ENDBRANCH  28  29
ENDBRANCH  27  28
ENDBRANCH  26  27
ENDBRANCH   1  26
TORSDOF 19
ENDMDL
MODEL 2
REMARK VINA RESULT:     -11.7      1.961      2.688
REMARK SMILES CC1(C)C[C@@H]1n1c(SCC(=O)NCCCCCCNC(=O)c2ccc(-c3c4nc(c(-c5ccc(S(=O)(=O)[O-])cc5)c5ccc([nH]5)c(-c5ccc(S(=O)(=O)[O-])cc5)c5nc(c(-c6ccc(S(=O)(=O)[O-])cc6)c6ccc3[nH]6)C=C5)C=C4)cc2)nc2cc(Cl)c(Cl)cc21
REMARK SMILES IDX 15 1 14 2 13 3 12 4 10 5 11 6 9 8 8 9 7 10 6 11 90 12 82 13
REMARK SMILES IDX 83 14 89 15 84 16 87 17 85 18 88 19 86 20 5 21 1 22 2 23
REMARK SMILES IDX 3 24 4 25 16 26 17 27 18 28 19 29 20 30 21 32 22 33 23 34
REMARK SMILES IDX 81 35 24 36 80 37 25 38 26 39 27 40 74 41 28 42 79 43 73 44
REMARK SMILES IDX 75 45 29 46 78 47 72 48 71 49 30 51 60 52 41 53 59 54 42 55
REMARK SMILES IDX 45 56 58 57 76 58 43 59 44 60 57 62 77 63 46 64 31 65 32 66
REMARK SMILES IDX 40 67 33 68 39 69 34 70 35 71 36 72 37 73 38 74 61 75 62 76
REMARK SMILES IDX 70 77 63 78 69 79 64 80 65 81 66 82 67 83 68 84 47 85 48 86
REMARK SMILES IDX 56 87 49 88 55 89 50 90 51 91 52 92 53 93 54 94
REMARK H PARENT 12 7 19 31 75 50 45 61
REMARK Flexibility Score: inf
ROOT
ATOM      1  C   UNL A   1      33.912  21.641  24.899  1.00  0.00     0.002 C 
ENDROOT
BRANCH   1   2
ATOM      2  C   UNL A   1      33.985  22.484  23.619  1.00  0.00     0.021 C 
BRANCH   2   3
ATOM      3  C   UNL A   1      32.686  22.578  22.821  1.00  0.00     0.116 C 
BRANCH   3   4
ATOM      4  N   UNL A   1      32.717  23.612  21.808  1.00  0.00    -0.355 N 
ATOM      5  C   UNL A   1      32.816  24.958  21.934  1.00  0.00     0.230 C 
ATOM      6  O   UNL A   1      33.297  25.560  20.963  1.00  0.00    -0.274 OA
ATOM      7  H   UNL A   1      32.657  23.285  20.881  1.00  0.00     0.163 HD
BRANCH   5   8
ATOM      8  C   UNL A   1      32.433  25.756  23.168  1.00  0.00     0.178 C 
BRANCH   8   9
ATOM      9  S   UNL A   1      30.723  26.152  23.441  1.00  0.00    -0.078 SA
BRANCH   9  10
ATOM     10  C   UNL A   1      30.310  27.815  23.251  1.00  0.00     0.169 A 
ATOM     11  N   UNL A   1      30.517  28.932  24.033  1.00  0.00    -0.315 N 
ATOM     12  C   UNL A   1      29.848  29.994  23.446  1.00  0.00     0.071 A 
ATOM     13  N   UNL A   1      29.663  28.149  22.147  1.00  0.00    -0.222 NA
ATOM     14  C   UNL A   1      29.386  29.480  22.243  1.00  0.00     0.091 A 
ATOM     15  C   UNL A   1      29.622  31.328  23.819  1.00  0.00     0.050 A 
ATOM     16  C   UNL A   1      28.724  30.313  21.330  1.00  0.00     0.052 A 
ATOM     17  C   UNL A   1      28.981  32.162  22.889  1.00  0.00     0.061 A 
ATOM     18  C   UNL A   1      28.542  31.662  21.656  1.00  0.00     0.061 A 
ATOM     19  Cl  UNL A   1      28.783  33.823  23.332  1.00  0.00    -0.083 Cl
ATOM     20  Cl  UNL A   1      27.761  32.664  20.481  1.00  0.00    -0.083 Cl
BRANCH  11  21
ATOM     21  C   UNL A   1      31.218  29.073  25.284  1.00  0.00     0.096 C 
ATOM     22  C   UNL A   1      33.311  30.141  26.455  1.00  0.00     0.013 C 
ATOM     23  C   UNL A   1      32.747  29.202  25.420  1.00  0.00    -0.012 C 
ATOM     24  C   UNL A   1      33.710  28.856  24.309  1.00  0.00     0.013 C 
ATOM     25  C   UNL A   1      32.015  28.003  25.955  1.00  0.00     0.034 C 
ENDBRANCH  11  21
ENDBRANCH   9  10
ENDBRANCH   8   9
ENDBRANCH   5   8
ENDBRANCH   3   4
ENDBRANCH   2   3
ENDBRANCH   1   2
BRANCH   1  26
ATOM     26  C   UNL A   1      35.188  20.884  25.277  1.00  0.00     0.002 C 
BRANCH  26  27
ATOM     27  C   UNL A   1      36.483  21.402  24.637  1.00  0.00     0.021 C 
BRANCH  27  28
ATOM     28  C   UNL A   1      37.365  22.230  25.571  1.00  0.00     0.116 C 
BRANCH  28  29
ATOM     29  N   UNL A   1      38.744  21.796  25.597  1.00  0.00    -0.352 N 
ATOM     30  C   UNL A   1      39.862  22.202  26.269  1.00  0.00     0.251 C 
ATOM     31  H   UNL A   1      38.915  21.036  24.996  1.00  0.00     0.163 HD
ATOM     32  O   UNL A   1      40.857  21.482  26.143  1.00  0.00    -0.269 OA
BRANCH  30  33
ATOM     33  C   UNL A   1      39.981  23.461  27.053  1.00  0.00     0.039 A 
ATOM     34  C   UNL A   1      39.069  24.516  27.048  1.00  0.00     0.014 A 
ATOM     35  C   UNL A   1      41.175  23.611  27.785  1.00  0.00     0.014 A 
ATOM     36  C   UNL A   1      39.402  25.733  27.631  1.00  0.00     0.010 A 
ATOM     37  C   UNL A   1      41.502  24.817  28.392  1.00  0.00     0.010 A 
ATOM     38  C   UNL A   1      40.643  25.898  28.250  1.00  0.00    -0.014 A 
BRANCH  38  39
ATOM     39  C   UNL A   1      40.965  27.218  28.783  1.00  0.00     0.031 A 
ATOM     40  C   UNL A   1      42.231  27.803  28.260  1.00  0.00     0.074 A 
ATOM     41  C   UNL A   1      40.168  27.887  29.641  1.00  0.00     0.049 A 
ATOM     42  N   UNL A   1      43.319  28.059  28.909  1.00  0.00    -0.248 NA
ATOM     43  C   UNL A   1      42.340  27.998  26.807  1.00  0.00     0.031 C 
ATOM     44  C   UNL A   1      38.792  27.572  30.039  1.00  0.00     0.029 A 
ATOM     45  N   UNL A   1      40.407  29.063  30.284  1.00  0.00    -0.354 N 
ATOM     46  C   UNL A   1      44.203  28.608  27.981  1.00  0.00     0.074 A 
ATOM     47  C   UNL A   1      43.597  28.424  26.687  1.00  0.00     0.031 C 
ATOM     48  C   UNL A   1      38.245  28.646  30.656  1.00  0.00     0.029 A 
ATOM     49  C   UNL A   1      39.280  29.645  30.851  1.00  0.00     0.049 A 
ATOM     50  H   UNL A   1      41.303  29.467  30.340  1.00  0.00     0.167 HD
ATOM     51  C   UNL A   1      45.292  29.333  28.359  1.00  0.00     0.031 A 
ATOM     52  C   UNL A   1      39.201  30.876  31.413  1.00  0.00     0.031 A 
ATOM     53  C   UNL A   1      45.600  29.142  29.749  1.00  0.00     0.049 A 
ATOM     54  C   UNL A   1      40.580  31.254  31.803  1.00  0.00     0.074 A 
ATOM     55  C   UNL A   1      46.122  28.119  30.508  1.00  0.00     0.029 A 
ATOM     56  N   UNL A   1      44.999  30.019  30.615  1.00  0.00    -0.354 N 
ATOM     57  N   UNL A   1      41.274  30.627  32.711  1.00  0.00    -0.248 NA
ATOM     58  C   UNL A   1      41.344  32.108  30.908  1.00  0.00     0.031 C 
ATOM     59  C   UNL A   1      45.475  28.227  31.773  1.00  0.00     0.029 A 
ATOM     60  C   UNL A   1      44.636  29.345  31.752  1.00  0.00     0.049 A 
ATOM     61  H   UNL A   1      44.852  30.978  30.447  1.00  0.00     0.167 HD
ATOM     62  C   UNL A   1      42.582  30.674  32.251  1.00  0.00     0.074 A 
ATOM     63  C   UNL A   1      42.578  31.706  31.218  1.00  0.00     0.031 C 
ATOM     64  C   UNL A   1      43.479  29.695  32.563  1.00  0.00     0.031 A 
BRANCH  51  65
ATOM     65  C   UNL A   1      45.862  30.484  27.564  1.00  0.00    -0.014 A 
ATOM     66  C   UNL A   1      45.072  31.543  27.073  1.00  0.00     0.010 A 
ATOM     67  C   UNL A   1      47.262  30.659  27.506  1.00  0.00     0.010 A 
ATOM     68  C   UNL A   1      45.634  32.701  26.530  1.00  0.00     0.020 A 
ATOM     69  C   UNL A   1      47.838  31.836  26.998  1.00  0.00     0.020 A 
ATOM     70  C   UNL A   1      47.015  32.845  26.503  1.00  0.00     0.054 A 
BRANCH  70  71
ATOM     71  S   UNL A   1      47.700  34.393  25.863  1.00  0.00     0.124 S 
ATOM     72  O   UNL A   1      48.931  33.935  25.224  1.00  0.00    -0.237 OA
ATOM     73  O   UNL A   1      46.651  34.846  24.952  1.00  0.00    -0.237 OA
ATOM     74  O   UNL A   1      47.883  35.210  27.058  1.00  0.00    -0.744 OA
ENDBRANCH  70  71
ENDBRANCH  51  65
BRANCH  52  75
ATOM     75  C   UNL A   1      38.160  31.906  31.144  1.00  0.00    -0.014 A 
ATOM     76  C   UNL A   1      36.896  31.796  31.760  1.00  0.00     0.010 A 
ATOM     77  C   UNL A   1      38.281  32.781  30.045  1.00  0.00     0.010 A 
ATOM     78  C   UNL A   1      35.777  32.461  31.246  1.00  0.00     0.020 A 
ATOM     79  C   UNL A   1      37.161  33.454  29.526  1.00  0.00     0.020 A 
ATOM     80  C   UNL A   1      35.908  33.257  30.109  1.00  0.00     0.054 A 
BRANCH  80  81
ATOM     81  S   UNL A   1      34.402  33.948  29.361  1.00  0.00     0.124 S 
ATOM     82  O   UNL A   1      34.946  35.001  28.503  1.00  0.00    -0.237 OA
ATOM     83  O   UNL A   1      33.845  32.794  28.653  1.00  0.00    -0.237 OA
ATOM     84  O   UNL A   1      33.624  34.409  30.500  1.00  0.00    -0.744 OA
ENDBRANCH  80  81
ENDBRANCH  52  75
BRANCH  64  85
ATOM     85  C   UNL A   1      43.168  28.755  33.710  1.00  0.00    -0.014 A 
ATOM     86  C   UNL A   1      42.717  27.466  33.368  1.00  0.00     0.010 A 
ATOM     87  C   UNL A   1      43.121  29.142  35.064  1.00  0.00     0.010 A 
ATOM     88  C   UNL A   1      42.178  26.610  34.327  1.00  0.00     0.020 A 
ATOM     89  C   UNL A   1      42.605  28.271  36.042  1.00  0.00     0.020 A 
ATOM     90  C   UNL A   1      42.109  27.022  35.658  1.00  0.00     0.054 A 
BRANCH  90  91
ATOM     91  S   UNL A   1      41.325  25.904  36.853  1.00  0.00     0.124 S 
ATOM     92  O   UNL A   1      42.479  25.334  37.546  1.00  0.00    -0.237 OA
ATOM     93  O   UNL A   1      40.504  26.810  37.654  1.00  0.00    -0.237 OA
ATOM     94  O   UNL A   1      40.576  24.963  36.023  1.00  0.00    -0.744 OA
ENDBRANCH  90  91
ENDBRANCH  64  85
ENDBRANCH  38  39
ENDBRANCH  30  33
ENDBRANCH  28  29
ENDBRANCH  27  28
ENDBRANCH  26  27
ENDBRANCH   1  26
TORSDOF 19
ENDMDL
MODEL 3
REMARK VINA RESULT:     -11.5      3.646      9.987
REMARK SMILES CC1(C)C[C@@H]1n1c(SCC(=O)NCCCCCCNC(=O)c2ccc(-c3c4nc(c(-c5ccc(S(=O)(=O)[O-])cc5)c5ccc([nH]5)c(-c5ccc(S(=O)(=O)[O-])cc5)c5nc(c(-c6ccc(S(=O)(=O)[O-])cc6)c6ccc3[nH]6)C=C5)C=C4)cc2)nc2cc(Cl)c(Cl)cc21
REMARK SMILES IDX 15 1 14 2 13 3 12 4 10 5 11 6 9 8 8 9 7 10 6 11 90 12 82 13
REMARK SMILES IDX 83 14 89 15 84 16 87 17 85 18 88 19 86 20 5 21 1 22 2 23
REMARK SMILES IDX 3 24 4 25 16 26 17 27 18 28 19 29 20 30 21 32 22 33 23 34
REMARK SMILES IDX 81 35 24 36 80 37 25 38 26 39 27 40 74 41 28 42 79 43 73 44
REMARK SMILES IDX 75 45 29 46 78 47 72 48 71 49 30 51 60 52 41 53 59 54 42 55
REMARK SMILES IDX 45 56 58 57 76 58 43 59 44 60 57 62 77 63 46 64 31 65 32 66
REMARK SMILES IDX 40 67 33 68 39 69 34 70 35 71 36 72 37 73 38 74 61 75 62 76
REMARK SMILES IDX 70 77 63 78 69 79 64 80 65 81 66 82 67 83 68 84 47 85 48 86
REMARK SMILES IDX 56 87 49 88 55 89 50 90 51 91 52 92 53 93 54 94
REMARK H PARENT 12 7 19 31 75 50 45 61
REMARK Flexibility Score: inf
ROOT
ATOM      1  C   UNL A   1      33.883  28.765  26.051  1.00  0.00     0.002 C 
ENDROOT
BRANCH   1   2
ATOM      2  C   UNL A   1      33.310  27.353  26.225  1.00  0.00     0.021 C 
BRANCH   2   3
ATOM      3  C   UNL A   1      31.805  27.283  26.478  1.00  0.00     0.116 C 
BRANCH   3   4
ATOM      4  N   UNL A   1      31.022  27.349  25.262  1.00  0.00    -0.355 N 
ATOM      5  C   UNL A   1      30.393  26.366  24.572  1.00  0.00     0.230 C 
ATOM      6  O   UNL A   1      29.428  26.721  23.880  1.00  0.00    -0.274 OA
ATOM      7  H   UNL A   1      30.930  28.250  24.877  1.00  0.00     0.163 HD
BRANCH   5   8
ATOM      8  C   UNL A   1      30.750  24.890  24.621  1.00  0.00     0.178 C 
BRANCH   8   9
ATOM      9  S   UNL A   1      31.884  24.237  23.419  1.00  0.00    -0.078 SA
BRANCH   9  10
ATOM     10  C   UNL A   1      32.609  22.728  23.832  1.00  0.00     0.169 A 
ATOM     11  N   UNL A   1      33.879  22.375  24.238  1.00  0.00    -0.315 N 
ATOM     12  C   UNL A   1      33.936  20.992  24.302  1.00  0.00     0.071 A 
ATOM     13  N   UNL A   1      31.839  21.656  23.768  1.00  0.00    -0.222 NA
ATOM     14  C   UNL A   1      32.630  20.587  24.066  1.00  0.00     0.091 A 
ATOM     15  C   UNL A   1      34.963  20.070  24.559  1.00  0.00     0.050 A 
ATOM     16  C   UNL A   1      32.290  19.229  24.141  1.00  0.00     0.052 A 
ATOM     17  C   UNL A   1      34.611  18.715  24.656  1.00  0.00     0.061 A 
ATOM     18  C   UNL A   1      33.288  18.300  24.456  1.00  0.00     0.061 A 
ATOM     19  Cl  UNL A   1      35.875  17.602  25.053  1.00  0.00    -0.083 Cl
ATOM     20  Cl  UNL A   1      32.815  16.640  24.583  1.00  0.00    -0.083 Cl
BRANCH  11  21
ATOM     21  C   UNL A   1      35.033  23.196  24.504  1.00  0.00     0.096 C 
ATOM     22  C   UNL A   1      37.113  23.520  26.072  1.00  0.00     0.013 C 
ATOM     23  C   UNL A   1      35.616  23.456  25.905  1.00  0.00    -0.012 C 
ATOM     24  C   UNL A   1      34.864  23.169  27.183  1.00  0.00     0.013 C 
ATOM     25  C   UNL A   1      35.000  24.566  25.099  1.00  0.00     0.034 C 
ENDBRANCH  11  21
ENDBRANCH   9  10
ENDBRANCH   8   9
ENDBRANCH   5   8
ENDBRANCH   3   4
ENDBRANCH   2   3
ENDBRANCH   1   2
BRANCH   1  26
ATOM     26  C   UNL A   1      34.409  29.437  27.323  1.00  0.00     0.002 C 
BRANCH  26  27
ATOM     27  C   UNL A   1      33.810  30.812  27.645  1.00  0.00     0.021 C 
BRANCH  27  28
ATOM     28  C   UNL A   1      34.799  31.809  28.250  1.00  0.00     0.116 C 
BRANCH  28  29
ATOM     29  N   UNL A   1      34.587  32.047  29.660  1.00  0.00    -0.352 N 
ATOM     30  C   UNL A   1      35.348  31.882  30.783  1.00  0.00     0.251 C 
ATOM     31  H   UNL A   1      33.693  32.410  29.855  1.00  0.00     0.163 HD
ATOM     32  O   UNL A   1      34.875  32.342  31.827  1.00  0.00    -0.269 OA
BRANCH  30  33
ATOM     33  C   UNL A   1      36.634  31.136  30.844  1.00  0.00     0.039 A 
ATOM     34  C   UNL A   1      37.908  31.692  30.734  1.00  0.00     0.014 A 
ATOM     35  C   UNL A   1      36.520  29.734  30.931  1.00  0.00     0.014 A 
ATOM     36  C   UNL A   1      39.018  30.873  30.568  1.00  0.00     0.010 A 
ATOM     37  C   UNL A   1      37.629  28.911  30.791  1.00  0.00     0.010 A 
ATOM     38  C   UNL A   1      38.868  29.485  30.537  1.00  0.00    -0.014 A 
BRANCH  38  39
ATOM     39  C   UNL A   1      40.058  28.679  30.289  1.00  0.00     0.031 A 
ATOM     40  C   UNL A   1      40.942  28.501  31.475  1.00  0.00     0.074 A 
ATOM     41  C   UNL A   1      40.326  28.096  29.103  1.00  0.00     0.049 A 
ATOM     42  N   UNL A   1      42.145  28.942  31.647  1.00  0.00    -0.248 NA
ATOM     43  C   UNL A   1      40.358  27.870  32.668  1.00  0.00     0.031 C 
ATOM     44  C   UNL A   1      39.446  27.957  27.937  1.00  0.00     0.029 A 
ATOM     45  N   UNL A   1      41.443  27.416  28.721  1.00  0.00    -0.354 N 
ATOM     46  C   UNL A   1      42.542  28.501  32.909  1.00  0.00     0.074 A 
ATOM     47  C   UNL A   1      41.363  27.964  33.539  1.00  0.00     0.031 C 
ATOM     48  C   UNL A   1      39.969  27.044  27.085  1.00  0.00     0.029 A 
ATOM     49  C   UNL A   1      41.292  26.674  27.556  1.00  0.00     0.049 A 
ATOM     50  H   UNL A   1      42.286  27.448  29.229  1.00  0.00     0.167 HD
ATOM     51  C   UNL A   1      43.851  28.449  33.280  1.00  0.00     0.031 A 
ATOM     52  C   UNL A   1      42.183  25.795  27.036  1.00  0.00     0.031 A 
ATOM     53  C   UNL A   1      44.683  29.220  32.398  1.00  0.00     0.049 A 
ATOM     54  C   UNL A   1      43.509  26.157  27.589  1.00  0.00     0.074 A 
ATOM     55  C   UNL A   1      44.889  30.561  32.163  1.00  0.00     0.029 A 
ATOM     56  N   UNL A   1      45.195  28.540  31.322  1.00  0.00    -0.354 N 
ATOM     57  N   UNL A   1      44.118  27.282  27.336  1.00  0.00    -0.248 NA
ATOM     58  C   UNL A   1      44.004  25.422  28.741  1.00  0.00     0.031 C 
ATOM     59  C   UNL A   1      45.173  30.656  30.770  1.00  0.00     0.029 A 
ATOM     60  C   UNL A   1      45.191  29.367  30.229  1.00  0.00     0.049 A 
ATOM     61  H   UNL A   1      45.516  27.610  31.334  1.00  0.00     0.167 HD
ATOM     62  C   UNL A   1      44.778  27.599  28.514  1.00  0.00     0.074 A 
ATOM     63  C   UNL A   1      44.780  26.360  29.287  1.00  0.00     0.031 C 
ATOM     64  C   UNL A   1      45.024  28.895  28.862  1.00  0.00     0.031 A 
BRANCH  51  65
ATOM     65  C   UNL A   1      44.425  27.420  34.224  1.00  0.00    -0.014 A 
ATOM     66  C   UNL A   1      44.662  27.678  35.589  1.00  0.00     0.010 A 
ATOM     67  C   UNL A   1      44.505  26.071  33.811  1.00  0.00     0.010 A 
ATOM     68  C   UNL A   1      44.989  26.664  36.492  1.00  0.00     0.020 A 
ATOM     69  C   UNL A   1      44.794  25.038  34.719  1.00  0.00     0.020 A 
ATOM     70  C   UNL A   1      45.045  25.346  36.054  1.00  0.00     0.054 A 
BRANCH  70  71
ATOM     71  S   UNL A   1      45.393  24.055  37.273  1.00  0.00     0.124 S 
ATOM     72  O   UNL A   1      45.017  22.845  36.544  1.00  0.00    -0.237 OA
ATOM     73  O   UNL A   1      46.824  24.226  37.510  1.00  0.00    -0.237 OA
ATOM     74  O   UNL A   1      44.530  24.399  38.397  1.00  0.00    -0.744 OA
ENDBRANCH  70  71
ENDBRANCH  51  65
BRANCH  52  75
ATOM     75  C   UNL A   1      41.889  24.414  26.563  1.00  0.00    -0.014 A 
ATOM     76  C   UNL A   1      41.012  23.596  27.304  1.00  0.00     0.010 A 
ATOM     77  C   UNL A   1      42.714  23.792  25.603  1.00  0.00     0.010 A 
ATOM     78  C   UNL A   1      41.019  22.204  27.160  1.00  0.00     0.020 A 
ATOM     79  C   UNL A   1      42.724  22.394  25.452  1.00  0.00     0.020 A 
ATOM     80  C   UNL A   1      41.902  21.607  26.261  1.00  0.00     0.054 A 
BRANCH  80  81
ATOM     81  S   UNL A   1      42.018  19.793  26.240  1.00  0.00     0.124 S 
ATOM     82  O   UNL A   1      42.268  19.489  27.649  1.00  0.00    -0.237 OA
ATOM     83  O   UNL A   1      40.699  19.400  25.742  1.00  0.00    -0.237 OA
ATOM     84  O   UNL A   1      43.126  19.524  25.336  1.00  0.00    -0.744 OA
ENDBRANCH  80  81
ENDBRANCH  52  75
BRANCH  64  85
ATOM     85  C   UNL A   1      44.919  29.971  27.800  1.00  0.00    -0.014 A 
ATOM     86  C   UNL A   1      46.121  30.588  27.404  1.00  0.00     0.010 A 
ATOM     87  C   UNL A   1      43.705  30.512  27.334  1.00  0.00     0.010 A 
ATOM     88  C   UNL A   1      46.118  31.741  26.621  1.00  0.00     0.020 A 
ATOM     89  C   UNL A   1      43.696  31.660  26.520  1.00  0.00     0.020 A 
ATOM     90  C   UNL A   1      44.905  32.283  26.196  1.00  0.00     0.054 A 
BRANCH  90  91
ATOM     91  S   UNL A   1      44.951  33.829  25.248  1.00  0.00     0.124 S 
ATOM     92  O   UNL A   1      46.377  34.151  25.249  1.00  0.00    -0.237 OA
ATOM     93  O   UNL A   1      44.404  33.432  23.952  1.00  0.00    -0.237 OA
ATOM     94  O   UNL A   1      44.111  34.744  26.018  1.00  0.00    -0.744 OA
ENDBRANCH  90  91
ENDBRANCH  64  85
ENDBRANCH  38  39
ENDBRANCH  30  33
ENDBRANCH  28  29
ENDBRANCH  27  28
ENDBRANCH  26  27
ENDBRANCH   1  26
TORSDOF 19
ENDMDL
