MODEL 1
REMARK VINA RESULT:     -12.3      0.000      0.000
REMARK SMILES O=C(NCCCCCCNC(=O)c1cccc2c1ccn2Cc1ccncc1)c1ccc(-c2c3nc(c(-c4ccc(S(=O)(=O)[O-])cc4)c4ccc([nH]4)c(-c4ccc(S(=O)(=O)[O-])cc4)c4nc(c(-c5ccc(S(=O)(=O)[O-])cc5)c5ccc2[nH]5)C=C4)C=C3)cc1
REMARK SMILES IDX 6 1 5 2 4 3 3 4 1 5 2 6 29 8 30 9 88 10 31 11 87 12 32 13
REMARK SMILES IDX 33 14 34 15 81 16 35 17 86 18 80 19 82 20 36 21 85 22 79 23
REMARK SMILES IDX 78 24 37 26 67 27 48 28 66 29 49 30 52 31 65 32 83 33 50 34
REMARK SMILES IDX 51 35 64 37 84 38 53 39 38 40 39 41 47 42 40 43 46 44 41 45
REMARK SMILES IDX 42 46 43 47 44 48 45 49 68 50 69 51 77 52 70 53 76 54 71 55
REMARK SMILES IDX 72 56 73 57 74 58 75 59 54 60 55 61 63 62 56 63 62 64 57 65
REMARK SMILES IDX 58 66 59 67 60 68 61 69 7 70 8 71 9 72 10 73 11 74 12 76
REMARK SMILES IDX 13 77 14 78 18 79 15 80 17 81 19 82 16 83 21 84 20 85 22 86
REMARK SMILES IDX 23 87 24 88 28 89 25 90 27 91 26 92
REMARK H PARENT 3 7 82 25 52 36 10 75
REMARK Flexibility Score: inf
ROOT
ATOM      1  C   UNL A   1      38.468  21.909  25.657  1.00  0.00     0.002 C 
ENDROOT
BRANCH   1   2
ATOM      2  C   UNL A   1      39.679  21.185  26.263  1.00  0.00     0.021 C 
BRANCH   2   3
ATOM      3  C   UNL A   1      40.559  22.050  27.146  1.00  0.00     0.116 C 
BRANCH   3   4
ATOM      4  N   UNL A   1      41.974  22.031  26.759  1.00  0.00    -0.352 N 
ATOM      5  O   UNL A   1      43.768  22.886  25.657  1.00  0.00    -0.269 OA
ATOM      6  C   UNL A   1      42.769  23.088  26.324  1.00  0.00     0.251 C 
ATOM      7  H   UNL A   1      42.422  21.156  26.815  1.00  0.00     0.163 HD
BRANCH   6   8
ATOM      8  C   UNL A   1      42.377  24.458  26.711  1.00  0.00     0.039 A 
ATOM      9  C   UNL A   1      41.538  25.274  25.950  1.00  0.00     0.014 A 
ATOM     10  C   UNL A   1      42.876  24.913  27.921  1.00  0.00     0.014 A 
ATOM     11  C   UNL A   1      41.219  26.536  26.454  1.00  0.00     0.010 A 
ATOM     12  C   UNL A   1      42.277  25.955  28.552  1.00  0.00     0.010 A 
ATOM     13  C   UNL A   1      41.613  26.865  27.764  1.00  0.00    -0.014 A 
BRANCH  13  14
ATOM     14  C   UNL A   1      41.338  28.144  28.394  1.00  0.00     0.031 A 
ATOM     15  C   UNL A   1      42.350  29.168  28.095  1.00  0.00     0.074 A 
ATOM     16  C   UNL A   1      40.178  28.430  29.028  1.00  0.00     0.049 A 
ATOM     17  N   UNL A   1      43.299  29.550  28.875  1.00  0.00    -0.248 NA
ATOM     18  C   UNL A   1      42.455  29.671  26.717  1.00  0.00     0.031 C 
ATOM     19  C   UNL A   1      38.956  27.614  29.143  1.00  0.00     0.029 A 
ATOM     20  N   UNL A   1      39.810  29.584  29.643  1.00  0.00    -0.354 N 
ATOM     21  C   UNL A   1      43.977  30.535  28.176  1.00  0.00     0.074 A 
ATOM     22  C   UNL A   1      43.572  30.396  26.799  1.00  0.00     0.031 C 
ATOM     23  C   UNL A   1      37.931  28.377  29.589  1.00  0.00     0.029 A 
ATOM     24  C   UNL A   1      38.460  29.672  29.971  1.00  0.00     0.049 A 
ATOM     25  H   UNL A   1      40.451  30.305  29.841  1.00  0.00     0.167 HD
ATOM     26  C   UNL A   1      44.598  31.548  28.837  1.00  0.00     0.031 A 
ATOM     27  C   UNL A   1      37.830  30.731  30.540  1.00  0.00     0.031 A 
ATOM     28  C   UNL A   1      44.678  31.272  30.253  1.00  0.00     0.049 A 
ATOM     29  C   UNL A   1      38.881  31.517  31.227  1.00  0.00     0.074 A 
ATOM     30  C   UNL A   1      45.283  30.293  31.015  1.00  0.00     0.029 A 
ATOM     31  N   UNL A   1      43.689  31.823  31.037  1.00  0.00    -0.354 N 
ATOM     32  N   UNL A   1      39.556  31.074  32.250  1.00  0.00    -0.248 NA
ATOM     33  C   UNL A   1      39.494  32.618  30.503  1.00  0.00     0.031 C 
ATOM     34  C   UNL A   1      44.355  30.009  32.059  1.00  0.00     0.029 A 
ATOM     35  C   UNL A   1      43.270  30.884  31.945  1.00  0.00     0.049 A 
ATOM     36  H   UNL A   1      43.341  32.740  30.959  1.00  0.00     0.167 HD
ATOM     37  C   UNL A   1      40.853  31.518  32.035  1.00  0.00     0.074 A 
ATOM     38  C   UNL A   1      40.727  32.554  31.012  1.00  0.00     0.031 C 
ATOM     39  C   UNL A   1      41.927  30.814  32.500  1.00  0.00     0.031 A 
BRANCH  26  40
ATOM     40  C   UNL A   1      44.772  32.933  28.276  1.00  0.00    -0.014 A 
ATOM     41  C   UNL A   1      43.697  33.789  27.962  1.00  0.00     0.010 A 
ATOM     42  C   UNL A   1      46.061  33.500  28.263  1.00  0.00     0.010 A 
ATOM     43  C   UNL A   1      43.888  35.128  27.623  1.00  0.00     0.020 A 
ATOM     44  C   UNL A   1      46.263  34.855  27.967  1.00  0.00     0.020 A 
ATOM     45  C   UNL A   1      45.172  35.655  27.635  1.00  0.00     0.054 A 
BRANCH  45  46
ATOM     46  S   UNL A   1      45.368  37.410  27.255  1.00  0.00     0.124 S 
ATOM     47  O   UNL A   1      45.840  37.940  28.533  1.00  0.00    -0.237 OA
ATOM     48  O   UNL A   1      46.356  37.387  26.180  1.00  0.00    -0.237 OA
ATOM     49  O   UNL A   1      44.026  37.828  26.862  1.00  0.00    -0.744 OA
ENDBRANCH  45  46
ENDBRANCH  26  40
BRANCH  27  50
ATOM     50  C   UNL A   1      36.525  31.334  30.161  1.00  0.00    -0.014 A 
ATOM     51  C   UNL A   1      36.240  31.601  28.806  1.00  0.00     0.010 A 
ATOM     52  C   UNL A   1      35.723  31.965  31.136  1.00  0.00     0.010 A 
ATOM     53  C   UNL A   1      35.271  32.544  28.441  1.00  0.00     0.020 A 
ATOM     54  C   UNL A   1      34.749  32.913  30.776  1.00  0.00     0.020 A 
ATOM     55  C   UNL A   1      34.562  33.228  29.430  1.00  0.00     0.054 A 
BRANCH  55  56
ATOM     56  S   UNL A   1      33.481  34.598  28.922  1.00  0.00     0.124 S 
ATOM     57  O   UNL A   1      32.639  33.963  27.912  1.00  0.00    -0.237 OA
ATOM     58  O   UNL A   1      32.805  34.948  30.169  1.00  0.00    -0.237 OA
ATOM     59  O   UNL A   1      34.411  35.606  28.417  1.00  0.00    -0.744 OA
ENDBRANCH  55  56
ENDBRANCH  27  50
BRANCH  39  60
ATOM     60  C   UNL A   1      41.696  29.726  33.533  1.00  0.00    -0.014 A 
ATOM     61  C   UNL A   1      41.941  30.066  34.877  1.00  0.00     0.010 A 
ATOM     62  C   UNL A   1      41.437  28.374  33.226  1.00  0.00     0.010 A 
ATOM     63  C   UNL A   1      41.978  29.091  35.876  1.00  0.00     0.020 A 
ATOM     64  C   UNL A   1      41.443  27.391  34.233  1.00  0.00     0.020 A 
ATOM     65  C   UNL A   1      41.741  27.757  35.548  1.00  0.00     0.054 A 
BRANCH  65  66
ATOM     66  S   UNL A   1      41.854  26.526  36.877  1.00  0.00     0.124 S 
ATOM     67  O   UNL A   1      42.025  25.280  36.131  1.00  0.00    -0.237 OA
ATOM     68  O   UNL A   1      43.028  26.968  37.626  1.00  0.00    -0.237 OA
ATOM     69  O   UNL A   1      40.585  26.653  37.589  1.00  0.00    -0.744 OA
ENDBRANCH  65  66
ENDBRANCH  39  60
ENDBRANCH  13  14
ENDBRANCH   6   8
ENDBRANCH   3   4
ENDBRANCH   2   3
ENDBRANCH   1   2
BRANCH   1  70
ATOM     70  C   UNL A   1      37.347  21.045  25.059  1.00  0.00     0.002 C 
BRANCH  70  71
ATOM     71  C   UNL A   1      35.971  21.702  24.908  1.00  0.00     0.021 C 
BRANCH  71  72
ATOM     72  C   UNL A   1      34.982  21.430  26.037  1.00  0.00     0.116 C 
BRANCH  72  73
ATOM     73  N   UNL A   1      34.026  20.389  25.706  1.00  0.00    -0.352 N 
ATOM     74  C   UNL A   1      32.855  20.487  24.998  1.00  0.00     0.251 C 
ATOM     75  H   UNL A   1      34.249  19.488  26.035  1.00  0.00     0.163 HD
ATOM     76  O   UNL A   1      32.128  19.506  24.871  1.00  0.00    -0.269 OA
BRANCH  74  77
ATOM     77  C   UNL A   1      32.475  21.778  24.395  1.00  0.00     0.049 A 
ATOM     78  C   UNL A   1      32.879  22.102  23.092  1.00  0.00     0.014 A 
ATOM     79  C   UNL A   1      31.709  22.694  25.146  1.00  0.00     0.012 A 
ATOM     80  C   UNL A   1      32.561  23.344  22.551  1.00  0.00     0.003 A 
ATOM     81  C   UNL A   1      31.366  23.926  24.567  1.00  0.00     0.049 A 
ATOM     82  C   UNL A   1      31.200  22.695  26.472  1.00  0.00     0.029 A 
ATOM     83  C   UNL A   1      31.797  24.271  23.273  1.00  0.00     0.027 A 
ATOM     84  N   UNL A   1      30.606  24.610  25.503  1.00  0.00    -0.343 N 
ATOM     85  C   UNL A   1      30.607  23.912  26.689  1.00  0.00     0.087 A 
BRANCH  84  86
ATOM     86  C   UNL A   1      29.979  25.921  25.332  1.00  0.00     0.157 C 
BRANCH  86  87
ATOM     87  C   UNL A   1      30.971  27.065  25.387  1.00  0.00    -0.025 A 
ATOM     88  C   UNL A   1      31.835  27.238  26.476  1.00  0.00     0.025 A 
ATOM     89  C   UNL A   1      31.090  27.966  24.321  1.00  0.00     0.025 A 
ATOM     90  C   UNL A   1      32.732  28.296  26.473  1.00  0.00     0.111 A 
ATOM     91  C   UNL A   1      32.034  28.982  24.403  1.00  0.00     0.111 A 
ATOM     92  N   UNL A   1      32.853  29.173  25.458  1.00  0.00    -0.265 NA
ENDBRANCH  86  87
ENDBRANCH  84  86
ENDBRANCH  74  77
ENDBRANCH  72  73
ENDBRANCH  71  72
ENDBRANCH  70  71
ENDBRANCH   1  70
TORSDOF 18
ENDMDL
MODEL 2
REMARK VINA RESULT:     -12.2      2.847      9.708
REMARK SMILES O=C(NCCCCCCNC(=O)c1cccc2c1ccn2Cc1ccncc1)c1ccc(-c2c3nc(c(-c4ccc(S(=O)(=O)[O-])cc4)c4ccc([nH]4)c(-c4ccc(S(=O)(=O)[O-])cc4)c4nc(c(-c5ccc(S(=O)(=O)[O-])cc5)c5ccc2[nH]5)C=C4)C=C3)cc1
REMARK SMILES IDX 6 1 5 2 4 3 3 4 1 5 2 6 29 8 30 9 88 10 31 11 87 12 32 13
REMARK SMILES IDX 33 14 34 15 81 16 35 17 86 18 80 19 82 20 36 21 85 22 79 23
REMARK SMILES IDX 78 24 37 26 67 27 48 28 66 29 49 30 52 31 65 32 83 33 50 34
REMARK SMILES IDX 51 35 64 37 84 38 53 39 38 40 39 41 47 42 40 43 46 44 41 45
REMARK SMILES IDX 42 46 43 47 44 48 45 49 68 50 69 51 77 52 70 53 76 54 71 55
REMARK SMILES IDX 72 56 73 57 74 58 75 59 54 60 55 61 63 62 56 63 62 64 57 65
REMARK SMILES IDX 58 66 59 67 60 68 61 69 7 70 8 71 9 72 10 73 11 74 12 76
REMARK SMILES IDX 13 77 14 78 18 79 15 80 17 81 19 82 16 83 21 84 20 85 22 86
REMARK SMILES IDX 23 87 24 88 28 89 25 90 27 91 26 92
REMARK H PARENT 3 7 82 25 52 36 10 75
REMARK Flexibility Score: inf
ROOT
ATOM      1  C   UNL A   1      33.425  29.877  26.641  1.00  0.00     0.002 C 
ENDROOT
BRANCH   1   2
ATOM      2  C   UNL A   1      33.228  31.123  27.516  1.00  0.00     0.021 C 
BRANCH   2   3
ATOM      3  C   UNL A   1      34.511  31.724  28.061  1.00  0.00     0.116 C 
BRANCH   3   4
ATOM      4  N   UNL A   1      34.367  32.285  29.410  1.00  0.00    -0.352 N 
ATOM      5  O   UNL A   1      34.562  32.161  31.670  1.00  0.00    -0.269 OA
ATOM      6  C   UNL A   1      35.041  31.930  30.574  1.00  0.00     0.251 C 
ATOM      7  H   UNL A   1      33.707  33.010  29.503  1.00  0.00     0.163 HD
BRANCH   6   8
ATOM      8  C   UNL A   1      36.362  31.283  30.443  1.00  0.00     0.039 A 
ATOM      9  C   UNL A   1      37.576  31.969  30.503  1.00  0.00     0.014 A 
ATOM     10  C   UNL A   1      36.349  29.908  30.271  1.00  0.00     0.014 A 
ATOM     11  C   UNL A   1      38.753  31.225  30.400  1.00  0.00     0.010 A 
ATOM     12  C   UNL A   1      37.464  29.182  30.541  1.00  0.00     0.010 A 
ATOM     13  C   UNL A   1      38.674  29.821  30.407  1.00  0.00    -0.014 A 
BRANCH  13  14
ATOM     14  C   UNL A   1      39.828  28.945  30.306  1.00  0.00     0.031 A 
ATOM     15  C   UNL A   1      40.466  28.672  31.602  1.00  0.00     0.074 A 
ATOM     16  C   UNL A   1      40.168  28.286  29.174  1.00  0.00     0.049 A 
ATOM     17  N   UNL A   1      41.542  29.217  32.049  1.00  0.00    -0.248 NA
ATOM     18  C   UNL A   1      39.729  27.878  32.596  1.00  0.00     0.031 C 
ATOM     19  C   UNL A   1      39.454  28.219  27.888  1.00  0.00     0.029 A 
ATOM     20  N   UNL A   1      41.212  27.442  28.966  1.00  0.00    -0.354 N 
ATOM     21  C   UNL A   1      41.761  28.639  33.289  1.00  0.00     0.074 A 
ATOM     22  C   UNL A   1      40.515  28.020  33.665  1.00  0.00     0.031 C 
ATOM     23  C   UNL A   1      39.964  27.222  27.127  1.00  0.00     0.029 A 
ATOM     24  C   UNL A   1      41.152  26.712  27.782  1.00  0.00     0.049 A 
ATOM     25  H   UNL A   1      41.956  27.354  29.605  1.00  0.00     0.167 HD
ATOM     26  C   UNL A   1      43.025  28.488  33.767  1.00  0.00     0.031 A 
ATOM     27  C   UNL A   1      42.035  25.770  27.363  1.00  0.00     0.031 A 
ATOM     28  C   UNL A   1      43.974  29.237  32.976  1.00  0.00     0.049 A 
ATOM     29  C   UNL A   1      43.302  26.044  28.080  1.00  0.00     0.074 A 
ATOM     30  C   UNL A   1      44.152  30.576  32.691  1.00  0.00     0.029 A 
ATOM     31  N   UNL A   1      44.629  28.537  31.988  1.00  0.00    -0.354 N 
ATOM     32  N   UNL A   1      44.011  27.122  27.897  1.00  0.00    -0.248 NA
ATOM     33  C   UNL A   1      43.551  25.334  29.324  1.00  0.00     0.031 C 
ATOM     34  C   UNL A   1      44.539  30.615  31.320  1.00  0.00     0.029 A 
ATOM     35  C   UNL A   1      44.668  29.305  30.852  1.00  0.00     0.049 A 
ATOM     36  H   UNL A   1      45.008  27.633  32.082  1.00  0.00     0.167 HD
ATOM     37  C   UNL A   1      44.454  27.471  29.165  1.00  0.00     0.074 A 
ATOM     38  C   UNL A   1      44.237  26.275  29.978  1.00  0.00     0.031 C 
ATOM     39  C   UNL A   1      44.691  28.774  29.497  1.00  0.00     0.031 A 
BRANCH  26  40
ATOM     40  C   UNL A   1      43.446  27.373  34.685  1.00  0.00    -0.014 A 
ATOM     41  C   UNL A   1      43.387  26.009  34.335  1.00  0.00     0.010 A 
ATOM     42  C   UNL A   1      44.139  27.697  35.868  1.00  0.00     0.010 A 
ATOM     43  C   UNL A   1      43.956  25.013  35.128  1.00  0.00     0.020 A 
ATOM     44  C   UNL A   1      44.753  26.709  36.651  1.00  0.00     0.020 A 
ATOM     45  C   UNL A   1      44.644  25.371  36.279  1.00  0.00     0.054 A 
BRANCH  45  46
ATOM     46  S   UNL A   1      45.423  24.057  37.242  1.00  0.00     0.124 S 
ATOM     47  O   UNL A   1      44.813  24.250  38.556  1.00  0.00    -0.237 OA
ATOM     48  O   UNL A   1      45.006  22.855  36.524  1.00  0.00    -0.237 OA
ATOM     49  O   UNL A   1      46.847  24.371  37.161  1.00  0.00    -0.744 OA
ENDBRANCH  45  46
ENDBRANCH  26  40
BRANCH  27  50
ATOM     50  C   UNL A   1      41.742  24.437  26.773  1.00  0.00    -0.014 A 
ATOM     51  C   UNL A   1      40.788  23.594  27.377  1.00  0.00     0.010 A 
ATOM     52  C   UNL A   1      42.637  23.858  25.848  1.00  0.00     0.010 A 
ATOM     53  C   UNL A   1      40.798  22.211  27.153  1.00  0.00     0.020 A 
ATOM     54  C   UNL A   1      42.652  22.471  25.620  1.00  0.00     0.020 A 
ATOM     55  C   UNL A   1      41.760  21.651  26.311  1.00  0.00     0.054 A 
BRANCH  55  56
ATOM     56  S   UNL A   1      41.881  19.840  26.225  1.00  0.00     0.124 S 
ATOM     57  O   UNL A   1      42.963  19.652  25.262  1.00  0.00    -0.237 OA
ATOM     58  O   UNL A   1      42.202  19.478  27.604  1.00  0.00    -0.237 OA
ATOM     59  O   UNL A   1      40.557  19.424  25.767  1.00  0.00    -0.744 OA
ENDBRANCH  55  56
ENDBRANCH  27  50
BRANCH  39  60
ATOM     60  C   UNL A   1      44.790  29.804  28.387  1.00  0.00    -0.014 A 
ATOM     61  C   UNL A   1      46.022  30.469  28.247  1.00  0.00     0.010 A 
ATOM     62  C   UNL A   1      43.696  30.263  27.623  1.00  0.00     0.010 A 
ATOM     63  C   UNL A   1      46.155  31.583  27.416  1.00  0.00     0.020 A 
ATOM     64  C   UNL A   1      43.831  31.367  26.760  1.00  0.00     0.020 A 
ATOM     65  C   UNL A   1      45.057  32.034  26.685  1.00  0.00     0.054 A 
BRANCH  65  66
ATOM     66  S   UNL A   1      45.272  33.517  25.661  1.00  0.00     0.124 S 
ATOM     67  O   UNL A   1      44.642  33.120  24.404  1.00  0.00    -0.237 OA
ATOM     68  O   UNL A   1      44.553  34.538  26.420  1.00  0.00    -0.237 OA
ATOM     69  O   UNL A   1      46.719  33.700  25.599  1.00  0.00    -0.744 OA
ENDBRANCH  65  66
ENDBRANCH  39  60
ENDBRANCH  13  14
ENDBRANCH   6   8
ENDBRANCH   3   4
ENDBRANCH   2   3
ENDBRANCH   1   2
BRANCH   1  70
ATOM     70  C   UNL A   1      32.548  29.743  25.386  1.00  0.00     0.002 C 
BRANCH  70  71
ATOM     71  C   UNL A   1      32.285  28.323  24.873  1.00  0.00     0.021 C 
BRANCH  71  72
ATOM     72  C   UNL A   1      33.526  27.485  24.581  1.00  0.00     0.116 C 
BRANCH  72  73
ATOM     73  N   UNL A   1      33.657  27.148  23.176  1.00  0.00    -0.352 N 
ATOM     74  C   UNL A   1      33.340  25.975  22.538  1.00  0.00     0.251 C 
ATOM     75  H   UNL A   1      34.023  27.859  22.601  1.00  0.00     0.163 HD
ATOM     76  O   UNL A   1      33.583  25.840  21.342  1.00  0.00    -0.269 OA
BRANCH  74  77
ATOM     77  C   UNL A   1      32.709  24.880  23.298  1.00  0.00     0.049 A 
ATOM     78  C   UNL A   1      31.347  24.934  23.627  1.00  0.00     0.014 A 
ATOM     79  C   UNL A   1      33.492  23.779  23.703  1.00  0.00     0.012 A 
ATOM     80  C   UNL A   1      30.774  23.921  24.390  1.00  0.00     0.003 A 
ATOM     81  C   UNL A   1      32.886  22.749  24.438  1.00  0.00     0.049 A 
ATOM     82  C   UNL A   1      34.870  23.455  23.581  1.00  0.00     0.029 A 
ATOM     83  C   UNL A   1      31.527  22.814  24.802  1.00  0.00     0.027 A 
ATOM     84  N   UNL A   1      33.865  21.800  24.682  1.00  0.00    -0.343 N 
ATOM     85  C   UNL A   1      35.083  22.284  24.262  1.00  0.00     0.087 A 
BRANCH  84  86
ATOM     86  C   UNL A   1      33.692  20.521  25.372  1.00  0.00     0.157 C 
BRANCH  86  87
ATOM     87  C   UNL A   1      33.546  19.349  24.422  1.00  0.00    -0.025 A 
ATOM     88  C   UNL A   1      34.441  18.272  24.440  1.00  0.00     0.025 A 
ATOM     89  C   UNL A   1      32.476  19.283  23.521  1.00  0.00     0.025 A 
ATOM     90  C   UNL A   1      34.258  17.219  23.557  1.00  0.00     0.111 A 
ATOM     91  C   UNL A   1      32.366  18.175  22.689  1.00  0.00     0.111 A 
ATOM     92  N   UNL A   1      33.237  17.145  22.681  1.00  0.00    -0.265 NA
ENDBRANCH  86  87
ENDBRANCH  84  86
ENDBRANCH  74  77
ENDBRANCH  72  73
ENDBRANCH  71  72
ENDBRANCH  70  71
ENDBRANCH   1  70
TORSDOF 18
ENDMDL
MODEL 3
REMARK VINA RESULT:     -12.0      1.797      3.674
REMARK SMILES O=C(NCCCCCCNC(=O)c1cccc2c1ccn2Cc1ccncc1)c1ccc(-c2c3nc(c(-c4ccc(S(=O)(=O)[O-])cc4)c4ccc([nH]4)c(-c4ccc(S(=O)(=O)[O-])cc4)c4nc(c(-c5ccc(S(=O)(=O)[O-])cc5)c5ccc2[nH]5)C=C4)C=C3)cc1
REMARK SMILES IDX 6 1 5 2 4 3 3 4 1 5 2 6 29 8 30 9 88 10 31 11 87 12 32 13
REMARK SMILES IDX 33 14 34 15 81 16 35 17 86 18 80 19 82 20 36 21 85 22 79 23
REMARK SMILES IDX 78 24 37 26 67 27 48 28 66 29 49 30 52 31 65 32 83 33 50 34
REMARK SMILES IDX 51 35 64 37 84 38 53 39 38 40 39 41 47 42 40 43 46 44 41 45
REMARK SMILES IDX 42 46 43 47 44 48 45 49 68 50 69 51 77 52 70 53 76 54 71 55
REMARK SMILES IDX 72 56 73 57 74 58 75 59 54 60 55 61 63 62 56 63 62 64 57 65
REMARK SMILES IDX 58 66 59 67 60 68 61 69 7 70 8 71 9 72 10 73 11 74 12 76
REMARK SMILES IDX 13 77 14 78 18 79 15 80 17 81 19 82 16 83 21 84 20 85 22 86
REMARK SMILES IDX 23 87 24 88 28 89 25 90 27 91 26 92
REMARK H PARENT 3 7 82 25 52 36 10 75
REMARK Flexibility Score: inf
ROOT
ATOM      1  C   UNL A   1      39.654  23.936  27.350  1.00  0.00     0.002 C 
ENDROOT
BRANCH   1   2
ATOM      2  C   UNL A   1      40.309  22.550  27.267  1.00  0.00     0.021 C 
BRANCH   2   3
ATOM      3  C   UNL A   1      41.089  22.293  25.991  1.00  0.00     0.116 C 
BRANCH   3   4
ATOM      4  N   UNL A   1      42.535  22.162  26.206  1.00  0.00    -0.352 N 
ATOM      5  O   UNL A   1      44.669  22.927  26.042  1.00  0.00    -0.269 OA
ATOM      6  C   UNL A   1      43.497  23.166  26.273  1.00  0.00     0.251 C 
ATOM      7  H   UNL A   1      42.870  21.243  26.318  1.00  0.00     0.163 HD
BRANCH   6   8
ATOM      8  C   UNL A   1      43.058  24.524  26.651  1.00  0.00     0.039 A 
ATOM      9  C   UNL A   1      42.421  25.409  25.779  1.00  0.00     0.014 A 
ATOM     10  C   UNL A   1      43.295  24.894  27.965  1.00  0.00     0.014 A 
ATOM     11  C   UNL A   1      42.027  26.651  26.281  1.00  0.00     0.010 A 
ATOM     12  C   UNL A   1      42.595  25.918  28.516  1.00  0.00     0.010 A 
ATOM     13  C   UNL A   1      42.135  26.893  27.662  1.00  0.00    -0.014 A 
BRANCH  13  14
ATOM     14  C   UNL A   1      41.757  28.143  28.297  1.00  0.00     0.031 A 
ATOM     15  C   UNL A   1      42.726  29.225  28.071  1.00  0.00     0.074 A 
ATOM     16  C   UNL A   1      40.549  28.355  28.869  1.00  0.00     0.049 A 
ATOM     17  N   UNL A   1      43.609  29.642  28.910  1.00  0.00    -0.248 NA
ATOM     18  C   UNL A   1      42.881  29.759  26.711  1.00  0.00     0.031 C 
ATOM     19  C   UNL A   1      39.370  27.473  28.902  1.00  0.00     0.029 A 
ATOM     20  N   UNL A   1      40.086  29.476  29.481  1.00  0.00    -0.354 N 
ATOM     21  C   UNL A   1      44.270  30.675  28.267  1.00  0.00     0.074 A 
ATOM     22  C   UNL A   1      43.950  30.542  26.867  1.00  0.00     0.031 C 
ATOM     23  C   UNL A   1      38.281  28.172  29.302  1.00  0.00     0.029 A 
ATOM     24  C   UNL A   1      38.717  29.485  29.734  1.00  0.00     0.049 A 
ATOM     25  H   UNL A   1      40.675  30.225  29.727  1.00  0.00     0.167 HD
ATOM     26  C   UNL A   1      44.798  31.707  28.978  1.00  0.00     0.031 A 
ATOM     27  C   UNL A   1      38.000  30.498  30.284  1.00  0.00     0.031 A 
ATOM     28  C   UNL A   1      44.815  31.408  30.392  1.00  0.00     0.049 A 
ATOM     29  C   UNL A   1      38.968  31.325  31.042  1.00  0.00     0.074 A 
ATOM     30  C   UNL A   1      45.429  30.448  31.170  1.00  0.00     0.029 A 
ATOM     31  N   UNL A   1      43.756  31.890  31.127  1.00  0.00    -0.354 N 
ATOM     32  N   UNL A   1      39.608  30.898  32.094  1.00  0.00    -0.248 NA
ATOM     33  C   UNL A   1      39.559  32.471  30.372  1.00  0.00     0.031 C 
ATOM     34  C   UNL A   1      44.461  30.095  32.155  1.00  0.00     0.029 A 
ATOM     35  C   UNL A   1      43.339  30.913  31.995  1.00  0.00     0.049 A 
ATOM     36  H   UNL A   1      43.363  32.789  31.045  1.00  0.00     0.167 HD
ATOM     37  C   UNL A   1      40.889  31.415  31.960  1.00  0.00     0.074 A 
ATOM     38  C   UNL A   1      40.764  32.463  30.948  1.00  0.00     0.031 C 
ATOM     39  C   UNL A   1      41.972  30.761  32.473  1.00  0.00     0.031 A 
BRANCH  26  40
ATOM     40  C   UNL A   1      44.927  33.110  28.450  1.00  0.00    -0.014 A 
ATOM     41  C   UNL A   1      43.826  33.929  28.133  1.00  0.00     0.010 A 
ATOM     42  C   UNL A   1      46.193  33.727  28.476  1.00  0.00     0.010 A 
ATOM     43  C   UNL A   1      43.970  35.281  27.826  1.00  0.00     0.020 A 
ATOM     44  C   UNL A   1      46.346  35.095  28.213  1.00  0.00     0.020 A 
ATOM     45  C   UNL A   1      45.230  35.859  27.877  1.00  0.00     0.054 A 
BRANCH  45  46
ATOM     46  S   UNL A   1      45.364  37.628  27.538  1.00  0.00     0.124 S 
ATOM     47  O   UNL A   1      44.083  37.905  26.893  1.00  0.00    -0.237 OA
ATOM     48  O   UNL A   1      45.531  38.190  28.876  1.00  0.00    -0.237 OA
ATOM     49  O   UNL A   1      46.535  37.723  26.670  1.00  0.00    -0.744 OA
ENDBRANCH  45  46
ENDBRANCH  26  40
BRANCH  27  50
ATOM     50  C   UNL A   1      36.687  31.038  29.842  1.00  0.00    -0.014 A 
ATOM     51  C   UNL A   1      36.474  31.344  28.483  1.00  0.00     0.010 A 
ATOM     52  C   UNL A   1      35.788  31.579  30.785  1.00  0.00     0.010 A 
ATOM     53  C   UNL A   1      35.474  32.242  28.090  1.00  0.00     0.020 A 
ATOM     54  C   UNL A   1      34.782  32.482  30.397  1.00  0.00     0.020 A 
ATOM     55  C   UNL A   1      34.662  32.841  29.055  1.00  0.00     0.054 A 
BRANCH  55  56
ATOM     56  S   UNL A   1      33.533  34.165  28.529  1.00  0.00     0.124 S 
ATOM     57  O   UNL A   1      32.619  33.450  27.642  1.00  0.00    -0.237 OA
ATOM     58  O   UNL A   1      32.955  34.611  29.794  1.00  0.00    -0.237 OA
ATOM     59  O   UNL A   1      34.411  35.131  27.873  1.00  0.00    -0.744 OA
ENDBRANCH  55  56
ENDBRANCH  27  50
BRANCH  39  60
ATOM     60  C   UNL A   1      41.744  29.642  33.473  1.00  0.00    -0.014 A 
ATOM     61  C   UNL A   1      41.860  29.977  34.835  1.00  0.00     0.010 A 
ATOM     62  C   UNL A   1      41.609  28.280  33.132  1.00  0.00     0.010 A 
ATOM     63  C   UNL A   1      41.893  28.991  35.823  1.00  0.00     0.020 A 
ATOM     64  C   UNL A   1      41.610  27.284  34.127  1.00  0.00     0.020 A 
ATOM     65  C   UNL A   1      41.780  27.649  35.464  1.00  0.00     0.054 A 
BRANCH  65  66
ATOM     66  S   UNL A   1      41.881  26.408  36.785  1.00  0.00     0.124 S 
ATOM     67  O   UNL A   1      42.966  26.927  37.615  1.00  0.00    -0.237 OA
ATOM     68  O   UNL A   1      40.552  26.470  37.388  1.00  0.00    -0.237 OA
ATOM     69  O   UNL A   1      42.181  25.163  36.080  1.00  0.00    -0.744 OA
ENDBRANCH  65  66
ENDBRANCH  39  60
ENDBRANCH  13  14
ENDBRANCH   6   8
ENDBRANCH   3   4
ENDBRANCH   2   3
ENDBRANCH   1   2
BRANCH   1  70
ATOM     70  C   UNL A   1      38.203  24.069  26.861  1.00  0.00     0.002 C 
BRANCH  70  71
ATOM     71  C   UNL A   1      37.772  23.150  25.713  1.00  0.00     0.021 C 
BRANCH  71  72
ATOM     72  C   UNL A   1      36.682  23.702  24.800  1.00  0.00     0.116 C 
BRANCH  72  73
ATOM     73  N   UNL A   1      35.653  24.423  25.526  1.00  0.00    -0.352 N 
ATOM     74  C   UNL A   1      34.292  24.383  25.361  1.00  0.00     0.251 C 
ATOM     75  H   UNL A   1      35.978  25.024  26.235  1.00  0.00     0.163 HD
ATOM     76  O   UNL A   1      33.569  25.119  26.027  1.00  0.00    -0.269 OA
BRANCH  74  77
ATOM     77  C   UNL A   1      33.705  23.451  24.381  1.00  0.00     0.049 A 
ATOM     78  C   UNL A   1      33.358  23.892  23.096  1.00  0.00     0.014 A 
ATOM     79  C   UNL A   1      33.484  22.107  24.751  1.00  0.00     0.012 A 
ATOM     80  C   UNL A   1      32.756  23.018  22.197  1.00  0.00     0.003 A 
ATOM     81  C   UNL A   1      32.911  21.232  23.815  1.00  0.00     0.049 A 
ATOM     82  C   UNL A   1      33.668  21.376  25.954  1.00  0.00     0.029 A 
ATOM     83  C   UNL A   1      32.529  21.678  22.536  1.00  0.00     0.027 A 
ATOM     84  N   UNL A   1      32.828  19.991  24.426  1.00  0.00    -0.343 N 
ATOM     85  C   UNL A   1      33.179  20.111  25.751  1.00  0.00     0.087 A 
BRANCH  84  86
ATOM     86  C   UNL A   1      32.344  18.749  23.822  1.00  0.00     0.157 C 
BRANCH  86  87
ATOM     87  C   UNL A   1      33.053  17.517  24.348  1.00  0.00    -0.025 A 
ATOM     88  C   UNL A   1      34.419  17.303  24.125  1.00  0.00     0.025 A 
ATOM     89  C   UNL A   1      32.370  16.570  25.121  1.00  0.00     0.025 A 
ATOM     90  C   UNL A   1      35.023  16.165  24.636  1.00  0.00     0.111 A 
ATOM     91  C   UNL A   1      33.067  15.470  25.607  1.00  0.00     0.111 A 
ATOM     92  N   UNL A   1      34.377  15.242  25.376  1.00  0.00    -0.265 NA
ENDBRANCH  86  87
ENDBRANCH  84  86
ENDBRANCH  74  77
ENDBRANCH  72  73
ENDBRANCH  71  72
ENDBRANCH  70  71
ENDBRANCH   1  70
TORSDOF 18
ENDMDL
