MODEL 1
REMARK VINA RESULT:     -12.2      0.000      0.000
REMARK SMILES COc1ccc(-n2ccnc2C[N@@H+]2CCn3nc(C(=O)NCCCCCCNC(=O)c4ccc(-c5c6nc(c(-c7ccc(S(=O)(=O)[O-])cc7)c7ccc([nH]7)c(-c7ccc(S(=O)(=O)[O-])cc7)c7nc(c(-c8ccc(S(=O)(=O)[O-])cc8)c8ccc5[nH]8)C=C7)C=C6)cc4)cc3C2)cc1
REMARK SMILES IDX 24 1 23 2 22 3 21 4 19 5 20 6 18 8 13 9 14 10 93 11 15 13
REMARK SMILES IDX 92 14 16 15 91 16 17 17 12 18 11 19 7 20 8 21 9 22 10 23
REMARK SMILES IDX 6 24 3 25 4 26 95 27 5 28 94 29 2 30 1 31 25 32 26 33 27 34
REMARK SMILES IDX 28 35 29 36 30 38 31 39 32 40 90 41 33 42 89 43 34 44 35 45
REMARK SMILES IDX 36 46 83 47 37 48 88 49 82 50 84 51 38 52 87 53 81 54 80 55
REMARK SMILES IDX 39 57 69 58 50 59 68 60 51 61 54 62 67 63 85 64 52 65 53 66
REMARK SMILES IDX 66 68 86 69 55 70 40 71 41 72 49 73 42 74 48 75 43 76 44 77
REMARK SMILES IDX 45 78 46 79 47 80 70 81 71 82 79 83 72 84 78 85 73 86 74 87
REMARK SMILES IDX 75 88 76 89 77 90 56 91 57 92 65 93 58 94 64 95 59 96 60 97
REMARK SMILES IDX 61 98 62 99 63 100
REMARK H PARENT 21 7 13 12 28 37 84 56 54 67
REMARK Flexibility Score: inf
ROOT
ATOM      1  C   UNL A   1      41.172  21.503  27.531  1.00  0.00     0.002 C 
ENDROOT
BRANCH   1   2
ATOM      2  C   UNL A   1      40.428  22.081  26.326  1.00  0.00     0.021 C 
BRANCH   2   3
ATOM      3  C   UNL A   1      38.999  21.591  26.111  1.00  0.00     0.116 C 
BRANCH   3   4
ATOM      4  N   UNL A   1      37.960  22.552  26.474  1.00  0.00    -0.351 N 
ATOM      5  C   UNL A   1      36.758  22.862  25.582  1.00  0.00     0.271 C 
ATOM      6  O   UNL A   1      37.421  23.731  24.882  1.00  0.00    -0.267 OA
ATOM      7  H   UNL A   1      38.036  23.024  27.335  1.00  0.00     0.163 HD
BRANCH   5   8
ATOM      8  C   UNL A   1      34.767  22.246  25.587  1.00  0.00     0.150 A 
ATOM      9  N   UNL A   1      31.483  24.566  25.195  1.00  0.00    -0.322 N 
ATOM     10  C   UNL A   1      31.530  24.441  26.678  1.00  0.00     0.286 C 
ATOM     11  C   UNL A   1      31.345  23.257  24.524  1.00  0.00     0.319 C 
ATOM     12  H   UNL A   1      30.633  25.113  25.064  1.00  0.00     0.348 HD
ATOM     13  C   UNL A   1      31.811  23.028  27.247  1.00  0.00     0.206 C 
ATOM     14  C   UNL A   1      32.465  22.409  24.993  1.00  0.00     0.094 A 
ATOM     15  N   UNL A   1      32.676  22.323  26.321  1.00  0.00    -0.257 N 
ATOM     16  C   UNL A   1      33.640  21.993  24.428  1.00  0.00     0.065 A 
ATOM     17  N   UNL A   1      33.894  21.911  26.671  1.00  0.00    -0.167 NA
BRANCH   9  18
ATOM     18  C   UNL A   1      32.530  25.399  24.533  1.00  0.00     0.339 C 
BRANCH  18  19
ATOM     19  C   UNL A   1      32.614  25.465  23.032  1.00  0.00     0.168 A 
ATOM     20  N   UNL A   1      31.805  26.224  22.199  1.00  0.00    -0.299 N 
ATOM     21  C   UNL A   1      32.074  25.829  20.914  1.00  0.00     0.113 A 
ATOM     22  C   UNL A   1      33.110  24.935  21.004  1.00  0.00     0.132 A 
ATOM     23  N   UNL A   1      33.446  24.727  22.313  1.00  0.00    -0.236 NA
BRANCH  20  24
ATOM     24  C   UNL A   1      30.782  27.127  22.529  1.00  0.00     0.047 A 
ATOM     25  C   UNL A   1      28.093  29.547  23.014  1.00  0.00     0.119 A 
ATOM     26  C   UNL A   1      27.850  27.818  23.539  1.00  0.00     0.048 A 
ATOM     27  C   UNL A   1      29.661  30.073  22.261  1.00  0.00     0.048 A 
ATOM     28  C   UNL A   1      29.222  26.590  23.297  1.00  0.00     0.030 A 
ATOM     29  C   UNL A   1      31.021  28.852  22.013  1.00  0.00     0.030 A 
BRANCH  25  30
ATOM     30  O   UNL A   1      27.048  30.392  23.266  1.00  0.00    -0.497 OA
ATOM     31  C   UNL A   1      27.455  31.582  23.927  1.00  0.00     0.278 C 
ENDBRANCH  25  30
ENDBRANCH  20  24
ENDBRANCH  18  19
ENDBRANCH   9  18
ENDBRANCH   5   8
ENDBRANCH   3   4
ENDBRANCH   2   3
ENDBRANCH   1   2
BRANCH   1  32
ATOM     32  C   UNL A   1      41.218  19.975  27.683  1.00  0.00     0.002 C 
BRANCH  32  33
ATOM     33  C   UNL A   1      42.224  19.183  26.835  1.00  0.00     0.021 C 
BRANCH  33  34
ATOM     34  C   UNL A   1      42.498  19.744  25.453  1.00  0.00     0.116 C 
BRANCH  34  35
ATOM     35  N   UNL A   1      43.861  19.493  24.989  1.00  0.00    -0.352 N 
ATOM     36  C   UNL A   1      44.804  20.428  24.599  1.00  0.00     0.251 C 
ATOM     37  H   UNL A   1      44.141  18.550  24.951  1.00  0.00     0.163 HD
ATOM     38  O   UNL A   1      45.738  20.114  23.872  1.00  0.00    -0.269 OA
BRANCH  36  39
ATOM     39  C   UNL A   1      44.657  21.811  25.086  1.00  0.00     0.039 A 
ATOM     40  C   UNL A   1      43.680  22.679  24.588  1.00  0.00     0.014 A 
ATOM     41  C   UNL A   1      45.510  22.214  26.108  1.00  0.00     0.014 A 
ATOM     42  C   UNL A   1      43.527  23.928  25.188  1.00  0.00     0.010 A 
ATOM     43  C   UNL A   1      45.228  23.347  26.817  1.00  0.00     0.010 A 
ATOM     44  C   UNL A   1      44.297  24.249  26.316  1.00  0.00    -0.014 A 
BRANCH  44  45
ATOM     45  C   UNL A   1      44.098  25.489  27.057  1.00  0.00     0.031 A 
ATOM     46  C   UNL A   1      45.083  26.559  26.749  1.00  0.00     0.074 A 
ATOM     47  C   UNL A   1      42.972  25.733  27.767  1.00  0.00     0.049 A 
ATOM     48  N   UNL A   1      46.031  27.005  27.506  1.00  0.00    -0.248 NA
ATOM     49  C   UNL A   1      45.123  27.088  25.375  1.00  0.00     0.031 C 
ATOM     50  C   UNL A   1      41.775  24.886  27.886  1.00  0.00     0.029 A 
ATOM     51  N   UNL A   1      42.599  26.857  28.431  1.00  0.00    -0.354 N 
ATOM     52  C   UNL A   1      46.618  28.050  26.799  1.00  0.00     0.074 A 
ATOM     53  C   UNL A   1      46.179  27.902  25.435  1.00  0.00     0.031 C 
ATOM     54  C   UNL A   1      40.738  25.622  28.345  1.00  0.00     0.029 A 
ATOM     55  C   UNL A   1      41.244  26.920  28.743  1.00  0.00     0.049 A 
ATOM     56  H   UNL A   1      43.234  27.570  28.671  1.00  0.00     0.167 HD
ATOM     57  C   UNL A   1      47.162  29.121  27.444  1.00  0.00     0.031 A 
ATOM     58  C   UNL A   1      40.578  27.969  29.284  1.00  0.00     0.031 A 
ATOM     59  C   UNL A   1      47.324  28.858  28.853  1.00  0.00     0.049 A 
ATOM     60  C   UNL A   1      41.596  28.814  29.949  1.00  0.00     0.074 A 
ATOM     61  C   UNL A   1      48.026  27.947  29.614  1.00  0.00     0.029 A 
ATOM     62  N   UNL A   1      46.349  29.377  29.673  1.00  0.00    -0.354 N 
ATOM     63  N   UNL A   1      42.311  28.410  30.962  1.00  0.00    -0.248 NA
ATOM     64  C   UNL A   1      42.134  29.950  29.220  1.00  0.00     0.031 C 
ATOM     65  C   UNL A   1      47.169  27.645  30.714  1.00  0.00     0.029 A 
ATOM     66  C   UNL A   1      46.020  28.434  30.611  1.00  0.00     0.049 A 
ATOM     67  H   UNL A   1      45.955  30.276  29.599  1.00  0.00     0.167 HD
ATOM     68  C   UNL A   1      43.575  28.936  30.736  1.00  0.00     0.074 A 
ATOM     69  C   UNL A   1      43.370  29.973  29.726  1.00  0.00     0.031 C 
ATOM     70  C   UNL A   1      44.694  28.291  31.181  1.00  0.00     0.031 A 
BRANCH  57  71
ATOM     71  C   UNL A   1      47.094  30.542  26.917  1.00  0.00    -0.014 A 
ATOM     72  C   UNL A   1      48.234  31.364  27.052  1.00  0.00     0.010 A 
ATOM     73  C   UNL A   1      45.886  31.189  26.585  1.00  0.00     0.010 A 
ATOM     74  C   UNL A   1      48.144  32.759  26.966  1.00  0.00     0.020 A 
ATOM     75  C   UNL A   1      45.793  32.577  26.453  1.00  0.00     0.020 A 
ATOM     76  C   UNL A   1      46.916  33.356  26.687  1.00  0.00     0.054 A 
BRANCH  76  77
ATOM     77  S   UNL A   1      46.778  35.159  26.712  1.00  0.00     0.124 S 
ATOM     78  O   UNL A   1      47.871  35.553  25.827  1.00  0.00    -0.237 OA
ATOM     79  O   UNL A   1      45.431  35.373  26.192  1.00  0.00    -0.237 OA
ATOM     80  O   UNL A   1      46.957  35.496  28.122  1.00  0.00    -0.744 OA
ENDBRANCH  76  77
ENDBRANCH  57  71
BRANCH  58  81
ATOM     81  C   UNL A   1      39.206  28.442  28.977  1.00  0.00    -0.014 A 
ATOM     82  C   UNL A   1      38.245  28.593  29.995  1.00  0.00     0.010 A 
ATOM     83  C   UNL A   1      38.930  29.033  27.727  1.00  0.00     0.010 A 
ATOM     84  C   UNL A   1      37.087  29.364  29.791  1.00  0.00     0.020 A 
ATOM     85  C   UNL A   1      37.776  29.799  27.515  1.00  0.00     0.020 A 
ATOM     86  C   UNL A   1      36.871  29.981  28.557  1.00  0.00     0.054 A 
BRANCH  86  87
ATOM     87  S   UNL A   1      35.469  31.125  28.358  1.00  0.00     0.124 S 
ATOM     88  O   UNL A   1      34.574  30.369  27.486  1.00  0.00    -0.237 OA
ATOM     89  O   UNL A   1      35.008  31.307  29.731  1.00  0.00    -0.237 OA
ATOM     90  O   UNL A   1      36.075  32.308  27.748  1.00  0.00    -0.744 OA
ENDBRANCH  86  87
ENDBRANCH  58  81
BRANCH  70  91
ATOM     91  C   UNL A   1      44.527  27.192  32.207  1.00  0.00    -0.014 A 
ATOM     92  C   UNL A   1      44.644  25.816  31.921  1.00  0.00     0.010 A 
ATOM     93  C   UNL A   1      44.397  27.586  33.550  1.00  0.00     0.010 A 
ATOM     94  C   UNL A   1      44.620  24.865  32.955  1.00  0.00     0.020 A 
ATOM     95  C   UNL A   1      44.387  26.647  34.584  1.00  0.00     0.020 A 
ATOM     96  C   UNL A   1      44.494  25.288  34.282  1.00  0.00     0.054 A 
BRANCH  96  97
ATOM     97  S   UNL A   1      44.523  24.065  35.624  1.00  0.00     0.124 S 
ATOM     98  O   UNL A   1      43.347  23.249  35.337  1.00  0.00    -0.237 OA
ATOM     99  O   UNL A   1      45.811  23.402  35.434  1.00  0.00    -0.237 OA
ATOM    100  O   UNL A   1      44.429  24.877  36.837  1.00  0.00    -0.744 OA
ENDBRANCH  96  97
ENDBRANCH  70  91
ENDBRANCH  44  45
ENDBRANCH  36  39
ENDBRANCH  34  35
ENDBRANCH  33  34
ENDBRANCH  32  33
ENDBRANCH   1  32
TORSDOF 20
ENDMDL
MODEL 2
REMARK VINA RESULT:     -11.6      2.766      9.720
REMARK SMILES COc1ccc(-n2ccnc2C[N@@H+]2CCn3nc(C(=O)NCCCCCCNC(=O)c4ccc(-c5c6nc(c(-c7ccc(S(=O)(=O)[O-])cc7)c7ccc([nH]7)c(-c7ccc(S(=O)(=O)[O-])cc7)c7nc(c(-c8ccc(S(=O)(=O)[O-])cc8)c8ccc5[nH]8)C=C7)C=C6)cc4)cc3C2)cc1
REMARK SMILES IDX 24 1 23 2 22 3 21 4 19 5 20 6 18 8 13 9 14 10 93 11 15 13
REMARK SMILES IDX 92 14 16 15 91 16 17 17 12 18 11 19 7 20 8 21 9 22 10 23
REMARK SMILES IDX 6 24 3 25 4 26 95 27 5 28 94 29 2 30 1 31 25 32 26 33 27 34
REMARK SMILES IDX 28 35 29 36 30 38 31 39 32 40 90 41 33 42 89 43 34 44 35 45
REMARK SMILES IDX 36 46 83 47 37 48 88 49 82 50 84 51 38 52 87 53 81 54 80 55
REMARK SMILES IDX 39 57 69 58 50 59 68 60 51 61 54 62 67 63 85 64 52 65 53 66
REMARK SMILES IDX 66 68 86 69 55 70 40 71 41 72 49 73 42 74 48 75 43 76 44 77
REMARK SMILES IDX 45 78 46 79 47 80 70 81 71 82 79 83 72 84 78 85 73 86 74 87
REMARK SMILES IDX 75 88 76 89 77 90 56 91 57 92 65 93 58 94 64 95 59 96 60 97
REMARK SMILES IDX 61 98 62 99 63 100
REMARK H PARENT 21 7 13 12 28 37 84 56 54 67
REMARK Flexibility Score: inf
ROOT
ATOM      1  C   UNL A   1      35.953  29.823  28.567  1.00  0.00     0.002 C 
ENDROOT
BRANCH   1   2
ATOM      2  C   UNL A   1      34.971  29.765  27.396  1.00  0.00     0.021 C 
BRANCH   2   3
ATOM      3  C   UNL A   1      33.855  30.805  27.393  1.00  0.00     0.116 C 
BRANCH   3   4
ATOM      4  N   UNL A   1      32.514  30.266  27.175  1.00  0.00    -0.351 N 
ATOM      5  C   UNL A   1      31.726  30.479  25.883  1.00  0.00     0.271 C 
ATOM      6  O   UNL A   1      31.280  31.634  26.269  1.00  0.00    -0.267 OA
ATOM      7  H   UNL A   1      32.096  29.741  27.895  1.00  0.00     0.163 HD
BRANCH   5   8
ATOM      8  C   UNL A   1      31.372  29.295  24.204  1.00  0.00     0.150 A 
ATOM      9  N   UNL A   1      31.742  25.283  23.912  1.00  0.00    -0.322 N 
ATOM     10  C   UNL A   1      33.055  25.701  23.345  1.00  0.00     0.286 C 
ATOM     11  C   UNL A   1      30.601  25.811  23.138  1.00  0.00     0.319 C 
ATOM     12  H   UNL A   1      31.790  24.269  23.810  1.00  0.00     0.348 HD
ATOM     13  C   UNL A   1      33.032  26.875  22.335  1.00  0.00     0.206 C 
ATOM     14  C   UNL A   1      30.759  27.283  23.083  1.00  0.00     0.094 A 
ATOM     15  N   UNL A   1      31.953  27.774  22.699  1.00  0.00    -0.257 N 
ATOM     16  C   UNL A   1      30.145  28.327  23.720  1.00  0.00     0.065 A 
ATOM     17  N   UNL A   1      32.181  29.038  23.052  1.00  0.00    -0.167 NA
BRANCH   9  18
ATOM     18  C   UNL A   1      31.527  25.467  25.378  1.00  0.00     0.339 C 
BRANCH  18  19
ATOM     19  C   UNL A   1      30.757  24.445  26.168  1.00  0.00     0.168 A 
ATOM     20  N   UNL A   1      31.133  23.129  26.392  1.00  0.00    -0.299 N 
ATOM     21  C   UNL A   1      30.059  22.498  26.966  1.00  0.00     0.113 A 
ATOM     22  C   UNL A   1      29.118  23.473  27.174  1.00  0.00     0.132 A 
ATOM     23  N   UNL A   1      29.562  24.674  26.692  1.00  0.00    -0.236 NA
BRANCH  20  24
ATOM     24  C   UNL A   1      32.302  22.456  26.003  1.00  0.00     0.047 A 
ATOM     25  C   UNL A   1      35.380  20.604  25.355  1.00  0.00     0.119 A 
ATOM     26  C   UNL A   1      33.840  20.106  24.517  1.00  0.00     0.048 A 
ATOM     27  C   UNL A   1      35.396  22.015  26.501  1.00  0.00     0.048 A 
ATOM     28  C   UNL A   1      32.277  21.054  24.843  1.00  0.00     0.030 A 
ATOM     29  C   UNL A   1      33.841  22.951  26.832  1.00  0.00     0.030 A 
BRANCH  25  30
ATOM     30  O   UNL A   1      36.492  19.879  25.026  1.00  0.00    -0.497 OA
ATOM     31  C   UNL A   1      37.555  20.692  24.552  1.00  0.00     0.278 C 
ENDBRANCH  25  30
ENDBRANCH  20  24
ENDBRANCH  18  19
ENDBRANCH   9  18
ENDBRANCH   5   8
ENDBRANCH   3   4
ENDBRANCH   2   3
ENDBRANCH   1   2
BRANCH   1  32
ATOM     32  C   UNL A   1      37.101  30.843  28.493  1.00  0.00     0.002 C 
BRANCH  32  33
ATOM     33  C   UNL A   1      36.776  32.329  28.697  1.00  0.00     0.021 C 
BRANCH  33  34
ATOM     34  C   UNL A   1      37.546  33.020  29.806  1.00  0.00     0.116 C 
BRANCH  34  35
ATOM     35  N   UNL A   1      36.822  33.058  31.075  1.00  0.00    -0.352 N 
ATOM     36  C   UNL A   1      36.762  32.068  32.040  1.00  0.00     0.251 C 
ATOM     37  H   UNL A   1      36.319  33.882  31.265  1.00  0.00     0.163 HD
ATOM     38  O   UNL A   1      35.842  32.031  32.847  1.00  0.00    -0.269 OA
BRANCH  36  39
ATOM     39  C   UNL A   1      37.839  31.062  32.076  1.00  0.00     0.039 A 
ATOM     40  C   UNL A   1      37.591  29.696  31.911  1.00  0.00     0.014 A 
ATOM     41  C   UNL A   1      39.137  31.534  32.235  1.00  0.00     0.014 A 
ATOM     42  C   UNL A   1      38.676  28.824  31.833  1.00  0.00     0.010 A 
ATOM     43  C   UNL A   1      40.194  30.712  31.960  1.00  0.00     0.010 A 
ATOM     44  C   UNL A   1      39.979  29.344  31.843  1.00  0.00    -0.014 A 
BRANCH  44  45
ATOM     45  C   UNL A   1      41.149  28.496  31.645  1.00  0.00     0.031 A 
ATOM     46  C   UNL A   1      41.840  28.094  32.898  1.00  0.00     0.074 A 
ATOM     47  C   UNL A   1      41.428  27.919  30.453  1.00  0.00     0.049 A 
ATOM     48  N   UNL A   1      42.992  28.490  33.329  1.00  0.00    -0.248 NA
ATOM     49  C   UNL A   1      41.093  27.274  33.867  1.00  0.00     0.031 C 
ATOM     50  C   UNL A   1      40.639  27.974  29.213  1.00  0.00     0.029 A 
ATOM     51  N   UNL A   1      42.415  27.043  30.131  1.00  0.00    -0.354 N 
ATOM     52  C   UNL A   1      43.227  27.768  34.496  1.00  0.00     0.074 A 
ATOM     53  C   UNL A   1      41.952  27.224  34.889  1.00  0.00     0.031 C 
ATOM     54  C   UNL A   1      41.026  26.982  28.380  1.00  0.00     0.029 A 
ATOM     55  C   UNL A   1      42.212  26.361  28.934  1.00  0.00     0.049 A 
ATOM     56  H   UNL A   1      43.208  26.902  30.697  1.00  0.00     0.167 HD
ATOM     57  C   UNL A   1      44.491  27.423  34.871  1.00  0.00     0.031 A 
ATOM     58  C   UNL A   1      42.962  25.349  28.435  1.00  0.00     0.031 A 
ATOM     59  C   UNL A   1      45.480  28.153  34.116  1.00  0.00     0.049 A 
ATOM     60  C   UNL A   1      44.284  25.442  29.093  1.00  0.00     0.074 A 
ATOM     61  C   UNL A   1      45.811  29.482  33.947  1.00  0.00     0.029 A 
ATOM     62  N   UNL A   1      46.046  27.476  33.060  1.00  0.00    -0.354 N 
ATOM     63  N   UNL A   1      45.089  26.458  28.944  1.00  0.00    -0.248 NA
ATOM     64  C   UNL A   1      44.535  24.616  30.262  1.00  0.00     0.031 C 
ATOM     65  C   UNL A   1      46.186  29.598  32.574  1.00  0.00     0.029 A 
ATOM     66  C   UNL A   1      46.133  28.329  31.992  1.00  0.00     0.049 A 
ATOM     67  H   UNL A   1      46.340  26.538  33.072  1.00  0.00     0.167 HD
ATOM     68  C   UNL A   1      45.645  26.657  30.199  1.00  0.00     0.074 A 
ATOM     69  C   UNL A   1      45.366  25.422  30.929  1.00  0.00     0.031 C 
ATOM     70  C   UNL A   1      46.026  27.903  30.609  1.00  0.00     0.031 A 
BRANCH  57  71
ATOM     71  C   UNL A   1      44.838  26.110  35.547  1.00  0.00    -0.014 A 
ATOM     72  C   UNL A   1      45.758  26.128  36.618  1.00  0.00     0.010 A 
ATOM     73  C   UNL A   1      44.545  24.849  34.988  1.00  0.00     0.010 A 
ATOM     74  C   UNL A   1      46.424  24.967  37.029  1.00  0.00     0.020 A 
ATOM     75  C   UNL A   1      45.171  23.677  35.419  1.00  0.00     0.020 A 
ATOM     76  C   UNL A   1      46.139  23.751  36.410  1.00  0.00     0.054 A 
BRANCH  76  77
ATOM     77  S   UNL A   1      47.098  22.283  36.851  1.00  0.00     0.124 S 
ATOM     78  O   UNL A   1      46.168  21.570  37.722  1.00  0.00    -0.237 OA
ATOM     79  O   UNL A   1      47.344  21.672  35.547  1.00  0.00    -0.237 OA
ATOM     80  O   UNL A   1      48.281  22.833  37.509  1.00  0.00    -0.744 OA
ENDBRANCH  76  77
ENDBRANCH  57  71
BRANCH  58  81
ATOM     81  C   UNL A   1      42.504  24.143  27.701  1.00  0.00    -0.014 A 
ATOM     82  C   UNL A   1      43.315  23.538  26.722  1.00  0.00     0.010 A 
ATOM     83  C   UNL A   1      41.396  23.411  28.175  1.00  0.00     0.010 A 
ATOM     84  C   UNL A   1      43.067  22.224  26.286  1.00  0.00     0.020 A 
ATOM     85  C   UNL A   1      41.140  22.103  27.742  1.00  0.00     0.020 A 
ATOM     86  C   UNL A   1      41.992  21.506  26.817  1.00  0.00     0.054 A 
BRANCH  86  87
ATOM     87  S   UNL A   1      41.788  19.750  26.389  1.00  0.00     0.124 S 
ATOM     88  O   UNL A   1      42.307  19.078  27.577  1.00  0.00    -0.237 OA
ATOM     89  O   UNL A   1      40.348  19.637  26.178  1.00  0.00    -0.237 OA
ATOM     90  O   UNL A   1      42.602  19.592  25.184  1.00  0.00    -0.744 OA
ENDBRANCH  86  87
ENDBRANCH  58  81
BRANCH  70  91
ATOM     91  C   UNL A   1      46.152  28.993  29.567  1.00  0.00    -0.014 A 
ATOM     92  C   UNL A   1      45.087  29.814  29.146  1.00  0.00     0.010 A 
ATOM     93  C   UNL A   1      47.448  29.293  29.110  1.00  0.00     0.010 A 
ATOM     94  C   UNL A   1      45.317  30.898  28.281  1.00  0.00     0.020 A 
ATOM     95  C   UNL A   1      47.685  30.378  28.264  1.00  0.00     0.020 A 
ATOM     96  C   UNL A   1      46.618  31.174  27.848  1.00  0.00     0.054 A 
BRANCH  96  97
ATOM     97  S   UNL A   1      46.925  32.610  26.780  1.00  0.00     0.124 S 
ATOM     98  O   UNL A   1      45.843  32.520  25.804  1.00  0.00    -0.237 OA
ATOM     99  O   UNL A   1      46.840  33.733  27.711  1.00  0.00    -0.237 OA
ATOM    100  O   UNL A   1      48.263  32.365  26.242  1.00  0.00    -0.744 OA
ENDBRANCH  96  97
ENDBRANCH  70  91
ENDBRANCH  44  45
ENDBRANCH  36  39
ENDBRANCH  34  35
ENDBRANCH  33  34
ENDBRANCH  32  33
ENDBRANCH   1  32
TORSDOF 20
ENDMDL
MODEL 3
REMARK VINA RESULT:     -11.5      3.371     10.046
REMARK SMILES COc1ccc(-n2ccnc2C[N@@H+]2CCn3nc(C(=O)NCCCCCCNC(=O)c4ccc(-c5c6nc(c(-c7ccc(S(=O)(=O)[O-])cc7)c7ccc([nH]7)c(-c7ccc(S(=O)(=O)[O-])cc7)c7nc(c(-c8ccc(S(=O)(=O)[O-])cc8)c8ccc5[nH]8)C=C7)C=C6)cc4)cc3C2)cc1
REMARK SMILES IDX 24 1 23 2 22 3 21 4 19 5 20 6 18 8 13 9 14 10 93 11 15 13
REMARK SMILES IDX 92 14 16 15 91 16 17 17 12 18 11 19 7 20 8 21 9 22 10 23
REMARK SMILES IDX 6 24 3 25 4 26 95 27 5 28 94 29 2 30 1 31 25 32 26 33 27 34
REMARK SMILES IDX 28 35 29 36 30 38 31 39 32 40 90 41 33 42 89 43 34 44 35 45
REMARK SMILES IDX 36 46 83 47 37 48 88 49 82 50 84 51 38 52 87 53 81 54 80 55
REMARK SMILES IDX 39 57 69 58 50 59 68 60 51 61 54 62 67 63 85 64 52 65 53 66
REMARK SMILES IDX 66 68 86 69 55 70 40 71 41 72 49 73 42 74 48 75 43 76 44 77
REMARK SMILES IDX 45 78 46 79 47 80 70 81 71 82 79 83 72 84 78 85 73 86 74 87
REMARK SMILES IDX 75 88 76 89 77 90 56 91 57 92 65 93 58 94 64 95 59 96 60 97
REMARK SMILES IDX 61 98 62 99 63 100
REMARK H PARENT 21 7 13 12 28 37 84 56 54 67
REMARK Flexibility Score: inf
ROOT
ATOM      1  C   UNL A   1      35.238  31.421  27.423  1.00  0.00     0.002 C 
ENDROOT
BRANCH   1   2
ATOM      2  C   UNL A   1      35.033  30.005  27.965  1.00  0.00     0.021 C 
BRANCH   2   3
ATOM      3  C   UNL A   1      34.699  28.927  26.939  1.00  0.00     0.116 C 
BRANCH   3   4
ATOM      4  N   UNL A   1      33.432  28.234  27.168  1.00  0.00    -0.351 N 
ATOM      5  C   UNL A   1      32.167  28.512  26.357  1.00  0.00     0.271 C 
ATOM      6  O   UNL A   1      31.834  29.522  27.101  1.00  0.00    -0.267 OA
ATOM      7  H   UNL A   1      33.391  27.555  27.880  1.00  0.00     0.163 HD
BRANCH   5   8
ATOM      8  C   UNL A   1      31.241  27.541  24.762  1.00  0.00     0.150 A 
ATOM      9  N   UNL A   1      31.993  23.817  23.388  1.00  0.00    -0.322 N 
ATOM     10  C   UNL A   1      32.817  24.611  22.434  1.00  0.00     0.286 C 
ATOM     11  C   UNL A   1      30.561  24.173  23.327  1.00  0.00     0.319 C 
ATOM     12  H   UNL A   1      32.130  22.870  23.035  1.00  0.00     0.348 HD
ATOM     13  C   UNL A   1      32.160  25.884  21.843  1.00  0.00     0.206 C 
ATOM     14  C   UNL A   1      30.466  25.632  23.563  1.00  0.00     0.094 A 
ATOM     15  N   UNL A   1      31.261  26.441  22.837  1.00  0.00    -0.257 N 
ATOM     16  C   UNL A   1      30.080  26.396  24.631  1.00  0.00     0.065 A 
ATOM     17  N   UNL A   1      31.447  27.656  23.350  1.00  0.00    -0.167 NA
BRANCH   9  18
ATOM     18  C   UNL A   1      32.462  23.725  24.802  1.00  0.00     0.339 C 
BRANCH  18  19
ATOM     19  C   UNL A   1      33.933  23.688  25.115  1.00  0.00     0.168 A 
ATOM     20  N   UNL A   1      34.736  22.557  25.141  1.00  0.00    -0.299 N 
ATOM     21  C   UNL A   1      35.942  22.936  25.676  1.00  0.00     0.113 A 
ATOM     22  C   UNL A   1      35.867  24.295  25.846  1.00  0.00     0.132 A 
ATOM     23  N   UNL A   1      34.630  24.752  25.484  1.00  0.00    -0.236 NA
BRANCH  20  24
ATOM     24  C   UNL A   1      34.413  21.225  24.843  1.00  0.00     0.047 A 
ATOM     25  C   UNL A   1      33.724  17.668  24.399  1.00  0.00     0.119 A 
ATOM     26  C   UNL A   1      32.339  18.852  24.432  1.00  0.00     0.048 A 
ATOM     27  C   UNL A   1      35.439  18.243  24.578  1.00  0.00     0.048 A 
ATOM     28  C   UNL A   1      32.692  20.662  24.650  1.00  0.00     0.030 A 
ATOM     29  C   UNL A   1      35.789  20.041  24.804  1.00  0.00     0.030 A 
BRANCH  25  30
ATOM     30  O   UNL A   1      33.379  16.361  24.192  1.00  0.00    -0.497 OA
ATOM     31  C   UNL A   1      33.687  15.532  25.304  1.00  0.00     0.278 C 
ENDBRANCH  25  30
ENDBRANCH  20  24
ENDBRANCH  18  19
ENDBRANCH   9  18
ENDBRANCH   5   8
ENDBRANCH   3   4
ENDBRANCH   2   3
ENDBRANCH   1   2
BRANCH   1  32
ATOM     32  C   UNL A   1      36.084  32.396  28.258  1.00  0.00     0.002 C 
BRANCH  32  33
ATOM     33  C   UNL A   1      35.513  33.788  28.562  1.00  0.00     0.021 C 
BRANCH  33  34
ATOM     34  C   UNL A   1      34.227  33.806  29.366  1.00  0.00     0.116 C 
BRANCH  34  35
ATOM     35  N   UNL A   1      34.241  34.781  30.455  1.00  0.00    -0.352 N 
ATOM     36  C   UNL A   1      34.858  34.658  31.688  1.00  0.00     0.251 C 
ATOM     37  H   UNL A   1      33.756  35.622  30.293  1.00  0.00     0.163 HD
ATOM     38  O   UNL A   1      34.490  35.328  32.645  1.00  0.00    -0.269 OA
BRANCH  36  39
ATOM     39  C   UNL A   1      35.975  33.705  31.816  1.00  0.00     0.039 A 
ATOM     40  C   UNL A   1      35.771  32.328  31.939  1.00  0.00     0.014 A 
ATOM     41  C   UNL A   1      37.262  34.231  31.764  1.00  0.00     0.014 A 
ATOM     42  C   UNL A   1      36.881  31.484  31.931  1.00  0.00     0.010 A 
ATOM     43  C   UNL A   1      38.324  33.397  31.556  1.00  0.00     0.010 A 
ATOM     44  C   UNL A   1      38.158  32.028  31.723  1.00  0.00    -0.014 A 
BRANCH  44  45
ATOM     45  C   UNL A   1      39.341  31.186  31.585  1.00  0.00     0.031 A 
ATOM     46  C   UNL A   1      40.009  30.844  32.868  1.00  0.00     0.074 A 
ATOM     47  C   UNL A   1      39.652  30.564  30.425  1.00  0.00     0.049 A 
ATOM     48  N   UNL A   1      41.147  31.272  33.306  1.00  0.00    -0.248 NA
ATOM     49  C   UNL A   1      39.251  30.057  33.855  1.00  0.00     0.031 C 
ATOM     50  C   UNL A   1      38.889  30.557  29.166  1.00  0.00     0.029 A 
ATOM     51  N   UNL A   1      40.655  29.687  30.160  1.00  0.00    -0.354 N 
ATOM     52  C   UNL A   1      41.365  30.603  34.507  1.00  0.00     0.074 A 
ATOM     53  C   UNL A   1      40.088  30.060  34.896  1.00  0.00     0.031 C 
ATOM     54  C   UNL A   1      39.305  29.536  28.385  1.00  0.00     0.029 A 
ATOM     55  C   UNL A   1      40.485  28.953  28.989  1.00  0.00     0.049 A 
ATOM     56  H   UNL A   1      41.437  29.579  30.748  1.00  0.00     0.167 HD
ATOM     57  C   UNL A   1      42.625  30.289  34.923  1.00  0.00     0.031 A 
ATOM     58  C   UNL A   1      41.257  27.930  28.548  1.00  0.00     0.031 A 
ATOM     59  C   UNL A   1      43.621  30.999  34.158  1.00  0.00     0.049 A 
ATOM     60  C   UNL A   1      42.564  28.066  29.229  1.00  0.00     0.074 A 
ATOM     61  C   UNL A   1      43.941  32.323  33.941  1.00  0.00     0.029 A 
ATOM     62  N   UNL A   1      44.217  30.285  33.144  1.00  0.00    -0.354 N 
ATOM     63  N   UNL A   1      43.360  29.085  29.055  1.00  0.00    -0.248 NA
ATOM     64  C   UNL A   1      42.799  27.293  30.437  1.00  0.00     0.031 C 
ATOM     65  C   UNL A   1      44.344  32.386  32.573  1.00  0.00     0.029 A 
ATOM     66  C   UNL A   1      44.318  31.093  32.043  1.00  0.00     0.049 A 
ATOM     67  H   UNL A   1      44.521  29.351  33.201  1.00  0.00     0.167 HD
ATOM     68  C   UNL A   1      43.887  29.342  30.312  1.00  0.00     0.074 A 
ATOM     69  C   UNL A   1      43.606  28.135  31.087  1.00  0.00     0.031 C 
ATOM     70  C   UNL A   1      44.245  30.609  30.677  1.00  0.00     0.031 A 
BRANCH  57  71
ATOM     71  C   UNL A   1      42.971  29.009  35.660  1.00  0.00    -0.014 A 
ATOM     72  C   UNL A   1      43.990  29.052  36.637  1.00  0.00     0.010 A 
ATOM     73  C   UNL A   1      42.565  27.730  35.227  1.00  0.00     0.010 A 
ATOM     74  C   UNL A   1      44.636  27.886  37.070  1.00  0.00     0.020 A 
ATOM     75  C   UNL A   1      43.172  26.558  35.685  1.00  0.00     0.020 A 
ATOM     76  C   UNL A   1      44.234  26.648  36.573  1.00  0.00     0.054 A 
BRANCH  76  77
ATOM     77  S   UNL A   1      45.159  25.163  37.032  1.00  0.00     0.124 S 
ATOM     78  O   UNL A   1      44.592  24.851  38.340  1.00  0.00    -0.237 OA
ATOM     79  O   UNL A   1      44.817  24.241  35.953  1.00  0.00    -0.237 OA
ATOM     80  O   UNL A   1      46.549  25.617  37.040  1.00  0.00    -0.744 OA
ENDBRANCH  76  77
ENDBRANCH  57  71
BRANCH  58  81
ATOM     81  C   UNL A   1      40.828  26.689  27.856  1.00  0.00    -0.014 A 
ATOM     82  C   UNL A   1      41.618  26.114  26.843  1.00  0.00     0.010 A 
ATOM     83  C   UNL A   1      39.789  25.906  28.399  1.00  0.00     0.010 A 
ATOM     84  C   UNL A   1      41.421  24.782  26.438  1.00  0.00     0.020 A 
ATOM     85  C   UNL A   1      39.584  24.578  27.998  1.00  0.00     0.020 A 
ATOM     86  C   UNL A   1      40.418  24.015  27.035  1.00  0.00     0.054 A 
BRANCH  86  87
ATOM     87  S   UNL A   1      40.289  22.243  26.642  1.00  0.00     0.124 S 
ATOM     88  O   UNL A   1      38.955  22.152  26.054  1.00  0.00    -0.237 OA
ATOM     89  O   UNL A   1      41.401  22.037  25.720  1.00  0.00    -0.237 OA
ATOM     90  O   UNL A   1      40.437  21.590  27.943  1.00  0.00    -0.744 OA
ENDBRANCH  86  87
ENDBRANCH  58  81
BRANCH  70  91
ATOM     91  C   UNL A   1      44.382  31.656  29.593  1.00  0.00    -0.014 A 
ATOM     92  C   UNL A   1      45.454  31.715  28.680  1.00  0.00     0.010 A 
ATOM     93  C   UNL A   1      43.292  32.523  29.402  1.00  0.00     0.010 A 
ATOM     94  C   UNL A   1      45.434  32.628  27.612  1.00  0.00     0.020 A 
ATOM     95  C   UNL A   1      43.259  33.421  28.334  1.00  0.00     0.020 A 
ATOM     96  C   UNL A   1      44.333  33.475  27.444  1.00  0.00     0.054 A 
BRANCH  96  97
ATOM     97  S   UNL A   1      44.279  34.613  26.030  1.00  0.00     0.124 S 
ATOM     98  O   UNL A   1      44.999  35.780  26.533  1.00  0.00    -0.237 OA
ATOM     99  O   UNL A   1      44.959  33.860  24.979  1.00  0.00    -0.237 OA
ATOM    100  O   UNL A   1      42.849  34.820  25.804  1.00  0.00    -0.744 OA
ENDBRANCH  96  97
ENDBRANCH  70  91
ENDBRANCH  44  45
ENDBRANCH  36  39
ENDBRANCH  34  35
ENDBRANCH  33  34
ENDBRANCH  32  33
ENDBRANCH   1  32
TORSDOF 20
ENDMDL
