MODEL 1
REMARK VINA RESULT:     -11.6      0.000      0.000
REMARK SMILES O=C(NCCCCCCNC(=O)[C@H]1[C@H]2CC[C@H](C2)[C@@H]1C(=O)Nc1sc2c(c1C(=O)NC1CCCCC1)CCCC2)c1ccc(-c2c3nc(c(-c4ccc(S(=O)(=O)[O-])cc4)c4ccc([nH]4)c(-c4ccc(S(=O)(=O)[O-])cc4)c4nc(c(-c5ccc(S(=O)(=O)[O-])cc5)c5ccc2[nH]5)C=C4)C=C3)cc1
REMARK SMILES IDX 7 1 6 2 5 3 4 4 3 5 1 6 2 7 41 9 42 10 100 11 43 12 99 13
REMARK SMILES IDX 44 14 45 15 46 16 93 17 47 18 98 19 92 20 94 21 48 22 97 23
REMARK SMILES IDX 91 24 90 25 49 27 79 28 60 29 78 30 61 31 64 32 77 33 95 34
REMARK SMILES IDX 62 35 63 36 76 38 96 39 65 40 50 41 51 42 59 43 52 44 58 45
REMARK SMILES IDX 53 46 54 47 55 48 56 49 57 50 80 51 81 52 89 53 82 54 88 55
REMARK SMILES IDX 83 56 84 57 85 58 86 59 87 60 66 61 67 62 75 63 68 64 74 65
REMARK SMILES IDX 69 66 70 67 71 68 72 69 73 70 8 71 9 72 10 73 11 74 12 76
REMARK SMILES IDX 13 77 14 78 19 79 15 80 18 81 17 82 16 83 20 84 21 85 22 86
REMARK SMILES IDX 23 88 24 89 27 90 25 91 26 92 40 93 37 94 39 95 38 96 28 97
REMARK SMILES IDX 29 98 30 99 31 101 32 102 36 103 33 104 35 105 34 106
REMARK H PARENT 3 8 94 26 64 37 10 75 22 87 30 100
REMARK Flexibility Score: inf
ROOT
ATOM      1  C   UNL A   1      34.920  29.247  26.954  1.00  0.00     0.002 C 
ENDROOT
BRANCH   1   2
ATOM      2  C   UNL A   1      34.129  30.223  27.827  1.00  0.00     0.002 C 
BRANCH   2   3
ATOM      3  C   UNL A   1      33.903  31.612  27.219  1.00  0.00     0.021 C 
BRANCH   3   4
ATOM      4  C   UNL A   1      32.613  32.296  27.661  1.00  0.00     0.116 C 
BRANCH   4   5
ATOM      5  N   UNL A   1      32.742  33.744  27.632  1.00  0.00    -0.352 N 
ATOM      6  O   UNL A   1      33.274  35.766  28.476  1.00  0.00    -0.269 OA
ATOM      7  C   UNL A   1      33.501  34.554  28.432  1.00  0.00     0.251 C 
ATOM      8  H   UNL A   1      32.211  34.204  26.943  1.00  0.00     0.163 HD
BRANCH   7   9
ATOM      9  C   UNL A   1      34.590  33.971  29.236  1.00  0.00     0.039 A 
ATOM     10  C   UNL A   1      34.291  33.224  30.381  1.00  0.00     0.014 A 
ATOM     11  C   UNL A   1      35.914  34.141  28.828  1.00  0.00     0.014 A 
ATOM     12  C   UNL A   1      35.321  32.739  31.177  1.00  0.00     0.010 A 
ATOM     13  C   UNL A   1      36.944  33.583  29.586  1.00  0.00     0.010 A 
ATOM     14  C   UNL A   1      36.655  32.889  30.773  1.00  0.00    -0.014 A 
BRANCH  14  15
ATOM     15  C   UNL A   1      37.737  32.237  31.550  1.00  0.00     0.031 A 
ATOM     16  C   UNL A   1      38.142  32.754  32.898  1.00  0.00     0.074 A 
ATOM     17  C   UNL A   1      38.371  31.181  31.005  1.00  0.00     0.049 A 
ATOM     18  N   UNL A   1      39.101  32.335  33.683  1.00  0.00    -0.248 NA
ATOM     19  C   UNL A   1      37.382  33.896  33.430  1.00  0.00     0.031 C 
ATOM     20  C   UNL A   1      38.066  30.600  29.694  1.00  0.00     0.029 A 
ATOM     21  N   UNL A   1      39.408  30.416  31.473  1.00  0.00    -0.354 N 
ATOM     22  C   UNL A   1      39.080  33.176  34.790  1.00  0.00     0.074 A 
ATOM     23  C   UNL A   1      38.026  34.142  34.562  1.00  0.00     0.031 C 
ATOM     24  C   UNL A   1      38.884  29.563  29.471  1.00  0.00     0.029 A 
ATOM     25  C   UNL A   1      39.818  29.451  30.585  1.00  0.00     0.049 A 
ATOM     26  H   UNL A   1      39.818  30.545  32.359  1.00  0.00     0.167 HD
ATOM     27  C   UNL A   1      39.871  33.143  35.890  1.00  0.00     0.031 A 
ATOM     28  C   UNL A   1      40.855  28.593  30.635  1.00  0.00     0.031 A 
ATOM     29  C   UNL A   1      40.930  32.186  36.088  1.00  0.00     0.049 A 
ATOM     30  C   UNL A   1      41.744  28.601  31.843  1.00  0.00     0.074 A 
ATOM     31  C   UNL A   1      41.763  32.040  37.184  1.00  0.00     0.029 A 
ATOM     32  N   UNL A   1      41.318  31.227  35.163  1.00  0.00    -0.354 N 
ATOM     33  N   UNL A   1      41.674  29.364  32.907  1.00  0.00    -0.248 NA
ATOM     34  C   UNL A   1      42.845  27.630  31.864  1.00  0.00     0.031 C 
ATOM     35  C   UNL A   1      42.697  31.041  36.893  1.00  0.00     0.029 A 
ATOM     36  C   UNL A   1      42.400  30.510  35.646  1.00  0.00     0.049 A 
ATOM     37  H   UNL A   1      40.887  31.078  34.289  1.00  0.00     0.167 HD
ATOM     38  C   UNL A   1      42.710  28.954  33.736  1.00  0.00     0.074 A 
ATOM     39  C   UNL A   1      43.384  27.866  33.053  1.00  0.00     0.031 C 
ATOM     40  C   UNL A   1      43.065  29.432  34.953  1.00  0.00     0.031 A 
BRANCH  27  41
ATOM     41  C   UNL A   1      39.653  34.207  36.937  1.00  0.00    -0.014 A 
ATOM     42  C   UNL A   1      40.184  35.502  36.793  1.00  0.00     0.010 A 
ATOM     43  C   UNL A   1      38.890  33.908  38.081  1.00  0.00     0.010 A 
ATOM     44  C   UNL A   1      40.013  36.454  37.801  1.00  0.00     0.020 A 
ATOM     45  C   UNL A   1      38.689  34.867  39.078  1.00  0.00     0.020 A 
ATOM     46  C   UNL A   1      39.275  36.126  38.943  1.00  0.00     0.054 A 
BRANCH  46  47
ATOM     47  S   UNL A   1      39.090  37.373  40.248  1.00  0.00     0.124 S 
ATOM     48  O   UNL A   1      38.180  38.329  39.622  1.00  0.00    -0.237 OA
ATOM     49  O   UNL A   1      38.526  36.600  41.352  1.00  0.00    -0.237 OA
ATOM     50  O   UNL A   1      40.452  37.858  40.461  1.00  0.00    -0.744 OA
ENDBRANCH  46  47
ENDBRANCH  27  41
BRANCH  28  51
ATOM     51  C   UNL A   1      41.102  27.692  29.478  1.00  0.00    -0.014 A 
ATOM     52  C   UNL A   1      41.906  28.104  28.402  1.00  0.00     0.010 A 
ATOM     53  C   UNL A   1      40.597  26.378  29.493  1.00  0.00     0.010 A 
ATOM     54  C   UNL A   1      42.205  27.214  27.366  1.00  0.00     0.020 A 
ATOM     55  C   UNL A   1      40.918  25.478  28.475  1.00  0.00     0.020 A 
ATOM     56  C   UNL A   1      41.719  25.904  27.415  1.00  0.00     0.054 A 
BRANCH  56  57
ATOM     57  S   UNL A   1      42.201  24.743  26.106  1.00  0.00     0.124 S 
ATOM     58  O   UNL A   1      43.450  24.199  26.628  1.00  0.00    -0.237 OA
ATOM     59  O   UNL A   1      41.070  23.819  26.074  1.00  0.00    -0.237 OA
ATOM     60  O   UNL A   1      42.333  25.594  24.925  1.00  0.00    -0.744 OA
ENDBRANCH  56  57
ENDBRANCH  28  51
BRANCH  40  61
ATOM     61  C   UNL A   1      44.217  28.764  35.655  1.00  0.00    -0.014 A 
ATOM     62  C   UNL A   1      44.021  27.642  36.479  1.00  0.00     0.010 A 
ATOM     63  C   UNL A   1      45.527  29.217  35.412  1.00  0.00     0.010 A 
ATOM     64  C   UNL A   1      45.116  26.990  37.054  1.00  0.00     0.020 A 
ATOM     65  C   UNL A   1      46.625  28.551  35.961  1.00  0.00     0.020 A 
ATOM     66  C   UNL A   1      46.412  27.444  36.784  1.00  0.00     0.054 A 
BRANCH  66  67
ATOM     67  S   UNL A   1      47.817  26.531  37.475  1.00  0.00     0.124 S 
ATOM     68  O   UNL A   1      48.680  26.369  36.308  1.00  0.00    -0.237 OA
ATOM     69  O   UNL A   1      48.315  27.442  38.504  1.00  0.00    -0.237 OA
ATOM     70  O   UNL A   1      47.216  25.299  37.981  1.00  0.00    -0.744 OA
ENDBRANCH  66  67
ENDBRANCH  40  61
ENDBRANCH  14  15
ENDBRANCH   7   9
ENDBRANCH   4   5
ENDBRANCH   3   4
ENDBRANCH   2   3
ENDBRANCH   1   2
BRANCH   1  71
ATOM     71  C   UNL A   1      34.072  28.484  25.944  1.00  0.00     0.021 C 
BRANCH  71  72
ATOM     72  C   UNL A   1      32.710  28.001  26.452  1.00  0.00     0.116 C 
BRANCH  72  73
ATOM     73  N   UNL A   1      31.630  28.636  25.739  1.00  0.00    -0.356 N 
ATOM     74  C   UNL A   1      30.985  28.340  24.591  1.00  0.00     0.224 C 
ATOM     75  H   UNL A   1      31.295  29.451  26.178  1.00  0.00     0.163 HD
ATOM     76  O   UNL A   1      30.108  29.148  24.253  1.00  0.00    -0.275 OA
BRANCH  74  77
ATOM     77  C   UNL A   1      31.269  27.153  23.672  1.00  0.00     0.094 C 
ATOM     78  C   UNL A   1      31.900  27.449  22.279  1.00  0.00     0.002 C 
ATOM     79  C   UNL A   1      32.035  25.910  24.179  1.00  0.00     0.094 C 
ATOM     80  C   UNL A   1      33.406  27.696  22.174  1.00  0.00     0.005 C 
ATOM     81  C   UNL A   1      31.950  26.022  21.768  1.00  0.00     0.009 C 
ATOM     82  C   UNL A   1      32.833  25.512  22.925  1.00  0.00     0.002 C 
ATOM     83  C   UNL A   1      34.047  26.438  22.761  1.00  0.00     0.005 C 
BRANCH  79  84
ATOM     84  C   UNL A   1      31.149  24.811  24.831  1.00  0.00     0.229 C 
ATOM     85  O   UNL A   1      29.927  25.041  24.869  1.00  0.00    -0.274 OA
ATOM     86  N   UNL A   1      31.516  23.565  25.258  1.00  0.00    -0.317 N 
ATOM     87  H   UNL A   1      30.763  23.000  25.546  1.00  0.00     0.170 HD
BRANCH  86  88
ATOM     88  C   UNL A   1      32.748  22.958  25.360  1.00  0.00     0.108 A 
ATOM     89  S   UNL A   1      33.594  23.102  26.836  1.00  0.00    -0.122 S 
ATOM     90  C   UNL A   1      33.318  21.960  24.550  1.00  0.00     0.078 A 
ATOM     91  C   UNL A   1      35.021  22.650  26.040  1.00  0.00     0.011 A 
ATOM     92  C   UNL A   1      34.744  21.857  24.932  1.00  0.00    -0.019 A 
ATOM     93  C   UNL A   1      36.382  23.090  26.500  1.00  0.00     0.047 C 
ATOM     94  C   UNL A   1      35.908  21.172  24.267  1.00  0.00     0.037 C 
ATOM     95  C   UNL A   1      37.391  22.874  25.363  1.00  0.00     0.006 C 
ATOM     96  C   UNL A   1      37.282  21.423  24.900  1.00  0.00     0.005 C 
BRANCH  90  97
ATOM     97  C   UNL A   1      32.437  21.353  23.516  1.00  0.00     0.254 C 
ATOM     98  O   UNL A   1      31.785  22.089  22.765  1.00  0.00    -0.269 OA
ATOM     99  N   UNL A   1      32.284  20.011  23.257  1.00  0.00    -0.349 N 
ATOM    100  H   UNL A   1      31.641  19.807  22.541  1.00  0.00     0.164 HD
BRANCH  99 101
ATOM    101  C   UNL A   1      32.899  18.857  23.850  1.00  0.00     0.082 C 
ATOM    102  C   UNL A   1      32.153  18.271  25.047  1.00  0.00     0.025 C 
ATOM    103  C   UNL A   1      33.217  17.763  22.829  1.00  0.00     0.025 C 
ATOM    104  C   UNL A   1      33.089  17.272  25.737  1.00  0.00     0.002 C 
ATOM    105  C   UNL A   1      34.037  16.627  23.445  1.00  0.00     0.002 C 
ATOM    106  C   UNL A   1      33.502  16.142  24.793  1.00  0.00     0.000 C 
ENDBRANCH  99 101
ENDBRANCH  90  97
ENDBRANCH  86  88
ENDBRANCH  79  84
ENDBRANCH  74  77
ENDBRANCH  72  73
ENDBRANCH  71  72
ENDBRANCH   1  71
TORSDOF 20
ENDMDL
MODEL 2
REMARK VINA RESULT:     -11.5      5.582      9.952
REMARK SMILES O=C(NCCCCCCNC(=O)[C@H]1[C@H]2CC[C@H](C2)[C@@H]1C(=O)Nc1sc2c(c1C(=O)NC1CCCCC1)CCCC2)c1ccc(-c2c3nc(c(-c4ccc(S(=O)(=O)[O-])cc4)c4ccc([nH]4)c(-c4ccc(S(=O)(=O)[O-])cc4)c4nc(c(-c5ccc(S(=O)(=O)[O-])cc5)c5ccc2[nH]5)C=C4)C=C3)cc1
REMARK SMILES IDX 7 1 6 2 5 3 4 4 3 5 1 6 2 7 41 9 42 10 100 11 43 12 99 13
REMARK SMILES IDX 44 14 45 15 46 16 93 17 47 18 98 19 92 20 94 21 48 22 97 23
REMARK SMILES IDX 91 24 90 25 49 27 79 28 60 29 78 30 61 31 64 32 77 33 95 34
REMARK SMILES IDX 62 35 63 36 76 38 96 39 65 40 50 41 51 42 59 43 52 44 58 45
REMARK SMILES IDX 53 46 54 47 55 48 56 49 57 50 80 51 81 52 89 53 82 54 88 55
REMARK SMILES IDX 83 56 84 57 85 58 86 59 87 60 66 61 67 62 75 63 68 64 74 65
REMARK SMILES IDX 69 66 70 67 71 68 72 69 73 70 8 71 9 72 10 73 11 74 12 76
REMARK SMILES IDX 13 77 14 78 19 79 15 80 18 81 17 82 16 83 20 84 21 85 22 86
REMARK SMILES IDX 23 88 24 89 27 90 25 91 26 92 40 93 37 94 39 95 38 96 28 97
REMARK SMILES IDX 29 98 30 99 31 101 32 102 36 103 33 104 35 105 34 106
REMARK H PARENT 3 8 94 26 64 37 10 75 22 87 30 100
REMARK Flexibility Score: inf
ROOT
ATOM      1  C   UNL A   1      32.751  29.482  25.933  1.00  0.00     0.002 C 
ENDROOT
BRANCH   1   2
ATOM      2  C   UNL A   1      33.531  30.365  26.909  1.00  0.00     0.002 C 
BRANCH   2   3
ATOM      3  C   UNL A   1      34.745  29.700  27.568  1.00  0.00     0.021 C 
BRANCH   3   4
ATOM      4  C   UNL A   1      35.723  30.672  28.222  1.00  0.00     0.116 C 
BRANCH   4   5
ATOM      5  N   UNL A   1      35.713  30.543  29.670  1.00  0.00    -0.352 N 
ATOM      6  O   UNL A   1      36.313  29.637  31.646  1.00  0.00    -0.269 OA
ATOM      7  C   UNL A   1      36.616  29.912  30.481  1.00  0.00     0.251 C 
ATOM      8  H   UNL A   1      34.953  30.966  30.129  1.00  0.00     0.163 HD
BRANCH   7   9
ATOM      9  C   UNL A   1      37.950  29.567  29.958  1.00  0.00     0.039 A 
ATOM     10  C   UNL A   1      38.230  29.727  28.597  1.00  0.00     0.014 A 
ATOM     11  C   UNL A   1      38.938  29.116  30.835  1.00  0.00     0.014 A 
ATOM     12  C   UNL A   1      39.464  29.332  28.094  1.00  0.00     0.010 A 
ATOM     13  C   UNL A   1      40.202  28.797  30.341  1.00  0.00     0.010 A 
ATOM     14  C   UNL A   1      40.470  28.890  28.965  1.00  0.00    -0.014 A 
BRANCH  14  15
ATOM     15  C   UNL A   1      41.829  28.616  28.437  1.00  0.00     0.031 A 
ATOM     16  C   UNL A   1      42.220  27.242  27.981  1.00  0.00     0.074 A 
ATOM     17  C   UNL A   1      42.720  29.626  28.405  1.00  0.00     0.049 A 
ATOM     18  N   UNL A   1      43.380  26.822  27.545  1.00  0.00    -0.248 NA
ATOM     19  C   UNL A   1      41.180  26.203  28.027  1.00  0.00     0.031 C 
ATOM     20  C   UNL A   1      42.450  31.002  28.835  1.00  0.00     0.029 A 
ATOM     21  N   UNL A   1      44.031  29.655  28.005  1.00  0.00    -0.354 N 
ATOM     22  C   UNL A   1      43.220  25.464  27.292  1.00  0.00     0.074 A 
ATOM     23  C   UNL A   1      41.857  25.130  27.643  1.00  0.00     0.031 C 
ATOM     24  C   UNL A   1      43.553  31.741  28.662  1.00  0.00     0.029 A 
ATOM     25  C   UNL A   1      44.627  30.880  28.179  1.00  0.00     0.049 A 
ATOM     26  H   UNL A   1      44.499  28.875  27.629  1.00  0.00     0.167 HD
ATOM     27  C   UNL A   1      44.132  24.583  26.812  1.00  0.00     0.031 A 
ATOM     28  C   UNL A   1      45.906  31.269  28.011  1.00  0.00     0.031 A 
ATOM     29  C   UNL A   1      45.492  24.931  26.490  1.00  0.00     0.049 A 
ATOM     30  C   UNL A   1      46.908  30.267  27.520  1.00  0.00     0.074 A 
ATOM     31  C   UNL A   1      46.484  24.123  25.960  1.00  0.00     0.029 A 
ATOM     32  N   UNL A   1      46.061  26.182  26.685  1.00  0.00    -0.354 N 
ATOM     33  N   UNL A   1      46.727  29.001  27.229  1.00  0.00    -0.248 NA
ATOM     34  C   UNL A   1      48.283  30.743  27.326  1.00  0.00     0.031 C 
ATOM     35  C   UNL A   1      47.667  24.866  25.901  1.00  0.00     0.029 A 
ATOM     36  C   UNL A   1      47.397  26.160  26.321  1.00  0.00     0.049 A 
ATOM     37  H   UNL A   1      45.583  26.971  27.032  1.00  0.00     0.167 HD
ATOM     38  C   UNL A   1      47.960  28.531  26.798  1.00  0.00     0.074 A 
ATOM     39  C   UNL A   1      48.877  29.654  26.855  1.00  0.00     0.031 C 
ATOM     40  C   UNL A   1      48.299  27.285  26.388  1.00  0.00     0.031 A 
BRANCH  27  41
ATOM     41  C   UNL A   1      43.698  23.146  26.663  1.00  0.00    -0.014 A 
ATOM     42  C   UNL A   1      43.752  22.485  25.422  1.00  0.00     0.010 A 
ATOM     43  C   UNL A   1      43.239  22.440  27.791  1.00  0.00     0.010 A 
ATOM     44  C   UNL A   1      43.294  21.170  25.300  1.00  0.00     0.020 A 
ATOM     45  C   UNL A   1      42.810  21.114  27.679  1.00  0.00     0.020 A 
ATOM     46  C   UNL A   1      42.815  20.496  26.428  1.00  0.00     0.054 A 
BRANCH  46  47
ATOM     47  S   UNL A   1      42.203  18.800  26.235  1.00  0.00     0.124 S 
ATOM     48  O   UNL A   1      42.276  18.297  27.605  1.00  0.00    -0.237 OA
ATOM     49  O   UNL A   1      40.854  19.004  25.713  1.00  0.00    -0.237 OA
ATOM     50  O   UNL A   1      43.146  18.194  25.298  1.00  0.00    -0.744 OA
ENDBRANCH  46  47
ENDBRANCH  27  41
BRANCH  28  51
ATOM     51  C   UNL A   1      46.285  32.667  28.348  1.00  0.00    -0.014 A 
ATOM     52  C   UNL A   1      46.723  33.003  29.639  1.00  0.00     0.010 A 
ATOM     53  C   UNL A   1      46.290  33.654  27.344  1.00  0.00     0.010 A 
ATOM     54  C   UNL A   1      47.165  34.300  29.917  1.00  0.00     0.020 A 
ATOM     55  C   UNL A   1      46.758  34.941  27.610  1.00  0.00     0.020 A 
ATOM     56  C   UNL A   1      47.190  35.257  28.899  1.00  0.00     0.054 A 
BRANCH  56  57
ATOM     57  S   UNL A   1      47.858  36.905  29.264  1.00  0.00     0.124 S 
ATOM     58  O   UNL A   1      48.934  37.019  28.286  1.00  0.00    -0.237 OA
ATOM     59  O   UNL A   1      46.701  37.769  29.036  1.00  0.00    -0.237 OA
ATOM     60  O   UNL A   1      48.284  36.801  30.657  1.00  0.00    -0.744 OA
ENDBRANCH  56  57
ENDBRANCH  28  51
BRANCH  40  61
ATOM     61  C   UNL A   1      49.716  27.063  25.930  1.00  0.00    -0.014 A 
ATOM     62  C   UNL A   1      50.667  26.446  26.762  1.00  0.00     0.010 A 
ATOM     63  C   UNL A   1      50.074  27.400  24.612  1.00  0.00     0.010 A 
ATOM     64  C   UNL A   1      51.953  26.177  26.285  1.00  0.00     0.020 A 
ATOM     65  C   UNL A   1      51.349  27.107  24.122  1.00  0.00     0.020 A 
ATOM     66  C   UNL A   1      52.282  26.502  24.964  1.00  0.00     0.054 A 
BRANCH  66  67
ATOM     67  S   UNL A   1      53.930  26.068  24.345  1.00  0.00     0.124 S 
ATOM     68  O   UNL A   1      53.742  26.138  22.898  1.00  0.00    -0.237 OA
ATOM     69  O   UNL A   1      54.774  27.114  24.921  1.00  0.00    -0.237 OA
ATOM     70  O   UNL A   1      54.160  24.727  24.878  1.00  0.00    -0.744 OA
ENDBRANCH  66  67
ENDBRANCH  40  61
ENDBRANCH  14  15
ENDBRANCH   7   9
ENDBRANCH   4   5
ENDBRANCH   3   4
ENDBRANCH   2   3
ENDBRANCH   1   2
BRANCH   1  71
ATOM     71  C   UNL A   1      32.781  27.997  26.273  1.00  0.00     0.021 C 
BRANCH  71  72
ATOM     72  C   UNL A   1      31.445  27.259  26.140  1.00  0.00     0.116 C 
BRANCH  72  73
ATOM     73  N   UNL A   1      30.562  27.936  25.222  1.00  0.00    -0.356 N 
ATOM     74  C   UNL A   1      30.342  27.812  23.897  1.00  0.00     0.224 C 
ATOM     75  H   UNL A   1      30.009  28.630  25.649  1.00  0.00     0.163 HD
ATOM     76  O   UNL A   1      29.515  28.603  23.421  1.00  0.00    -0.275 OA
BRANCH  74  77
ATOM     77  C   UNL A   1      31.042  26.839  22.949  1.00  0.00     0.094 C 
ATOM     78  C   UNL A   1      32.065  27.427  21.933  1.00  0.00     0.002 C 
ATOM     79  C   UNL A   1      31.722  25.555  23.475  1.00  0.00     0.094 C 
ATOM     80  C   UNL A   1      33.484  27.753  22.401  1.00  0.00     0.005 C 
ATOM     81  C   UNL A   1      32.435  26.129  21.239  1.00  0.00     0.009 C 
ATOM     82  C   UNL A   1      32.931  25.442  22.528  1.00  0.00     0.002 C 
ATOM     83  C   UNL A   1      34.024  26.433  22.955  1.00  0.00     0.005 C 
BRANCH  79  84
ATOM     84  C   UNL A   1      30.792  24.314  23.584  1.00  0.00     0.229 C 
ATOM     85  O   UNL A   1      29.639  24.449  23.136  1.00  0.00    -0.274 OA
ATOM     86  N   UNL A   1      31.107  23.048  23.994  1.00  0.00    -0.317 N 
ATOM     87  H   UNL A   1      30.378  22.396  23.884  1.00  0.00     0.170 HD
BRANCH  86  88
ATOM     88  C   UNL A   1      32.260  22.520  24.533  1.00  0.00     0.108 A 
ATOM     89  S   UNL A   1      32.696  22.995  26.113  1.00  0.00    -0.122 S 
ATOM     90  C   UNL A   1      33.002  21.399  24.123  1.00  0.00     0.078 A 
ATOM     91  C   UNL A   1      34.272  22.442  25.824  1.00  0.00     0.011 A 
ATOM     92  C   UNL A   1      34.278  21.429  24.872  1.00  0.00    -0.019 A 
ATOM     93  C   UNL A   1      35.474  23.018  26.517  1.00  0.00     0.047 C 
ATOM     94  C   UNL A   1      35.562  20.665  24.687  1.00  0.00     0.037 C 
ATOM     95  C   UNL A   1      36.740  22.609  25.749  1.00  0.00     0.006 C 
ATOM     96  C   UNL A   1      36.728  21.091  25.586  1.00  0.00     0.005 C 
BRANCH  90  97
ATOM     97  C   UNL A   1      32.408  20.560  23.047  1.00  0.00     0.254 C 
ATOM     98  O   UNL A   1      31.840  21.108  22.094  1.00  0.00    -0.269 OA
ATOM     99  N   UNL A   1      32.452  19.189  22.960  1.00  0.00    -0.349 N 
ATOM    100  H   UNL A   1      31.986  18.816  22.178  1.00  0.00     0.164 HD
BRANCH  99 101
ATOM    101  C   UNL A   1      33.061  18.205  23.813  1.00  0.00     0.082 C 
ATOM    102  C   UNL A   1      32.153  17.653  24.910  1.00  0.00     0.025 C 
ATOM    103  C   UNL A   1      33.713  17.064  23.032  1.00  0.00     0.025 C 
ATOM    104  C   UNL A   1      33.033  16.879  25.898  1.00  0.00     0.002 C 
ATOM    105  C   UNL A   1      34.513  16.131  23.945  1.00  0.00     0.002 C 
ATOM    106  C   UNL A   1      33.767  15.725  25.215  1.00  0.00     0.000 C 
ENDBRANCH  99 101
ENDBRANCH  90  97
ENDBRANCH  86  88
ENDBRANCH  79  84
ENDBRANCH  74  77
ENDBRANCH  72  73
ENDBRANCH  71  72
ENDBRANCH   1  71
TORSDOF 20
ENDMDL
MODEL 3
REMARK VINA RESULT:     -11.5      1.605      7.719
REMARK SMILES O=C(NCCCCCCNC(=O)[C@H]1[C@H]2CC[C@H](C2)[C@@H]1C(=O)Nc1sc2c(c1C(=O)NC1CCCCC1)CCCC2)c1ccc(-c2c3nc(c(-c4ccc(S(=O)(=O)[O-])cc4)c4ccc([nH]4)c(-c4ccc(S(=O)(=O)[O-])cc4)c4nc(c(-c5ccc(S(=O)(=O)[O-])cc5)c5ccc2[nH]5)C=C4)C=C3)cc1
REMARK SMILES IDX 7 1 6 2 5 3 4 4 3 5 1 6 2 7 41 9 42 10 100 11 43 12 99 13
REMARK SMILES IDX 44 14 45 15 46 16 93 17 47 18 98 19 92 20 94 21 48 22 97 23
REMARK SMILES IDX 91 24 90 25 49 27 79 28 60 29 78 30 61 31 64 32 77 33 95 34
REMARK SMILES IDX 62 35 63 36 76 38 96 39 65 40 50 41 51 42 59 43 52 44 58 45
REMARK SMILES IDX 53 46 54 47 55 48 56 49 57 50 80 51 81 52 89 53 82 54 88 55
REMARK SMILES IDX 83 56 84 57 85 58 86 59 87 60 66 61 67 62 75 63 68 64 74 65
REMARK SMILES IDX 69 66 70 67 71 68 72 69 73 70 8 71 9 72 10 73 11 74 12 76
REMARK SMILES IDX 13 77 14 78 19 79 15 80 18 81 17 82 16 83 20 84 21 85 22 86
REMARK SMILES IDX 23 88 24 89 27 90 25 91 26 92 40 93 37 94 39 95 38 96 28 97
REMARK SMILES IDX 29 98 30 99 31 101 32 102 36 103 33 104 35 105 34 106
REMARK H PARENT 3 8 94 26 64 37 10 75 22 87 30 100
REMARK Flexibility Score: inf
ROOT
ATOM      1  C   UNL A   1      33.756  31.170  27.278  1.00  0.00     0.002 C 
ENDROOT
BRANCH   1   2
ATOM      2  C   UNL A   1      34.117  32.309  28.233  1.00  0.00     0.002 C 
BRANCH   2   3
ATOM      3  C   UNL A   1      33.188  33.528  28.180  1.00  0.00     0.021 C 
BRANCH   3   4
ATOM      4  C   UNL A   1      33.750  34.782  28.845  1.00  0.00     0.116 C 
BRANCH   4   5
ATOM      5  N   UNL A   1      32.970  35.158  30.013  1.00  0.00    -0.352 N 
ATOM      6  O   UNL A   1      32.270  34.976  32.149  1.00  0.00    -0.269 OA
ATOM      7  C   UNL A   1      33.177  34.829  31.325  1.00  0.00     0.251 C 
ATOM      8  H   UNL A   1      32.187  35.726  29.836  1.00  0.00     0.163 HD
BRANCH   7   9
ATOM      9  C   UNL A   1      34.487  34.303  31.747  1.00  0.00     0.039 A 
ATOM     10  C   UNL A   1      35.585  35.164  31.853  1.00  0.00     0.014 A 
ATOM     11  C   UNL A   1      34.614  32.951  32.072  1.00  0.00     0.014 A 
ATOM     12  C   UNL A   1      36.835  34.652  32.179  1.00  0.00     0.010 A 
ATOM     13  C   UNL A   1      35.853  32.456  32.478  1.00  0.00     0.010 A 
ATOM     14  C   UNL A   1      36.975  33.300  32.522  1.00  0.00    -0.014 A 
BRANCH  14  15
ATOM     15  C   UNL A   1      38.281  32.799  33.015  1.00  0.00     0.031 A 
ATOM     16  C   UNL A   1      39.166  31.958  32.145  1.00  0.00     0.074 A 
ATOM     17  C   UNL A   1      38.645  33.091  34.279  1.00  0.00     0.049 A 
ATOM     18  N   UNL A   1      40.310  31.395  32.438  1.00  0.00    -0.248 NA
ATOM     19  C   UNL A   1      38.705  31.705  30.771  1.00  0.00     0.031 C 
ATOM     20  C   UNL A   1      37.855  33.893  35.219  1.00  0.00     0.029 A 
ATOM     21  N   UNL A   1      39.760  32.742  34.996  1.00  0.00    -0.354 N 
ATOM     22  C   UNL A   1      40.695  30.699  31.298  1.00  0.00     0.074 A 
ATOM     23  C   UNL A   1      39.649  30.894  30.316  1.00  0.00     0.031 C 
ATOM     24  C   UNL A   1      38.516  33.987  36.380  1.00  0.00     0.029 A 
ATOM     25  C   UNL A   1      39.737  33.195  36.293  1.00  0.00     0.049 A 
ATOM     26  H   UNL A   1      40.504  32.220  34.620  1.00  0.00     0.167 HD
ATOM     27  C   UNL A   1      41.816  29.965  31.095  1.00  0.00     0.031 A 
ATOM     28  C   UNL A   1      40.581  32.970  37.319  1.00  0.00     0.031 A 
ATOM     29  C   UNL A   1      42.835  29.764  32.094  1.00  0.00     0.049 A 
ATOM     30  C   UNL A   1      41.794  32.119  37.085  1.00  0.00     0.074 A 
ATOM     31  C   UNL A   1      44.029  29.073  31.978  1.00  0.00     0.029 A 
ATOM     32  N   UNL A   1      42.774  30.236  33.398  1.00  0.00    -0.354 N 
ATOM     33  N   UNL A   1      42.173  31.517  35.983  1.00  0.00    -0.248 NA
ATOM     34  C   UNL A   1      42.697  31.924  38.225  1.00  0.00     0.031 C 
ATOM     35  C   UNL A   1      44.653  29.066  33.229  1.00  0.00     0.029 A 
ATOM     36  C   UNL A   1      43.889  29.820  34.108  1.00  0.00     0.049 A 
ATOM     37  H   UNL A   1      42.043  30.785  33.766  1.00  0.00     0.167 HD
ATOM     38  C   UNL A   1      43.370  30.885  36.290  1.00  0.00     0.074 A 
ATOM     39  C   UNL A   1      43.658  31.189  37.679  1.00  0.00     0.031 C 
ATOM     40  C   UNL A   1      44.160  30.126  35.492  1.00  0.00     0.031 A 
BRANCH  27  41
ATOM     41  C   UNL A   1      41.968  29.281  29.760  1.00  0.00    -0.014 A 
ATOM     42  C   UNL A   1      42.663  29.885  28.696  1.00  0.00     0.010 A 
ATOM     43  C   UNL A   1      41.413  28.001  29.570  1.00  0.00     0.010 A 
ATOM     44  C   UNL A   1      42.743  29.254  27.452  1.00  0.00     0.020 A 
ATOM     45  C   UNL A   1      41.519  27.351  28.336  1.00  0.00     0.020 A 
ATOM     46  C   UNL A   1      42.161  27.994  27.277  1.00  0.00     0.054 A 
BRANCH  46  47
ATOM     47  S   UNL A   1      42.257  27.209  25.645  1.00  0.00     0.124 S 
ATOM     48  O   UNL A   1      41.049  26.388  25.635  1.00  0.00    -0.237 OA
ATOM     49  O   UNL A   1      42.244  28.354  24.738  1.00  0.00    -0.237 OA
ATOM     50  O   UNL A   1      43.514  26.466  25.690  1.00  0.00    -0.744 OA
ENDBRANCH  46  47
ENDBRANCH  27  41
BRANCH  28  51
ATOM     51  C   UNL A   1      40.263  33.544  38.653  1.00  0.00    -0.014 A 
ATOM     52  C   UNL A   1      39.502  32.820  39.587  1.00  0.00     0.010 A 
ATOM     53  C   UNL A   1      40.799  34.791  39.026  1.00  0.00     0.010 A 
ATOM     54  C   UNL A   1      39.290  33.332  40.870  1.00  0.00     0.020 A 
ATOM     55  C   UNL A   1      40.614  35.292  40.316  1.00  0.00     0.020 A 
ATOM     56  C   UNL A   1      39.856  34.559  41.230  1.00  0.00     0.054 A 
BRANCH  56  57
ATOM     57  S   UNL A   1      39.645  35.155  42.931  1.00  0.00     0.124 S 
ATOM     58  O   UNL A   1      40.958  34.892  43.510  1.00  0.00    -0.237 OA
ATOM     59  O   UNL A   1      39.311  36.563  42.731  1.00  0.00    -0.237 OA
ATOM     60  O   UNL A   1      38.554  34.332  43.449  1.00  0.00    -0.744 OA
ENDBRANCH  56  57
ENDBRANCH  28  51
BRANCH  40  61
ATOM     61  C   UNL A   1      45.439  29.594  36.080  1.00  0.00    -0.014 A 
ATOM     62  C   UNL A   1      46.679  30.199  35.809  1.00  0.00     0.010 A 
ATOM     63  C   UNL A   1      45.383  28.523  36.992  1.00  0.00     0.010 A 
ATOM     64  C   UNL A   1      47.841  29.737  36.432  1.00  0.00     0.020 A 
ATOM     65  C   UNL A   1      46.538  28.076  37.639  1.00  0.00     0.020 A 
ATOM     66  C   UNL A   1      47.761  28.683  37.350  1.00  0.00     0.054 A 
BRANCH  66  67
ATOM     67  S   UNL A   1      49.270  28.157  38.207  1.00  0.00     0.124 S 
ATOM     68  O   UNL A   1      50.300  28.926  37.512  1.00  0.00    -0.237 OA
ATOM     69  O   UNL A   1      49.010  28.558  39.588  1.00  0.00    -0.237 OA
ATOM     70  O   UNL A   1      49.313  26.714  37.981  1.00  0.00    -0.744 OA
ENDBRANCH  66  67
ENDBRANCH  40  61
ENDBRANCH  14  15
ENDBRANCH   7   9
ENDBRANCH   4   5
ENDBRANCH   3   4
ENDBRANCH   2   3
ENDBRANCH   1   2
BRANCH   1  71
ATOM     71  C   UNL A   1      34.802  30.066  27.198  1.00  0.00     0.021 C 
BRANCH  71  72
ATOM     72  C   UNL A   1      34.255  28.644  27.030  1.00  0.00     0.116 C 
BRANCH  72  73
ATOM     73  N   UNL A   1      32.986  28.490  27.697  1.00  0.00    -0.356 N 
ATOM     74  C   UNL A   1      31.770  28.080  27.280  1.00  0.00     0.224 C 
ATOM     75  H   UNL A   1      33.012  28.735  28.651  1.00  0.00     0.163 HD
ATOM     76  O   UNL A   1      30.878  28.107  28.140  1.00  0.00    -0.275 OA
BRANCH  74  77
ATOM     77  C   UNL A   1      31.398  27.642  25.864  1.00  0.00     0.094 C 
ATOM     78  C   UNL A   1      31.538  28.690  24.721  1.00  0.00     0.002 C 
ATOM     79  C   UNL A   1      31.958  26.337  25.254  1.00  0.00     0.094 C 
ATOM     80  C   UNL A   1      32.916  28.958  24.113  1.00  0.00     0.005 C 
ATOM     81  C   UNL A   1      31.043  27.820  23.582  1.00  0.00     0.009 C 
ATOM     82  C   UNL A   1      32.125  26.739  23.778  1.00  0.00     0.002 C 
ATOM     83  C   UNL A   1      33.389  27.594  23.608  1.00  0.00     0.005 C 
BRANCH  79  84
ATOM     84  C   UNL A   1      31.122  25.060  25.548  1.00  0.00     0.229 C 
ATOM     85  O   UNL A   1      29.891  25.219  25.644  1.00  0.00    -0.274 OA
ATOM     86  N   UNL A   1      31.541  23.759  25.593  1.00  0.00    -0.317 N 
ATOM     87  H   UNL A   1      30.814  23.105  25.697  1.00  0.00     0.170 HD
BRANCH  86  88
ATOM     88  C   UNL A   1      32.798  23.199  25.520  1.00  0.00     0.108 A 
ATOM     89  S   UNL A   1      33.773  23.232  26.921  1.00  0.00    -0.122 S 
ATOM     90  C   UNL A   1      33.323  22.314  24.563  1.00  0.00     0.078 A 
ATOM     91  C   UNL A   1      35.133  22.925  25.958  1.00  0.00     0.011 A 
ATOM     92  C   UNL A   1      34.781  22.235  24.802  1.00  0.00    -0.019 A 
ATOM     93  C   UNL A   1      36.515  23.377  26.336  1.00  0.00     0.047 C 
ATOM     94  C   UNL A   1      35.901  21.672  23.968  1.00  0.00     0.037 C 
ATOM     95  C   UNL A   1      37.420  23.319  25.097  1.00  0.00     0.006 C 
ATOM     96  C   UNL A   1      37.318  21.918  24.498  1.00  0.00     0.005 C 
BRANCH  90  97
ATOM     97  C   UNL A   1      32.370  21.774  23.555  1.00  0.00     0.254 C 
ATOM     98  O   UNL A   1      31.676  22.558  22.896  1.00  0.00    -0.269 OA
ATOM     99  N   UNL A   1      32.188  20.452  23.227  1.00  0.00    -0.349 N 
ATOM    100  H   UNL A   1      31.497  20.295  22.544  1.00  0.00     0.164 HD
BRANCH  99 101
ATOM    101  C   UNL A   1      32.831  19.260  23.707  1.00  0.00     0.082 C 
ATOM    102  C   UNL A   1      32.353  18.775  25.073  1.00  0.00     0.025 C 
ATOM    103  C   UNL A   1      32.799  18.118  22.691  1.00  0.00     0.025 C 
ATOM    104  C   UNL A   1      33.343  17.711  25.563  1.00  0.00     0.002 C 
ATOM    105  C   UNL A   1      33.648  16.927  23.143  1.00  0.00     0.002 C 
ATOM    106  C   UNL A   1      33.419  16.526  24.600  1.00  0.00     0.000 C 
ENDBRANCH  99 101
ENDBRANCH  90  97
ENDBRANCH  86  88
ENDBRANCH  79  84
ENDBRANCH  74  77
ENDBRANCH  72  73
ENDBRANCH  71  72
ENDBRANCH   1  71
TORSDOF 20
ENDMDL
