MODEL 1
REMARK VINA RESULT:      -9.6      0.000      0.000
REMARK SMILES O=C(Cc1ccc(Cl)nc1)NCCCCCCNC(=O)c1ccc(-c2c3nc(c(-c4ccc(S(=O)(=O)[O-])cc4)c4ccc([nH]4)c(-c4ccc(S(=O)(=O)[O-])cc4)c4nc(c(-c5ccc(S(=O)(=O)[O-])cc5)c5ccc2[nH]5)C=C4)C=C3)cc1
REMARK SMILES IDX 15 1 14 2 13 3 12 4 11 5 1 6 2 7 3 9 4 10 5 11 10 12 6 13
REMARK SMILES IDX 9 14 7 15 8 16 16 17 17 18 18 19 19 20 20 22 21 23 22 24
REMARK SMILES IDX 80 25 23 26 79 27 24 28 25 29 26 30 73 31 27 32 78 33 72 34
REMARK SMILES IDX 74 35 28 36 77 37 71 38 70 39 29 41 59 42 40 43 58 44 41 45
REMARK SMILES IDX 44 46 57 47 75 48 42 49 43 50 56 52 76 53 45 54 30 55 31 56
REMARK SMILES IDX 39 57 32 58 38 59 33 60 34 61 35 62 36 63 37 64 60 65 61 66
REMARK SMILES IDX 69 67 62 68 68 69 63 70 64 71 65 72 66 73 67 74 46 75 47 76
REMARK SMILES IDX 55 77 48 78 54 79 49 80 50 81 51 82 52 83 53 84
REMARK H PARENT 11 8 18 21 74 40 44 51
REMARK Flexibility Score: inf
ROOT
ATOM      1  C   UNL A   1      31.815  28.097  25.219  1.00  0.00     0.002 C 
ENDROOT
BRANCH   1   2
ATOM      2  C   UNL A   1      31.156  27.685  23.900  1.00  0.00     0.002 C 
BRANCH   2   3
ATOM      3  C   UNL A   1      29.943  26.754  24.026  1.00  0.00     0.021 C 
BRANCH   3   4
ATOM      4  C   UNL A   1      30.225  25.287  23.707  1.00  0.00     0.116 C 
BRANCH   4   5
ATOM      5  N   UNL A   1      31.560  25.103  23.172  1.00  0.00    -0.356 N 
ATOM      6  O   UNL A   1      31.873  22.968  23.964  1.00  0.00    -0.275 OA
ATOM      7  C   UNL A   1      32.278  23.939  23.332  1.00  0.00     0.224 C 
ATOM      8  H   UNL A   1      31.971  25.844  22.672  1.00  0.00     0.163 HD
BRANCH   7   9
ATOM      9  C   UNL A   1      33.661  23.962  22.704  1.00  0.00     0.137 C 
BRANCH   9  10
ATOM     10  C   UNL A   1      34.815  23.742  23.651  1.00  0.00    -0.020 A 
ATOM     11  C   UNL A   1      34.903  24.341  24.911  1.00  0.00     0.009 A 
ATOM     12  C   UNL A   1      35.892  22.953  23.245  1.00  0.00     0.117 A 
ATOM     13  C   UNL A   1      36.013  24.098  25.717  1.00  0.00     0.041 A 
ATOM     14  N   UNL A   1      36.983  22.704  24.001  1.00  0.00    -0.244 NA
ATOM     15  C   UNL A   1      37.011  23.282  25.219  1.00  0.00     0.129 A 
ATOM     16  Cl  UNL A   1      38.413  22.937  26.143  1.00  0.00    -0.062 Cl
ENDBRANCH   9  10
ENDBRANCH   7   9
ENDBRANCH   4   5
ENDBRANCH   3   4
ENDBRANCH   2   3
ENDBRANCH   1   2
BRANCH   1  17
ATOM     17  C   UNL A   1      33.039  27.274  25.626  1.00  0.00     0.021 C 
BRANCH  17  18
ATOM     18  C   UNL A   1      33.985  27.960  26.607  1.00  0.00     0.116 C 
BRANCH  18  19
ATOM     19  N   UNL A   1      33.606  29.338  26.882  1.00  0.00    -0.352 N 
ATOM     20  C   UNL A   1      34.290  30.301  27.585  1.00  0.00     0.251 C 
ATOM     21  H   UNL A   1      32.738  29.620  26.512  1.00  0.00     0.163 HD
ATOM     22  O   UNL A   1      33.747  31.371  27.848  1.00  0.00    -0.269 OA
BRANCH  20  23
ATOM     23  C   UNL A   1      35.669  30.034  28.049  1.00  0.00     0.039 A 
ATOM     24  C   UNL A   1      35.876  29.648  29.376  1.00  0.00     0.014 A 
ATOM     25  C   UNL A   1      36.754  30.155  27.176  1.00  0.00     0.014 A 
ATOM     26  C   UNL A   1      37.163  29.311  29.807  1.00  0.00     0.010 A 
ATOM     27  C   UNL A   1      38.023  29.757  27.590  1.00  0.00     0.010 A 
ATOM     28  C   UNL A   1      38.241  29.327  28.909  1.00  0.00    -0.014 A 
BRANCH  28  29
ATOM     29  C   UNL A   1      39.603  28.890  29.317  1.00  0.00     0.031 A 
ATOM     30  C   UNL A   1      40.520  29.847  30.033  1.00  0.00     0.074 A 
ATOM     31  C   UNL A   1      40.045  27.664  28.969  1.00  0.00     0.049 A 
ATOM     32  N   UNL A   1      41.771  29.686  30.378  1.00  0.00    -0.248 NA
ATOM     33  C   UNL A   1      39.966  31.165  30.387  1.00  0.00     0.031 C 
ATOM     34  C   UNL A   1      39.269  26.655  28.244  1.00  0.00     0.029 A 
ATOM     35  N   UNL A   1      41.264  27.062  29.165  1.00  0.00    -0.354 N 
ATOM     36  C   UNL A   1      42.164  30.887  30.956  1.00  0.00     0.074 A 
ATOM     37  C   UNL A   1      41.027  31.779  30.892  1.00  0.00     0.031 C 
ATOM     38  C   UNL A   1      40.024  25.557  28.072  1.00  0.00     0.029 A 
ATOM     39  C   UNL A   1      41.349  25.796  28.632  1.00  0.00     0.049 A 
ATOM     40  H   UNL A   1      42.007  27.496  29.643  1.00  0.00     0.167 HD
ATOM     41  C   UNL A   1      43.360  31.215  31.501  1.00  0.00     0.031 A 
ATOM     42  C   UNL A   1      42.383  24.931  28.584  1.00  0.00     0.031 A 
ATOM     43  C   UNL A   1      44.477  30.314  31.596  1.00  0.00     0.049 A 
ATOM     44  C   UNL A   1      43.701  25.325  29.197  1.00  0.00     0.074 A 
ATOM     45  C   UNL A   1      45.699  30.529  32.210  1.00  0.00     0.029 A 
ATOM     46  N   UNL A   1      44.514  29.035  31.066  1.00  0.00    -0.354 N 
ATOM     47  N   UNL A   1      44.023  26.437  29.813  1.00  0.00    -0.248 NA
ATOM     48  C   UNL A   1      44.793  24.344  29.114  1.00  0.00     0.031 C 
ATOM     49  C   UNL A   1      46.496  29.399  32.001  1.00  0.00     0.029 A 
ATOM     50  C   UNL A   1      45.748  28.459  31.312  1.00  0.00     0.049 A 
ATOM     51  H   UNL A   1      43.772  28.599  30.586  1.00  0.00     0.167 HD
ATOM     52  C   UNL A   1      45.342  26.272  30.224  1.00  0.00     0.074 A 
ATOM     53  C   UNL A   1      45.754  24.952  29.795  1.00  0.00     0.031 C 
ATOM     54  C   UNL A   1      46.139  27.136  30.897  1.00  0.00     0.031 A 
BRANCH  41  55
ATOM     55  C   UNL A   1      43.536  32.610  32.038  1.00  0.00    -0.014 A 
ATOM     56  C   UNL A   1      44.056  33.640  31.235  1.00  0.00     0.010 A 
ATOM     57  C   UNL A   1      43.087  32.914  33.336  1.00  0.00     0.010 A 
ATOM     58  C   UNL A   1      44.143  34.945  31.728  1.00  0.00     0.020 A 
ATOM     59  C   UNL A   1      43.148  34.222  33.824  1.00  0.00     0.020 A 
ATOM     60  C   UNL A   1      43.686  35.228  33.020  1.00  0.00     0.054 A 
BRANCH  60  61
ATOM     61  S   UNL A   1      43.755  36.941  33.610  1.00  0.00     0.124 S 
ATOM     62  O   UNL A   1      42.539  37.031  34.417  1.00  0.00    -0.237 OA
ATOM     63  O   UNL A   1      45.008  36.972  34.361  1.00  0.00    -0.237 OA
ATOM     64  O   UNL A   1      43.747  37.733  32.383  1.00  0.00    -0.744 OA
ENDBRANCH  60  61
ENDBRANCH  41  55
BRANCH  42  65
ATOM     65  C   UNL A   1      42.227  23.603  27.929  1.00  0.00    -0.014 A 
ATOM     66  C   UNL A   1      41.640  22.529  28.624  1.00  0.00     0.010 A 
ATOM     67  C   UNL A   1      42.697  23.393  26.620  1.00  0.00     0.010 A 
ATOM     68  C   UNL A   1      41.565  21.261  28.039  1.00  0.00     0.020 A 
ATOM     69  C   UNL A   1      42.595  22.133  26.020  1.00  0.00     0.020 A 
ATOM     70  C   UNL A   1      42.049  21.070  26.742  1.00  0.00     0.054 A 
BRANCH  70  71
ATOM     71  S   UNL A   1      41.937  19.420  25.998  1.00  0.00     0.124 S 
ATOM     72  O   UNL A   1      42.466  18.573  27.061  1.00  0.00    -0.237 OA
ATOM     73  O   UNL A   1      40.506  19.288  25.734  1.00  0.00    -0.237 OA
ATOM     74  O   UNL A   1      42.774  19.527  24.804  1.00  0.00    -0.744 OA
ENDBRANCH  70  71
ENDBRANCH  42  65
BRANCH  54  75
ATOM     75  C   UNL A   1      47.522  26.671  31.266  1.00  0.00    -0.014 A 
ATOM     76  C   UNL A   1      47.769  25.999  32.475  1.00  0.00     0.010 A 
ATOM     77  C   UNL A   1      48.576  26.848  30.351  1.00  0.00     0.010 A 
ATOM     78  C   UNL A   1      49.052  25.533  32.773  1.00  0.00     0.020 A 
ATOM     79  C   UNL A   1      49.854  26.359  30.632  1.00  0.00     0.020 A 
ATOM     80  C   UNL A   1      50.087  25.714  31.848  1.00  0.00     0.054 A 
BRANCH  80  81
ATOM     81  S   UNL A   1      51.729  25.047  32.232  1.00  0.00     0.124 S 
ATOM     82  O   UNL A   1      51.513  23.609  32.093  1.00  0.00    -0.237 OA
ATOM     83  O   UNL A   1      52.571  25.658  31.206  1.00  0.00    -0.237 OA
ATOM     84  O   UNL A   1      51.981  25.510  33.595  1.00  0.00    -0.744 OA
ENDBRANCH  80  81
ENDBRANCH  54  75
ENDBRANCH  28  29
ENDBRANCH  20  23
ENDBRANCH  18  19
ENDBRANCH  17  18
ENDBRANCH   1  17
TORSDOF 17
ENDMDL
MODEL 2
REMARK VINA RESULT:      -9.3      3.264      5.908
REMARK SMILES O=C(Cc1ccc(Cl)nc1)NCCCCCCNC(=O)c1ccc(-c2c3nc(c(-c4ccc(S(=O)(=O)[O-])cc4)c4ccc([nH]4)c(-c4ccc(S(=O)(=O)[O-])cc4)c4nc(c(-c5ccc(S(=O)(=O)[O-])cc5)c5ccc2[nH]5)C=C4)C=C3)cc1
REMARK SMILES IDX 15 1 14 2 13 3 12 4 11 5 1 6 2 7 3 9 4 10 5 11 10 12 6 13
REMARK SMILES IDX 9 14 7 15 8 16 16 17 17 18 18 19 19 20 20 22 21 23 22 24
REMARK SMILES IDX 80 25 23 26 79 27 24 28 25 29 26 30 73 31 27 32 78 33 72 34
REMARK SMILES IDX 74 35 28 36 77 37 71 38 70 39 29 41 59 42 40 43 58 44 41 45
REMARK SMILES IDX 44 46 57 47 75 48 42 49 43 50 56 52 76 53 45 54 30 55 31 56
REMARK SMILES IDX 39 57 32 58 38 59 33 60 34 61 35 62 36 63 37 64 60 65 61 66
REMARK SMILES IDX 69 67 62 68 68 69 63 70 64 71 65 72 66 73 67 74 46 75 47 76
REMARK SMILES IDX 55 77 48 78 54 79 49 80 50 81 51 82 52 83 53 84
REMARK H PARENT 11 8 18 21 74 40 44 51
REMARK Flexibility Score: inf
ROOT
ATOM      1  C   UNL A   1      37.127  33.727  29.625  1.00  0.00     0.002 C 
ENDROOT
BRANCH   1   2
ATOM      2  C   UNL A   1      37.286  32.939  30.929  1.00  0.00     0.002 C 
BRANCH   2   3
ATOM      3  C   UNL A   1      36.620  33.559  32.164  1.00  0.00     0.021 C 
BRANCH   3   4
ATOM      4  C   UNL A   1      37.588  34.014  33.254  1.00  0.00     0.116 C 
BRANCH   4   5
ATOM      5  N   UNL A   1      38.068  32.896  34.043  1.00  0.00    -0.356 N 
ATOM      6  O   UNL A   1      40.311  33.308  33.753  1.00  0.00    -0.275 OA
ATOM      7  C   UNL A   1      39.406  32.640  34.245  1.00  0.00     0.224 C 
ATOM      8  H   UNL A   1      37.407  32.294  34.454  1.00  0.00     0.163 HD
BRANCH   7   9
ATOM      9  C   UNL A   1      39.690  31.412  35.092  1.00  0.00     0.137 C 
BRANCH   9  10
ATOM     10  C   UNL A   1      40.643  30.407  34.491  1.00  0.00    -0.020 A 
ATOM     11  C   UNL A   1      42.033  30.497  34.609  1.00  0.00     0.009 A 
ATOM     12  C   UNL A   1      40.137  29.359  33.722  1.00  0.00     0.117 A 
ATOM     13  C   UNL A   1      42.843  29.536  34.009  1.00  0.00     0.041 A 
ATOM     14  N   UNL A   1      40.896  28.416  33.123  1.00  0.00    -0.244 NA
ATOM     15  C   UNL A   1      42.229  28.530  33.287  1.00  0.00     0.129 A 
ATOM     16  Cl  UNL A   1      43.152  27.310  32.511  1.00  0.00    -0.062 Cl
ENDBRANCH   9  10
ENDBRANCH   7   9
ENDBRANCH   4   5
ENDBRANCH   3   4
ENDBRANCH   2   3
ENDBRANCH   1   2
BRANCH   1  17
ATOM     17  C   UNL A   1      35.874  33.400  28.810  1.00  0.00     0.021 C 
BRANCH  17  18
ATOM     18  C   UNL A   1      34.806  32.605  29.553  1.00  0.00     0.116 C 
BRANCH  18  19
ATOM     19  N   UNL A   1      34.054  31.719  28.675  1.00  0.00    -0.352 N 
ATOM     20  C   UNL A   1      34.479  30.591  28.014  1.00  0.00     0.251 C 
ATOM     21  H   UNL A   1      33.111  31.962  28.536  1.00  0.00     0.163 HD
ATOM     22  O   UNL A   1      33.745  30.049  27.191  1.00  0.00    -0.269 OA
BRANCH  20  23
ATOM     23  C   UNL A   1      35.829  30.048  28.275  1.00  0.00     0.039 A 
ATOM     24  C   UNL A   1      36.787  30.093  27.258  1.00  0.00     0.014 A 
ATOM     25  C   UNL A   1      36.155  29.505  29.521  1.00  0.00     0.014 A 
ATOM     26  C   UNL A   1      38.092  29.661  27.514  1.00  0.00     0.010 A 
ATOM     27  C   UNL A   1      37.470  29.137  29.793  1.00  0.00     0.010 A 
ATOM     28  C   UNL A   1      38.455  29.214  28.795  1.00  0.00    -0.014 A 
BRANCH  28  29
ATOM     29  C   UNL A   1      39.854  28.833  29.119  1.00  0.00     0.031 A 
ATOM     30  C   UNL A   1      40.790  29.842  29.732  1.00  0.00     0.074 A 
ATOM     31  C   UNL A   1      40.310  27.608  28.783  1.00  0.00     0.049 A 
ATOM     32  N   UNL A   1      42.067  29.729  29.992  1.00  0.00    -0.248 NA
ATOM     33  C   UNL A   1      40.221  31.155  30.079  1.00  0.00     0.031 C 
ATOM     34  C   UNL A   1      39.516  26.550  28.152  1.00  0.00     0.029 A 
ATOM     35  N   UNL A   1      41.557  27.049  28.912  1.00  0.00    -0.354 N 
ATOM     36  C   UNL A   1      42.462  30.963  30.497  1.00  0.00     0.074 A 
ATOM     37  C   UNL A   1      41.296  31.819  30.484  1.00  0.00     0.031 C 
ATOM     38  C   UNL A   1      40.291  25.469  27.965  1.00  0.00     0.029 A 
ATOM     39  C   UNL A   1      41.645  25.766  28.420  1.00  0.00     0.049 A 
ATOM     40  H   UNL A   1      42.319  27.521  29.319  1.00  0.00     0.167 HD
ATOM     41  C   UNL A   1      43.682  31.344  30.943  1.00  0.00     0.031 A 
ATOM     42  C   UNL A   1      42.698  24.930  28.328  1.00  0.00     0.031 A 
ATOM     43  C   UNL A   1      44.832  30.481  30.989  1.00  0.00     0.049 A 
ATOM     44  C   UNL A   1      44.044  25.385  28.830  1.00  0.00     0.074 A 
ATOM     45  C   UNL A   1      46.087  30.754  31.504  1.00  0.00     0.029 A 
ATOM     46  N   UNL A   1      44.871  29.184  30.503  1.00  0.00    -0.354 N 
ATOM     47  N   UNL A   1      44.374  26.528  29.381  1.00  0.00    -0.248 NA
ATOM     48  C   UNL A   1      45.158  24.434  28.703  1.00  0.00     0.031 C 
ATOM     49  C   UNL A   1      46.902  29.640  31.279  1.00  0.00     0.029 A 
ATOM     50  C   UNL A   1      46.137  28.654  30.679  1.00  0.00     0.049 A 
ATOM     51  H   UNL A   1      44.110  28.710  30.094  1.00  0.00     0.167 HD
ATOM     52  C   UNL A   1      45.723  26.416  29.701  1.00  0.00     0.074 A 
ATOM     53  C   UNL A   1      46.145  25.094  29.291  1.00  0.00     0.031 C 
ATOM     54  C   UNL A   1      46.538  27.328  30.284  1.00  0.00     0.031 A 
BRANCH  41  55
ATOM     55  C   UNL A   1      43.852  32.764  31.416  1.00  0.00    -0.014 A 
ATOM     56  C   UNL A   1      44.242  33.785  30.532  1.00  0.00     0.010 A 
ATOM     57  C   UNL A   1      43.526  33.094  32.744  1.00  0.00     0.010 A 
ATOM     58  C   UNL A   1      44.324  35.109  30.974  1.00  0.00     0.020 A 
ATOM     59  C   UNL A   1      43.580  34.419  33.183  1.00  0.00     0.020 A 
ATOM     60  C   UNL A   1      43.989  35.417  32.297  1.00  0.00     0.054 A 
BRANCH  60  61
ATOM     61  S   UNL A   1      44.044  37.152  32.825  1.00  0.00     0.124 S 
ATOM     62  O   UNL A   1      43.800  37.857  31.569  1.00  0.00    -0.237 OA
ATOM     63  O   UNL A   1      42.963  37.223  33.805  1.00  0.00    -0.237 OA
ATOM     64  O   UNL A   1      45.390  37.306  33.373  1.00  0.00    -0.744 OA
ENDBRANCH  60  61
ENDBRANCH  41  55
BRANCH  42  65
ATOM     65  C   UNL A   1      42.538  23.574  27.733  1.00  0.00    -0.014 A 
ATOM     66  C   UNL A   1      42.093  22.497  28.522  1.00  0.00     0.010 A 
ATOM     67  C   UNL A   1      42.864  23.344  26.384  1.00  0.00     0.010 A 
ATOM     68  C   UNL A   1      42.018  21.208  27.985  1.00  0.00     0.020 A 
ATOM     69  C   UNL A   1      42.760  22.061  25.835  1.00  0.00     0.020 A 
ATOM     70  C   UNL A   1      42.358  20.998  26.646  1.00  0.00     0.054 A 
BRANCH  70  71
ATOM     71  S   UNL A   1      42.248  19.319  25.967  1.00  0.00     0.124 S 
ATOM     72  O   UNL A   1      43.117  19.409  24.799  1.00  0.00    -0.237 OA
ATOM     73  O   UNL A   1      42.746  18.498  27.067  1.00  0.00    -0.237 OA
ATOM     74  O   UNL A   1      40.823  19.162  25.678  1.00  0.00    -0.744 OA
ENDBRANCH  70  71
ENDBRANCH  42  65
BRANCH  54  75
ATOM     75  C   UNL A   1      47.958  26.917  30.568  1.00  0.00    -0.014 A 
ATOM     76  C   UNL A   1      48.976  27.097  29.616  1.00  0.00     0.010 A 
ATOM     77  C   UNL A   1      48.287  26.407  31.838  1.00  0.00     0.010 A 
ATOM     78  C   UNL A   1      50.296  26.753  29.922  1.00  0.00     0.020 A 
ATOM     79  C   UNL A   1      49.608  26.087  32.157  1.00  0.00     0.020 A 
ATOM     80  C   UNL A   1      50.604  26.252  31.192  1.00  0.00     0.054 A 
BRANCH  80  81
ATOM     81  S   UNL A   1      52.333  25.869  31.584  1.00  0.00     0.124 S 
ATOM     82  O   UNL A   1      52.234  24.501  32.086  1.00  0.00    -0.237 OA
ATOM     83  O   UNL A   1      52.996  26.018  30.291  1.00  0.00    -0.237 OA
ATOM     84  O   UNL A   1      52.693  26.874  32.583  1.00  0.00    -0.744 OA
ENDBRANCH  80  81
ENDBRANCH  54  75
ENDBRANCH  28  29
ENDBRANCH  20  23
ENDBRANCH  18  19
ENDBRANCH  17  18
ENDBRANCH   1  17
TORSDOF 17
ENDMDL
MODEL 3
REMARK VINA RESULT:      -9.3      3.836      5.089
REMARK SMILES O=C(Cc1ccc(Cl)nc1)NCCCCCCNC(=O)c1ccc(-c2c3nc(c(-c4ccc(S(=O)(=O)[O-])cc4)c4ccc([nH]4)c(-c4ccc(S(=O)(=O)[O-])cc4)c4nc(c(-c5ccc(S(=O)(=O)[O-])cc5)c5ccc2[nH]5)C=C4)C=C3)cc1
REMARK SMILES IDX 15 1 14 2 13 3 12 4 11 5 1 6 2 7 3 9 4 10 5 11 10 12 6 13
REMARK SMILES IDX 9 14 7 15 8 16 16 17 17 18 18 19 19 20 20 22 21 23 22 24
REMARK SMILES IDX 80 25 23 26 79 27 24 28 25 29 26 30 73 31 27 32 78 33 72 34
REMARK SMILES IDX 74 35 28 36 77 37 71 38 70 39 29 41 59 42 40 43 58 44 41 45
REMARK SMILES IDX 44 46 57 47 75 48 42 49 43 50 56 52 76 53 45 54 30 55 31 56
REMARK SMILES IDX 39 57 32 58 38 59 33 60 34 61 35 62 36 63 37 64 60 65 61 66
REMARK SMILES IDX 69 67 62 68 68 69 63 70 64 71 65 72 66 73 67 74 46 75 47 76
REMARK SMILES IDX 55 77 48 78 54 79 49 80 50 81 51 82 52 83 53 84
REMARK H PARENT 11 8 18 21 74 40 44 51
REMARK Flexibility Score: inf
ROOT
ATOM      1  C   UNL A   1      33.101  29.295  27.068  1.00  0.00     0.002 C 
ENDROOT
BRANCH   1   2
ATOM      2  C   UNL A   1      32.468  28.144  26.279  1.00  0.00     0.002 C 
BRANCH   2   3
ATOM      3  C   UNL A   1      33.285  26.847  26.228  1.00  0.00     0.021 C 
BRANCH   3   4
ATOM      4  C   UNL A   1      32.487  25.602  25.842  1.00  0.00     0.116 C 
BRANCH   4   5
ATOM      5  N   UNL A   1      31.545  25.881  24.775  1.00  0.00    -0.356 N 
ATOM      6  O   UNL A   1      29.640  25.690  26.047  1.00  0.00    -0.275 OA
ATOM      7  C   UNL A   1      30.183  25.919  24.970  1.00  0.00     0.224 C 
ATOM      8  H   UNL A   1      31.896  26.051  23.872  1.00  0.00     0.163 HD
BRANCH   7   9
ATOM      9  C   UNL A   1      29.377  26.215  23.717  1.00  0.00     0.137 C 
BRANCH   9  10
ATOM     10  C   UNL A   1      29.033  27.667  23.486  1.00  0.00    -0.020 A 
ATOM     11  C   UNL A   1      29.993  28.674  23.350  1.00  0.00     0.009 A 
ATOM     12  C   UNL A   1      27.694  28.058  23.466  1.00  0.00     0.117 A 
ATOM     13  C   UNL A   1      29.590  29.993  23.156  1.00  0.00     0.041 A 
ATOM     14  N   UNL A   1      27.273  29.329  23.287  1.00  0.00    -0.244 NA
ATOM     15  C   UNL A   1      28.235  30.261  23.133  1.00  0.00     0.129 A 
ATOM     16  Cl  UNL A   1      27.653  31.858  22.907  1.00  0.00    -0.062 Cl
ENDBRANCH   9  10
ENDBRANCH   7   9
ENDBRANCH   4   5
ENDBRANCH   3   4
ENDBRANCH   2   3
ENDBRANCH   1   2
BRANCH   1  17
ATOM     17  C   UNL A   1      34.579  29.113  27.421  1.00  0.00     0.021 C 
BRANCH  17  18
ATOM     18  C   UNL A   1      35.351  30.405  27.667  1.00  0.00     0.116 C 
BRANCH  18  19
ATOM     19  N   UNL A   1      35.339  30.807  29.066  1.00  0.00    -0.352 N 
ATOM     20  C   UNL A   1      36.295  30.606  30.033  1.00  0.00     0.251 C 
ATOM     21  H   UNL A   1      34.534  31.291  29.361  1.00  0.00     0.163 HD
ATOM     22  O   UNL A   1      36.050  30.882  31.205  1.00  0.00    -0.269 OA
BRANCH  20  23
ATOM     23  C   UNL A   1      37.607  30.031  29.665  1.00  0.00     0.039 A 
ATOM     24  C   UNL A   1      37.994  30.027  28.322  1.00  0.00     0.014 A 
ATOM     25  C   UNL A   1      38.459  29.505  30.641  1.00  0.00     0.014 A 
ATOM     26  C   UNL A   1      39.264  29.563  27.967  1.00  0.00     0.010 A 
ATOM     27  C   UNL A   1      39.746  29.105  30.294  1.00  0.00     0.010 A 
ATOM     28  C   UNL A   1      40.165  29.133  28.954  1.00  0.00    -0.014 A 
BRANCH  28  29
ATOM     29  C   UNL A   1      41.552  28.718  28.614  1.00  0.00     0.031 A 
ATOM     30  C   UNL A   1      42.653  29.744  28.552  1.00  0.00     0.074 A 
ATOM     31  C   UNL A   1      41.804  27.437  28.278  1.00  0.00     0.049 A 
ATOM     32  N   UNL A   1      43.898  29.595  28.177  1.00  0.00    -0.248 NA
ATOM     33  C   UNL A   1      42.306  31.122  28.940  1.00  0.00     0.031 C 
ATOM     34  C   UNL A   1      40.819  26.352  28.263  1.00  0.00     0.029 A 
ATOM     35  N   UNL A   1      42.966  26.829  27.868  1.00  0.00    -0.354 N 
ATOM     36  C   UNL A   1      44.471  30.859  28.250  1.00  0.00     0.074 A 
ATOM     37  C   UNL A   1      43.433  31.770  28.679  1.00  0.00     0.031 C 
ATOM     38  C   UNL A   1      41.421  25.214  27.881  1.00  0.00     0.029 A 
ATOM     39  C   UNL A   1      42.821  25.491  27.581  1.00  0.00     0.049 A 
ATOM     40  H   UNL A   1      43.822  27.307  27.786  1.00  0.00     0.167 HD
ATOM     41  C   UNL A   1      45.749  31.226  27.994  1.00  0.00     0.031 A 
ATOM     42  C   UNL A   1      43.710  24.592  27.112  1.00  0.00     0.031 A 
ATOM     43  C   UNL A   1      46.789  30.312  27.603  1.00  0.00     0.049 A 
ATOM     44  C   UNL A   1      45.124  25.031  26.834  1.00  0.00     0.074 A 
ATOM     45  C   UNL A   1      48.133  30.578  27.406  1.00  0.00     0.029 A 
ATOM     46  N   UNL A   1      46.605  28.963  27.347  1.00  0.00    -0.354 N 
ATOM     47  N   UNL A   1      45.664  26.216  26.990  1.00  0.00    -0.248 NA
ATOM     48  C   UNL A   1      46.050  24.010  26.323  1.00  0.00     0.031 C 
ATOM     49  C   UNL A   1      48.752  29.400  26.976  1.00  0.00     0.029 A 
ATOM     50  C   UNL A   1      47.805  28.390  26.964  1.00  0.00     0.049 A 
ATOM     51  H   UNL A   1      45.748  28.483  27.426  1.00  0.00     0.167 HD
ATOM     52  C   UNL A   1      47.001  26.071  26.634  1.00  0.00     0.074 A 
ATOM     53  C   UNL A   1      47.189  24.685  26.262  1.00  0.00     0.031 C 
ATOM     54  C   UNL A   1      47.984  27.003  26.617  1.00  0.00     0.031 A 
BRANCH  41  55
ATOM     55  C   UNL A   1      46.108  32.683  28.121  1.00  0.00    -0.014 A 
ATOM     56  C   UNL A   1      46.596  33.212  29.328  1.00  0.00     0.010 A 
ATOM     57  C   UNL A   1      46.041  33.513  26.986  1.00  0.00     0.010 A 
ATOM     58  C   UNL A   1      46.991  34.550  29.404  1.00  0.00     0.020 A 
ATOM     59  C   UNL A   1      46.461  34.844  27.051  1.00  0.00     0.020 A 
ATOM     60  C   UNL A   1      46.923  35.357  28.263  1.00  0.00     0.054 A 
BRANCH  60  61
ATOM     61  S   UNL A   1      47.502  37.072  28.377  1.00  0.00     0.124 S 
ATOM     62  O   UNL A   1      46.720  37.724  27.328  1.00  0.00    -0.237 OA
ATOM     63  O   UNL A   1      47.145  37.442  29.745  1.00  0.00    -0.237 OA
ATOM     64  O   UNL A   1      48.935  36.974  28.114  1.00  0.00    -0.744 OA
ENDBRANCH  60  61
ENDBRANCH  41  55
BRANCH  42  65
ATOM     65  C   UNL A   1      43.300  23.181  26.866  1.00  0.00    -0.014 A 
ATOM     66  C   UNL A   1      42.969  22.337  27.942  1.00  0.00     0.010 A 
ATOM     67  C   UNL A   1      43.274  22.663  25.559  1.00  0.00     0.010 A 
ATOM     68  C   UNL A   1      42.661  20.992  27.719  1.00  0.00     0.020 A 
ATOM     69  C   UNL A   1      42.936  21.325  25.329  1.00  0.00     0.020 A 
ATOM     70  C   UNL A   1      42.653  20.493  26.414  1.00  0.00     0.054 A 
BRANCH  70  71
ATOM     71  S   UNL A   1      42.244  18.746  26.145  1.00  0.00     0.124 S 
ATOM     72  O   UNL A   1      42.510  18.168  27.458  1.00  0.00    -0.237 OA
ATOM     73  O   UNL A   1      40.839  18.806  25.751  1.00  0.00    -0.237 OA
ATOM     74  O   UNL A   1      43.164  18.341  25.083  1.00  0.00    -0.744 OA
ENDBRANCH  70  71
ENDBRANCH  42  65
BRANCH  54  75
ATOM     75  C   UNL A   1      49.369  26.553  26.237  1.00  0.00    -0.014 A 
ATOM     76  C   UNL A   1      49.875  26.756  24.942  1.00  0.00     0.010 A 
ATOM     77  C   UNL A   1      50.200  25.980  27.217  1.00  0.00     0.010 A 
ATOM     78  C   UNL A   1      51.181  26.374  24.628  1.00  0.00     0.020 A 
ATOM     79  C   UNL A   1      51.516  25.622  26.916  1.00  0.00     0.020 A 
ATOM     80  C   UNL A   1      51.995  25.811  25.618  1.00  0.00     0.054 A 
BRANCH  80  81
ATOM     81  S   UNL A   1      53.706  25.378  25.201  1.00  0.00     0.124 S 
ATOM     82  O   UNL A   1      53.673  23.919  25.257  1.00  0.00    -0.237 OA
ATOM     83  O   UNL A   1      53.867  25.953  23.868  1.00  0.00    -0.237 OA
ATOM     84  O   UNL A   1      54.493  26.023  26.251  1.00  0.00    -0.744 OA
ENDBRANCH  80  81
ENDBRANCH  54  75
ENDBRANCH  28  29
ENDBRANCH  20  23
ENDBRANCH  18  19
ENDBRANCH  17  18
ENDBRANCH   1  17
TORSDOF 17
ENDMDL
