MODEL 1
REMARK VINA RESULT:     -11.4      0.000      0.000
REMARK SMILES CS(=O)(=O)c1ccc(/C=C(/C(=O)NCCCCCCNC(=O)c2ccc(-c3c4nc(c(-c5ccc(S(=O)(=O)[O-])cc5)c5ccc([nH]5)c(-c5ccc(S(=O)(=O)[O-])cc5)c5nc(c(-c6ccc(S(=O)(=O)[O-])cc6)c6ccc3[nH]6)C=C5)C=C4)cc2)c2ccccc2)cc1
REMARK SMILES IDX 17 1 16 2 15 3 14 4 13 5 11 6 12 7 10 9 9 10 8 11 5 12 6 13
REMARK SMILES IDX 90 14 7 15 89 16 2 17 1 18 3 19 4 20 83 21 84 22 88 23 85 24
REMARK SMILES IDX 87 25 86 26 18 27 19 28 20 29 21 30 22 32 23 33 24 34 82 35
REMARK SMILES IDX 25 36 81 37 26 38 27 39 28 40 75 41 29 42 80 43 74 44 76 45
REMARK SMILES IDX 30 46 79 47 73 48 72 49 31 51 61 52 42 53 60 54 43 55 46 56
REMARK SMILES IDX 59 57 77 58 44 59 45 60 58 62 78 63 47 64 32 65 33 66 41 67
REMARK SMILES IDX 34 68 40 69 35 70 36 71 37 72 38 73 39 74 62 75 63 76 71 77
REMARK SMILES IDX 64 78 70 79 65 80 66 81 67 82 68 83 69 84 48 85 49 86 57 87
REMARK SMILES IDX 50 88 56 89 51 90 52 91 53 92 54 93 55 94
REMARK H PARENT 13 8 20 31 76 50 46 61
REMARK Flexibility Score: inf
ROOT
ATOM      1  C   UNL A   1      34.799  24.226  23.794  1.00  0.00     0.002 C 
ENDROOT
BRANCH   1   2
ATOM      2  C   UNL A   1      33.735  23.628  22.866  1.00  0.00     0.002 C 
BRANCH   2   3
ATOM      3  C   UNL A   1      32.900  22.495  23.485  1.00  0.00     0.021 C 
BRANCH   3   4
ATOM      4  C   UNL A   1      31.471  22.920  23.840  1.00  0.00     0.116 C 
BRANCH   4   5
ATOM      5  N   UNL A   1      31.393  23.192  25.261  1.00  0.00    -0.352 N 
ATOM      6  C   UNL A   1      31.311  24.319  26.012  1.00  0.00     0.251 C 
ATOM      7  O   UNL A   1      31.385  24.150  27.233  1.00  0.00    -0.269 OA
ATOM      8  H   UNL A   1      31.399  22.372  25.805  1.00  0.00     0.163 HD
BRANCH   6   9
ATOM      9  C   UNL A   1      31.039  25.697  25.446  1.00  0.00     0.047 C 
ATOM     10  C   UNL A   1      30.179  25.923  24.426  1.00  0.00     0.022 C 
BRANCH  10  11
ATOM     11  C   UNL A   1      29.690  27.213  23.878  1.00  0.00    -0.025 A 
ATOM     12  C   UNL A   1      28.550  29.653  23.057  1.00  0.00     0.067 A 
ATOM     13  C   UNL A   1      29.911  29.578  23.363  1.00  0.00     0.021 A 
ATOM     14  C   UNL A   1      27.763  28.505  23.091  1.00  0.00     0.021 A 
ATOM     15  C   UNL A   1      30.480  28.358  23.740  1.00  0.00     0.009 A 
ATOM     16  C   UNL A   1      28.336  27.293  23.505  1.00  0.00     0.009 A 
BRANCH  12  17
ATOM     17  S   UNL A   1      27.897  31.256  22.658  1.00  0.00     0.175 S 
ATOM     18  C   UNL A   1      29.218  32.425  22.772  1.00  0.00     0.163 C 
ATOM     19  O   UNL A   1      26.939  31.579  23.698  1.00  0.00    -0.224 OA
ATOM     20  O   UNL A   1      27.490  31.192  21.264  1.00  0.00    -0.224 OA
ENDBRANCH  12  17
ENDBRANCH  10  11
BRANCH   9  21
ATOM     21  C   UNL A   1      31.906  26.790  25.958  1.00  0.00    -0.013 A 
ATOM     22  C   UNL A   1      31.396  27.622  26.972  1.00  0.00     0.009 A 
ATOM     23  C   UNL A   1      33.230  26.965  25.541  1.00  0.00     0.009 A 
ATOM     24  C   UNL A   1      32.200  28.580  27.583  1.00  0.00     0.001 A 
ATOM     25  C   UNL A   1      34.041  27.915  26.169  1.00  0.00     0.001 A 
ATOM     26  C   UNL A   1      33.529  28.715  27.193  1.00  0.00     0.000 A 
ENDBRANCH   9  21
ENDBRANCH   6   9
ENDBRANCH   4   5
ENDBRANCH   3   4
ENDBRANCH   2   3
ENDBRANCH   1   2
BRANCH   1  27
ATOM     27  C   UNL A   1      35.196  23.333  24.971  1.00  0.00     0.021 C 
BRANCH  27  28
ATOM     28  C   UNL A   1      36.434  23.807  25.724  1.00  0.00     0.116 C 
BRANCH  28  29
ATOM     29  N   UNL A   1      37.385  22.726  25.928  1.00  0.00    -0.352 N 
ATOM     30  C   UNL A   1      38.711  22.796  26.278  1.00  0.00     0.251 C 
ATOM     31  H   UNL A   1      37.029  21.818  25.794  1.00  0.00     0.163 HD
ATOM     32  O   UNL A   1      39.427  21.806  26.172  1.00  0.00    -0.269 OA
BRANCH  30  33
ATOM     33  C   UNL A   1      39.269  24.071  26.774  1.00  0.00     0.039 A 
ATOM     34  C   UNL A   1      39.156  24.380  28.131  1.00  0.00     0.014 A 
ATOM     35  C   UNL A   1      39.898  24.962  25.898  1.00  0.00     0.014 A 
ATOM     36  C   UNL A   1      39.719  25.562  28.619  1.00  0.00     0.010 A 
ATOM     37  C   UNL A   1      40.522  26.101  26.399  1.00  0.00     0.010 A 
ATOM     38  C   UNL A   1      40.432  26.416  27.762  1.00  0.00    -0.014 A 
BRANCH  38  39
ATOM     39  C   UNL A   1      41.086  27.647  28.273  1.00  0.00     0.031 A 
ATOM     40  C   UNL A   1      42.587  27.751  28.299  1.00  0.00     0.074 A 
ATOM     41  C   UNL A   1      40.330  28.648  28.768  1.00  0.00     0.049 A 
ATOM     42  N   UNL A   1      43.338  28.722  28.752  1.00  0.00    -0.248 NA
ATOM     43  C   UNL A   1      43.344  26.605  27.768  1.00  0.00     0.031 C 
ATOM     44  C   UNL A   1      38.866  28.652  28.831  1.00  0.00     0.029 A 
ATOM     45  N   UNL A   1      40.688  29.855  29.313  1.00  0.00    -0.354 N 
ATOM     46  C   UNL A   1      44.651  28.299  28.575  1.00  0.00     0.074 A 
ATOM     47  C   UNL A   1      44.594  26.963  28.024  1.00  0.00     0.031 C 
ATOM     48  C   UNL A   1      38.452  29.816  29.355  1.00  0.00     0.029 A 
ATOM     49  C   UNL A   1      39.617  30.623  29.705  1.00  0.00     0.049 A 
ATOM     50  H   UNL A   1      41.624  30.145  29.413  1.00  0.00     0.167 HD
ATOM     51  C   UNL A   1      45.801  28.969  28.827  1.00  0.00     0.031 A 
ATOM     52  C   UNL A   1      39.575  31.837  30.287  1.00  0.00     0.031 A 
ATOM     53  C   UNL A   1      45.853  30.301  29.370  1.00  0.00     0.049 A 
ATOM     54  C   UNL A   1      40.865  32.554  30.578  1.00  0.00     0.074 A 
ATOM     55  C   UNL A   1      46.965  31.088  29.615  1.00  0.00     0.029 A 
ATOM     56  N   UNL A   1      44.746  31.044  29.755  1.00  0.00    -0.354 N 
ATOM     57  N   UNL A   1      42.095  32.162  30.345  1.00  0.00    -0.248 NA
ATOM     58  C   UNL A   1      40.760  33.881  31.201  1.00  0.00     0.031 C 
ATOM     59  C   UNL A   1      46.535  32.281  30.203  1.00  0.00     0.029 A 
ATOM     60  C   UNL A   1      45.150  32.266  30.263  1.00  0.00     0.049 A 
ATOM     61  H   UNL A   1      43.811  30.745  29.679  1.00  0.00     0.167 HD
ATOM     62  C   UNL A   1      42.911  33.207  30.767  1.00  0.00     0.074 A 
ATOM     63  C   UNL A   1      42.033  34.251  31.255  1.00  0.00     0.031 C 
ATOM     64  C   UNL A   1      44.264  33.294  30.751  1.00  0.00     0.031 A 
BRANCH  51  65
ATOM     65  C   UNL A   1      47.098  28.264  28.526  1.00  0.00    -0.014 A 
ATOM     66  C   UNL A   1      47.678  28.320  27.245  1.00  0.00     0.010 A 
ATOM     67  C   UNL A   1      47.766  27.562  29.546  1.00  0.00     0.010 A 
ATOM     68  C   UNL A   1      48.873  27.648  26.977  1.00  0.00     0.020 A 
ATOM     69  C   UNL A   1      48.978  26.914  29.291  1.00  0.00     0.020 A 
ATOM     70  C   UNL A   1      49.514  26.946  28.002  1.00  0.00     0.054 A 
BRANCH  70  71
ATOM     71  S   UNL A   1      51.072  26.094  27.628  1.00  0.00     0.124 S 
ATOM     72  O   UNL A   1      50.608  24.744  27.320  1.00  0.00    -0.237 OA
ATOM     73  O   UNL A   1      51.588  26.854  26.494  1.00  0.00    -0.237 OA
ATOM     74  O   UNL A   1      51.841  26.221  28.864  1.00  0.00    -0.744 OA
ENDBRANCH  70  71
ENDBRANCH  51  65
BRANCH  52  75
ATOM     75  C   UNL A   1      38.262  32.456  30.620  1.00  0.00    -0.014 A 
ATOM     76  C   UNL A   1      37.727  32.343  31.916  1.00  0.00     0.010 A 
ATOM     77  C   UNL A   1      37.548  33.177  29.646  1.00  0.00     0.010 A 
ATOM     78  C   UNL A   1      36.495  32.926  32.227  1.00  0.00     0.020 A 
ATOM     79  C   UNL A   1      36.331  33.786  29.962  1.00  0.00     0.020 A 
ATOM     80  C   UNL A   1      35.806  33.647  31.248  1.00  0.00     0.054 A 
BRANCH  80  81
ATOM     81  S   UNL A   1      34.236  34.443  31.689  1.00  0.00     0.124 S 
ATOM     82  O   UNL A   1      34.690  35.684  32.310  1.00  0.00    -0.237 OA
ATOM     83  O   UNL A   1      33.581  34.584  30.392  1.00  0.00    -0.237 OA
ATOM     84  O   UNL A   1      33.610  33.482  32.593  1.00  0.00    -0.744 OA
ENDBRANCH  80  81
ENDBRANCH  52  75
BRANCH  64  85
ATOM     85  C   UNL A   1      44.882  34.575  31.248  1.00  0.00    -0.014 A 
ATOM     86  C   UNL A   1      45.167  35.637  30.372  1.00  0.00     0.010 A 
ATOM     87  C   UNL A   1      45.130  34.736  32.623  1.00  0.00     0.010 A 
ATOM     88  C   UNL A   1      45.719  36.824  30.859  1.00  0.00     0.020 A 
ATOM     89  C   UNL A   1      45.652  35.933  33.119  1.00  0.00     0.020 A 
ATOM     90  C   UNL A   1      45.958  36.965  32.229  1.00  0.00     0.054 A 
BRANCH  90  91
ATOM     91  S   UNL A   1      46.633  38.533  32.841  1.00  0.00     0.124 S 
ATOM     92  O   UNL A   1      45.830  38.763  34.038  1.00  0.00    -0.237 OA
ATOM     93  O   UNL A   1      48.037  38.205  33.080  1.00  0.00    -0.237 OA
ATOM     94  O   UNL A   1      46.397  39.466  31.743  1.00  0.00    -0.744 OA
ENDBRANCH  90  91
ENDBRANCH  64  85
ENDBRANCH  38  39
ENDBRANCH  30  33
ENDBRANCH  28  29
ENDBRANCH  27  28
ENDBRANCH   1  27
TORSDOF 19
ENDMDL
MODEL 2
REMARK VINA RESULT:     -10.8      0.898      8.055
REMARK SMILES CS(=O)(=O)c1ccc(/C=C(/C(=O)NCCCCCCNC(=O)c2ccc(-c3c4nc(c(-c5ccc(S(=O)(=O)[O-])cc5)c5ccc([nH]5)c(-c5ccc(S(=O)(=O)[O-])cc5)c5nc(c(-c6ccc(S(=O)(=O)[O-])cc6)c6ccc3[nH]6)C=C5)C=C4)cc2)c2ccccc2)cc1
REMARK SMILES IDX 17 1 16 2 15 3 14 4 13 5 11 6 12 7 10 9 9 10 8 11 5 12 6 13
REMARK SMILES IDX 90 14 7 15 89 16 2 17 1 18 3 19 4 20 83 21 84 22 88 23 85 24
REMARK SMILES IDX 87 25 86 26 18 27 19 28 20 29 21 30 22 32 23 33 24 34 82 35
REMARK SMILES IDX 25 36 81 37 26 38 27 39 28 40 75 41 29 42 80 43 74 44 76 45
REMARK SMILES IDX 30 46 79 47 73 48 72 49 31 51 61 52 42 53 60 54 43 55 46 56
REMARK SMILES IDX 59 57 77 58 44 59 45 60 58 62 78 63 47 64 32 65 33 66 41 67
REMARK SMILES IDX 34 68 40 69 35 70 36 71 37 72 38 73 39 74 62 75 63 76 71 77
REMARK SMILES IDX 64 78 70 79 65 80 66 81 67 82 68 83 69 84 48 85 49 86 57 87
REMARK SMILES IDX 50 88 56 89 51 90 52 91 53 92 54 93 55 94
REMARK H PARENT 13 8 20 31 76 50 46 61
REMARK Flexibility Score: inf
ROOT
ATOM      1  C   UNL A   1      35.136  23.992  23.947  1.00  0.00     0.002 C 
ENDROOT
BRANCH   1   2
ATOM      2  C   UNL A   1      34.000  23.545  23.019  1.00  0.00     0.002 C 
BRANCH   2   3
ATOM      3  C   UNL A   1      32.979  22.590  23.660  1.00  0.00     0.021 C 
BRANCH   3   4
ATOM      4  C   UNL A   1      31.596  23.221  23.851  1.00  0.00     0.116 C 
BRANCH   4   5
ATOM      5  N   UNL A   1      31.375  23.471  25.260  1.00  0.00    -0.352 N 
ATOM      6  C   UNL A   1      31.266  24.588  26.024  1.00  0.00     0.251 C 
ATOM      7  O   UNL A   1      31.197  24.393  27.241  1.00  0.00    -0.269 OA
ATOM      8  H   UNL A   1      31.281  22.642  25.783  1.00  0.00     0.163 HD
BRANCH   6   9
ATOM      9  C   UNL A   1      31.126  25.987  25.464  1.00  0.00     0.047 C 
ATOM     10  C   UNL A   1      30.246  26.310  24.487  1.00  0.00     0.022 C 
BRANCH  10  11
ATOM     11  C   UNL A   1      29.883  27.648  23.957  1.00  0.00    -0.025 A 
ATOM     12  C   UNL A   1      28.913  30.136  23.063  1.00  0.00     0.067 A 
ATOM     13  C   UNL A   1      30.051  30.071  23.870  1.00  0.00     0.021 A 
ATOM     14  C   UNL A   1      28.290  28.964  22.640  1.00  0.00     0.021 A 
ATOM     15  C   UNL A   1      30.548  28.832  24.286  1.00  0.00     0.009 A 
ATOM     16  C   UNL A   1      28.776  27.728  23.092  1.00  0.00     0.009 A 
BRANCH  12  17
ATOM     17  S   UNL A   1      28.310  31.753  22.642  1.00  0.00     0.175 S 
ATOM     18  C   UNL A   1      27.797  31.718  20.950  1.00  0.00     0.163 C 
ATOM     19  O   UNL A   1      29.445  32.651  22.735  1.00  0.00    -0.224 OA
ATOM     20  O   UNL A   1      27.123  31.966  23.454  1.00  0.00    -0.224 OA
ENDBRANCH  12  17
ENDBRANCH  10  11
BRANCH   9  21
ATOM     21  C   UNL A   1      32.138  26.973  25.925  1.00  0.00    -0.013 A 
ATOM     22  C   UNL A   1      31.837  27.753  27.056  1.00  0.00     0.009 A 
ATOM     23  C   UNL A   1      33.403  27.091  25.338  1.00  0.00     0.009 A 
ATOM     24  C   UNL A   1      32.790  28.601  27.614  1.00  0.00     0.001 A 
ATOM     25  C   UNL A   1      34.364  27.929  25.911  1.00  0.00     0.001 A 
ATOM     26  C   UNL A   1      34.060  28.677  27.051  1.00  0.00     0.000 A 
ENDBRANCH   9  21
ENDBRANCH   6   9
ENDBRANCH   4   5
ENDBRANCH   3   4
ENDBRANCH   2   3
ENDBRANCH   1   2
BRANCH   1  27
ATOM     27  C   UNL A   1      35.236  23.209  25.259  1.00  0.00     0.021 C 
BRANCH  27  28
ATOM     28  C   UNL A   1      36.481  23.526  26.080  1.00  0.00     0.116 C 
BRANCH  28  29
ATOM     29  N   UNL A   1      37.448  22.442  26.029  1.00  0.00    -0.352 N 
ATOM     30  C   UNL A   1      38.815  22.496  26.148  1.00  0.00     0.251 C 
ATOM     31  H   UNL A   1      37.071  21.543  25.888  1.00  0.00     0.163 HD
ATOM     32  O   UNL A   1      39.497  21.525  25.841  1.00  0.00    -0.269 OA
BRANCH  30  33
ATOM     33  C   UNL A   1      39.457  23.734  26.638  1.00  0.00     0.039 A 
ATOM     34  C   UNL A   1      39.744  23.858  27.999  1.00  0.00     0.014 A 
ATOM     35  C   UNL A   1      39.768  24.773  25.755  1.00  0.00     0.014 A 
ATOM     36  C   UNL A   1      40.390  25.004  28.467  1.00  0.00     0.010 A 
ATOM     37  C   UNL A   1      40.479  25.880  26.211  1.00  0.00     0.010 A 
ATOM     38  C   UNL A   1      40.789  26.010  27.572  1.00  0.00    -0.014 A 
BRANCH  38  39
ATOM     39  C   UNL A   1      41.528  27.209  28.043  1.00  0.00     0.031 A 
ATOM     40  C   UNL A   1      40.781  28.379  28.624  1.00  0.00     0.074 A 
ATOM     41  C   UNL A   1      42.867  27.267  27.894  1.00  0.00     0.049 A 
ATOM     42  N   UNL A   1      41.245  29.528  29.042  1.00  0.00    -0.248 NA
ATOM     43  C   UNL A   1      39.317  28.250  28.726  1.00  0.00     0.031 C 
ATOM     44  C   UNL A   1      43.702  26.213  27.313  1.00  0.00     0.029 A 
ATOM     45  N   UNL A   1      43.761  28.257  28.218  1.00  0.00    -0.354 N 
ATOM     46  C   UNL A   1      40.134  30.262  29.441  1.00  0.00     0.074 A 
ATOM     47  C   UNL A   1      38.969  29.450  29.166  1.00  0.00     0.031 C 
ATOM     48  C   UNL A   1      44.987  26.599  27.350  1.00  0.00     0.029 A 
ATOM     49  C   UNL A   1      45.065  27.943  27.915  1.00  0.00     0.049 A 
ATOM     50  H   UNL A   1      43.495  29.110  28.630  1.00  0.00     0.167 HD
ATOM     51  C   UNL A   1      40.088  31.492  30.008  1.00  0.00     0.031 A 
ATOM     52  C   UNL A   1      46.197  28.657  28.068  1.00  0.00     0.031 A 
ATOM     53  C   UNL A   1      41.251  32.294  30.285  1.00  0.00     0.049 A 
ATOM     54  C   UNL A   1      46.119  30.030  28.679  1.00  0.00     0.074 A 
ATOM     55  C   UNL A   1      41.315  33.531  30.902  1.00  0.00     0.029 A 
ATOM     56  N   UNL A   1      42.553  31.941  29.962  1.00  0.00    -0.354 N 
ATOM     57  N   UNL A   1      45.064  30.681  29.108  1.00  0.00    -0.248 NA
ATOM     58  C   UNL A   1      47.385  30.758  28.835  1.00  0.00     0.031 C 
ATOM     59  C   UNL A   1      42.648  33.952  30.899  1.00  0.00     0.029 A 
ATOM     60  C   UNL A   1      43.424  32.948  30.339  1.00  0.00     0.049 A 
ATOM     61  H   UNL A   1      42.818  31.098  29.528  1.00  0.00     0.167 HD
ATOM     62  C   UNL A   1      45.544  31.886  29.612  1.00  0.00     0.074 A 
ATOM     63  C   UNL A   1      46.983  31.865  29.447  1.00  0.00     0.031 C 
ATOM     64  C   UNL A   1      44.854  32.916  30.163  1.00  0.00     0.031 A 
BRANCH  51  65
ATOM     65  C   UNL A   1      38.731  32.048  30.354  1.00  0.00    -0.014 A 
ATOM     66  C   UNL A   1      38.015  32.846  29.442  1.00  0.00     0.010 A 
ATOM     67  C   UNL A   1      38.146  31.742  31.597  1.00  0.00     0.010 A 
ATOM     68  C   UNL A   1      36.765  33.367  29.784  1.00  0.00     0.020 A 
ATOM     69  C   UNL A   1      36.881  32.236  31.931  1.00  0.00     0.020 A 
ATOM     70  C   UNL A   1      36.208  33.061  31.029  1.00  0.00     0.054 A 
BRANCH  70  71
ATOM     71  S   UNL A   1      34.577  33.741  31.440  1.00  0.00     0.124 S 
ATOM     72  O   UNL A   1      33.987  33.926  30.117  1.00  0.00    -0.237 OA
ATOM     73  O   UNL A   1      33.983  32.681  32.250  1.00  0.00    -0.237 OA
ATOM     74  O   UNL A   1      34.887  34.974  32.161  1.00  0.00    -0.744 OA
ENDBRANCH  70  71
ENDBRANCH  51  65
BRANCH  52  75
ATOM     75  C   UNL A   1      47.502  28.079  27.647  1.00  0.00    -0.014 A 
ATOM     76  C   UNL A   1      47.955  28.225  26.323  1.00  0.00     0.010 A 
ATOM     77  C   UNL A   1      48.309  27.393  28.573  1.00  0.00     0.010 A 
ATOM     78  C   UNL A   1      49.182  27.682  25.930  1.00  0.00     0.020 A 
ATOM     79  C   UNL A   1      49.549  26.875  28.191  1.00  0.00     0.020 A 
ATOM     80  C   UNL A   1      49.973  27.013  26.868  1.00  0.00     0.054 A 
BRANCH  80  81
ATOM     81  S   UNL A   1      51.587  26.366  26.350  1.00  0.00     0.124 S 
ATOM     82  O   UNL A   1      51.574  26.635  24.915  1.00  0.00    -0.237 OA
ATOM     83  O   UNL A   1      52.516  27.170  27.140  1.00  0.00    -0.237 OA
ATOM     84  O   UNL A   1      51.524  24.954  26.724  1.00  0.00    -0.744 OA
ENDBRANCH  80  81
ENDBRANCH  52  75
BRANCH  64  85
ATOM     85  C   UNL A   1      45.649  34.096  30.657  1.00  0.00    -0.014 A 
ATOM     86  C   UNL A   1      45.914  35.198  29.826  1.00  0.00     0.010 A 
ATOM     87  C   UNL A   1      46.090  34.123  31.993  1.00  0.00     0.010 A 
ATOM     88  C   UNL A   1      46.634  36.292  30.313  1.00  0.00     0.020 A 
ATOM     89  C   UNL A   1      46.784  35.228  32.493  1.00  0.00     0.020 A 
ATOM     90  C   UNL A   1      47.064  36.300  31.643  1.00  0.00     0.054 A 
BRANCH  90  91
ATOM     91  S   UNL A   1      47.958  37.752  32.262  1.00  0.00     0.124 S 
ATOM     92  O   UNL A   1      49.329  37.254  32.338  1.00  0.00    -0.237 OA
ATOM     93  O   UNL A   1      47.708  38.748  31.224  1.00  0.00    -0.237 OA
ATOM     94  O   UNL A   1      47.324  38.029  33.548  1.00  0.00    -0.744 OA
ENDBRANCH  90  91
ENDBRANCH  64  85
ENDBRANCH  38  39
ENDBRANCH  30  33
ENDBRANCH  28  29
ENDBRANCH  27  28
ENDBRANCH   1  27
TORSDOF 19
ENDMDL
MODEL 3
REMARK VINA RESULT:     -10.5      4.658      5.553
REMARK SMILES CS(=O)(=O)c1ccc(/C=C(/C(=O)NCCCCCCNC(=O)c2ccc(-c3c4nc(c(-c5ccc(S(=O)(=O)[O-])cc5)c5ccc([nH]5)c(-c5ccc(S(=O)(=O)[O-])cc5)c5nc(c(-c6ccc(S(=O)(=O)[O-])cc6)c6ccc3[nH]6)C=C5)C=C4)cc2)c2ccccc2)cc1
REMARK SMILES IDX 17 1 16 2 15 3 14 4 13 5 11 6 12 7 10 9 9 10 8 11 5 12 6 13
REMARK SMILES IDX 90 14 7 15 89 16 2 17 1 18 3 19 4 20 83 21 84 22 88 23 85 24
REMARK SMILES IDX 87 25 86 26 18 27 19 28 20 29 21 30 22 32 23 33 24 34 82 35
REMARK SMILES IDX 25 36 81 37 26 38 27 39 28 40 75 41 29 42 80 43 74 44 76 45
REMARK SMILES IDX 30 46 79 47 73 48 72 49 31 51 61 52 42 53 60 54 43 55 46 56
REMARK SMILES IDX 59 57 77 58 44 59 45 60 58 62 78 63 47 64 32 65 33 66 41 67
REMARK SMILES IDX 34 68 40 69 35 70 36 71 37 72 38 73 39 74 62 75 63 76 71 77
REMARK SMILES IDX 64 78 70 79 65 80 66 81 67 82 68 83 69 84 48 85 49 86 57 87
REMARK SMILES IDX 50 88 56 89 51 90 52 91 53 92 54 93 55 94
REMARK H PARENT 13 8 20 31 76 50 46 61
REMARK Flexibility Score: inf
ROOT
ATOM      1  C   UNL A   1      35.978  24.451  24.410  1.00  0.00     0.002 C 
ENDROOT
BRANCH   1   2
ATOM      2  C   UNL A   1      34.780  23.881  23.640  1.00  0.00     0.002 C 
BRANCH   2   3
ATOM      3  C   UNL A   1      34.129  22.644  24.281  1.00  0.00     0.021 C 
BRANCH   3   4
ATOM      4  C   UNL A   1      32.598  22.694  24.273  1.00  0.00     0.116 C 
BRANCH   4   5
ATOM      5  N   UNL A   1      32.117  22.861  25.629  1.00  0.00    -0.352 N 
ATOM      6  C   UNL A   1      31.677  23.915  26.361  1.00  0.00     0.251 C 
ATOM      7  O   UNL A   1      31.460  23.680  27.554  1.00  0.00    -0.269 OA
ATOM      8  H   UNL A   1      32.106  22.016  26.135  1.00  0.00     0.163 HD
BRANCH   6   9
ATOM      9  C   UNL A   1      31.356  25.275  25.779  1.00  0.00     0.047 C 
ATOM     10  C   UNL A   1      30.510  25.456  24.738  1.00  0.00     0.022 C 
BRANCH  10  11
ATOM     11  C   UNL A   1      29.976  26.719  24.170  1.00  0.00    -0.025 A 
ATOM     12  C   UNL A   1      29.156  29.072  22.858  1.00  0.00     0.067 A 
ATOM     13  C   UNL A   1      28.216  28.108  23.232  1.00  0.00     0.021 A 
ATOM     14  C   UNL A   1      30.498  28.905  23.194  1.00  0.00     0.021 A 
ATOM     15  C   UNL A   1      28.624  26.956  23.911  1.00  0.00     0.009 A 
ATOM     16  C   UNL A   1      30.900  27.729  23.844  1.00  0.00     0.009 A 
BRANCH  12  17
ATOM     17  S   UNL A   1      28.561  30.468  21.936  1.00  0.00     0.175 S 
ATOM     18  C   UNL A   1      27.365  31.308  22.932  1.00  0.00     0.163 C 
ATOM     19  O   UNL A   1      27.867  29.931  20.782  1.00  0.00    -0.224 OA
ATOM     20  O   UNL A   1      29.697  31.360  21.773  1.00  0.00    -0.224 OA
ENDBRANCH  12  17
ENDBRANCH  10  11
BRANCH   9  21
ATOM     21  C   UNL A   1      32.163  26.410  26.301  1.00  0.00    -0.013 A 
ATOM     22  C   UNL A   1      33.475  26.568  25.820  1.00  0.00     0.009 A 
ATOM     23  C   UNL A   1      31.642  27.371  27.175  1.00  0.00     0.009 A 
ATOM     24  C   UNL A   1      34.237  27.680  26.170  1.00  0.00     0.001 A 
ATOM     25  C   UNL A   1      32.401  28.496  27.510  1.00  0.00     0.001 A 
ATOM     26  C   UNL A   1      33.693  28.653  27.003  1.00  0.00     0.000 A 
ENDBRANCH   9  21
ENDBRANCH   6   9
ENDBRANCH   4   5
ENDBRANCH   3   4
ENDBRANCH   2   3
ENDBRANCH   1   2
BRANCH   1  27
ATOM     27  C   UNL A   1      36.535  23.531  25.499  1.00  0.00     0.021 C 
BRANCH  27  28
ATOM     28  C   UNL A   1      37.480  24.223  26.475  1.00  0.00     0.116 C 
BRANCH  28  29
ATOM     29  N   UNL A   1      38.872  23.940  26.165  1.00  0.00    -0.352 N 
ATOM     30  C   UNL A   1      39.997  24.642  26.521  1.00  0.00     0.251 C 
ATOM     31  H   UNL A   1      39.030  23.133  25.623  1.00  0.00     0.163 HD
ATOM     32  O   UNL A   1      41.069  24.402  25.977  1.00  0.00    -0.269 OA
BRANCH  30  33
ATOM     33  C   UNL A   1      39.905  25.693  27.556  1.00  0.00     0.039 A 
ATOM     34  C   UNL A   1      39.119  25.465  28.688  1.00  0.00     0.014 A 
ATOM     35  C   UNL A   1      40.589  26.904  27.405  1.00  0.00     0.014 A 
ATOM     36  C   UNL A   1      39.060  26.433  29.693  1.00  0.00     0.010 A 
ATOM     37  C   UNL A   1      40.588  27.833  28.442  1.00  0.00     0.010 A 
ATOM     38  C   UNL A   1      39.817  27.611  29.592  1.00  0.00    -0.014 A 
BRANCH  38  39
ATOM     39  C   UNL A   1      39.811  28.625  30.676  1.00  0.00     0.031 A 
ATOM     40  C   UNL A   1      40.719  28.465  31.866  1.00  0.00     0.074 A 
ATOM     41  C   UNL A   1      38.949  29.659  30.617  1.00  0.00     0.049 A 
ATOM     42  N   UNL A   1      40.821  29.217  32.931  1.00  0.00    -0.248 NA
ATOM     43  C   UNL A   1      41.611  27.294  31.871  1.00  0.00     0.031 C 
ATOM     44  C   UNL A   1      37.995  29.906  29.533  1.00  0.00     0.029 A 
ATOM     45  N   UNL A   1      38.734  30.697  31.490  1.00  0.00    -0.354 N 
ATOM     46  C   UNL A   1      41.774  28.604  33.737  1.00  0.00     0.074 A 
ATOM     47  C   UNL A   1      42.180  27.391  33.063  1.00  0.00     0.031 C 
ATOM     48  C   UNL A   1      37.319  31.037  29.791  1.00  0.00     0.029 A 
ATOM     49  C   UNL A   1      37.758  31.573  31.076  1.00  0.00     0.049 A 
ATOM     50  H   UNL A   1      39.232  30.804  32.332  1.00  0.00     0.167 HD
ATOM     51  C   UNL A   1      42.283  29.024  34.921  1.00  0.00     0.031 A 
ATOM     52  C   UNL A   1      37.267  32.680  31.666  1.00  0.00     0.031 A 
ATOM     53  C   UNL A   1      41.879  30.235  35.585  1.00  0.00     0.049 A 
ATOM     54  C   UNL A   1      37.832  33.116  32.990  1.00  0.00     0.074 A 
ATOM     55  C   UNL A   1      42.369  30.775  36.761  1.00  0.00     0.029 A 
ATOM     56  N   UNL A   1      40.887  31.094  35.134  1.00  0.00    -0.354 N 
ATOM     57  N   UNL A   1      38.778  32.555  33.706  1.00  0.00    -0.248 NA
ATOM     58  C   UNL A   1      37.269  34.337  33.581  1.00  0.00     0.031 C 
ATOM     59  C   UNL A   1      41.633  31.928  37.052  1.00  0.00     0.029 A 
ATOM     60  C   UNL A   1      40.730  32.143  36.023  1.00  0.00     0.049 A 
ATOM     61  H   UNL A   1      40.371  30.974  34.304  1.00  0.00     0.167 HD
ATOM     62  C   UNL A   1      38.944  33.373  34.819  1.00  0.00     0.074 A 
ATOM     63  C   UNL A   1      38.011  34.472  34.673  1.00  0.00     0.031 C 
ATOM     64  C   UNL A   1      39.793  33.227  35.867  1.00  0.00     0.031 A 
BRANCH  51  65
ATOM     65  C   UNL A   1      43.326  28.156  35.577  1.00  0.00    -0.014 A 
ATOM     66  C   UNL A   1      42.967  27.156  36.499  1.00  0.00     0.010 A 
ATOM     67  C   UNL A   1      44.683  28.321  35.243  1.00  0.00     0.010 A 
ATOM     68  C   UNL A   1      43.947  26.371  37.111  1.00  0.00     0.020 A 
ATOM     69  C   UNL A   1      45.664  27.516  35.829  1.00  0.00     0.020 A 
ATOM     70  C   UNL A   1      45.290  26.559  36.774  1.00  0.00     0.054 A 
BRANCH  70  71
ATOM     71  S   UNL A   1      46.540  25.515  37.575  1.00  0.00     0.124 S 
ATOM     72  O   UNL A   1      47.485  25.289  36.485  1.00  0.00    -0.237 OA
ATOM     73  O   UNL A   1      47.023  26.368  38.657  1.00  0.00    -0.237 OA
ATOM     74  O   UNL A   1      45.787  24.337  38.001  1.00  0.00    -0.744 OA
ENDBRANCH  70  71
ENDBRANCH  51  65
BRANCH  52  75
ATOM     75  C   UNL A   1      36.190  33.461  30.998  1.00  0.00    -0.014 A 
ATOM     76  C   UNL A   1      34.958  33.675  31.641  1.00  0.00     0.010 A 
ATOM     77  C   UNL A   1      36.398  34.011  29.719  1.00  0.00     0.010 A 
ATOM     78  C   UNL A   1      33.948  34.409  31.012  1.00  0.00     0.020 A 
ATOM     79  C   UNL A   1      35.402  34.771  29.101  1.00  0.00     0.020 A 
ATOM     80  C   UNL A   1      34.178  34.956  29.747  1.00  0.00     0.054 A 
BRANCH  80  81
ATOM     81  S   UNL A   1      32.874  35.954  28.974  1.00  0.00     0.124 S 
ATOM     82  O   UNL A   1      33.650  36.969  28.267  1.00  0.00    -0.237 OA
ATOM     83  O   UNL A   1      32.189  34.977  28.132  1.00  0.00    -0.237 OA
ATOM     84  O   UNL A   1      32.097  36.438  30.112  1.00  0.00    -0.744 OA
ENDBRANCH  80  81
ENDBRANCH  52  75
BRANCH  64  85
ATOM     85  C   UNL A   1      39.776  34.299  36.926  1.00  0.00    -0.014 A 
ATOM     86  C   UNL A   1      39.075  34.123  38.132  1.00  0.00     0.010 A 
ATOM     87  C   UNL A   1      40.519  35.477  36.730  1.00  0.00     0.010 A 
ATOM     88  C   UNL A   1      39.093  35.121  39.110  1.00  0.00     0.020 A 
ATOM     89  C   UNL A   1      40.564  36.464  37.718  1.00  0.00     0.020 A 
ATOM     90  C   UNL A   1      39.837  36.285  38.897  1.00  0.00     0.054 A 
BRANCH  90  91
ATOM     91  S   UNL A   1      39.879  37.545  40.201  1.00  0.00     0.124 S 
ATOM     92  O   UNL A   1      41.306  37.624  40.501  1.00  0.00    -0.237 OA
ATOM     93  O   UNL A   1      39.312  38.715  39.533  1.00  0.00    -0.237 OA
ATOM     94  O   UNL A   1      39.049  36.977  41.259  1.00  0.00    -0.744 OA
ENDBRANCH  90  91
ENDBRANCH  64  85
ENDBRANCH  38  39
ENDBRANCH  30  33
ENDBRANCH  28  29
ENDBRANCH  27  28
ENDBRANCH   1  27
TORSDOF 19
ENDMDL
