MODEL 1
REMARK VINA RESULT:     -11.3      0.000      0.000
REMARK SMILES Cc1cscc1C(=O)N1C[C@@H](C(=O)NCCCCCCNC(=O)c2ccc(-c3c4nc(c(-c5ccc(S(=O)(=O)[O-])cc5)c5ccc([nH]5)c(-c5ccc(S(=O)(=O)[O-])cc5)c5nc(c(-c6ccc(S(=O)(=O)[O-])cc6)c6ccc3[nH]6)C=C5)C=C4)cc2)Oc2ccccc21
REMARK SMILES IDX 18 1 17 2 16 3 15 4 14 5 12 6 13 7 11 9 9 10 10 11 90 12
REMARK SMILES IDX 85 13 89 14 84 15 86 16 88 17 87 18 7 19 8 20 6 21 1 22 2 23
REMARK SMILES IDX 3 24 4 25 5 26 19 27 20 28 21 29 22 30 23 32 24 33 25 34
REMARK SMILES IDX 83 35 26 36 82 37 27 38 28 39 29 40 76 41 30 42 81 43 75 44
REMARK SMILES IDX 77 45 31 46 80 47 74 48 73 49 32 51 62 52 43 53 61 54 44 55
REMARK SMILES IDX 47 56 60 57 78 58 45 59 46 60 59 62 79 63 48 64 33 65 34 66
REMARK SMILES IDX 42 67 35 68 41 69 36 70 37 71 38 72 39 73 40 74 63 75 64 76
REMARK SMILES IDX 72 77 65 78 71 79 66 80 67 81 68 82 69 83 70 84 49 85 50 86
REMARK SMILES IDX 58 87 51 88 57 89 52 90 53 91 54 92 55 93 56 94
REMARK H PARENT 14 8 21 31 77 50 47 61
REMARK Flexibility Score: inf
ROOT
ATOM      1  C   UNL A   1      34.309  22.991  27.252  1.00  0.00     0.002 C 
ENDROOT
BRANCH   1   2
ATOM      2  C   UNL A   1      32.809  22.686  27.210  1.00  0.00     0.002 C 
BRANCH   2   3
ATOM      3  C   UNL A   1      32.243  22.191  25.874  1.00  0.00     0.021 C 
BRANCH   3   4
ATOM      4  C   UNL A   1      31.194  23.083  25.213  1.00  0.00     0.116 C 
BRANCH   4   5
ATOM      5  N   UNL A   1      31.027  24.369  25.859  1.00  0.00    -0.353 N 
ATOM      6  C   UNL A   1      30.419  25.491  25.374  1.00  0.00     0.262 C 
ATOM      7  O   UNL A   1      30.250  26.428  26.165  1.00  0.00    -0.271 OA
ATOM      8  H   UNL A   1      31.399  24.444  26.768  1.00  0.00     0.163 HD
BRANCH   6   9
ATOM      9  C   UNL A   1      30.064  25.654  23.871  1.00  0.00     0.281 C 
ATOM     10  N   UNL A   1      31.310  27.741  23.372  1.00  0.00    -0.301 N 
ATOM     11  C   UNL A   1      31.242  26.289  23.124  1.00  0.00     0.181 C 
ATOM     12  C   UNL A   1      30.034  28.391  23.424  1.00  0.00     0.086 A 
ATOM     13  C   UNL A   1      28.864  27.614  23.394  1.00  0.00     0.144 A 
ATOM     14  C   UNL A   1      29.895  29.786  23.419  1.00  0.00     0.030 A 
ATOM     15  O   UNL A   1      28.842  26.243  23.459  1.00  0.00    -0.477 OA
ATOM     16  C   UNL A   1      27.601  28.210  23.316  1.00  0.00     0.049 A 
ATOM     17  C   UNL A   1      28.630  30.383  23.371  1.00  0.00     0.002 A 
ATOM     18  C   UNL A   1      27.484  29.597  23.310  1.00  0.00     0.004 A 
BRANCH  10  19
ATOM     19  C   UNL A   1      32.523  28.403  23.559  1.00  0.00     0.259 C 
ATOM     20  O   UNL A   1      33.271  28.761  22.632  1.00  0.00    -0.269 OA
BRANCH  19  21
ATOM     21  C   UNL A   1      32.922  28.683  24.945  1.00  0.00     0.053 A 
ATOM     22  C   UNL A   1      33.992  26.363  25.556  1.00  0.00     0.046 C 
ATOM     23  C   UNL A   1      33.577  27.770  25.868  1.00  0.00    -0.028 A 
ATOM     24  C   UNL A   1      33.815  28.381  27.091  1.00  0.00     0.069 A 
ATOM     25  S   UNL A   1      33.317  30.016  27.127  1.00  0.00    -0.151 S 
ATOM     26  C   UNL A   1      32.776  29.942  25.508  1.00  0.00     0.079 A 
ENDBRANCH  19  21
ENDBRANCH  10  19
ENDBRANCH   6   9
ENDBRANCH   4   5
ENDBRANCH   3   4
ENDBRANCH   2   3
ENDBRANCH   1   2
BRANCH   1  27
ATOM     27  C   UNL A   1      35.086  22.831  25.941  1.00  0.00     0.021 C 
BRANCH  27  28
ATOM     28  C   UNL A   1      36.445  23.527  25.858  1.00  0.00     0.116 C 
BRANCH  28  29
ATOM     29  N   UNL A   1      37.571  22.619  25.951  1.00  0.00    -0.352 N 
ATOM     30  C   UNL A   1      38.852  22.837  26.396  1.00  0.00     0.251 C 
ATOM     31  H   UNL A   1      37.389  21.701  25.647  1.00  0.00     0.163 HD
ATOM     32  O   UNL A   1      39.665  21.917  26.330  1.00  0.00    -0.269 OA
BRANCH  30  33
ATOM     33  C   UNL A   1      39.284  24.159  26.917  1.00  0.00     0.039 A 
ATOM     34  C   UNL A   1      38.944  24.481  28.239  1.00  0.00     0.014 A 
ATOM     35  C   UNL A   1      39.958  25.099  26.131  1.00  0.00     0.014 A 
ATOM     36  C   UNL A   1      39.323  25.711  28.786  1.00  0.00     0.010 A 
ATOM     37  C   UNL A   1      40.369  26.314  26.689  1.00  0.00     0.010 A 
ATOM     38  C   UNL A   1      40.058  26.629  28.021  1.00  0.00    -0.014 A 
BRANCH  38  39
ATOM     39  C   UNL A   1      40.513  27.910  28.614  1.00  0.00     0.031 A 
ATOM     40  C   UNL A   1      41.921  28.070  29.113  1.00  0.00     0.074 A 
ATOM     41  C   UNL A   1      39.641  28.928  28.744  1.00  0.00     0.049 A 
ATOM     42  N   UNL A   1      42.478  29.108  29.685  1.00  0.00    -0.248 NA
ATOM     43  C   UNL A   1      42.813  26.911  28.963  1.00  0.00     0.031 C 
ATOM     44  C   UNL A   1      38.234  28.895  28.343  1.00  0.00     0.029 A 
ATOM     45  N   UNL A   1      39.814  30.189  29.258  1.00  0.00    -0.354 N 
ATOM     46  C   UNL A   1      43.775  28.720  29.991  1.00  0.00     0.074 A 
ATOM     47  C   UNL A   1      43.923  27.350  29.543  1.00  0.00     0.031 C 
ATOM     48  C   UNL A   1      37.671  30.084  28.618  1.00  0.00     0.029 A 
ATOM     49  C   UNL A   1      38.675  30.957  29.221  1.00  0.00     0.049 A 
ATOM     50  H   UNL A   1      40.670  30.511  29.619  1.00  0.00     0.167 HD
ATOM     51  C   UNL A   1      44.758  29.434  30.591  1.00  0.00     0.031 A 
ATOM     52  C   UNL A   1      38.460  32.223  29.623  1.00  0.00     0.031 A 
ATOM     53  C   UNL A   1      44.637  30.803  31.015  1.00  0.00     0.049 A 
ATOM     54  C   UNL A   1      39.584  33.022  30.213  1.00  0.00     0.074 A 
ATOM     55  C   UNL A   1      45.597  31.616  31.594  1.00  0.00     0.029 A 
ATOM     56  N   UNL A   1      43.487  31.565  30.899  1.00  0.00    -0.354 N 
ATOM     57  N   UNL A   1      40.815  32.647  30.459  1.00  0.00    -0.248 NA
ATOM     58  C   UNL A   1      39.291  34.417  30.569  1.00  0.00     0.031 C 
ATOM     59  C   UNL A   1      45.023  32.871  31.833  1.00  0.00     0.029 A 
ATOM     60  C   UNL A   1      43.709  32.839  31.395  1.00  0.00     0.049 A 
ATOM     61  H   UNL A   1      42.635  31.248  30.519  1.00  0.00     0.167 HD
ATOM     62  C   UNL A   1      41.447  33.763  30.995  1.00  0.00     0.074 A 
ATOM     63  C   UNL A   1      40.465  34.827  31.029  1.00  0.00     0.031 C 
ATOM     64  C   UNL A   1      42.727  33.890  31.420  1.00  0.00     0.031 A 
BRANCH  51  65
ATOM     65  C   UNL A   1      46.056  28.720  30.835  1.00  0.00    -0.014 A 
ATOM     66  C   UNL A   1      47.076  28.738  29.864  1.00  0.00     0.010 A 
ATOM     67  C   UNL A   1      46.247  28.015  32.039  1.00  0.00     0.010 A 
ATOM     68  C   UNL A   1      48.255  28.020  30.079  1.00  0.00     0.020 A 
ATOM     69  C   UNL A   1      47.429  27.304  32.261  1.00  0.00     0.020 A 
ATOM     70  C   UNL A   1      48.416  27.294  31.268  1.00  0.00     0.054 A 
BRANCH  70  71
ATOM     71  S   UNL A   1      49.940  26.343  31.537  1.00  0.00     0.124 S 
ATOM     72  O   UNL A   1      50.956  27.259  31.021  1.00  0.00    -0.237 OA
ATOM     73  O   UNL A   1      49.957  26.140  32.984  1.00  0.00    -0.237 OA
ATOM     74  O   UNL A   1      49.727  25.134  30.746  1.00  0.00    -0.744 OA
ENDBRANCH  70  71
ENDBRANCH  51  65
BRANCH  52  75
ATOM     75  C   UNL A   1      37.112  32.819  29.459  1.00  0.00    -0.014 A 
ATOM     76  C   UNL A   1      36.249  32.927  30.566  1.00  0.00     0.010 A 
ATOM     77  C   UNL A   1      36.712  33.319  28.205  1.00  0.00     0.010 A 
ATOM     78  C   UNL A   1      34.997  33.532  30.424  1.00  0.00     0.020 A 
ATOM     79  C   UNL A   1      35.464  33.929  28.064  1.00  0.00     0.020 A 
ATOM     80  C   UNL A   1      34.613  34.028  29.173  1.00  0.00     0.054 A 
BRANCH  80  81
ATOM     81  S   UNL A   1      33.023  34.888  29.000  1.00  0.00     0.124 S 
ATOM     82  O   UNL A   1      32.501  34.837  30.361  1.00  0.00    -0.237 OA
ATOM     83  O   UNL A   1      33.414  36.212  28.521  1.00  0.00    -0.237 OA
ATOM     84  O   UNL A   1      32.311  34.069  28.020  1.00  0.00    -0.744 OA
ENDBRANCH  80  81
ENDBRANCH  52  75
BRANCH  64  85
ATOM     85  C   UNL A   1      43.136  35.232  31.951  1.00  0.00    -0.014 A 
ATOM     86  C   UNL A   1      43.786  36.160  31.115  1.00  0.00     0.010 A 
ATOM     87  C   UNL A   1      42.851  35.577  33.285  1.00  0.00     0.010 A 
ATOM     88  C   UNL A   1      44.164  37.409  31.614  1.00  0.00     0.020 A 
ATOM     89  C   UNL A   1      43.222  36.827  33.785  1.00  0.00     0.020 A 
ATOM     90  C   UNL A   1      43.888  37.731  32.949  1.00  0.00     0.054 A 
BRANCH  90  91
ATOM     91  S   UNL A   1      44.351  39.366  33.589  1.00  0.00     0.124 S 
ATOM     92  O   UNL A   1      43.065  39.893  34.033  1.00  0.00    -0.237 OA
ATOM     93  O   UNL A   1      45.301  39.051  34.654  1.00  0.00    -0.237 OA
ATOM     94  O   UNL A   1      44.933  40.030  32.424  1.00  0.00    -0.744 OA
ENDBRANCH  90  91
ENDBRANCH  64  85
ENDBRANCH  38  39
ENDBRANCH  30  33
ENDBRANCH  28  29
ENDBRANCH  27  28
ENDBRANCH   1  27
TORSDOF 18
ENDMDL
MODEL 2
REMARK VINA RESULT:     -10.9      3.899      9.696
REMARK SMILES Cc1cscc1C(=O)N1C[C@@H](C(=O)NCCCCCCNC(=O)c2ccc(-c3c4nc(c(-c5ccc(S(=O)(=O)[O-])cc5)c5ccc([nH]5)c(-c5ccc(S(=O)(=O)[O-])cc5)c5nc(c(-c6ccc(S(=O)(=O)[O-])cc6)c6ccc3[nH]6)C=C5)C=C4)cc2)Oc2ccccc21
REMARK SMILES IDX 18 1 17 2 16 3 15 4 14 5 12 6 13 7 11 9 9 10 10 11 90 12
REMARK SMILES IDX 85 13 89 14 84 15 86 16 88 17 87 18 7 19 8 20 6 21 1 22 2 23
REMARK SMILES IDX 3 24 4 25 5 26 19 27 20 28 21 29 22 30 23 32 24 33 25 34
REMARK SMILES IDX 83 35 26 36 82 37 27 38 28 39 29 40 76 41 30 42 81 43 75 44
REMARK SMILES IDX 77 45 31 46 80 47 74 48 73 49 32 51 62 52 43 53 61 54 44 55
REMARK SMILES IDX 47 56 60 57 78 58 45 59 46 60 59 62 79 63 48 64 33 65 34 66
REMARK SMILES IDX 42 67 35 68 41 69 36 70 37 71 38 72 39 73 40 74 63 75 64 76
REMARK SMILES IDX 72 77 65 78 71 79 66 80 67 81 68 82 69 83 70 84 49 85 50 86
REMARK SMILES IDX 58 87 51 88 57 89 52 90 53 91 54 92 55 93 56 94
REMARK H PARENT 14 8 21 31 77 50 47 61
REMARK Flexibility Score: inf
ROOT
ATOM      1  C   UNL A   1      34.668  29.572  27.040  1.00  0.00     0.002 C 
ENDROOT
BRANCH   1   2
ATOM      2  C   UNL A   1      33.518  28.897  26.289  1.00  0.00     0.002 C 
BRANCH   2   3
ATOM      3  C   UNL A   1      33.167  27.465  26.707  1.00  0.00     0.021 C 
BRANCH   3   4
ATOM      4  C   UNL A   1      31.704  27.054  26.548  1.00  0.00     0.116 C 
BRANCH   4   5
ATOM      5  N   UNL A   1      31.481  25.627  26.662  1.00  0.00    -0.353 N 
ATOM      6  C   UNL A   1      31.013  24.762  25.715  1.00  0.00     0.262 C 
ATOM      7  O   UNL A   1      31.056  23.554  25.983  1.00  0.00    -0.271 OA
ATOM      8  H   UNL A   1      31.694  25.229  27.537  1.00  0.00     0.163 HD
BRANCH   6   9
ATOM      9  C   UNL A   1      30.339  25.256  24.406  1.00  0.00     0.281 C 
ATOM     10  N   UNL A   1      32.144  24.734  22.785  1.00  0.00    -0.301 N 
ATOM     11  C   UNL A   1      30.783  24.380  23.229  1.00  0.00     0.181 C 
ATOM     12  C   UNL A   1      32.425  26.139  22.804  1.00  0.00     0.086 A 
ATOM     13  C   UNL A   1      31.486  27.021  23.365  1.00  0.00     0.144 A 
ATOM     14  C   UNL A   1      33.568  26.690  22.208  1.00  0.00     0.030 A 
ATOM     15  O   UNL A   1      30.356  26.625  24.036  1.00  0.00    -0.477 OA
ATOM     16  C   UNL A   1      31.661  28.406  23.292  1.00  0.00     0.049 A 
ATOM     17  C   UNL A   1      33.758  28.076  22.161  1.00  0.00     0.002 A 
ATOM     18  C   UNL A   1      32.801  28.934  22.694  1.00  0.00     0.004 A 
BRANCH  10  19
ATOM     19  C   UNL A   1      33.073  23.766  22.403  1.00  0.00     0.259 C 
ATOM     20  O   UNL A   1      33.372  23.515  21.223  1.00  0.00    -0.269 OA
BRANCH  19  21
ATOM     21  C   UNL A   1      33.723  23.005  23.480  1.00  0.00     0.053 A 
ATOM     22  C   UNL A   1      32.349  20.772  23.313  1.00  0.00     0.046 C 
ATOM     23  C   UNL A   1      33.402  21.655  23.914  1.00  0.00    -0.028 A 
ATOM     24  C   UNL A   1      34.232  21.253  24.951  1.00  0.00     0.069 A 
ATOM     25  S   UNL A   1      35.398  22.432  25.367  1.00  0.00    -0.151 S 
ATOM     26  C   UNL A   1      34.819  23.503  24.168  1.00  0.00     0.079 A 
ENDBRANCH  19  21
ENDBRANCH  10  19
ENDBRANCH   6   9
ENDBRANCH   4   5
ENDBRANCH   3   4
ENDBRANCH   2   3
ENDBRANCH   1   2
BRANCH   1  27
ATOM     27  C   UNL A   1      34.359  30.910  27.722  1.00  0.00     0.021 C 
BRANCH  27  28
ATOM     28  C   UNL A   1      35.484  31.537  28.546  1.00  0.00     0.116 C 
BRANCH  28  29
ATOM     29  N   UNL A   1      35.435  31.197  29.954  1.00  0.00    -0.352 N 
ATOM     30  C   UNL A   1      36.387  30.626  30.762  1.00  0.00     0.251 C 
ATOM     31  H   UNL A   1      34.584  31.407  30.402  1.00  0.00     0.163 HD
ATOM     32  O   UNL A   1      36.098  30.375  31.931  1.00  0.00    -0.269 OA
BRANCH  30  33
ATOM     33  C   UNL A   1      37.737  30.274  30.251  1.00  0.00     0.039 A 
ATOM     34  C   UNL A   1      38.740  30.005  31.193  1.00  0.00     0.014 A 
ATOM     35  C   UNL A   1      38.049  30.254  28.889  1.00  0.00     0.014 A 
ATOM     36  C   UNL A   1      40.030  29.667  30.774  1.00  0.00     0.010 A 
ATOM     37  C   UNL A   1      39.330  29.881  28.468  1.00  0.00     0.010 A 
ATOM     38  C   UNL A   1      40.330  29.582  29.407  1.00  0.00    -0.014 A 
BRANCH  38  39
ATOM     39  C   UNL A   1      41.681  29.166  28.956  1.00  0.00     0.031 A 
ATOM     40  C   UNL A   1      42.814  30.151  28.910  1.00  0.00     0.074 A 
ATOM     41  C   UNL A   1      41.882  27.899  28.544  1.00  0.00     0.049 A 
ATOM     42  N   UNL A   1      44.049  29.966  28.515  1.00  0.00    -0.248 NA
ATOM     43  C   UNL A   1      42.519  31.523  29.350  1.00  0.00     0.031 C 
ATOM     44  C   UNL A   1      40.860  26.852  28.495  1.00  0.00     0.029 A 
ATOM     45  N   UNL A   1      43.017  27.283  28.082  1.00  0.00    -0.354 N 
ATOM     46  C   UNL A   1      44.672  31.201  28.630  1.00  0.00     0.074 A 
ATOM     47  C   UNL A   1      43.678  32.130  29.130  1.00  0.00     0.031 C 
ATOM     48  C   UNL A   1      41.417  25.719  28.036  1.00  0.00     0.029 A 
ATOM     49  C   UNL A   1      42.829  25.962  27.752  1.00  0.00     0.049 A 
ATOM     50  H   UNL A   1      43.883  27.742  27.995  1.00  0.00     0.167 HD
ATOM     51  C   UNL A   1      45.953  31.538  28.346  1.00  0.00     0.031 A 
ATOM     52  C   UNL A   1      43.693  25.047  27.277  1.00  0.00     0.031 A 
ATOM     53  C   UNL A   1      46.959  30.623  27.878  1.00  0.00     0.049 A 
ATOM     54  C   UNL A   1      45.127  25.422  27.045  1.00  0.00     0.074 A 
ATOM     55  C   UNL A   1      48.293  30.872  27.605  1.00  0.00     0.029 A 
ATOM     56  N   UNL A   1      46.743  29.280  27.620  1.00  0.00    -0.354 N 
ATOM     57  N   UNL A   1      45.705  26.588  27.197  1.00  0.00    -0.248 NA
ATOM     58  C   UNL A   1      46.026  24.353  26.588  1.00  0.00     0.031 C 
ATOM     59  C   UNL A   1      48.883  29.676  27.176  1.00  0.00     0.029 A 
ATOM     60  C   UNL A   1      47.917  28.684  27.190  1.00  0.00     0.049 A 
ATOM     61  H   UNL A   1      45.880  28.815  27.726  1.00  0.00     0.167 HD
ATOM     62  C   UNL A   1      47.038  26.393  26.858  1.00  0.00     0.074 A 
ATOM     63  C   UNL A   1      47.183  24.996  26.502  1.00  0.00     0.031 C 
ATOM     64  C   UNL A   1      48.049  27.294  26.843  1.00  0.00     0.031 A 
BRANCH  51  65
ATOM     65  C   UNL A   1      46.325  32.981  28.528  1.00  0.00    -0.014 A 
ATOM     66  C   UNL A   1      46.641  33.484  29.804  1.00  0.00     0.010 A 
ATOM     67  C   UNL A   1      46.343  33.840  27.412  1.00  0.00     0.010 A 
ATOM     68  C   UNL A   1      46.929  34.842  29.967  1.00  0.00     0.020 A 
ATOM     69  C   UNL A   1      46.639  35.196  27.569  1.00  0.00     0.020 A 
ATOM     70  C   UNL A   1      46.907  35.691  28.851  1.00  0.00     0.054 A 
BRANCH  70  71
ATOM     71  S   UNL A   1      47.259  37.460  29.067  1.00  0.00     0.124 S 
ATOM     72  O   UNL A   1      46.232  38.072  28.228  1.00  0.00    -0.237 OA
ATOM     73  O   UNL A   1      47.095  37.662  30.505  1.00  0.00    -0.237 OA
ATOM     74  O   UNL A   1      48.629  37.594  28.578  1.00  0.00    -0.744 OA
ENDBRANCH  70  71
ENDBRANCH  51  65
BRANCH  52  75
ATOM     75  C   UNL A   1      43.218  23.668  27.008  1.00  0.00    -0.014 A 
ATOM     76  C   UNL A   1      42.888  23.279  25.696  1.00  0.00     0.010 A 
ATOM     77  C   UNL A   1      43.138  22.734  28.057  1.00  0.00     0.010 A 
ATOM     78  C   UNL A   1      42.486  21.968  25.431  1.00  0.00     0.020 A 
ATOM     79  C   UNL A   1      42.742  21.421  27.794  1.00  0.00     0.020 A 
ATOM     80  C   UNL A   1      42.415  21.048  26.484  1.00  0.00     0.054 A 
BRANCH  80  81
ATOM     81  S   UNL A   1      41.972  19.321  26.135  1.00  0.00     0.124 S 
ATOM     82  O   UNL A   1      42.343  18.655  27.378  1.00  0.00    -0.237 OA
ATOM     83  O   UNL A   1      40.538  19.397  25.861  1.00  0.00    -0.237 OA
ATOM     84  O   UNL A   1      42.799  18.998  24.974  1.00  0.00    -0.744 OA
ENDBRANCH  80  81
ENDBRANCH  52  75
BRANCH  64  85
ATOM     85  C   UNL A   1      49.403  26.790  26.436  1.00  0.00    -0.014 A 
ATOM     86  C   UNL A   1      50.202  26.079  27.352  1.00  0.00     0.010 A 
ATOM     87  C   UNL A   1      49.869  27.008  25.126  1.00  0.00     0.010 A 
ATOM     88  C   UNL A   1      51.461  25.611  26.967  1.00  0.00     0.020 A 
ATOM     89  C   UNL A   1      51.124  26.535  24.738  1.00  0.00     0.020 A 
ATOM     90  C   UNL A   1      51.918  25.850  25.665  1.00  0.00     0.054 A 
BRANCH  90  91
ATOM     91  S   UNL A   1      53.542  25.214  25.156  1.00  0.00     0.124 S 
ATOM     92  O   UNL A   1      53.383  23.778  25.364  1.00  0.00    -0.237 OA
ATOM     93  O   UNL A   1      53.644  25.638  23.761  1.00  0.00    -0.237 OA
ATOM     94  O   UNL A   1      54.465  25.883  26.070  1.00  0.00    -0.744 OA
ENDBRANCH  90  91
ENDBRANCH  64  85
ENDBRANCH  38  39
ENDBRANCH  30  33
ENDBRANCH  28  29
ENDBRANCH  27  28
ENDBRANCH   1  27
TORSDOF 18
ENDMDL
MODEL 3
REMARK VINA RESULT:     -10.9      4.301     10.345
REMARK SMILES Cc1cscc1C(=O)N1C[C@@H](C(=O)NCCCCCCNC(=O)c2ccc(-c3c4nc(c(-c5ccc(S(=O)(=O)[O-])cc5)c5ccc([nH]5)c(-c5ccc(S(=O)(=O)[O-])cc5)c5nc(c(-c6ccc(S(=O)(=O)[O-])cc6)c6ccc3[nH]6)C=C5)C=C4)cc2)Oc2ccccc21
REMARK SMILES IDX 18 1 17 2 16 3 15 4 14 5 12 6 13 7 11 9 9 10 10 11 90 12
REMARK SMILES IDX 85 13 89 14 84 15 86 16 88 17 87 18 7 19 8 20 6 21 1 22 2 23
REMARK SMILES IDX 3 24 4 25 5 26 19 27 20 28 21 29 22 30 23 32 24 33 25 34
REMARK SMILES IDX 83 35 26 36 82 37 27 38 28 39 29 40 76 41 30 42 81 43 75 44
REMARK SMILES IDX 77 45 31 46 80 47 74 48 73 49 32 51 62 52 43 53 61 54 44 55
REMARK SMILES IDX 47 56 60 57 78 58 45 59 46 60 59 62 79 63 48 64 33 65 34 66
REMARK SMILES IDX 42 67 35 68 41 69 36 70 37 71 38 72 39 73 40 74 63 75 64 76
REMARK SMILES IDX 72 77 65 78 71 79 66 80 67 81 68 82 69 83 70 84 49 85 50 86
REMARK SMILES IDX 58 87 51 88 57 89 52 90 53 91 54 92 55 93 56 94
REMARK H PARENT 14 8 21 31 77 50 47 61
REMARK Flexibility Score: inf
ROOT
ATOM      1  C   UNL A   1      34.611  28.795  26.881  1.00  0.00     0.002 C 
ENDROOT
BRANCH   1   2
ATOM      2  C   UNL A   1      33.934  28.259  25.618  1.00  0.00     0.002 C 
BRANCH   2   3
ATOM      3  C   UNL A   1      33.825  26.736  25.487  1.00  0.00     0.021 C 
BRANCH   3   4
ATOM      4  C   UNL A   1      33.335  26.207  24.140  1.00  0.00     0.116 C 
BRANCH   4   5
ATOM      5  N   UNL A   1      32.141  25.391  24.230  1.00  0.00    -0.353 N 
ATOM      6  C   UNL A   1      31.937  24.128  23.753  1.00  0.00     0.262 C 
ATOM      7  O   UNL A   1      30.889  23.560  24.088  1.00  0.00    -0.271 OA
ATOM      8  H   UNL A   1      31.377  25.800  24.696  1.00  0.00     0.163 HD
BRANCH   6   9
ATOM      9  C   UNL A   1      32.904  23.463  22.736  1.00  0.00     0.281 C 
ATOM     10  N   UNL A   1      33.238  21.271  23.849  1.00  0.00    -0.301 N 
ATOM     11  C   UNL A   1      32.646  21.953  22.683  1.00  0.00     0.181 C 
ATOM     12  C   UNL A   1      34.513  21.787  24.251  1.00  0.00     0.086 A 
ATOM     13  C   UNL A   1      35.010  22.948  23.636  1.00  0.00     0.144 A 
ATOM     14  C   UNL A   1      35.334  21.134  25.180  1.00  0.00     0.030 A 
ATOM     15  O   UNL A   1      34.297  23.726  22.758  1.00  0.00    -0.477 OA
ATOM     16  C   UNL A   1      36.301  23.414  23.907  1.00  0.00     0.049 A 
ATOM     17  C   UNL A   1      36.615  21.617  25.474  1.00  0.00     0.002 A 
ATOM     18  C   UNL A   1      37.102  22.750  24.831  1.00  0.00     0.004 A 
BRANCH  10  19
ATOM     19  C   UNL A   1      32.585  20.227  24.505  1.00  0.00     0.259 C 
ATOM     20  O   UNL A   1      31.625  20.383  25.279  1.00  0.00    -0.269 OA
BRANCH  19  21
ATOM     21  C   UNL A   1      33.083  18.867  24.251  1.00  0.00     0.053 A 
ATOM     22  C   UNL A   1      32.203  18.542  21.798  1.00  0.00     0.046 C 
ATOM     23  C   UNL A   1      32.912  18.085  23.038  1.00  0.00    -0.028 A 
ATOM     24  C   UNL A   1      33.529  16.847  23.150  1.00  0.00     0.069 A 
ATOM     25  S   UNL A   1      34.336  16.638  24.643  1.00  0.00    -0.151 S 
ATOM     26  C   UNL A   1      33.880  18.198  25.168  1.00  0.00     0.079 A 
ENDBRANCH  19  21
ENDBRANCH  10  19
ENDBRANCH   6   9
ENDBRANCH   4   5
ENDBRANCH   3   4
ENDBRANCH   2   3
ENDBRANCH   1   2
BRANCH   1  27
ATOM     27  C   UNL A   1      34.224  30.210  27.327  1.00  0.00     0.021 C 
BRANCH  27  28
ATOM     28  C   UNL A   1      35.319  31.045  27.992  1.00  0.00     0.116 C 
BRANCH  28  29
ATOM     29  N   UNL A   1      35.301  30.983  29.439  1.00  0.00    -0.352 N 
ATOM     30  C   UNL A   1      36.292  30.639  30.325  1.00  0.00     0.251 C 
ATOM     31  H   UNL A   1      34.441  31.226  29.854  1.00  0.00     0.163 HD
ATOM     32  O   UNL A   1      36.027  30.604  31.525  1.00  0.00    -0.269 OA
BRANCH  30  33
ATOM     33  C   UNL A   1      37.657  30.274  29.867  1.00  0.00     0.039 A 
ATOM     34  C   UNL A   1      38.634  30.047  30.847  1.00  0.00     0.014 A 
ATOM     35  C   UNL A   1      38.009  30.203  28.516  1.00  0.00     0.014 A 
ATOM     36  C   UNL A   1      39.937  29.700  30.479  1.00  0.00     0.010 A 
ATOM     37  C   UNL A   1      39.302  29.821  28.147  1.00  0.00     0.010 A 
ATOM     38  C   UNL A   1      40.276  29.563  29.124  1.00  0.00    -0.014 A 
BRANCH  38  39
ATOM     39  C   UNL A   1      41.641  29.137  28.729  1.00  0.00     0.031 A 
ATOM     40  C   UNL A   1      42.776  30.121  28.698  1.00  0.00     0.074 A 
ATOM     41  C   UNL A   1      41.855  27.861  28.353  1.00  0.00     0.049 A 
ATOM     42  N   UNL A   1      44.023  29.926  28.349  1.00  0.00    -0.248 NA
ATOM     43  C   UNL A   1      42.467  31.502  29.097  1.00  0.00     0.031 C 
ATOM     44  C   UNL A   1      40.835  26.813  28.294  1.00  0.00     0.029 A 
ATOM     45  N   UNL A   1      43.004  27.234  27.944  1.00  0.00    -0.354 N 
ATOM     46  C   UNL A   1      44.643  31.164  28.457  1.00  0.00     0.074 A 
ATOM     47  C   UNL A   1      43.634  32.104  28.902  1.00  0.00     0.031 C 
ATOM     48  C   UNL A   1      41.405  25.669  27.880  1.00  0.00     0.029 A 
ATOM     49  C   UNL A   1      42.827  25.907  27.638  1.00  0.00     0.049 A 
ATOM     50  H   UNL A   1      43.873  27.691  27.875  1.00  0.00     0.167 HD
ATOM     51  C   UNL A   1      45.933  31.494  28.209  1.00  0.00     0.031 A 
ATOM     52  C   UNL A   1      43.706  24.980  27.214  1.00  0.00     0.031 A 
ATOM     53  C   UNL A   1      46.953  30.569  27.796  1.00  0.00     0.049 A 
ATOM     54  C   UNL A   1      45.147  25.350  27.021  1.00  0.00     0.074 A 
ATOM     55  C   UNL A   1      48.296  30.811  27.562  1.00  0.00     0.029 A 
ATOM     56  N   UNL A   1      46.745  29.220  27.561  1.00  0.00    -0.354 N 
ATOM     57  N   UNL A   1      45.720  26.519  27.165  1.00  0.00    -0.248 NA
ATOM     58  C   UNL A   1      46.059  24.271  26.619  1.00  0.00     0.031 C 
ATOM     59  C   UNL A   1      48.900  29.606  27.180  1.00  0.00     0.029 A 
ATOM     60  C   UNL A   1      47.932  28.614  27.185  1.00  0.00     0.049 A 
ATOM     61  H   UNL A   1      45.879  28.758  27.649  1.00  0.00     0.167 HD
ATOM     62  C   UNL A   1      47.063  26.317  26.876  1.00  0.00     0.074 A 
ATOM     63  C   UNL A   1      47.219  24.912  26.557  1.00  0.00     0.031 C 
ATOM     64  C   UNL A   1      48.076  27.217  26.874  1.00  0.00     0.031 A 
BRANCH  51  65
ATOM     65  C   UNL A   1      46.300  32.941  28.369  1.00  0.00    -0.014 A 
ATOM     66  C   UNL A   1      46.702  33.443  29.622  1.00  0.00     0.010 A 
ATOM     67  C   UNL A   1      46.227  33.805  27.259  1.00  0.00     0.010 A 
ATOM     68  C   UNL A   1      46.984  34.804  29.770  1.00  0.00     0.020 A 
ATOM     69  C   UNL A   1      46.517  35.164  27.401  1.00  0.00     0.020 A 
ATOM     70  C   UNL A   1      46.872  35.657  28.663  1.00  0.00     0.054 A 
BRANCH  70  71
ATOM     71  S   UNL A   1      47.217  37.429  28.861  1.00  0.00     0.124 S 
ATOM     72  O   UNL A   1      48.598  37.517  28.391  1.00  0.00    -0.237 OA
ATOM     73  O   UNL A   1      46.222  38.063  28.000  1.00  0.00    -0.237 OA
ATOM     74  O   UNL A   1      47.027  37.652  30.292  1.00  0.00    -0.744 OA
ENDBRANCH  70  71
ENDBRANCH  51  65
BRANCH  52  75
ATOM     75  C   UNL A   1      43.238  23.596  26.960  1.00  0.00    -0.014 A 
ATOM     76  C   UNL A   1      42.936  23.182  25.649  1.00  0.00     0.010 A 
ATOM     77  C   UNL A   1      43.140  22.681  28.025  1.00  0.00     0.010 A 
ATOM     78  C   UNL A   1      42.541  21.865  25.401  1.00  0.00     0.020 A 
ATOM     79  C   UNL A   1      42.752  21.363  27.778  1.00  0.00     0.020 A 
ATOM     80  C   UNL A   1      42.451  20.964  26.468  1.00  0.00     0.054 A 
BRANCH  80  81
ATOM     81  S   UNL A   1      42.019  19.231  26.142  1.00  0.00     0.124 S 
ATOM     82  O   UNL A   1      42.353  18.591  27.410  1.00  0.00    -0.237 OA
ATOM     83  O   UNL A   1      40.594  19.300  25.824  1.00  0.00    -0.237 OA
ATOM     84  O   UNL A   1      42.881  18.884  25.014  1.00  0.00    -0.744 OA
ENDBRANCH  80  81
ENDBRANCH  52  75
BRANCH  64  85
ATOM     85  C   UNL A   1      49.442  26.703  26.525  1.00  0.00    -0.014 A 
ATOM     86  C   UNL A   1      50.282  26.177  27.525  1.00  0.00     0.010 A 
ATOM     87  C   UNL A   1      49.879  26.726  25.187  1.00  0.00     0.010 A 
ATOM     88  C   UNL A   1      51.552  25.700  27.194  1.00  0.00     0.020 A 
ATOM     89  C   UNL A   1      51.146  26.243  24.853  1.00  0.00     0.020 A 
ATOM     90  C   UNL A   1      51.980  25.744  25.861  1.00  0.00     0.054 A 
BRANCH  90  91
ATOM     91  S   UNL A   1      53.619  25.094  25.426  1.00  0.00     0.124 S 
ATOM     92  O   UNL A   1      53.353  23.665  25.294  1.00  0.00    -0.237 OA
ATOM     93  O   UNL A   1      53.934  25.791  24.181  1.00  0.00    -0.237 OA
ATOM     94  O   UNL A   1      54.445  25.476  26.569  1.00  0.00    -0.744 OA
ENDBRANCH  90  91
ENDBRANCH  64  85
ENDBRANCH  38  39
ENDBRANCH  30  33
ENDBRANCH  28  29
ENDBRANCH  27  28
ENDBRANCH   1  27
TORSDOF 18
ENDMDL
