MODEL 1
REMARK VINA RESULT:     -11.8      0.000      0.000
REMARK SMILES O=C(NCCCCCCNC(=O)c1cc2cnc(Cl)cc2[nH]1)c1ccc(-c2c3nc(c(-c4ccc(S(=O)(=O)[O-])cc4)c4ccc([nH]4)c(-c4ccc(S(=O)(=O)[O-])cc4)c4nc(c(-c5ccc(S(=O)(=O)[O-])cc5)c5ccc2[nH]5)C=C4)C=C3)cc1
REMARK SMILES IDX 5 1 4 2 3 3 1 4 2 5 23 7 24 8 82 9 25 10 81 11 26 12 27 13
REMARK SMILES IDX 28 14 75 15 29 16 80 17 74 18 76 19 30 20 79 21 73 22 72 23
REMARK SMILES IDX 31 25 61 26 42 27 60 28 43 29 46 30 59 31 77 32 44 33 45 34
REMARK SMILES IDX 58 36 78 37 47 38 32 39 33 40 41 41 34 42 40 43 35 44 36 45
REMARK SMILES IDX 37 46 38 47 39 48 62 49 63 50 71 51 64 52 70 53 65 54 66 55
REMARK SMILES IDX 67 56 68 57 69 58 48 59 49 60 57 61 50 62 56 63 51 64 52 65
REMARK SMILES IDX 53 66 54 67 55 68 6 69 7 70 8 71 9 72 10 73 11 74 12 76
REMARK SMILES IDX 13 77 14 78 22 79 15 80 21 81 16 83 20 84 17 85 18 86 19 87
REMARK H PARENT 3 6 76 24 46 35 10 75 22 82
REMARK Flexibility Score: inf
ROOT
ATOM      1  C   UNL A   1      38.992  22.576  26.308  1.00  0.00     0.021 C 
ENDROOT
BRANCH   1   2
ATOM      2  C   UNL A   1      40.066  22.733  27.372  1.00  0.00     0.116 C 
BRANCH   2   3
ATOM      3  N   UNL A   1      41.406  22.311  26.941  1.00  0.00    -0.352 N 
ATOM      4  O   UNL A   1      43.288  22.613  25.679  1.00  0.00    -0.269 OA
ATOM      5  C   UNL A   1      42.387  23.103  26.354  1.00  0.00     0.251 C 
ATOM      6  H   UNL A   1      41.635  21.364  27.084  1.00  0.00     0.163 HD
BRANCH   5   7
ATOM      7  C   UNL A   1      42.317  24.555  26.591  1.00  0.00     0.039 A 
ATOM      8  C   UNL A   1      41.526  25.432  25.847  1.00  0.00     0.014 A 
ATOM      9  C   UNL A   1      42.992  24.990  27.720  1.00  0.00     0.014 A 
ATOM     10  C   UNL A   1      41.343  26.730  26.333  1.00  0.00     0.010 A 
ATOM     11  C   UNL A   1      42.570  26.134  28.327  1.00  0.00     0.010 A 
ATOM     12  C   UNL A   1      41.844  27.065  27.603  1.00  0.00    -0.014 A 
BRANCH  12  13
ATOM     13  C   UNL A   1      41.584  28.343  28.257  1.00  0.00     0.031 A 
ATOM     14  C   UNL A   1      42.573  29.410  27.978  1.00  0.00     0.074 A 
ATOM     15  C   UNL A   1      40.436  28.611  28.926  1.00  0.00     0.049 A 
ATOM     16  N   UNL A   1      43.464  29.858  28.796  1.00  0.00    -0.248 NA
ATOM     17  C   UNL A   1      42.700  29.937  26.611  1.00  0.00     0.031 C 
ATOM     18  C   UNL A   1      39.241  27.764  29.090  1.00  0.00     0.029 A 
ATOM     19  N   UNL A   1      40.043  29.770  29.517  1.00  0.00    -0.354 N 
ATOM     20  C   UNL A   1      44.112  30.890  28.133  1.00  0.00     0.074 A 
ATOM     21  C   UNL A   1      43.745  30.760  26.744  1.00  0.00     0.031 C 
ATOM     22  C   UNL A   1      38.193  28.515  29.491  1.00  0.00     0.029 A 
ATOM     23  C   UNL A   1      38.688  29.832  29.828  1.00  0.00     0.049 A 
ATOM     24  H   UNL A   1      40.668  30.506  29.711  1.00  0.00     0.167 HD
ATOM     25  C   UNL A   1      44.702  31.906  28.822  1.00  0.00     0.031 A 
ATOM     26  C   UNL A   1      38.015  30.881  30.360  1.00  0.00     0.031 A 
ATOM     27  C   UNL A   1      44.799  31.597  30.229  1.00  0.00     0.049 A 
ATOM     28  C   UNL A   1      39.022  31.711  31.059  1.00  0.00     0.074 A 
ATOM     29  C   UNL A   1      45.408  30.595  30.956  1.00  0.00     0.029 A 
ATOM     30  N   UNL A   1      43.837  32.139  31.052  1.00  0.00    -0.354 N 
ATOM     31  N   UNL A   1      39.673  31.301  32.112  1.00  0.00    -0.248 NA
ATOM     32  C   UNL A   1      39.640  32.802  30.326  1.00  0.00     0.031 C 
ATOM     33  C   UNL A   1      44.475  30.269  31.983  1.00  0.00     0.029 A 
ATOM     34  C   UNL A   1      43.392  31.148  31.892  1.00  0.00     0.049 A 
ATOM     35  H   UNL A   1      43.524  33.072  31.042  1.00  0.00     0.167 HD
ATOM     36  C   UNL A   1      40.971  31.745  31.913  1.00  0.00     0.074 A 
ATOM     37  C   UNL A   1      40.864  32.757  30.860  1.00  0.00     0.031 C 
ATOM     38  C   UNL A   1      42.040  31.057  32.415  1.00  0.00     0.031 A 
BRANCH  25  39
ATOM     39  C   UNL A   1      44.860  33.308  28.298  1.00  0.00    -0.014 A 
ATOM     40  C   UNL A   1      43.865  34.297  28.424  1.00  0.00     0.010 A 
ATOM     41  C   UNL A   1      46.133  33.734  27.865  1.00  0.00     0.010 A 
ATOM     42  C   UNL A   1      44.108  35.636  28.114  1.00  0.00     0.020 A 
ATOM     43  C   UNL A   1      46.401  35.083  27.594  1.00  0.00     0.020 A 
ATOM     44  C   UNL A   1      45.379  36.023  27.710  1.00  0.00     0.054 A 
BRANCH  44  45
ATOM     45  S   UNL A   1      45.676  37.780  27.401  1.00  0.00     0.124 S 
ATOM     46  O   UNL A   1      44.344  38.246  27.028  1.00  0.00    -0.237 OA
ATOM     47  O   UNL A   1      46.168  38.244  28.695  1.00  0.00    -0.237 OA
ATOM     48  O   UNL A   1      46.662  37.777  26.325  1.00  0.00    -0.744 OA
ENDBRANCH  44  45
ENDBRANCH  25  39
BRANCH  26  49
ATOM     49  C   UNL A   1      36.681  31.399  29.971  1.00  0.00    -0.014 A 
ATOM     50  C   UNL A   1      36.385  31.638  28.614  1.00  0.00     0.010 A 
ATOM     51  C   UNL A   1      35.837  31.974  30.943  1.00  0.00     0.010 A 
ATOM     52  C   UNL A   1      35.358  32.512  28.242  1.00  0.00     0.020 A 
ATOM     53  C   UNL A   1      34.806  32.853  30.575  1.00  0.00     0.020 A 
ATOM     54  C   UNL A   1      34.605  33.152  29.227  1.00  0.00     0.054 A 
BRANCH  54  55
ATOM     55  S   UNL A   1      33.446  34.453  28.717  1.00  0.00     0.124 S 
ATOM     56  O   UNL A   1      32.630  33.755  27.726  1.00  0.00    -0.237 OA
ATOM     57  O   UNL A   1      32.770  34.782  29.969  1.00  0.00    -0.237 OA
ATOM     58  O   UNL A   1      34.311  35.502  28.185  1.00  0.00    -0.744 OA
ENDBRANCH  54  55
ENDBRANCH  26  49
BRANCH  38  59
ATOM     59  C   UNL A   1      41.790  29.946  33.420  1.00  0.00    -0.014 A 
ATOM     60  C   UNL A   1      41.940  30.263  34.783  1.00  0.00     0.010 A 
ATOM     61  C   UNL A   1      41.599  28.591  33.073  1.00  0.00     0.010 A 
ATOM     62  C   UNL A   1      41.937  29.270  35.764  1.00  0.00     0.020 A 
ATOM     63  C   UNL A   1      41.566  27.589  34.058  1.00  0.00     0.020 A 
ATOM     64  C   UNL A   1      41.758  27.935  35.398  1.00  0.00     0.054 A 
BRANCH  64  65
ATOM     65  S   UNL A   1      41.801  26.678  36.705  1.00  0.00     0.124 S 
ATOM     66  O   UNL A   1      40.569  26.951  37.441  1.00  0.00    -0.237 OA
ATOM     67  O   UNL A   1      41.810  25.427  35.949  1.00  0.00    -0.237 OA
ATOM     68  O   UNL A   1      43.034  26.966  37.435  1.00  0.00    -0.744 OA
ENDBRANCH  64  65
ENDBRANCH  38  59
ENDBRANCH  12  13
ENDBRANCH   5   7
ENDBRANCH   2   3
ENDBRANCH   1   2
BRANCH   1  69
ATOM     69  C   UNL A   1      37.992  23.738  26.213  1.00  0.00     0.002 C 
BRANCH  69  70
ATOM     70  C   UNL A   1      36.698  23.509  25.415  1.00  0.00     0.002 C 
BRANCH  70  71
ATOM     71  C   UNL A   1      36.089  22.106  25.464  1.00  0.00     0.021 C 
BRANCH  71  72
ATOM     72  C   UNL A   1      34.943  21.916  26.454  1.00  0.00     0.116 C 
BRANCH  72  73
ATOM     73  N   UNL A   1      33.731  22.624  26.072  1.00  0.00    -0.351 N 
ATOM     74  C   UNL A   1      32.667  22.195  25.314  1.00  0.00     0.267 C 
ATOM     75  H   UNL A   1      33.662  23.548  26.405  1.00  0.00     0.163 HD
ATOM     76  O   UNL A   1      31.816  23.016  24.979  1.00  0.00    -0.268 OA
BRANCH  74  77
ATOM     77  C   UNL A   1      32.613  20.803  24.949  1.00  0.00     0.105 A 
ATOM     78  C   UNL A   1      32.746  20.224  23.699  1.00  0.00     0.043 A 
ATOM     79  N   UNL A   1      32.380  19.770  25.829  1.00  0.00    -0.350 N 
ATOM     80  C   UNL A   1      32.835  18.814  23.874  1.00  0.00     0.019 A 
ATOM     81  C   UNL A   1      32.642  18.564  25.232  1.00  0.00     0.051 A 
ATOM     82  H   UNL A   1      32.068  19.882  26.756  1.00  0.00     0.167 HD
ATOM     83  C   UNL A   1      33.100  17.729  23.027  1.00  0.00     0.123 A 
ATOM     84  C   UNL A   1      32.742  17.287  25.776  1.00  0.00     0.067 A 
ATOM     85  N   UNL A   1      33.177  16.471  23.529  1.00  0.00    -0.244 NA
ATOM     86  C   UNL A   1      33.028  16.292  24.856  1.00  0.00     0.131 A 
ATOM     87  Cl  UNL A   1      33.219  14.669  25.384  1.00  0.00    -0.062 Cl
ENDBRANCH  74  77
ENDBRANCH  72  73
ENDBRANCH  71  72
ENDBRANCH  70  71
ENDBRANCH  69  70
ENDBRANCH   1  69
TORSDOF 16
ENDMDL
MODEL 2
REMARK VINA RESULT:     -11.7      3.479      8.093
REMARK SMILES O=C(NCCCCCCNC(=O)c1cc2cnc(Cl)cc2[nH]1)c1ccc(-c2c3nc(c(-c4ccc(S(=O)(=O)[O-])cc4)c4ccc([nH]4)c(-c4ccc(S(=O)(=O)[O-])cc4)c4nc(c(-c5ccc(S(=O)(=O)[O-])cc5)c5ccc2[nH]5)C=C4)C=C3)cc1
REMARK SMILES IDX 5 1 4 2 3 3 1 4 2 5 23 7 24 8 82 9 25 10 81 11 26 12 27 13
REMARK SMILES IDX 28 14 75 15 29 16 80 17 74 18 76 19 30 20 79 21 73 22 72 23
REMARK SMILES IDX 31 25 61 26 42 27 60 28 43 29 46 30 59 31 77 32 44 33 45 34
REMARK SMILES IDX 58 36 78 37 47 38 32 39 33 40 41 41 34 42 40 43 35 44 36 45
REMARK SMILES IDX 37 46 38 47 39 48 62 49 63 50 71 51 64 52 70 53 65 54 66 55
REMARK SMILES IDX 67 56 68 57 69 58 48 59 49 60 57 61 50 62 56 63 51 64 52 65
REMARK SMILES IDX 53 66 54 67 55 68 6 69 7 70 8 71 9 72 10 73 11 74 12 76
REMARK SMILES IDX 13 77 14 78 22 79 15 80 21 81 16 83 20 84 17 85 18 86 19 87
REMARK H PARENT 3 6 76 24 46 35 10 75 22 82
REMARK Flexibility Score: inf
ROOT
ATOM      1  C   UNL A   1      37.467  20.431  24.699  1.00  0.00     0.021 C 
ENDROOT
BRANCH   1   2
ATOM      2  C   UNL A   1      38.696  20.694  25.554  1.00  0.00     0.116 C 
BRANCH   2   3
ATOM      3  N   UNL A   1      39.551  19.516  25.757  1.00  0.00    -0.352 N 
ATOM      4  O   UNL A   1      41.599  18.500  25.710  1.00  0.00    -0.269 OA
ATOM      5  C   UNL A   1      40.929  19.502  25.945  1.00  0.00     0.251 C 
ATOM      6  H   UNL A   1      39.100  18.641  25.761  1.00  0.00     0.163 HD
BRANCH   5   7
ATOM      7  C   UNL A   1      41.556  20.732  26.459  1.00  0.00     0.039 A 
ATOM      8  C   UNL A   1      41.967  21.796  25.654  1.00  0.00     0.014 A 
ATOM      9  C   UNL A   1      41.582  20.834  27.840  1.00  0.00     0.014 A 
ATOM     10  C   UNL A   1      42.299  23.004  26.275  1.00  0.00     0.010 A 
ATOM     11  C   UNL A   1      41.615  22.076  28.398  1.00  0.00     0.010 A 
ATOM     12  C   UNL A   1      42.084  23.148  27.657  1.00  0.00    -0.014 A 
BRANCH  12  13
ATOM     13  C   UNL A   1      42.264  24.408  28.371  1.00  0.00     0.031 A 
ATOM     14  C   UNL A   1      41.183  25.403  28.178  1.00  0.00     0.074 A 
ATOM     15  C   UNL A   1      43.242  24.605  29.288  1.00  0.00     0.049 A 
ATOM     16  N   UNL A   1      41.257  26.484  27.478  1.00  0.00    -0.248 NA
ATOM     17  C   UNL A   1      39.833  25.109  28.680  1.00  0.00     0.031 C 
ATOM     18  C   UNL A   1      44.246  23.651  29.790  1.00  0.00     0.029 A 
ATOM     19  N   UNL A   1      43.476  25.696  30.064  1.00  0.00    -0.354 N 
ATOM     20  C   UNL A   1      40.042  27.132  27.642  1.00  0.00     0.074 A 
ATOM     21  C   UNL A   1      39.147  26.157  28.215  1.00  0.00     0.031 C 
ATOM     22  C   UNL A   1      44.785  24.109  30.940  1.00  0.00     0.029 A 
ATOM     23  C   UNL A   1      44.340  25.472  31.132  1.00  0.00     0.049 A 
ATOM     24  H   UNL A   1      43.069  26.574  29.885  1.00  0.00     0.167 HD
ATOM     25  C   UNL A   1      39.946  28.485  27.514  1.00  0.00     0.031 A 
ATOM     26  C   UNL A   1      44.700  26.354  32.096  1.00  0.00     0.031 A 
ATOM     27  C   UNL A   1      41.143  29.043  26.931  1.00  0.00     0.049 A 
ATOM     28  C   UNL A   1      44.483  27.704  31.527  1.00  0.00     0.074 A 
ATOM     29  C   UNL A   1      41.808  28.861  25.736  1.00  0.00     0.029 A 
ATOM     30  N   UNL A   1      42.057  29.597  27.799  1.00  0.00    -0.354 N 
ATOM     31  N   UNL A   1      45.172  28.170  30.524  1.00  0.00    -0.248 NA
ATOM     32  C   UNL A   1      43.204  28.351  31.763  1.00  0.00     0.031 C 
ATOM     33  C   UNL A   1      43.190  28.863  26.082  1.00  0.00     0.029 A 
ATOM     34  C   UNL A   1      43.304  29.142  27.447  1.00  0.00     0.049 A 
ATOM     35  H   UNL A   1      41.854  30.212  28.540  1.00  0.00     0.167 HD
ATOM     36  C   UNL A   1      44.240  28.828  29.736  1.00  0.00     0.074 A 
ATOM     37  C   UNL A   1      43.074  29.004  30.605  1.00  0.00     0.031 C 
ATOM     38  C   UNL A   1      44.393  28.915  28.382  1.00  0.00     0.031 A 
BRANCH  25  39
ATOM     39  C   UNL A   1      38.936  29.336  28.237  1.00  0.00    -0.014 A 
ATOM     40  C   UNL A   1      39.225  30.038  29.424  1.00  0.00     0.010 A 
ATOM     41  C   UNL A   1      37.718  29.641  27.596  1.00  0.00     0.010 A 
ATOM     42  C   UNL A   1      38.343  30.976  29.963  1.00  0.00     0.020 A 
ATOM     43  C   UNL A   1      36.845  30.612  28.105  1.00  0.00     0.020 A 
ATOM     44  C   UNL A   1      37.161  31.265  29.294  1.00  0.00     0.054 A 
BRANCH  44  45
ATOM     45  S   UNL A   1      36.087  32.547  29.980  1.00  0.00     0.124 S 
ATOM     46  O   UNL A   1      35.219  32.847  28.844  1.00  0.00    -0.237 OA
ATOM     47  O   UNL A   1      35.449  31.854  31.095  1.00  0.00    -0.237 OA
ATOM     48  O   UNL A   1      37.015  33.609  30.355  1.00  0.00    -0.744 OA
ENDBRANCH  44  45
ENDBRANCH  25  39
BRANCH  26  49
ATOM     49  C   UNL A   1      44.824  26.110  33.553  1.00  0.00    -0.014 A 
ATOM     50  C   UNL A   1      43.871  25.314  34.220  1.00  0.00     0.010 A 
ATOM     51  C   UNL A   1      45.667  26.926  34.335  1.00  0.00     0.010 A 
ATOM     52  C   UNL A   1      43.685  25.416  35.603  1.00  0.00     0.020 A 
ATOM     53  C   UNL A   1      45.485  27.033  35.723  1.00  0.00     0.020 A 
ATOM     54  C   UNL A   1      44.462  26.310  36.339  1.00  0.00     0.054 A 
BRANCH  54  55
ATOM     55  S   UNL A   1      44.036  26.589  38.083  1.00  0.00     0.124 S 
ATOM     56  O   UNL A   1      42.593  26.360  38.078  1.00  0.00    -0.237 OA
ATOM     57  O   UNL A   1      44.831  25.574  38.768  1.00  0.00    -0.237 OA
ATOM     58  O   UNL A   1      44.448  27.969  38.325  1.00  0.00    -0.744 OA
ENDBRANCH  54  55
ENDBRANCH  26  49
BRANCH  38  59
ATOM     59  C   UNL A   1      45.725  28.521  27.767  1.00  0.00    -0.014 A 
ATOM     60  C   UNL A   1      46.629  29.557  27.468  1.00  0.00     0.010 A 
ATOM     61  C   UNL A   1      46.035  27.221  27.314  1.00  0.00     0.010 A 
ATOM     62  C   UNL A   1      47.782  29.320  26.718  1.00  0.00     0.020 A 
ATOM     63  C   UNL A   1      47.208  26.969  26.582  1.00  0.00     0.020 A 
ATOM     64  C   UNL A   1      48.063  28.029  26.270  1.00  0.00     0.054 A 
BRANCH  64  65
ATOM     65  S   UNL A   1      49.553  27.779  25.264  1.00  0.00     0.124 S 
ATOM     66  O   UNL A   1      50.364  28.942  25.615  1.00  0.00    -0.237 OA
ATOM     67  O   UNL A   1      50.060  26.498  25.752  1.00  0.00    -0.237 OA
ATOM     68  O   UNL A   1      49.056  27.763  23.890  1.00  0.00    -0.744 OA
ENDBRANCH  64  65
ENDBRANCH  38  59
ENDBRANCH  12  13
ENDBRANCH   5   7
ENDBRANCH   2   3
ENDBRANCH   1   2
BRANCH   1  69
ATOM     69  C   UNL A   1      36.462  21.591  24.627  1.00  0.00     0.002 C 
BRANCH  69  70
ATOM     70  C   UNL A   1      36.354  22.524  25.844  1.00  0.00     0.002 C 
BRANCH  70  71
ATOM     71  C   UNL A   1      35.862  23.950  25.587  1.00  0.00     0.021 C 
BRANCH  71  72
ATOM     72  C   UNL A   1      34.369  24.095  25.304  1.00  0.00     0.116 C 
BRANCH  72  73
ATOM     73  N   UNL A   1      33.543  23.950  26.493  1.00  0.00    -0.351 N 
ATOM     74  C   UNL A   1      32.633  22.971  26.815  1.00  0.00     0.267 C 
ATOM     75  H   UNL A   1      33.653  24.659  27.168  1.00  0.00     0.163 HD
ATOM     76  O   UNL A   1      31.925  23.131  27.806  1.00  0.00    -0.268 OA
BRANCH  74  77
ATOM     77  C   UNL A   1      32.557  21.812  25.963  1.00  0.00     0.105 A 
ATOM     78  C   UNL A   1      31.963  21.683  24.719  1.00  0.00     0.043 A 
ATOM     79  N   UNL A   1      33.063  20.572  26.280  1.00  0.00    -0.350 N 
ATOM     80  C   UNL A   1      32.334  20.416  24.185  1.00  0.00     0.019 A 
ATOM     81  C   UNL A   1      33.061  19.758  25.176  1.00  0.00     0.051 A 
ATOM     82  H   UNL A   1      33.381  20.307  27.173  1.00  0.00     0.167 HD
ATOM     83  C   UNL A   1      32.163  19.779  22.948  1.00  0.00     0.123 A 
ATOM     84  C   UNL A   1      33.650  18.515  24.967  1.00  0.00     0.067 A 
ATOM     85  N   UNL A   1      32.706  18.554  22.728  1.00  0.00    -0.244 NA
ATOM     86  C   UNL A   1      33.438  17.984  23.705  1.00  0.00     0.131 A 
ATOM     87  Cl  UNL A   1      34.134  16.472  23.286  1.00  0.00    -0.062 Cl
ENDBRANCH  74  77
ENDBRANCH  72  73
ENDBRANCH  71  72
ENDBRANCH  70  71
ENDBRANCH  69  70
ENDBRANCH   1  69
TORSDOF 16
ENDMDL
MODEL 3
REMARK VINA RESULT:     -11.6      2.643      3.752
REMARK SMILES O=C(NCCCCCCNC(=O)c1cc2cnc(Cl)cc2[nH]1)c1ccc(-c2c3nc(c(-c4ccc(S(=O)(=O)[O-])cc4)c4ccc([nH]4)c(-c4ccc(S(=O)(=O)[O-])cc4)c4nc(c(-c5ccc(S(=O)(=O)[O-])cc5)c5ccc2[nH]5)C=C4)C=C3)cc1
REMARK SMILES IDX 5 1 4 2 3 3 1 4 2 5 23 7 24 8 82 9 25 10 81 11 26 12 27 13
REMARK SMILES IDX 28 14 75 15 29 16 80 17 74 18 76 19 30 20 79 21 73 22 72 23
REMARK SMILES IDX 31 25 61 26 42 27 60 28 43 29 46 30 59 31 77 32 44 33 45 34
REMARK SMILES IDX 58 36 78 37 47 38 32 39 33 40 41 41 34 42 40 43 35 44 36 45
REMARK SMILES IDX 37 46 38 47 39 48 62 49 63 50 71 51 64 52 70 53 65 54 66 55
REMARK SMILES IDX 67 56 68 57 69 58 48 59 49 60 57 61 50 62 56 63 51 64 52 65
REMARK SMILES IDX 53 66 54 67 55 68 6 69 7 70 8 71 9 72 10 73 11 74 12 76
REMARK SMILES IDX 13 77 14 78 22 79 15 80 21 81 16 83 20 84 17 85 18 86 19 87
REMARK H PARENT 3 6 76 24 46 35 10 75 22 82
REMARK Flexibility Score: inf
ROOT
ATOM      1  C   UNL A   1      38.326  22.144  26.011  1.00  0.00     0.021 C 
ENDROOT
BRANCH   1   2
ATOM      2  C   UNL A   1      39.456  22.972  26.603  1.00  0.00     0.116 C 
BRANCH   2   3
ATOM      3  N   UNL A   1      40.789  22.377  26.438  1.00  0.00    -0.352 N 
ATOM      4  O   UNL A   1      42.927  22.455  25.632  1.00  0.00    -0.269 OA
ATOM      5  C   UNL A   1      41.972  23.041  26.134  1.00  0.00     0.251 C 
ATOM      6  H   UNL A   1      40.852  21.402  26.556  1.00  0.00     0.163 HD
BRANCH   5   7
ATOM      7  C   UNL A   1      42.047  24.477  26.457  1.00  0.00     0.039 A 
ATOM      8  C   UNL A   1      41.590  25.494  25.616  1.00  0.00     0.014 A 
ATOM      9  C   UNL A   1      42.477  24.758  27.744  1.00  0.00     0.014 A 
ATOM     10  C   UNL A   1      41.472  26.784  26.143  1.00  0.00     0.010 A 
ATOM     11  C   UNL A   1      42.081  25.927  28.319  1.00  0.00     0.010 A 
ATOM     12  C   UNL A   1      41.689  26.987  27.517  1.00  0.00    -0.014 A 
BRANCH  12  13
ATOM     13  C   UNL A   1      41.454  28.262  28.186  1.00  0.00     0.031 A 
ATOM     14  C   UNL A   1      42.463  29.313  27.918  1.00  0.00     0.074 A 
ATOM     15  C   UNL A   1      40.313  28.544  28.860  1.00  0.00     0.049 A 
ATOM     16  N   UNL A   1      43.364  29.733  28.740  1.00  0.00    -0.248 NA
ATOM     17  C   UNL A   1      42.598  29.853  26.557  1.00  0.00     0.031 C 
ATOM     18  C   UNL A   1      39.102  27.718  29.017  1.00  0.00     0.029 A 
ATOM     19  N   UNL A   1      39.943  29.703  29.466  1.00  0.00    -0.354 N 
ATOM     20  C   UNL A   1      44.031  30.760  28.087  1.00  0.00     0.074 A 
ATOM     21  C   UNL A   1      43.659  30.654  26.698  1.00  0.00     0.031 C 
ATOM     22  C   UNL A   1      38.069  28.484  29.428  1.00  0.00     0.029 A 
ATOM     23  C   UNL A   1      38.590  29.787  29.779  1.00  0.00     0.049 A 
ATOM     24  H   UNL A   1      40.581  30.425  29.667  1.00  0.00     0.167 HD
ATOM     25  C   UNL A   1      44.641  31.757  28.788  1.00  0.00     0.031 A 
ATOM     26  C   UNL A   1      37.937  30.842  30.325  1.00  0.00     0.031 A 
ATOM     27  C   UNL A   1      44.734  31.430  30.191  1.00  0.00     0.049 A 
ATOM     28  C   UNL A   1      38.962  31.644  31.032  1.00  0.00     0.074 A 
ATOM     29  C   UNL A   1      45.325  30.408  30.906  1.00  0.00     0.029 A 
ATOM     30  N   UNL A   1      43.784  31.980  31.022  1.00  0.00    -0.354 N 
ATOM     31  N   UNL A   1      39.606  31.210  32.078  1.00  0.00    -0.248 NA
ATOM     32  C   UNL A   1      39.599  32.732  30.311  1.00  0.00     0.031 C 
ATOM     33  C   UNL A   1      44.387  30.088  31.930  1.00  0.00     0.029 A 
ATOM     34  C   UNL A   1      43.321  30.989  31.851  1.00  0.00     0.049 A 
ATOM     35  H   UNL A   1      43.489  32.920  31.024  1.00  0.00     0.167 HD
ATOM     36  C   UNL A   1      40.912  31.631  31.883  1.00  0.00     0.074 A 
ATOM     37  C   UNL A   1      40.822  32.657  30.842  1.00  0.00     0.031 C 
ATOM     38  C   UNL A   1      41.968  30.917  32.375  1.00  0.00     0.031 A 
BRANCH  25  39
ATOM     39  C   UNL A   1      44.825  33.162  28.280  1.00  0.00    -0.014 A 
ATOM     40  C   UNL A   1      43.789  34.117  28.255  1.00  0.00     0.010 A 
ATOM     41  C   UNL A   1      46.131  33.630  28.028  1.00  0.00     0.010 A 
ATOM     42  C   UNL A   1      44.030  35.463  27.972  1.00  0.00     0.020 A 
ATOM     43  C   UNL A   1      46.390  34.986  27.786  1.00  0.00     0.020 A 
ATOM     44  C   UNL A   1      45.332  35.891  27.749  1.00  0.00     0.054 A 
BRANCH  44  45
ATOM     45  S   UNL A   1      45.611  37.656  27.471  1.00  0.00     0.124 S 
ATOM     46  O   UNL A   1      44.372  38.052  26.809  1.00  0.00    -0.237 OA
ATOM     47  O   UNL A   1      45.789  38.160  28.830  1.00  0.00    -0.237 OA
ATOM     48  O   UNL A   1      46.805  37.686  26.633  1.00  0.00    -0.744 OA
ENDBRANCH  44  45
ENDBRANCH  25  39
BRANCH  26  49
ATOM     49  C   UNL A   1      36.613  31.390  29.944  1.00  0.00    -0.014 A 
ATOM     50  C   UNL A   1      36.342  31.712  28.599  1.00  0.00     0.010 A 
ATOM     51  C   UNL A   1      35.755  31.911  30.934  1.00  0.00     0.010 A 
ATOM     52  C   UNL A   1      35.326  32.613  28.262  1.00  0.00     0.020 A 
ATOM     53  C   UNL A   1      34.734  32.816  30.602  1.00  0.00     0.020 A 
ATOM     54  C   UNL A   1      34.559  33.196  29.270  1.00  0.00     0.054 A 
BRANCH  54  55
ATOM     55  S   UNL A   1      33.415  34.533  28.819  1.00  0.00     0.124 S 
ATOM     56  O   UNL A   1      34.329  35.543  28.291  1.00  0.00    -0.237 OA
ATOM     57  O   UNL A   1      32.552  33.889  27.832  1.00  0.00    -0.237 OA
ATOM     58  O   UNL A   1      32.766  34.876  30.082  1.00  0.00    -0.744 OA
ENDBRANCH  54  55
ENDBRANCH  26  49
BRANCH  38  59
ATOM     59  C   UNL A   1      41.698  29.799  33.368  1.00  0.00    -0.014 A 
ATOM     60  C   UNL A   1      41.980  30.058  34.722  1.00  0.00     0.010 A 
ATOM     61  C   UNL A   1      41.362  28.478  33.002  1.00  0.00     0.010 A 
ATOM     62  C   UNL A   1      41.964  29.037  35.674  1.00  0.00     0.020 A 
ATOM     63  C   UNL A   1      41.316  27.450  33.960  1.00  0.00     0.020 A 
ATOM     64  C   UNL A   1      41.640  27.735  35.288  1.00  0.00     0.054 A 
BRANCH  64  65
ATOM     65  S   UNL A   1      41.671  26.437  36.555  1.00  0.00     0.124 S 
ATOM     66  O   UNL A   1      43.021  26.566  37.100  1.00  0.00    -0.237 OA
ATOM     67  O   UNL A   1      40.595  26.841  37.457  1.00  0.00    -0.237 OA
ATOM     68  O   UNL A   1      41.420  25.206  35.809  1.00  0.00    -0.744 OA
ENDBRANCH  64  65
ENDBRANCH  38  59
ENDBRANCH  12  13
ENDBRANCH   5   7
ENDBRANCH   2   3
ENDBRANCH   1   2
BRANCH   1  69
ATOM     69  C   UNL A   1      37.345  22.921  25.121  1.00  0.00     0.002 C 
BRANCH  69  70
ATOM     70  C   UNL A   1      35.843  22.637  25.289  1.00  0.00     0.002 C 
BRANCH  70  71
ATOM     71  C   UNL A   1      34.925  23.843  25.493  1.00  0.00     0.021 C 
BRANCH  71  72
ATOM     72  C   UNL A   1      33.504  23.692  24.958  1.00  0.00     0.116 C 
BRANCH  72  73
ATOM     73  N   UNL A   1      32.559  23.226  25.962  1.00  0.00    -0.351 N 
ATOM     74  C   UNL A   1      31.506  23.886  26.549  1.00  0.00     0.267 C 
ATOM     75  H   UNL A   1      32.695  22.299  26.267  1.00  0.00     0.163 HD
ATOM     76  O   UNL A   1      30.933  23.354  27.496  1.00  0.00    -0.268 OA
BRANCH  74  77
ATOM     77  C   UNL A   1      31.136  25.175  26.022  1.00  0.00     0.105 A 
ATOM     78  C   UNL A   1      31.668  26.419  26.311  1.00  0.00     0.043 A 
ATOM     79  N   UNL A   1      30.120  25.390  25.118  1.00  0.00    -0.350 N 
ATOM     80  C   UNL A   1      31.124  27.356  25.386  1.00  0.00     0.019 A 
ATOM     81  C   UNL A   1      30.183  26.667  24.622  1.00  0.00     0.051 A 
ATOM     82  H   UNL A   1      29.444  24.722  24.865  1.00  0.00     0.167 HD
ATOM     83  C   UNL A   1      31.364  28.705  25.092  1.00  0.00     0.123 A 
ATOM     84  C   UNL A   1      29.507  27.260  23.560  1.00  0.00     0.067 A 
ATOM     85  N   UNL A   1      30.698  29.313  24.077  1.00  0.00    -0.244 NA
ATOM     86  C   UNL A   1      29.834  28.588  23.342  1.00  0.00     0.131 A 
ATOM     87  Cl  UNL A   1      29.108  29.444  22.043  1.00  0.00    -0.062 Cl
ENDBRANCH  74  77
ENDBRANCH  72  73
ENDBRANCH  71  72
ENDBRANCH  70  71
ENDBRANCH  69  70
ENDBRANCH   1  69
TORSDOF 16
ENDMDL
