MODEL 1
REMARK VINA RESULT:     -10.1      0.000      0.000
REMARK SMILES C[C@H](Nc1ccc(F)cc1Br)[C@@H](C)C(=O)NCCCCCCNC(=O)c1ccc(-c2c3nc(c(-c4ccc(S(=O)(=O)[O-])cc4)c4ccc([nH]4)c(-c4ccc(S(=O)(=O)[O-])cc4)c4nc(c(-c5ccc(S(=O)(=O)[O-])cc5)c5ccc2[nH]5)C=C4)C=C3)cc1
REMARK SMILES IDX 19 1 18 2 17 3 16 4 14 5 15 6 12 8 13 9 2 10 1 11 3 12 4 14
REMARK SMILES IDX 5 15 10 16 6 17 9 18 11 19 7 20 8 21 20 22 21 23 22 24 23 25
REMARK SMILES IDX 24 26 25 28 26 29 27 30 85 31 28 32 84 33 29 34 30 35 31 36
REMARK SMILES IDX 78 37 32 38 83 39 77 40 79 41 33 42 82 43 76 44 75 45 34 47
REMARK SMILES IDX 64 48 45 49 63 50 46 51 49 52 62 53 80 54 47 55 48 56 61 58
REMARK SMILES IDX 81 59 50 60 35 61 36 62 44 63 37 64 43 65 38 66 39 67 40 68
REMARK SMILES IDX 41 69 42 70 65 71 66 72 74 73 67 74 73 75 68 76 69 77 70 78
REMARK SMILES IDX 71 79 72 80 51 81 52 82 60 83 53 84 59 85 54 86 55 87 56 88
REMARK SMILES IDX 57 89 58 90
REMARK H PARENT 16 7 3 13 23 27 79 46 49 57
REMARK Flexibility Score: inf
ROOT
ATOM      1  C   UNL A   1      31.355  27.677  24.324  1.00  0.00     0.002 C 
ENDROOT
BRANCH   1   2
ATOM      2  C   UNL A   1      29.913  27.263  24.010  1.00  0.00     0.021 C 
BRANCH   2   3
ATOM      3  C   UNL A   1      29.628  25.781  24.248  1.00  0.00     0.116 C 
BRANCH   3   4
ATOM      4  N   UNL A   1      30.130  25.352  25.542  1.00  0.00    -0.356 N 
ATOM      5  C   UNL A   1      30.912  24.299  25.899  1.00  0.00     0.224 C 
ATOM      6  O   UNL A   1      31.134  24.137  27.103  1.00  0.00    -0.275 OA
ATOM      7  H   UNL A   1      29.856  25.926  26.294  1.00  0.00     0.163 HD
BRANCH   5   8
ATOM      8  C   UNL A   1      31.514  23.346  24.872  1.00  0.00     0.097 C 
ATOM      9  C   UNL A   1      31.450  21.907  25.392  1.00  0.00     0.020 C 
BRANCH   8  10
ATOM     10  C   UNL A   1      32.895  23.832  24.384  1.00  0.00     0.088 C 
ATOM     11  C   UNL A   1      32.756  24.670  23.103  1.00  0.00     0.031 C 
BRANCH  10  12
ATOM     12  N   UNL A   1      33.783  22.698  24.113  1.00  0.00    -0.381 N 
ATOM     13  H   UNL A   1      33.471  21.966  23.534  1.00  0.00     0.160 HD
BRANCH  12  14
ATOM     14  C   UNL A   1      35.063  22.639  24.666  1.00  0.00     0.049 A 
ATOM     15  C   UNL A   1      35.864  23.786  24.790  1.00  0.00     0.030 A 
ATOM     16  C   UNL A   1      35.622  21.405  25.059  1.00  0.00     0.044 A 
ATOM     17  C   UNL A   1      37.180  23.701  25.255  1.00  0.00     0.041 A 
ATOM     18  C   UNL A   1      36.937  21.315  25.519  1.00  0.00     0.057 A 
ATOM     19  Br  UNL A   1      34.615  19.795  24.930  1.00  0.00    -0.048 Br
ATOM     20  C   UNL A   1      37.705  22.466  25.604  1.00  0.00     0.124 A 
ATOM     21  F   UNL A   1      38.973  22.383  26.024  1.00  0.00    -0.207 F 
ENDBRANCH  12  14
ENDBRANCH  10  12
ENDBRANCH   8  10
ENDBRANCH   5   8
ENDBRANCH   3   4
ENDBRANCH   2   3
ENDBRANCH   1   2
BRANCH   1  22
ATOM     22  C   UNL A   1      31.519  28.538  25.580  1.00  0.00     0.002 C 
BRANCH  22  23
ATOM     23  C   UNL A   1      32.239  27.851  26.743  1.00  0.00     0.021 C 
BRANCH  23  24
ATOM     24  C   UNL A   1      33.597  28.453  27.085  1.00  0.00     0.116 C 
BRANCH  24  25
ATOM     25  N   UNL A   1      33.493  29.867  27.412  1.00  0.00    -0.352 N 
ATOM     26  C   UNL A   1      34.382  30.666  28.086  1.00  0.00     0.251 C 
ATOM     27  H   UNL A   1      32.670  30.313  27.107  1.00  0.00     0.163 HD
ATOM     28  O   UNL A   1      34.035  31.781  28.471  1.00  0.00    -0.269 OA
BRANCH  26  29
ATOM     29  C   UNL A   1      35.747  30.174  28.361  1.00  0.00     0.039 A 
ATOM     30  C   UNL A   1      36.699  30.204  27.341  1.00  0.00     0.014 A 
ATOM     31  C   UNL A   1      36.085  29.686  29.628  1.00  0.00     0.014 A 
ATOM     32  C   UNL A   1      38.008  29.800  27.608  1.00  0.00     0.010 A 
ATOM     33  C   UNL A   1      37.407  29.356  29.911  1.00  0.00     0.010 A 
ATOM     34  C   UNL A   1      38.382  29.406  28.904  1.00  0.00    -0.014 A 
BRANCH  34  35
ATOM     35  C   UNL A   1      39.787  29.050  29.226  1.00  0.00     0.031 A 
ATOM     36  C   UNL A   1      40.698  30.066  29.863  1.00  0.00     0.074 A 
ATOM     37  C   UNL A   1      40.260  27.834  28.891  1.00  0.00     0.049 A 
ATOM     38  N   UNL A   1      41.967  29.959  30.165  1.00  0.00    -0.248 NA
ATOM     39  C   UNL A   1      40.115  31.381  30.178  1.00  0.00     0.031 C 
ATOM     40  C   UNL A   1      39.487  26.775  28.237  1.00  0.00     0.029 A 
ATOM     41  N   UNL A   1      41.507  27.282  29.047  1.00  0.00    -0.354 N 
ATOM     42  C   UNL A   1      42.335  31.192  30.691  1.00  0.00     0.074 A 
ATOM     43  C   UNL A   1      41.172  32.048  30.617  1.00  0.00     0.031 C 
ATOM     44  C   UNL A   1      40.268  25.694  28.075  1.00  0.00     0.029 A 
ATOM     45  C   UNL A   1      41.608  25.997  28.568  1.00  0.00     0.049 A 
ATOM     46  H   UNL A   1      42.260  27.763  29.463  1.00  0.00     0.167 HD
ATOM     47  C   UNL A   1      43.530  31.571  31.207  1.00  0.00     0.031 A 
ATOM     48  C   UNL A   1      42.662  25.159  28.518  1.00  0.00     0.031 A 
ATOM     49  C   UNL A   1      44.682  30.714  31.280  1.00  0.00     0.049 A 
ATOM     50  C   UNL A   1      43.984  25.613  29.072  1.00  0.00     0.074 A 
ATOM     51  C   UNL A   1      45.922  30.987  31.833  1.00  0.00     0.029 A 
ATOM     52  N   UNL A   1      44.743  29.420  30.784  1.00  0.00    -0.354 N 
ATOM     53  N   UNL A   1      44.295  26.760  29.628  1.00  0.00    -0.248 NA
ATOM     54  C   UNL A   1      45.097  24.655  29.004  1.00  0.00     0.031 C 
ATOM     55  C   UNL A   1      46.751  29.882  31.612  1.00  0.00     0.029 A 
ATOM     56  C   UNL A   1      46.008  28.894  30.988  1.00  0.00     0.049 A 
ATOM     57  H   UNL A   1      43.998  28.946  30.350  1.00  0.00     0.167 HD
ATOM     58  C   UNL A   1      45.631  26.651  30.001  1.00  0.00     0.074 A 
ATOM     59  C   UNL A   1      46.062  25.321  29.623  1.00  0.00     0.031 C 
ATOM     60  C   UNL A   1      46.425  27.568  30.605  1.00  0.00     0.031 A 
BRANCH  47  61
ATOM     61  C   UNL A   1      43.651  32.982  31.722  1.00  0.00    -0.014 A 
ATOM     62  C   UNL A   1      43.743  33.250  33.101  1.00  0.00     0.010 A 
ATOM     63  C   UNL A   1      43.721  34.054  30.814  1.00  0.00     0.010 A 
ATOM     64  C   UNL A   1      43.857  34.564  33.562  1.00  0.00     0.020 A 
ATOM     65  C   UNL A   1      43.868  35.369  31.270  1.00  0.00     0.020 A 
ATOM     66  C   UNL A   1      43.918  35.615  32.643  1.00  0.00     0.054 A 
BRANCH  66  67
ATOM     67  S   UNL A   1      44.089  37.308  33.271  1.00  0.00     0.124 S 
ATOM     68  O   UNL A   1      44.024  38.093  32.042  1.00  0.00    -0.237 OA
ATOM     69  O   UNL A   1      42.936  37.436  34.159  1.00  0.00    -0.237 OA
ATOM     70  O   UNL A   1      45.389  37.302  33.939  1.00  0.00    -0.744 OA
ENDBRANCH  66  67
ENDBRANCH  47  61
BRANCH  48  71
ATOM     71  C   UNL A   1      42.505  23.801  27.926  1.00  0.00    -0.014 A 
ATOM     72  C   UNL A   1      42.547  23.617  26.533  1.00  0.00     0.010 A 
ATOM     73  C   UNL A   1      42.324  22.680  28.758  1.00  0.00     0.010 A 
ATOM     74  C   UNL A   1      42.392  22.341  25.982  1.00  0.00     0.020 A 
ATOM     75  C   UNL A   1      42.200  21.399  28.212  1.00  0.00     0.020 A 
ATOM     76  C   UNL A   1      42.223  21.239  26.827  1.00  0.00     0.054 A 
BRANCH  76  77
ATOM     77  S   UNL A   1      42.074  19.588  26.090  1.00  0.00     0.124 S 
ATOM     78  O   UNL A   1      40.663  19.549  25.717  1.00  0.00    -0.237 OA
ATOM     79  O   UNL A   1      43.023  19.652  24.980  1.00  0.00    -0.237 OA
ATOM     80  O   UNL A   1      42.460  18.692  27.178  1.00  0.00    -0.744 OA
ENDBRANCH  76  77
ENDBRANCH  48  71
BRANCH  60  81
ATOM     81  C   UNL A   1      47.838  27.158  30.931  1.00  0.00    -0.014 A 
ATOM     82  C   UNL A   1      48.166  26.580  32.171  1.00  0.00     0.010 A 
ATOM     83  C   UNL A   1      48.842  27.298  29.955  1.00  0.00     0.010 A 
ATOM     84  C   UNL A   1      49.477  26.177  32.438  1.00  0.00     0.020 A 
ATOM     85  C   UNL A   1      50.147  26.866  30.205  1.00  0.00     0.020 A 
ATOM     86  C   UNL A   1      50.459  26.321  31.453  1.00  0.00     0.054 A 
BRANCH  86  87
ATOM     87  S   UNL A   1      52.141  25.743  31.807  1.00  0.00     0.124 S 
ATOM     88  O   UNL A   1      51.934  24.312  32.012  1.00  0.00    -0.237 OA
ATOM     89  O   UNL A   1      52.865  26.105  30.591  1.00  0.00    -0.237 OA
ATOM     90  O   UNL A   1      52.522  26.495  33.000  1.00  0.00    -0.744 OA
ENDBRANCH  86  87
ENDBRANCH  60  81
ENDBRANCH  34  35
ENDBRANCH  26  29
ENDBRANCH  24  25
ENDBRANCH  23  24
ENDBRANCH  22  23
ENDBRANCH   1  22
TORSDOF 19
ENDMDL
MODEL 2
REMARK VINA RESULT:      -9.6      2.876      8.543
REMARK SMILES C[C@H](Nc1ccc(F)cc1Br)[C@@H](C)C(=O)NCCCCCCNC(=O)c1ccc(-c2c3nc(c(-c4ccc(S(=O)(=O)[O-])cc4)c4ccc([nH]4)c(-c4ccc(S(=O)(=O)[O-])cc4)c4nc(c(-c5ccc(S(=O)(=O)[O-])cc5)c5ccc2[nH]5)C=C4)C=C3)cc1
REMARK SMILES IDX 19 1 18 2 17 3 16 4 14 5 15 6 12 8 13 9 2 10 1 11 3 12 4 14
REMARK SMILES IDX 5 15 10 16 6 17 9 18 11 19 7 20 8 21 20 22 21 23 22 24 23 25
REMARK SMILES IDX 24 26 25 28 26 29 27 30 85 31 28 32 84 33 29 34 30 35 31 36
REMARK SMILES IDX 78 37 32 38 83 39 77 40 79 41 33 42 82 43 76 44 75 45 34 47
REMARK SMILES IDX 64 48 45 49 63 50 46 51 49 52 62 53 80 54 47 55 48 56 61 58
REMARK SMILES IDX 81 59 50 60 35 61 36 62 44 63 37 64 43 65 38 66 39 67 40 68
REMARK SMILES IDX 41 69 42 70 65 71 66 72 74 73 67 74 73 75 68 76 69 77 70 78
REMARK SMILES IDX 71 79 72 80 51 81 52 82 60 83 53 84 59 85 54 86 55 87 56 88
REMARK SMILES IDX 57 89 58 90
REMARK H PARENT 16 7 3 13 23 27 79 46 49 57
REMARK Flexibility Score: inf
ROOT
ATOM      1  C   UNL A   1      31.384  28.669  23.276  1.00  0.00     0.002 C 
ENDROOT
BRANCH   1   2
ATOM      2  C   UNL A   1      29.884  28.357  23.267  1.00  0.00     0.021 C 
BRANCH   2   3
ATOM      3  C   UNL A   1      29.545  26.930  23.700  1.00  0.00     0.116 C 
BRANCH   3   4
ATOM      4  N   UNL A   1      30.599  26.004  23.323  1.00  0.00    -0.356 N 
ATOM      5  C   UNL A   1      31.307  25.103  24.053  1.00  0.00     0.224 C 
ATOM      6  O   UNL A   1      32.205  24.482  23.476  1.00  0.00    -0.275 OA
ATOM      7  H   UNL A   1      30.843  26.034  22.369  1.00  0.00     0.163 HD
BRANCH   5   8
ATOM      8  C   UNL A   1      31.018  24.841  25.528  1.00  0.00     0.097 C 
ATOM      9  C   UNL A   1      31.919  25.717  26.402  1.00  0.00     0.020 C 
BRANCH   8  10
ATOM     10  C   UNL A   1      31.016  23.332  25.849  1.00  0.00     0.088 C 
ATOM     11  C   UNL A   1      30.021  23.015  26.976  1.00  0.00     0.031 C 
BRANCH  10  12
ATOM     12  N   UNL A   1      32.350  22.882  26.256  1.00  0.00    -0.381 N 
ATOM     13  H   UNL A   1      32.831  23.371  26.961  1.00  0.00     0.160 HD
BRANCH  12  14
ATOM     14  C   UNL A   1      32.949  21.773  25.657  1.00  0.00     0.049 A 
ATOM     15  C   UNL A   1      32.195  20.661  25.246  1.00  0.00     0.030 A 
ATOM     16  C   UNL A   1      34.350  21.705  25.504  1.00  0.00     0.044 A 
ATOM     17  C   UNL A   1      32.814  19.517  24.736  1.00  0.00     0.041 A 
ATOM     18  C   UNL A   1      34.973  20.562  25.000  1.00  0.00     0.057 A 
ATOM     19  Br  UNL A   1      35.458  23.161  26.030  1.00  0.00    -0.048 Br
ATOM     20  C   UNL A   1      34.196  19.476  24.629  1.00  0.00     0.124 A 
ATOM     21  F   UNL A   1      34.789  18.369  24.164  1.00  0.00    -0.207 F 
ENDBRANCH  12  14
ENDBRANCH  10  12
ENDBRANCH   8  10
ENDBRANCH   5   8
ENDBRANCH   3   4
ENDBRANCH   2   3
ENDBRANCH   1   2
BRANCH   1  22
ATOM     22  C   UNL A   1      31.968  28.984  24.657  1.00  0.00     0.002 C 
BRANCH  22  23
ATOM     23  C   UNL A   1      33.465  28.700  24.804  1.00  0.00     0.021 C 
BRANCH  23  24
ATOM     24  C   UNL A   1      34.035  29.027  26.178  1.00  0.00     0.116 C 
BRANCH  24  25
ATOM     25  N   UNL A   1      33.674  30.368  26.608  1.00  0.00    -0.352 N 
ATOM     26  C   UNL A   1      34.237  31.143  27.590  1.00  0.00     0.251 C 
ATOM     27  H   UNL A   1      32.918  30.778  26.128  1.00  0.00     0.163 HD
ATOM     28  O   UNL A   1      33.664  32.161  27.974  1.00  0.00    -0.269 OA
BRANCH  26  29
ATOM     29  C   UNL A   1      35.523  30.739  28.194  1.00  0.00     0.039 A 
ATOM     30  C   UNL A   1      36.686  31.424  27.839  1.00  0.00     0.014 A 
ATOM     31  C   UNL A   1      35.578  29.686  29.113  1.00  0.00     0.014 A 
ATOM     32  C   UNL A   1      37.896  31.092  28.451  1.00  0.00     0.010 A 
ATOM     33  C   UNL A   1      36.769  29.408  29.776  1.00  0.00     0.010 A 
ATOM     34  C   UNL A   1      37.941  30.105  29.450  1.00  0.00    -0.014 A 
BRANCH  34  35
ATOM     35  C   UNL A   1      39.203  29.794  30.169  1.00  0.00     0.031 A 
ATOM     36  C   UNL A   1      40.094  28.680  29.688  1.00  0.00     0.074 A 
ATOM     37  C   UNL A   1      39.514  30.473  31.290  1.00  0.00     0.049 A 
ATOM     38  N   UNL A   1      41.202  28.226  30.216  1.00  0.00    -0.248 NA
ATOM     39  C   UNL A   1      39.674  27.968  28.470  1.00  0.00     0.031 C 
ATOM     40  C   UNL A   1      38.714  31.550  31.879  1.00  0.00     0.029 A 
ATOM     41  N   UNL A   1      40.586  30.356  32.141  1.00  0.00    -0.354 N 
ATOM     42  C   UNL A   1      41.602  27.170  29.405  1.00  0.00     0.074 A 
ATOM     43  C   UNL A   1      40.592  27.016  28.382  1.00  0.00     0.031 C 
ATOM     44  C   UNL A   1      39.336  32.013  32.976  1.00  0.00     0.029 A 
ATOM     45  C   UNL A   1      40.553  31.237  33.197  1.00  0.00     0.049 A 
ATOM     46  H   UNL A   1      41.311  29.702  32.008  1.00  0.00     0.167 HD
ATOM     47  C   UNL A   1      42.720  26.409  29.493  1.00  0.00     0.031 A 
ATOM     48  C   UNL A   1      41.397  31.396  34.234  1.00  0.00     0.031 A 
ATOM     49  C   UNL A   1      43.723  26.569  30.511  1.00  0.00     0.049 A 
ATOM     50  C   UNL A   1      42.617  30.521  34.325  1.00  0.00     0.074 A 
ATOM     51  C   UNL A   1      44.917  25.883  30.656  1.00  0.00     0.029 A 
ATOM     52  N   UNL A   1      43.651  27.471  31.563  1.00  0.00    -0.354 N 
ATOM     53  N   UNL A   1      43.013  29.572  33.509  1.00  0.00    -0.248 NA
ATOM     54  C   UNL A   1      43.511  30.744  35.470  1.00  0.00     0.031 C 
ATOM     55  C   UNL A   1      45.536  26.326  31.830  1.00  0.00     0.029 A 
ATOM     56  C   UNL A   1      44.764  27.338  32.376  1.00  0.00     0.049 A 
ATOM     57  H   UNL A   1      42.918  28.111  31.708  1.00  0.00     0.167 HD
ATOM     58  C   UNL A   1      44.218  29.106  34.028  1.00  0.00     0.074 A 
ATOM     59  C   UNL A   1      44.491  29.888  35.215  1.00  0.00     0.031 C 
ATOM     60  C   UNL A   1      45.024  28.122  33.558  1.00  0.00     0.031 A 
BRANCH  47  61
ATOM     61  C   UNL A   1      42.910  25.325  28.463  1.00  0.00    -0.014 A 
ATOM     62  C   UNL A   1      43.552  25.586  27.238  1.00  0.00     0.010 A 
ATOM     63  C   UNL A   1      42.480  24.015  28.741  1.00  0.00     0.010 A 
ATOM     64  C   UNL A   1      43.722  24.569  26.296  1.00  0.00     0.020 A 
ATOM     65  C   UNL A   1      42.676  22.986  27.813  1.00  0.00     0.020 A 
ATOM     66  C   UNL A   1      43.282  23.276  26.589  1.00  0.00     0.054 A 
BRANCH  66  67
ATOM     67  S   UNL A   1      43.536  21.972  25.354  1.00  0.00     0.124 S 
ATOM     68  O   UNL A   1      43.484  22.726  24.105  1.00  0.00    -0.237 OA
ATOM     69  O   UNL A   1      44.850  21.444  25.715  1.00  0.00    -0.237 OA
ATOM     70  O   UNL A   1      42.417  21.058  25.577  1.00  0.00    -0.744 OA
ENDBRANCH  66  67
ENDBRANCH  47  61
BRANCH  48  71
ATOM     71  C   UNL A   1      41.120  32.433  35.267  1.00  0.00    -0.014 A 
ATOM     72  C   UNL A   1      40.273  32.154  36.354  1.00  0.00     0.010 A 
ATOM     73  C   UNL A   1      41.715  33.705  35.174  1.00  0.00     0.010 A 
ATOM     74  C   UNL A   1      40.010  33.132  37.317  1.00  0.00     0.020 A 
ATOM     75  C   UNL A   1      41.480  34.676  36.153  1.00  0.00     0.020 A 
ATOM     76  C   UNL A   1      40.618  34.387  37.211  1.00  0.00     0.054 A 
BRANCH  76  77
ATOM     77  S   UNL A   1      40.302  35.624  38.500  1.00  0.00     0.124 S 
ATOM     78  O   UNL A   1      41.646  35.887  39.005  1.00  0.00    -0.237 OA
ATOM     79  O   UNL A   1      39.683  36.712  37.746  1.00  0.00    -0.237 OA
ATOM     80  O   UNL A   1      39.409  34.932  39.426  1.00  0.00    -0.744 OA
ENDBRANCH  76  77
ENDBRANCH  48  71
BRANCH  60  81
ATOM     81  C   UNL A   1      46.303  27.853  34.309  1.00  0.00    -0.014 A 
ATOM     82  C   UNL A   1      46.360  26.899  35.341  1.00  0.00     0.010 A 
ATOM     83  C   UNL A   1      47.480  28.525  33.931  1.00  0.00     0.010 A 
ATOM     84  C   UNL A   1      47.565  26.644  36.000  1.00  0.00     0.020 A 
ATOM     85  C   UNL A   1      48.694  28.249  34.566  1.00  0.00     0.020 A 
ATOM     86  C   UNL A   1      48.725  27.319  35.607  1.00  0.00     0.054 A 
BRANCH  86  87
ATOM     87  S   UNL A   1      50.286  26.932  36.445  1.00  0.00     0.124 S 
ATOM     88  O   UNL A   1      51.275  27.376  35.466  1.00  0.00    -0.237 OA
ATOM     89  O   UNL A   1      50.203  27.736  37.662  1.00  0.00    -0.237 OA
ATOM     90  O   UNL A   1      50.220  25.488  36.652  1.00  0.00    -0.744 OA
ENDBRANCH  86  87
ENDBRANCH  60  81
ENDBRANCH  34  35
ENDBRANCH  26  29
ENDBRANCH  24  25
ENDBRANCH  23  24
ENDBRANCH  22  23
ENDBRANCH   1  22
TORSDOF 19
ENDMDL
MODEL 3
REMARK VINA RESULT:      -9.6      3.080      9.530
REMARK SMILES C[C@H](Nc1ccc(F)cc1Br)[C@@H](C)C(=O)NCCCCCCNC(=O)c1ccc(-c2c3nc(c(-c4ccc(S(=O)(=O)[O-])cc4)c4ccc([nH]4)c(-c4ccc(S(=O)(=O)[O-])cc4)c4nc(c(-c5ccc(S(=O)(=O)[O-])cc5)c5ccc2[nH]5)C=C4)C=C3)cc1
REMARK SMILES IDX 19 1 18 2 17 3 16 4 14 5 15 6 12 8 13 9 2 10 1 11 3 12 4 14
REMARK SMILES IDX 5 15 10 16 6 17 9 18 11 19 7 20 8 21 20 22 21 23 22 24 23 25
REMARK SMILES IDX 24 26 25 28 26 29 27 30 85 31 28 32 84 33 29 34 30 35 31 36
REMARK SMILES IDX 78 37 32 38 83 39 77 40 79 41 33 42 82 43 76 44 75 45 34 47
REMARK SMILES IDX 64 48 45 49 63 50 46 51 49 52 62 53 80 54 47 55 48 56 61 58
REMARK SMILES IDX 81 59 50 60 35 61 36 62 44 63 37 64 43 65 38 66 39 67 40 68
REMARK SMILES IDX 41 69 42 70 65 71 66 72 74 73 67 74 73 75 68 76 69 77 70 78
REMARK SMILES IDX 71 79 72 80 51 81 52 82 60 83 53 84 59 85 54 86 55 87 56 88
REMARK SMILES IDX 57 89 58 90
REMARK H PARENT 16 7 3 13 23 27 79 46 49 57
REMARK Flexibility Score: inf
ROOT
ATOM      1  C   UNL A   1      33.940  21.273  24.455  1.00  0.00     0.002 C 
ENDROOT
BRANCH   1   2
ATOM      2  C   UNL A   1      33.596  22.490  23.590  1.00  0.00     0.021 C 
BRANCH   2   3
ATOM      3  C   UNL A   1      32.183  23.029  23.813  1.00  0.00     0.116 C 
BRANCH   3   4
ATOM      4  N   UNL A   1      31.895  23.174  25.229  1.00  0.00    -0.356 N 
ATOM      5  C   UNL A   1      31.817  24.276  26.022  1.00  0.00     0.224 C 
ATOM      6  O   UNL A   1      31.617  24.096  27.227  1.00  0.00    -0.275 OA
ATOM      7  H   UNL A   1      31.727  22.325  25.698  1.00  0.00     0.163 HD
BRANCH   5   8
ATOM      8  C   UNL A   1      31.955  25.690  25.469  1.00  0.00     0.097 C 
ATOM      9  C   UNL A   1      32.985  26.474  26.287  1.00  0.00     0.020 C 
BRANCH   8  10
ATOM     10  C   UNL A   1      30.581  26.365  25.278  1.00  0.00     0.088 C 
ATOM     11  C   UNL A   1      29.473  25.548  25.960  1.00  0.00     0.031 C 
BRANCH  10  12
ATOM     12  N   UNL A   1      30.260  26.503  23.854  1.00  0.00    -0.381 N 
ATOM     13  H   UNL A   1      30.476  25.768  23.236  1.00  0.00     0.160 HD
BRANCH  12  14
ATOM     14  C   UNL A   1      29.654  27.660  23.362  1.00  0.00     0.049 A 
ATOM     15  C   UNL A   1      28.256  27.797  23.319  1.00  0.00     0.030 A 
ATOM     16  C   UNL A   1      30.431  28.709  22.829  1.00  0.00     0.044 A 
ATOM     17  C   UNL A   1      27.659  28.918  22.736  1.00  0.00     0.041 A 
ATOM     18  C   UNL A   1      29.839  29.828  22.241  1.00  0.00     0.057 A 
ATOM     19  Br  UNL A   1      32.333  28.616  22.843  1.00  0.00    -0.048 Br
ATOM     20  C   UNL A   1      28.456  29.916  22.194  1.00  0.00     0.124 A 
ATOM     21  F   UNL A   1      27.882  30.977  21.614  1.00  0.00    -0.207 F 
ENDBRANCH  12  14
ENDBRANCH  10  12
ENDBRANCH   8  10
ENDBRANCH   5   8
ENDBRANCH   3   4
ENDBRANCH   2   3
ENDBRANCH   1   2
BRANCH   1  22
ATOM     22  C   UNL A   1      35.135  21.468  25.393  1.00  0.00     0.002 C 
BRANCH  22  23
ATOM     23  C   UNL A   1      35.212  22.844  26.060  1.00  0.00     0.021 C 
BRANCH  23  24
ATOM     24  C   UNL A   1      36.552  23.550  25.894  1.00  0.00     0.116 C 
BRANCH  24  25
ATOM     25  N   UNL A   1      37.669  22.627  26.026  1.00  0.00    -0.352 N 
ATOM     26  C   UNL A   1      38.969  22.886  26.378  1.00  0.00     0.251 C 
ATOM     27  H   UNL A   1      37.463  21.683  25.835  1.00  0.00     0.163 HD
ATOM     28  O   UNL A   1      39.832  22.025  26.220  1.00  0.00    -0.269 OA
BRANCH  26  29
ATOM     29  C   UNL A   1      39.328  24.209  26.928  1.00  0.00     0.039 A 
ATOM     30  C   UNL A   1      38.982  24.514  28.245  1.00  0.00     0.014 A 
ATOM     31  C   UNL A   1      40.010  25.146  26.143  1.00  0.00     0.014 A 
ATOM     32  C   UNL A   1      39.372  25.737  28.795  1.00  0.00     0.010 A 
ATOM     33  C   UNL A   1      40.463  26.329  26.716  1.00  0.00     0.010 A 
ATOM     34  C   UNL A   1      40.145  26.640  28.047  1.00  0.00    -0.014 A 
BRANCH  34  35
ATOM     35  C   UNL A   1      40.638  27.909  28.640  1.00  0.00     0.031 A 
ATOM     36  C   UNL A   1      42.056  28.011  29.138  1.00  0.00     0.074 A 
ATOM     37  C   UNL A   1      39.793  28.948  28.787  1.00  0.00     0.049 A 
ATOM     38  N   UNL A   1      42.647  29.014  29.736  1.00  0.00    -0.248 NA
ATOM     39  C   UNL A   1      42.912  26.826  28.965  1.00  0.00     0.031 C 
ATOM     40  C   UNL A   1      38.386  28.960  28.378  1.00  0.00     0.029 A 
ATOM     41  N   UNL A   1      39.990  30.195  29.326  1.00  0.00    -0.354 N 
ATOM     42  C   UNL A   1      43.936  28.577  30.021  1.00  0.00     0.074 A 
ATOM     43  C   UNL A   1      44.023  27.202  29.580  1.00  0.00     0.031 C 
ATOM     44  C   UNL A   1      37.857  30.163  28.654  1.00  0.00     0.029 A 
ATOM     45  C   UNL A   1      38.869  30.992  29.303  1.00  0.00     0.049 A 
ATOM     46  H   UNL A   1      40.854  30.492  29.696  1.00  0.00     0.167 HD
ATOM     47  C   UNL A   1      44.960  29.264  30.582  1.00  0.00     0.031 A 
ATOM     48  C   UNL A   1      38.671  32.243  29.761  1.00  0.00     0.031 A 
ATOM     49  C   UNL A   1      44.869  30.632  31.015  1.00  0.00     0.049 A 
ATOM     50  C   UNL A   1      39.817  32.976  30.404  1.00  0.00     0.074 A 
ATOM     51  C   UNL A   1      45.864  31.434  31.547  1.00  0.00     0.029 A 
ATOM     52  N   UNL A   1      43.716  31.403  30.975  1.00  0.00    -0.354 N 
ATOM     53  N   UNL A   1      41.048  32.568  30.603  1.00  0.00    -0.248 NA
ATOM     54  C   UNL A   1      39.550  34.342  30.875  1.00  0.00     0.031 C 
ATOM     55  C   UNL A   1      45.298  32.667  31.887  1.00  0.00     0.029 A 
ATOM     56  C   UNL A   1      43.968  32.659  31.500  1.00  0.00     0.049 A 
ATOM     57  H   UNL A   1      42.847  31.101  30.623  1.00  0.00     0.167 HD
ATOM     58  C   UNL A   1      41.710  33.639  31.196  1.00  0.00     0.074 A 
ATOM     59  C   UNL A   1      40.747  34.714  31.307  1.00  0.00     0.031 C 
ATOM     60  C   UNL A   1      42.999  33.722  31.607  1.00  0.00     0.031 A 
BRANCH  47  61
ATOM     61  C   UNL A   1      46.269  28.539  30.768  1.00  0.00    -0.014 A 
ATOM     62  C   UNL A   1      46.516  27.765  31.918  1.00  0.00     0.010 A 
ATOM     63  C   UNL A   1      47.248  28.594  29.761  1.00  0.00     0.010 A 
ATOM     64  C   UNL A   1      47.733  27.097  32.074  1.00  0.00     0.020 A 
ATOM     65  C   UNL A   1      48.455  27.900  29.898  1.00  0.00     0.020 A 
ATOM     66  C   UNL A   1      48.695  27.170  31.064  1.00  0.00     0.054 A 
BRANCH  66  67
ATOM     67  S   UNL A   1      50.257  26.274  31.286  1.00  0.00     0.124 S 
ATOM     68  O   UNL A   1      51.219  27.191  30.680  1.00  0.00    -0.237 OA
ATOM     69  O   UNL A   1      50.344  26.141  32.738  1.00  0.00    -0.237 OA
ATOM     70  O   UNL A   1      50.046  25.023  30.560  1.00  0.00    -0.744 OA
ENDBRANCH  66  67
ENDBRANCH  47  61
BRANCH  48  71
ATOM     71  C   UNL A   1      37.335  32.885  29.619  1.00  0.00    -0.014 A 
ATOM     72  C   UNL A   1      36.511  33.078  30.742  1.00  0.00     0.010 A 
ATOM     73  C   UNL A   1      36.884  33.318  28.358  1.00  0.00     0.010 A 
ATOM     74  C   UNL A   1      35.253  33.675  30.603  1.00  0.00     0.020 A 
ATOM     75  C   UNL A   1      35.641  33.943  28.221  1.00  0.00     0.020 A 
ATOM     76  C   UNL A   1      34.828  34.106  29.343  1.00  0.00     0.054 A 
BRANCH  76  77
ATOM     77  S   UNL A   1      33.215  34.922  29.197  1.00  0.00     0.124 S 
ATOM     78  O   UNL A   1      32.707  34.837  30.563  1.00  0.00    -0.237 OA
ATOM     79  O   UNL A   1      33.580  36.261  28.739  1.00  0.00    -0.237 OA
ATOM     80  O   UNL A   1      32.507  34.107  28.212  1.00  0.00    -0.744 OA
ENDBRANCH  76  77
ENDBRANCH  48  71
BRANCH  60  81
ATOM     81  C   UNL A   1      43.462  35.034  32.186  1.00  0.00    -0.014 A 
ATOM     82  C   UNL A   1      43.921  36.078  31.361  1.00  0.00     0.010 A 
ATOM     83  C   UNL A   1      43.376  35.246  33.574  1.00  0.00     0.010 A 
ATOM     84  C   UNL A   1      44.312  37.297  31.918  1.00  0.00     0.020 A 
ATOM     85  C   UNL A   1      43.737  36.476  34.132  1.00  0.00     0.020 A 
ATOM     86  C   UNL A   1      44.216  37.490  33.300  1.00  0.00     0.054 A 
BRANCH  86  87
ATOM     87  S   UNL A   1      44.683  39.099  33.992  1.00  0.00     0.124 S 
ATOM     88  O   UNL A   1      46.141  39.005  34.023  1.00  0.00    -0.237 OA
ATOM     89  O   UNL A   1      44.136  40.037  33.015  1.00  0.00    -0.237 OA
ATOM     90  O   UNL A   1      44.033  39.118  35.299  1.00  0.00    -0.744 OA
ENDBRANCH  86  87
ENDBRANCH  60  81
ENDBRANCH  34  35
ENDBRANCH  26  29
ENDBRANCH  24  25
ENDBRANCH  23  24
ENDBRANCH  22  23
ENDBRANCH   1  22
TORSDOF 19
ENDMDL
