MODEL 1
REMARK VINA RESULT:     -11.2      0.000      0.000
REMARK SMILES O=C(NCCCCCCNC(=O)c1ccc(-c2c3nc(c(-c4ccc(S(=O)(=O)[O-])cc4)c4ccc([nH]4)c(-c4ccc(S(=O)(=O)[O-])cc4)c4nc(c(-c5ccc(S(=O)(=O)[O-])cc5)c5ccc2[nH]5)C=C4)C=C3)cc1)c1ccc(/[NH+]=C2/N=C[NH+]=C3N=NC=C32)cc1
REMARK SMILES IDX 7 1 6 2 5 3 4 4 3 5 1 6 2 7 73 9 74 10 88 11 75 12 87 13
REMARK SMILES IDX 76 14 77 15 78 16 79 18 86 19 80 20 82 21 85 22 81 23 83 24
REMARK SMILES IDX 84 25 8 27 9 28 10 29 11 30 12 32 13 33 14 34 72 35 15 36
REMARK SMILES IDX 71 37 16 38 17 39 18 40 65 41 19 42 70 43 64 44 66 45 20 46
REMARK SMILES IDX 69 47 63 48 62 49 21 51 51 52 32 53 50 54 33 55 36 56 49 57
REMARK SMILES IDX 67 58 34 59 35 60 48 62 68 63 37 64 22 65 23 66 31 67 24 68
REMARK SMILES IDX 30 69 25 70 26 71 27 72 28 73 29 74 52 75 53 76 61 77 54 78
REMARK SMILES IDX 60 79 55 80 56 81 57 82 58 83 59 84 38 85 39 86 47 87 40 88
REMARK SMILES IDX 46 89 41 90 42 91 43 92 44 93 45 94
REMARK H PARENT 3 8 77 17 81 26 10 31 66 50 36 61
REMARK Flexibility Score: inf
ROOT
ATOM      1  C   UNL A   1      33.924  28.331  24.428  1.00  0.00     0.002 C 
ENDROOT
BRANCH   1   2
ATOM      2  C   UNL A   1      33.100  28.387  23.139  1.00  0.00     0.002 C 
BRANCH   2   3
ATOM      3  C   UNL A   1      31.695  28.971  23.280  1.00  0.00     0.021 C 
BRANCH   3   4
ATOM      4  C   UNL A   1      30.622  28.318  22.416  1.00  0.00     0.116 C 
BRANCH   4   5
ATOM      5  N   UNL A   1      29.534  27.742  23.189  1.00  0.00    -0.352 N 
ATOM      6  O   UNL A   1      28.410  26.205  24.387  1.00  0.00    -0.269 OA
ATOM      7  C   UNL A   1      29.470  26.555  23.875  1.00  0.00     0.251 C 
ATOM      8  H   UNL A   1      28.716  28.288  23.225  1.00  0.00     0.163 HD
BRANCH   7   9
ATOM      9  C   UNL A   1      30.646  25.653  23.940  1.00  0.00     0.040 A 
ATOM     10  C   UNL A   1      31.260  25.301  25.142  1.00  0.00     0.018 A 
ATOM     11  C   UNL A   1      31.148  25.139  22.743  1.00  0.00     0.018 A 
ATOM     12  C   UNL A   1      32.485  24.632  25.122  1.00  0.00     0.052 A 
ATOM     13  C   UNL A   1      32.323  24.382  22.746  1.00  0.00     0.052 A 
ATOM     14  C   UNL A   1      33.067  24.223  23.918  1.00  0.00     0.124 A 
BRANCH  14  15
ATOM     15  N   UNL A   1      34.312  23.595  23.996  1.00  0.00    -0.244 N 
ATOM     16  C   UNL A   1      34.514  22.339  24.180  1.00  0.00     0.305 C 
ATOM     17  H   UNL A   1      35.107  24.167  23.900  1.00  0.00     0.311 HD
ATOM     18  N   UNL A   1      35.835  21.977  24.285  1.00  0.00    -0.069 NA
ATOM     19  C   UNL A   1      33.607  21.218  24.369  1.00  0.00     0.159 C 
ATOM     20  C   UNL A   1      36.206  20.860  24.824  1.00  0.00     0.372 C 
ATOM     21  C   UNL A   1      34.140  20.057  25.037  1.00  0.00     0.302 C 
ATOM     22  C   UNL A   1      32.369  20.798  24.152  1.00  0.00     0.177 C 
ATOM     23  N   UNL A   1      35.382  19.879  25.311  1.00  0.00    -0.245 N 
ATOM     24  N   UNL A   1      33.132  19.164  25.305  1.00  0.00     0.010 NA
ATOM     25  N   UNL A   1      32.092  19.590  24.731  1.00  0.00    -0.081 NA
ATOM     26  H   UNL A   1      35.712  19.105  25.823  1.00  0.00     0.266 HD
ENDBRANCH  14  15
ENDBRANCH   7   9
ENDBRANCH   4   5
ENDBRANCH   3   4
ENDBRANCH   2   3
ENDBRANCH   1   2
BRANCH   1  27
ATOM     27  C   UNL A   1      33.119  28.208  25.722  1.00  0.00     0.021 C 
BRANCH  27  28
ATOM     28  C   UNL A   1      33.909  28.461  27.002  1.00  0.00     0.116 C 
BRANCH  28  29
ATOM     29  N   UNL A   1      33.777  29.829  27.472  1.00  0.00    -0.352 N 
ATOM     30  C   UNL A   1      34.660  30.587  28.203  1.00  0.00     0.251 C 
ATOM     31  H   UNL A   1      32.934  30.278  27.233  1.00  0.00     0.163 HD
ATOM     32  O   UNL A   1      34.305  31.664  28.666  1.00  0.00    -0.269 OA
BRANCH  30  33
ATOM     33  C   UNL A   1      36.031  30.086  28.447  1.00  0.00     0.039 A 
ATOM     34  C   UNL A   1      36.976  30.186  27.423  1.00  0.00     0.014 A 
ATOM     35  C   UNL A   1      36.384  29.521  29.675  1.00  0.00     0.014 A 
ATOM     36  C   UNL A   1      38.290  29.774  27.653  1.00  0.00     0.010 A 
ATOM     37  C   UNL A   1      37.711  29.184  29.928  1.00  0.00     0.010 A 
ATOM     38  C   UNL A   1      38.678  29.302  28.919  1.00  0.00    -0.014 A 
BRANCH  38  39
ATOM     39  C   UNL A   1      40.090  28.932  29.202  1.00  0.00     0.031 A 
ATOM     40  C   UNL A   1      41.032  29.940  29.802  1.00  0.00     0.074 A 
ATOM     41  C   UNL A   1      40.537  27.703  28.871  1.00  0.00     0.049 A 
ATOM     42  N   UNL A   1      42.308  29.819  30.067  1.00  0.00    -0.248 NA
ATOM     43  C   UNL A   1      40.477  31.264  30.126  1.00  0.00     0.031 C 
ATOM     44  C   UNL A   1      39.732  26.650  28.246  1.00  0.00     0.029 A 
ATOM     45  N   UNL A   1      41.779  27.134  29.005  1.00  0.00    -0.354 N 
ATOM     46  C   UNL A   1      42.707  31.047  30.582  1.00  0.00     0.074 A 
ATOM     47  C   UNL A   1      41.553  31.918  30.535  1.00  0.00     0.031 C 
ATOM     48  C   UNL A   1      40.495  25.558  28.072  1.00  0.00     0.029 A 
ATOM     49  C   UNL A   1      41.851  25.846  28.529  1.00  0.00     0.049 A 
ATOM     50  H   UNL A   1      42.546  27.606  29.404  1.00  0.00     0.167 HD
ATOM     51  C   UNL A   1      43.916  31.410  31.074  1.00  0.00     0.031 A 
ATOM     52  C   UNL A   1      42.893  24.995  28.454  1.00  0.00     0.031 A 
ATOM     53  C   UNL A   1      45.062  30.541  31.117  1.00  0.00     0.049 A 
ATOM     54  C   UNL A   1      44.233  25.430  28.981  1.00  0.00     0.074 A 
ATOM     55  C   UNL A   1      46.322  30.805  31.627  1.00  0.00     0.029 A 
ATOM     56  N   UNL A   1      45.092  29.242  30.634  1.00  0.00    -0.354 N 
ATOM     57  N   UNL A   1      44.574  26.578  29.517  1.00  0.00    -0.248 NA
ATOM     58  C   UNL A   1      45.328  24.452  28.903  1.00  0.00     0.031 C 
ATOM     59  C   UNL A   1      47.128  29.685  31.400  1.00  0.00     0.029 A 
ATOM     60  C   UNL A   1      46.352  28.699  30.813  1.00  0.00     0.049 A 
ATOM     61  H   UNL A   1      44.328  28.774  30.223  1.00  0.00     0.167 HD
ATOM     62  C   UNL A   1      45.915  26.448  29.868  1.00  0.00     0.074 A 
ATOM     63  C   UNL A   1      46.315  25.106  29.500  1.00  0.00     0.031 C 
ATOM     64  C   UNL A   1      46.738  27.360  30.443  1.00  0.00     0.031 A 
BRANCH  51  65
ATOM     65  C   UNL A   1      44.060  32.812  31.608  1.00  0.00    -0.014 A 
ATOM     66  C   UNL A   1      43.853  33.091  32.972  1.00  0.00     0.010 A 
ATOM     67  C   UNL A   1      44.455  33.855  30.751  1.00  0.00     0.010 A 
ATOM     68  C   UNL A   1      44.002  34.391  33.462  1.00  0.00     0.020 A 
ATOM     69  C   UNL A   1      44.636  35.152  31.243  1.00  0.00     0.020 A 
ATOM     70  C   UNL A   1      44.393  35.414  32.592  1.00  0.00     0.054 A 
BRANCH  70  71
ATOM     71  S   UNL A   1      44.608  37.085  33.264  1.00  0.00     0.124 S 
ATOM     72  O   UNL A   1      45.568  37.666  32.328  1.00  0.00    -0.237 OA
ATOM     73  O   UNL A   1      43.256  37.633  33.198  1.00  0.00    -0.237 OA
ATOM     74  O   UNL A   1      45.118  36.854  34.613  1.00  0.00    -0.744 OA
ENDBRANCH  70  71
ENDBRANCH  51  65
BRANCH  52  75
ATOM     75  C   UNL A   1      42.710  23.644  27.850  1.00  0.00    -0.014 A 
ATOM     76  C   UNL A   1      43.000  23.414  26.495  1.00  0.00     0.010 A 
ATOM     77  C   UNL A   1      42.240  22.577  28.637  1.00  0.00     0.010 A 
ATOM     78  C   UNL A   1      42.801  22.150  25.931  1.00  0.00     0.020 A 
ATOM     79  C   UNL A   1      42.071  21.303  28.087  1.00  0.00     0.020 A 
ATOM     80  C   UNL A   1      42.338  21.102  26.732  1.00  0.00     0.054 A 
BRANCH  80  81
ATOM     81  S   UNL A   1      42.122  19.461  25.990  1.00  0.00     0.124 S 
ATOM     82  O   UNL A   1      40.685  19.429  25.736  1.00  0.00    -0.237 OA
ATOM     83  O   UNL A   1      42.973  19.538  24.805  1.00  0.00    -0.237 OA
ATOM     84  O   UNL A   1      42.596  18.550  27.029  1.00  0.00    -0.744 OA
ENDBRANCH  80  81
ENDBRANCH  52  75
BRANCH  64  85
ATOM     85  C   UNL A   1      48.149  26.927  30.748  1.00  0.00    -0.014 A 
ATOM     86  C   UNL A   1      49.221  27.270  29.905  1.00  0.00     0.010 A 
ATOM     87  C   UNL A   1      48.411  26.211  31.931  1.00  0.00     0.010 A 
ATOM     88  C   UNL A   1      50.523  26.876  30.223  1.00  0.00     0.020 A 
ATOM     89  C   UNL A   1      49.716  25.844  32.269  1.00  0.00     0.020 A 
ATOM     90  C   UNL A   1      50.763  26.167  31.404  1.00  0.00     0.054 A 
BRANCH  90  91
ATOM     91  S   UNL A   1      52.468  25.707  31.814  1.00  0.00     0.124 S 
ATOM     92  O   UNL A   1      52.310  24.332  32.279  1.00  0.00    -0.237 OA
ATOM     93  O   UNL A   1      53.157  25.863  30.535  1.00  0.00    -0.237 OA
ATOM     94  O   UNL A   1      52.851  26.673  32.842  1.00  0.00    -0.744 OA
ENDBRANCH  90  91
ENDBRANCH  64  85
ENDBRANCH  38  39
ENDBRANCH  30  33
ENDBRANCH  28  29
ENDBRANCH  27  28
ENDBRANCH   1  27
TORSDOF 17
ENDMDL
MODEL 2
REMARK VINA RESULT:     -10.8      4.656     10.463
REMARK SMILES O=C(NCCCCCCNC(=O)c1ccc(-c2c3nc(c(-c4ccc(S(=O)(=O)[O-])cc4)c4ccc([nH]4)c(-c4ccc(S(=O)(=O)[O-])cc4)c4nc(c(-c5ccc(S(=O)(=O)[O-])cc5)c5ccc2[nH]5)C=C4)C=C3)cc1)c1ccc(/[NH+]=C2/N=C[NH+]=C3N=NC=C32)cc1
REMARK SMILES IDX 7 1 6 2 5 3 4 4 3 5 1 6 2 7 73 9 74 10 88 11 75 12 87 13
REMARK SMILES IDX 76 14 77 15 78 16 79 18 86 19 80 20 82 21 85 22 81 23 83 24
REMARK SMILES IDX 84 25 8 27 9 28 10 29 11 30 12 32 13 33 14 34 72 35 15 36
REMARK SMILES IDX 71 37 16 38 17 39 18 40 65 41 19 42 70 43 64 44 66 45 20 46
REMARK SMILES IDX 69 47 63 48 62 49 21 51 51 52 32 53 50 54 33 55 36 56 49 57
REMARK SMILES IDX 67 58 34 59 35 60 48 62 68 63 37 64 22 65 23 66 31 67 24 68
REMARK SMILES IDX 30 69 25 70 26 71 27 72 28 73 29 74 52 75 53 76 61 77 54 78
REMARK SMILES IDX 60 79 55 80 56 81 57 82 58 83 59 84 38 85 39 86 47 87 40 88
REMARK SMILES IDX 46 89 41 90 42 91 43 92 44 93 45 94
REMARK H PARENT 3 8 77 17 81 26 10 31 66 50 36 61
REMARK Flexibility Score: inf
ROOT
ATOM      1  C   UNL A   1      37.230  24.166  25.878  1.00  0.00     0.002 C 
ENDROOT
BRANCH   1   2
ATOM      2  C   UNL A   1      35.967  23.621  25.207  1.00  0.00     0.002 C 
BRANCH   2   3
ATOM      3  C   UNL A   1      35.781  22.106  25.282  1.00  0.00     0.021 C 
BRANCH   3   4
ATOM      4  C   UNL A   1      34.888  21.608  26.412  1.00  0.00     0.116 C 
BRANCH   4   5
ATOM      5  N   UNL A   1      33.978  20.551  26.003  1.00  0.00    -0.352 N 
ATOM      6  O   UNL A   1      32.096  19.606  25.212  1.00  0.00    -0.269 OA
ATOM      7  C   UNL A   1      32.756  20.628  25.384  1.00  0.00     0.251 C 
ATOM      8  H   UNL A   1      34.288  19.638  26.201  1.00  0.00     0.163 HD
BRANCH   7   9
ATOM      9  C   UNL A   1      32.188  21.940  24.988  1.00  0.00     0.040 A 
ATOM     10  C   UNL A   1      31.566  22.797  25.896  1.00  0.00     0.018 A 
ATOM     11  C   UNL A   1      32.286  22.323  23.649  1.00  0.00     0.018 A 
ATOM     12  C   UNL A   1      30.862  23.908  25.428  1.00  0.00     0.052 A 
ATOM     13  C   UNL A   1      31.661  23.493  23.209  1.00  0.00     0.052 A 
ATOM     14  C   UNL A   1      30.845  24.232  24.068  1.00  0.00     0.124 A 
BRANCH  14  15
ATOM     15  N   UNL A   1      30.081  25.339  23.690  1.00  0.00    -0.244 N 
ATOM     16  C   UNL A   1      30.520  26.535  23.512  1.00  0.00     0.305 C 
ATOM     17  H   UNL A   1      29.119  25.189  23.546  1.00  0.00     0.311 HD
ATOM     18  N   UNL A   1      29.556  27.463  23.205  1.00  0.00    -0.069 NA
ATOM     19  C   UNL A   1      31.845  27.121  23.639  1.00  0.00     0.159 C 
ATOM     20  C   UNL A   1      29.747  28.735  23.354  1.00  0.00     0.372 C 
ATOM     21  C   UNL A   1      31.907  28.544  23.859  1.00  0.00     0.302 C 
ATOM     22  C   UNL A   1      33.140  26.842  23.632  1.00  0.00     0.177 C 
ATOM     23  N   UNL A   1      30.904  29.339  23.774  1.00  0.00    -0.245 N 
ATOM     24  N   UNL A   1      33.198  28.921  24.139  1.00  0.00     0.010 NA
ATOM     25  N   UNL A   1      33.931  27.911  23.952  1.00  0.00    -0.081 NA
ATOM     26  H   UNL A   1      30.961  30.299  23.990  1.00  0.00     0.266 HD
ENDBRANCH  14  15
ENDBRANCH   7   9
ENDBRANCH   4   5
ENDBRANCH   3   4
ENDBRANCH   2   3
ENDBRANCH   1   2
BRANCH   1  27
ATOM     27  C   UNL A   1      38.284  23.122  26.249  1.00  0.00     0.021 C 
BRANCH  27  28
ATOM     28  C   UNL A   1      39.494  23.662  27.004  1.00  0.00     0.116 C 
BRANCH  28  29
ATOM     29  N   UNL A   1      40.549  24.110  26.111  1.00  0.00    -0.352 N 
ATOM     30  C   UNL A   1      41.192  25.323  26.063  1.00  0.00     0.251 C 
ATOM     31  H   UNL A   1      40.846  23.449  25.445  1.00  0.00     0.163 HD
ATOM     32  O   UNL A   1      41.932  25.587  25.124  1.00  0.00    -0.269 OA
BRANCH  30  33
ATOM     33  C   UNL A   1      40.967  26.316  27.137  1.00  0.00     0.039 A 
ATOM     34  C   UNL A   1      40.021  26.035  28.127  1.00  0.00     0.014 A 
ATOM     35  C   UNL A   1      41.681  27.517  27.170  1.00  0.00     0.014 A 
ATOM     36  C   UNL A   1      39.837  26.931  29.181  1.00  0.00     0.010 A 
ATOM     37  C   UNL A   1      41.553  28.371  28.262  1.00  0.00     0.010 A 
ATOM     38  C   UNL A   1      40.627  28.090  29.278  1.00  0.00    -0.014 A 
BRANCH  38  39
ATOM     39  C   UNL A   1      40.496  29.015  30.435  1.00  0.00     0.031 A 
ATOM     40  C   UNL A   1      41.355  28.827  31.656  1.00  0.00     0.074 A 
ATOM     41  C   UNL A   1      39.568  29.993  30.405  1.00  0.00     0.049 A 
ATOM     42  N   UNL A   1      41.345  29.496  32.781  1.00  0.00    -0.248 NA
ATOM     43  C   UNL A   1      42.337  27.731  31.620  1.00  0.00     0.031 C 
ATOM     44  C   UNL A   1      38.647  30.253  29.296  1.00  0.00     0.029 A 
ATOM     45  N   UNL A   1      39.240  30.946  31.338  1.00  0.00    -0.354 N 
ATOM     46  C   UNL A   1      42.311  28.902  33.584  1.00  0.00     0.074 A 
ATOM     47  C   UNL A   1      42.845  27.780  32.843  1.00  0.00     0.031 C 
ATOM     48  C   UNL A   1      37.875  31.308  29.603  1.00  0.00     0.029 A 
ATOM     49  C   UNL A   1      38.212  31.771  30.946  1.00  0.00     0.049 A 
ATOM     50  H   UNL A   1      39.698  31.029  32.206  1.00  0.00     0.167 HD
ATOM     51  C   UNL A   1      42.735  29.270  34.817  1.00  0.00     0.031 A 
ATOM     52  C   UNL A   1      37.598  32.779  31.597  1.00  0.00     0.031 A 
ATOM     53  C   UNL A   1      42.201  30.385  35.553  1.00  0.00     0.049 A 
ATOM     54  C   UNL A   1      38.067  33.152  32.977  1.00  0.00     0.074 A 
ATOM     55  C   UNL A   1      42.586  30.860  36.794  1.00  0.00     0.029 A 
ATOM     56  N   UNL A   1      41.167  31.202  35.118  1.00  0.00    -0.354 N 
ATOM     57  N   UNL A   1      39.022  32.612  33.696  1.00  0.00    -0.248 NA
ATOM     58  C   UNL A   1      37.384  34.278  33.630  1.00  0.00     0.031 C 
ATOM     59  C   UNL A   1      41.748  31.927  37.134  1.00  0.00     0.029 A 
ATOM     60  C   UNL A   1      40.887  32.162  36.075  1.00  0.00     0.049 A 
ATOM     61  H   UNL A   1      40.701  31.111  34.255  1.00  0.00     0.167 HD
ATOM     62  C   UNL A   1      39.074  33.352  34.873  1.00  0.00     0.074 A 
ATOM     63  C   UNL A   1      38.067  34.387  34.761  1.00  0.00     0.031 C 
ATOM     64  C   UNL A   1      39.883  33.188  35.950  1.00  0.00     0.031 A 
BRANCH  51  65
ATOM     65  C   UNL A   1      43.836  28.458  35.449  1.00  0.00    -0.014 A 
ATOM     66  C   UNL A   1      43.540  27.340  36.252  1.00  0.00     0.010 A 
ATOM     67  C   UNL A   1      45.182  28.781  35.200  1.00  0.00     0.010 A 
ATOM     68  C   UNL A   1      44.567  26.584  36.823  1.00  0.00     0.020 A 
ATOM     69  C   UNL A   1      46.213  28.009  35.744  1.00  0.00     0.020 A 
ATOM     70  C   UNL A   1      45.899  26.924  36.565  1.00  0.00     0.054 A 
BRANCH  70  71
ATOM     71  S   UNL A   1      47.209  25.905  37.296  1.00  0.00     0.124 S 
ATOM     72  O   UNL A   1      46.540  24.615  37.445  1.00  0.00    -0.237 OA
ATOM     73  O   UNL A   1      48.257  25.956  36.280  1.00  0.00    -0.237 OA
ATOM     74  O   UNL A   1      47.524  26.590  38.547  1.00  0.00    -0.744 OA
ENDBRANCH  70  71
ENDBRANCH  51  65
BRANCH  52  75
ATOM     75  C   UNL A   1      36.466  33.502  30.951  1.00  0.00    -0.014 A 
ATOM     76  C   UNL A   1      36.541  33.908  29.608  1.00  0.00     0.010 A 
ATOM     77  C   UNL A   1      35.301  33.790  31.686  1.00  0.00     0.010 A 
ATOM     78  C   UNL A   1      35.484  34.609  29.018  1.00  0.00     0.020 A 
ATOM     79  C   UNL A   1      34.228  34.461  31.092  1.00  0.00     0.020 A 
ATOM     80  C   UNL A   1      34.334  34.879  29.766  1.00  0.00     0.054 A 
BRANCH  80  81
ATOM     81  S   UNL A   1      32.959  35.757  28.971  1.00  0.00     0.124 S 
ATOM     82  O   UNL A   1      32.158  36.171  30.119  1.00  0.00    -0.237 OA
ATOM     83  O   UNL A   1      33.644  36.831  28.255  1.00  0.00    -0.237 OA
ATOM     84  O   UNL A   1      32.351  34.739  28.118  1.00  0.00    -0.744 OA
ENDBRANCH  80  81
ENDBRANCH  52  75
BRANCH  64  85
ATOM     85  C   UNL A   1      39.743  34.174  37.081  1.00  0.00    -0.014 A 
ATOM     86  C   UNL A   1      38.960  33.885  38.213  1.00  0.00     0.010 A 
ATOM     87  C   UNL A   1      40.454  35.387  37.032  1.00  0.00     0.010 A 
ATOM     88  C   UNL A   1      38.865  34.807  39.259  1.00  0.00     0.020 A 
ATOM     89  C   UNL A   1      40.387  36.297  38.090  1.00  0.00     0.020 A 
ATOM     90  C   UNL A   1      39.581  36.006  39.192  1.00  0.00     0.054 A 
BRANCH  90  91
ATOM     91  S   UNL A   1      39.475  37.164  40.584  1.00  0.00     0.124 S 
ATOM     92  O   UNL A   1      40.883  37.386  40.903  1.00  0.00    -0.237 OA
ATOM     93  O   UNL A   1      38.776  38.304  39.997  1.00  0.00    -0.237 OA
ATOM     94  O   UNL A   1      38.717  36.427  41.592  1.00  0.00    -0.744 OA
ENDBRANCH  90  91
ENDBRANCH  64  85
ENDBRANCH  38  39
ENDBRANCH  30  33
ENDBRANCH  28  29
ENDBRANCH  27  28
ENDBRANCH   1  27
TORSDOF 17
ENDMDL
MODEL 3
REMARK VINA RESULT:     -10.7      2.827      3.665
REMARK SMILES O=C(NCCCCCCNC(=O)c1ccc(-c2c3nc(c(-c4ccc(S(=O)(=O)[O-])cc4)c4ccc([nH]4)c(-c4ccc(S(=O)(=O)[O-])cc4)c4nc(c(-c5ccc(S(=O)(=O)[O-])cc5)c5ccc2[nH]5)C=C4)C=C3)cc1)c1ccc(/[NH+]=C2/N=C[NH+]=C3N=NC=C32)cc1
REMARK SMILES IDX 7 1 6 2 5 3 4 4 3 5 1 6 2 7 73 9 74 10 88 11 75 12 87 13
REMARK SMILES IDX 76 14 77 15 78 16 79 18 86 19 80 20 82 21 85 22 81 23 83 24
REMARK SMILES IDX 84 25 8 27 9 28 10 29 11 30 12 32 13 33 14 34 72 35 15 36
REMARK SMILES IDX 71 37 16 38 17 39 18 40 65 41 19 42 70 43 64 44 66 45 20 46
REMARK SMILES IDX 69 47 63 48 62 49 21 51 51 52 32 53 50 54 33 55 36 56 49 57
REMARK SMILES IDX 67 58 34 59 35 60 48 62 68 63 37 64 22 65 23 66 31 67 24 68
REMARK SMILES IDX 30 69 25 70 26 71 27 72 28 73 29 74 52 75 53 76 61 77 54 78
REMARK SMILES IDX 60 79 55 80 56 81 57 82 58 83 59 84 38 85 39 86 47 87 40 88
REMARK SMILES IDX 46 89 41 90 42 91 43 92 44 93 45 94
REMARK H PARENT 3 8 77 17 81 26 10 31 66 50 36 61
REMARK Flexibility Score: inf
ROOT
ATOM      1  C   UNL A   1      33.423  29.529  27.143  1.00  0.00     0.002 C 
ENDROOT
BRANCH   1   2
ATOM      2  C   UNL A   1      34.200  28.429  26.416  1.00  0.00     0.002 C 
BRANCH   2   3
ATOM      3  C   UNL A   1      33.357  27.478  25.567  1.00  0.00     0.021 C 
BRANCH   3   4
ATOM      4  C   UNL A   1      33.648  27.499  24.071  1.00  0.00     0.116 C 
BRANCH   4   5
ATOM      5  N   UNL A   1      32.505  27.901  23.268  1.00  0.00    -0.352 N 
ATOM      6  O   UNL A   1      30.732  27.677  21.901  1.00  0.00    -0.269 OA
ATOM      7  C   UNL A   1      31.572  27.134  22.615  1.00  0.00     0.251 C 
ATOM      8  H   UNL A   1      32.381  28.873  23.179  1.00  0.00     0.163 HD
BRANCH   7   9
ATOM      9  C   UNL A   1      31.613  25.654  22.700  1.00  0.00     0.040 A 
ATOM     10  C   UNL A   1      30.710  24.918  23.466  1.00  0.00     0.018 A 
ATOM     11  C   UNL A   1      32.599  24.981  21.977  1.00  0.00     0.018 A 
ATOM     12  C   UNL A   1      30.933  23.556  23.679  1.00  0.00     0.052 A 
ATOM     13  C   UNL A   1      32.751  23.599  22.120  1.00  0.00     0.052 A 
ATOM     14  C   UNL A   1      31.998  22.892  23.062  1.00  0.00     0.124 A 
BRANCH  14  15
ATOM     15  N   UNL A   1      32.164  21.540  23.366  1.00  0.00    -0.244 N 
ATOM     16  C   UNL A   1      33.081  21.041  24.117  1.00  0.00     0.305 C 
ATOM     17  H   UNL A   1      31.518  20.911  22.970  1.00  0.00     0.311 HD
ATOM     18  N   UNL A   1      33.069  19.671  24.208  1.00  0.00    -0.069 NA
ATOM     19  C   UNL A   1      34.185  21.644  24.845  1.00  0.00     0.159 C 
ATOM     20  C   UNL A   1      34.102  18.995  24.599  1.00  0.00     0.372 C 
ATOM     21  C   UNL A   1      35.297  20.785  25.166  1.00  0.00     0.302 C 
ATOM     22  C   UNL A   1      34.618  22.775  25.383  1.00  0.00     0.177 C 
ATOM     23  N   UNL A   1      35.302  19.511  25.015  1.00  0.00    -0.245 N 
ATOM     24  N   UNL A   1      36.330  21.526  25.686  1.00  0.00     0.010 NA
ATOM     25  N   UNL A   1      35.899  22.700  25.857  1.00  0.00    -0.081 NA
ATOM     26  H   UNL A   1      36.097  18.954  25.184  1.00  0.00     0.266 HD
ENDBRANCH  14  15
ENDBRANCH   7   9
ENDBRANCH   4   5
ENDBRANCH   3   4
ENDBRANCH   2   3
ENDBRANCH   1   2
BRANCH   1  27
ATOM     27  C   UNL A   1      34.254  30.721  27.619  1.00  0.00     0.021 C 
BRANCH  27  28
ATOM     28  C   UNL A   1      35.590  30.364  28.264  1.00  0.00     0.116 C 
BRANCH  28  29
ATOM     29  N   UNL A   1      35.530  30.398  29.714  1.00  0.00    -0.352 N 
ATOM     30  C   UNL A   1      36.505  30.090  30.633  1.00  0.00     0.251 C 
ATOM     31  H   UNL A   1      34.668  30.683  30.095  1.00  0.00     0.163 HD
ATOM     32  O   UNL A   1      36.221  30.002  31.821  1.00  0.00    -0.269 OA
BRANCH  30  33
ATOM     33  C   UNL A   1      37.892  29.845  30.177  1.00  0.00     0.039 A 
ATOM     34  C   UNL A   1      38.864  29.519  31.125  1.00  0.00     0.014 A 
ATOM     35  C   UNL A   1      38.232  29.935  28.825  1.00  0.00     0.014 A 
ATOM     36  C   UNL A   1      40.164  29.225  30.709  1.00  0.00     0.010 A 
ATOM     37  C   UNL A   1      39.507  29.566  28.404  1.00  0.00     0.010 A 
ATOM     38  C   UNL A   1      40.488  29.210  29.342  1.00  0.00    -0.014 A 
BRANCH  38  39
ATOM     39  C   UNL A   1      41.847  28.825  28.877  1.00  0.00     0.031 A 
ATOM     40  C   UNL A   1      42.934  29.860  28.772  1.00  0.00     0.074 A 
ATOM     41  C   UNL A   1      42.087  27.552  28.501  1.00  0.00     0.049 A 
ATOM     42  N   UNL A   1      44.161  29.724  28.336  1.00  0.00    -0.248 NA
ATOM     43  C   UNL A   1      42.595  31.230  29.189  1.00  0.00     0.031 C 
ATOM     44  C   UNL A   1      41.105  26.465  28.517  1.00  0.00     0.029 A 
ATOM     45  N   UNL A   1      43.229  26.959  28.023  1.00  0.00    -0.354 N 
ATOM     46  C   UNL A   1      44.735  30.987  28.421  1.00  0.00     0.074 A 
ATOM     47  C   UNL A   1      43.706  31.888  28.893  1.00  0.00     0.031 C 
ATOM     48  C   UNL A   1      41.693  25.334  28.092  1.00  0.00     0.029 A 
ATOM     49  C   UNL A   1      43.077  25.624  27.729  1.00  0.00     0.049 A 
ATOM     50  H   UNL A   1      44.078  27.444  27.901  1.00  0.00     0.167 HD
ATOM     51  C   UNL A   1      46.010  31.360  28.157  1.00  0.00     0.031 A 
ATOM     52  C   UNL A   1      43.946  24.734  27.212  1.00  0.00     0.031 A 
ATOM     53  C   UNL A   1      47.032  30.462  27.686  1.00  0.00     0.049 A 
ATOM     54  C   UNL A   1      45.349  25.178  26.899  1.00  0.00     0.074 A 
ATOM     55  C   UNL A   1      48.362  30.736  27.422  1.00  0.00     0.029 A 
ATOM     56  N   UNL A   1      46.840  29.117  27.410  1.00  0.00    -0.354 N 
ATOM     57  N   UNL A   1      45.888  26.365  27.042  1.00  0.00    -0.248 NA
ATOM     58  C   UNL A   1      46.266  24.159  26.367  1.00  0.00     0.031 C 
ATOM     59  C   UNL A   1      48.960  29.571  26.931  1.00  0.00     0.029 A 
ATOM     60  C   UNL A   1      48.020  28.553  26.957  1.00  0.00     0.049 A 
ATOM     61  H   UNL A   1      45.988  28.634  27.520  1.00  0.00     0.167 HD
ATOM     62  C   UNL A   1      47.215  26.229  26.645  1.00  0.00     0.074 A 
ATOM     63  C   UNL A   1      47.400  24.841  26.275  1.00  0.00     0.031 C 
ATOM     64  C   UNL A   1      48.191  27.169  26.593  1.00  0.00     0.031 A 
BRANCH  51  65
ATOM     65  C   UNL A   1      46.374  32.807  28.373  1.00  0.00    -0.014 A 
ATOM     66  C   UNL A   1      46.904  33.244  29.602  1.00  0.00     0.010 A 
ATOM     67  C   UNL A   1      46.234  33.733  27.324  1.00  0.00     0.010 A 
ATOM     68  C   UNL A   1      47.251  34.584  29.790  1.00  0.00     0.020 A 
ATOM     69  C   UNL A   1      46.609  35.069  27.497  1.00  0.00     0.020 A 
ATOM     70  C   UNL A   1      47.101  35.489  28.734  1.00  0.00     0.054 A 
BRANCH  70  71
ATOM     71  S   UNL A   1      47.590  37.215  28.999  1.00  0.00     0.124 S 
ATOM     72  O   UNL A   1      47.205  37.427  30.393  1.00  0.00    -0.237 OA
ATOM     73  O   UNL A   1      49.027  37.184  28.743  1.00  0.00    -0.237 OA
ATOM     74  O   UNL A   1      46.800  37.954  28.017  1.00  0.00    -0.744 OA
ENDBRANCH  70  71
ENDBRANCH  51  65
BRANCH  52  75
ATOM     75  C   UNL A   1      43.511  23.332  26.952  1.00  0.00    -0.014 A 
ATOM     76  C   UNL A   1      43.564  22.788  25.657  1.00  0.00     0.010 A 
ATOM     77  C   UNL A   1      43.040  22.531  28.009  1.00  0.00     0.010 A 
ATOM     78  C   UNL A   1      43.129  21.481  25.418  1.00  0.00     0.020 A 
ATOM     79  C   UNL A   1      42.636  21.213  27.781  1.00  0.00     0.020 A 
ATOM     80  C   UNL A   1      42.669  20.701  26.484  1.00  0.00     0.054 A 
BRANCH  80  81
ATOM     81  S   UNL A   1      42.146  18.994  26.159  1.00  0.00     0.124 S 
ATOM     82  O   UNL A   1      43.036  18.606  25.068  1.00  0.00    -0.237 OA
ATOM     83  O   UNL A   1      42.393  18.341  27.442  1.00  0.00    -0.237 OA
ATOM     84  O   UNL A   1      40.737  19.132  25.799  1.00  0.00    -0.744 OA
ENDBRANCH  80  81
ENDBRANCH  52  75
BRANCH  64  85
ATOM     85  C   UNL A   1      49.563  26.724  26.155  1.00  0.00    -0.014 A 
ATOM     86  C   UNL A   1      49.982  26.847  24.818  1.00  0.00     0.010 A 
ATOM     87  C   UNL A   1      50.466  26.225  27.112  1.00  0.00     0.010 A 
ATOM     88  C   UNL A   1      51.267  26.448  24.442  1.00  0.00     0.020 A 
ATOM     89  C   UNL A   1      51.762  25.855  26.746  1.00  0.00     0.020 A 
ATOM     90  C   UNL A   1      52.150  25.956  25.408  1.00  0.00     0.054 A 
BRANCH  90  91
ATOM     91  S   UNL A   1      53.827  25.488  24.901  1.00  0.00     0.124 S 
ATOM     92  O   UNL A   1      54.632  25.987  26.012  1.00  0.00    -0.237 OA
ATOM     93  O   UNL A   1      53.734  24.034  24.795  1.00  0.00    -0.237 OA
ATOM     94  O   UNL A   1      54.014  26.188  23.632  1.00  0.00    -0.744 OA
ENDBRANCH  90  91
ENDBRANCH  64  85
ENDBRANCH  38  39
ENDBRANCH  30  33
ENDBRANCH  28  29
ENDBRANCH  27  28
ENDBRANCH   1  27
TORSDOF 17
ENDMDL
