MODEL 1
REMARK VINA RESULT:     -10.2      0.000      0.000
REMARK SMILES CC(C)N1C[C@@H](C(=O)N[C@@H](C)CC(=O)NCCCCCCNC(=O)c2ccc(-c3c4nc(c(-c5ccc(S(=O)(=O)[O-])cc5)c5ccc([nH]5)c(-c5ccc(S(=O)(=O)[O-])cc5)c5nc(c(-c6ccc(S(=O)(=O)[O-])cc6)c6ccc3[nH]6)C=C5)C=C4)cc2)CC1=O
REMARK SMILES IDX 18 1 17 2 16 3 15 4 13 5 14 6 12 8 10 9 11 10 9 11 7 12 8 13
REMARK SMILES IDX 6 15 4 16 5 17 86 18 85 19 87 20 2 21 1 22 3 23 19 24 20 25
REMARK SMILES IDX 21 26 22 27 23 28 24 30 25 31 26 32 84 33 27 34 83 35 28 36
REMARK SMILES IDX 29 37 30 38 77 39 31 40 82 41 76 42 78 43 32 44 81 45 75 46
REMARK SMILES IDX 74 47 33 49 63 50 44 51 62 52 45 53 48 54 61 55 79 56 46 57
REMARK SMILES IDX 47 58 60 60 80 61 49 62 34 63 35 64 43 65 36 66 42 67 37 68
REMARK SMILES IDX 38 69 39 70 40 71 41 72 64 73 65 74 73 75 66 76 72 77 67 78
REMARK SMILES IDX 68 79 69 80 70 81 71 82 50 83 51 84 59 85 52 86 58 87 53 88
REMARK SMILES IDX 54 89 55 90 56 91 57 92
REMARK H PARENT 15 7 9 14 22 29 78 48 48 59
REMARK Flexibility Score: inf
ROOT
ATOM      1  C   UNL A   1      30.896  27.743  25.110  1.00  0.00     0.002 C 
ENDROOT
BRANCH   1   2
ATOM      2  C   UNL A   1      31.492  28.597  23.994  1.00  0.00     0.021 C 
BRANCH   2   3
ATOM      3  C   UNL A   1      31.205  28.102  22.578  1.00  0.00     0.116 C 
BRANCH   3   4
ATOM      4  N   UNL A   1      32.357  27.393  22.050  1.00  0.00    -0.356 N 
ATOM      5  C   UNL A   1      32.680  26.074  22.148  1.00  0.00     0.222 C 
ATOM      6  O   UNL A   1      33.788  25.712  21.750  1.00  0.00    -0.275 OA
ATOM      7  H   UNL A   1      32.998  27.947  21.549  1.00  0.00     0.163 HD
BRANCH   5   8
ATOM      8  C   UNL A   1      31.691  25.076  22.713  1.00  0.00     0.124 C 
BRANCH   8   9
ATOM      9  C   UNL A   1      32.285  24.067  23.711  1.00  0.00     0.088 C 
ATOM     10  C   UNL A   1      32.021  22.650  23.189  1.00  0.00     0.031 C 
BRANCH   9  11
ATOM     11  N   UNL A   1      31.670  24.166  25.035  1.00  0.00    -0.353 N 
ATOM     12  C   UNL A   1      32.041  23.736  26.266  1.00  0.00     0.225 C 
ATOM     13  O   UNL A   1      31.215  23.893  27.171  1.00  0.00    -0.275 OA
ATOM     14  H   UNL A   1      30.810  24.644  25.032  1.00  0.00     0.163 HD
BRANCH  12  15
ATOM     15  C   UNL A   1      33.372  23.089  26.586  1.00  0.00     0.107 C 
ATOM     16  N   UNL A   1      35.461  22.604  25.634  1.00  0.00    -0.339 N 
ATOM     17  C   UNL A   1      34.605  23.719  25.962  1.00  0.00     0.133 C 
ATOM     18  C   UNL A   1      34.813  21.383  25.735  1.00  0.00     0.223 C 
ATOM     19  C   UNL A   1      33.407  21.615  26.216  1.00  0.00     0.115 C 
ATOM     20  O   UNL A   1      35.273  20.293  25.445  1.00  0.00    -0.275 OA
BRANCH  16  21
ATOM     21  C   UNL A   1      36.779  22.741  25.011  1.00  0.00     0.078 C 
ATOM     22  C   UNL A   1      36.648  23.284  23.588  1.00  0.00     0.031 C 
ATOM     23  C   UNL A   1      37.749  23.593  25.827  1.00  0.00     0.031 C 
ENDBRANCH  16  21
ENDBRANCH  12  15
ENDBRANCH   9  11
ENDBRANCH   8   9
ENDBRANCH   5   8
ENDBRANCH   3   4
ENDBRANCH   2   3
ENDBRANCH   1   2
BRANCH   1  24
ATOM     24  C   UNL A   1      31.616  27.858  26.454  1.00  0.00     0.002 C 
BRANCH  24  25
ATOM     25  C   UNL A   1      32.995  27.196  26.511  1.00  0.00     0.021 C 
BRANCH  25  26
ATOM     26  C   UNL A   1      34.172  28.167  26.467  1.00  0.00     0.116 C 
BRANCH  26  27
ATOM     27  N   UNL A   1      33.801  29.482  26.965  1.00  0.00    -0.352 N 
ATOM     28  C   UNL A   1      34.462  30.298  27.849  1.00  0.00     0.251 C 
ATOM     29  H   UNL A   1      32.953  29.839  26.618  1.00  0.00     0.163 HD
ATOM     30  O   UNL A   1      33.877  31.251  28.356  1.00  0.00    -0.269 OA
BRANCH  28  31
ATOM     31  C   UNL A   1      35.873  30.021  28.193  1.00  0.00     0.039 A 
ATOM     32  C   UNL A   1      36.181  29.553  29.473  1.00  0.00     0.014 A 
ATOM     33  C   UNL A   1      36.891  30.240  27.262  1.00  0.00     0.014 A 
ATOM     34  C   UNL A   1      37.505  29.250  29.797  1.00  0.00     0.010 A 
ATOM     35  C   UNL A   1      38.198  29.864  27.561  1.00  0.00     0.010 A 
ATOM     36  C   UNL A   1      38.521  29.371  28.834  1.00  0.00    -0.014 A 
BRANCH  36  37
ATOM     37  C   UNL A   1      39.922  28.984  29.140  1.00  0.00     0.031 A 
ATOM     38  C   UNL A   1      40.863  29.976  29.774  1.00  0.00     0.074 A 
ATOM     39  C   UNL A   1      40.365  27.759  28.794  1.00  0.00     0.049 A 
ATOM     40  N   UNL A   1      42.128  29.835  30.076  1.00  0.00    -0.248 NA
ATOM     41  C   UNL A   1      40.317  31.307  30.090  1.00  0.00     0.031 C 
ATOM     42  C   UNL A   1      39.562  26.719  28.144  1.00  0.00     0.029 A 
ATOM     43  N   UNL A   1      41.600  27.177  28.938  1.00  0.00    -0.354 N 
ATOM     44  C   UNL A   1      42.533  31.057  30.596  1.00  0.00     0.074 A 
ATOM     45  C   UNL A   1      41.394  31.944  30.529  1.00  0.00     0.031 C 
ATOM     46  C   UNL A   1      40.314  25.619  27.979  1.00  0.00     0.029 A 
ATOM     47  C   UNL A   1      41.664  25.887  28.464  1.00  0.00     0.049 A 
ATOM     48  H   UNL A   1      42.369  27.640  29.344  1.00  0.00     0.167 HD
ATOM     49  C   UNL A   1      43.742  31.407  31.099  1.00  0.00     0.031 A 
ATOM     50  C   UNL A   1      42.694  25.019  28.416  1.00  0.00     0.031 A 
ATOM     51  C   UNL A   1      44.870  30.516  31.174  1.00  0.00     0.049 A 
ATOM     52  C   UNL A   1      44.032  25.443  28.960  1.00  0.00     0.074 A 
ATOM     53  C   UNL A   1      46.117  30.756  31.727  1.00  0.00     0.029 A 
ATOM     54  N   UNL A   1      44.895  29.222  30.677  1.00  0.00    -0.354 N 
ATOM     55  N   UNL A   1      44.373  26.580  29.520  1.00  0.00    -0.248 NA
ATOM     56  C   UNL A   1      45.123  24.461  28.874  1.00  0.00     0.031 C 
ATOM     57  C   UNL A   1      46.916  29.630  31.503  1.00  0.00     0.029 A 
ATOM     58  C   UNL A   1      46.146  28.663  30.878  1.00  0.00     0.049 A 
ATOM     59  H   UNL A   1      44.135  28.768  30.245  1.00  0.00     0.167 HD
ATOM     60  C   UNL A   1      45.708  26.435  29.885  1.00  0.00     0.074 A 
ATOM     61  C   UNL A   1      46.106  25.098  29.496  1.00  0.00     0.031 C 
ATOM     62  C   UNL A   1      46.528  27.329  30.490  1.00  0.00     0.031 A 
BRANCH  49  63
ATOM     63  C   UNL A   1      43.917  32.818  31.598  1.00  0.00    -0.014 A 
ATOM     64  C   UNL A   1      44.353  33.849  30.745  1.00  0.00     0.010 A 
ATOM     65  C   UNL A   1      43.580  33.131  32.928  1.00  0.00     0.010 A 
ATOM     66  C   UNL A   1      44.477  35.157  31.221  1.00  0.00     0.020 A 
ATOM     67  C   UNL A   1      43.674  34.444  33.400  1.00  0.00     0.020 A 
ATOM     68  C   UNL A   1      44.134  35.447  32.545  1.00  0.00     0.054 A 
BRANCH  68  69
ATOM     69  S   UNL A   1      44.264  37.162  33.122  1.00  0.00     0.124 S 
ATOM     70  O   UNL A   1      43.039  37.310  33.904  1.00  0.00    -0.237 OA
ATOM     71  O   UNL A   1      45.504  37.145  33.894  1.00  0.00    -0.237 OA
ATOM     72  O   UNL A   1      44.312  37.941  31.887  1.00  0.00    -0.744 OA
ENDBRANCH  68  69
ENDBRANCH  49  63
BRANCH  50  73
ATOM     73  C   UNL A   1      42.504  23.657  27.842  1.00  0.00    -0.014 A 
ATOM     74  C   UNL A   1      42.307  22.549  28.683  1.00  0.00     0.010 A 
ATOM     75  C   UNL A   1      42.529  23.460  26.449  1.00  0.00     0.010 A 
ATOM     76  C   UNL A   1      42.171  21.265  28.147  1.00  0.00     0.020 A 
ATOM     77  C   UNL A   1      42.359  22.183  25.907  1.00  0.00     0.020 A 
ATOM     78  C   UNL A   1      42.198  21.091  26.761  1.00  0.00     0.054 A 
BRANCH  78  79
ATOM     79  S   UNL A   1      41.989  19.420  26.086  1.00  0.00     0.124 S 
ATOM     80  O   UNL A   1      40.551  19.370  25.838  1.00  0.00    -0.237 OA
ATOM     81  O   UNL A   1      42.837  19.452  24.898  1.00  0.00    -0.237 OA
ATOM     82  O   UNL A   1      42.468  18.554  27.162  1.00  0.00    -0.744 OA
ENDBRANCH  78  79
ENDBRANCH  50  73
BRANCH  62  83
ATOM     83  C   UNL A   1      47.930  26.879  30.815  1.00  0.00    -0.014 A 
ATOM     84  C   UNL A   1      48.998  27.108  29.929  1.00  0.00     0.010 A 
ATOM     85  C   UNL A   1      48.187  26.266  32.055  1.00  0.00     0.010 A 
ATOM     86  C   UNL A   1      50.292  26.700  30.265  1.00  0.00     0.020 A 
ATOM     87  C   UNL A   1      49.485  25.888  32.408  1.00  0.00     0.020 A 
ATOM     88  C   UNL A   1      50.527  26.094  31.504  1.00  0.00     0.054 A 
BRANCH  88  89
ATOM     89  S   UNL A   1      52.224  25.617  31.933  1.00  0.00     0.124 S 
ATOM     90  O   UNL A   1      52.067  24.202  32.262  1.00  0.00    -0.237 OA
ATOM     91  O   UNL A   1      52.956  25.899  30.701  1.00  0.00    -0.237 OA
ATOM     92  O   UNL A   1      52.554  26.485  33.060  1.00  0.00    -0.744 OA
ENDBRANCH  88  89
ENDBRANCH  62  83
ENDBRANCH  36  37
ENDBRANCH  28  31
ENDBRANCH  26  27
ENDBRANCH  25  26
ENDBRANCH  24  25
ENDBRANCH   1  24
TORSDOF 20
ENDMDL
MODEL 2
REMARK VINA RESULT:      -9.5      4.817      9.351
REMARK SMILES CC(C)N1C[C@@H](C(=O)N[C@@H](C)CC(=O)NCCCCCCNC(=O)c2ccc(-c3c4nc(c(-c5ccc(S(=O)(=O)[O-])cc5)c5ccc([nH]5)c(-c5ccc(S(=O)(=O)[O-])cc5)c5nc(c(-c6ccc(S(=O)(=O)[O-])cc6)c6ccc3[nH]6)C=C5)C=C4)cc2)CC1=O
REMARK SMILES IDX 18 1 17 2 16 3 15 4 13 5 14 6 12 8 10 9 11 10 9 11 7 12 8 13
REMARK SMILES IDX 6 15 4 16 5 17 86 18 85 19 87 20 2 21 1 22 3 23 19 24 20 25
REMARK SMILES IDX 21 26 22 27 23 28 24 30 25 31 26 32 84 33 27 34 83 35 28 36
REMARK SMILES IDX 29 37 30 38 77 39 31 40 82 41 76 42 78 43 32 44 81 45 75 46
REMARK SMILES IDX 74 47 33 49 63 50 44 51 62 52 45 53 48 54 61 55 79 56 46 57
REMARK SMILES IDX 47 58 60 60 80 61 49 62 34 63 35 64 43 65 36 66 42 67 37 68
REMARK SMILES IDX 38 69 39 70 40 71 41 72 64 73 65 74 73 75 66 76 72 77 67 78
REMARK SMILES IDX 68 79 69 80 70 81 71 82 50 83 51 84 59 85 52 86 58 87 53 88
REMARK SMILES IDX 54 89 55 90 56 91 57 92
REMARK H PARENT 15 7 9 14 22 29 78 48 48 59
REMARK Flexibility Score: inf
ROOT
ATOM      1  C   UNL A   1      35.505  31.011  28.690  1.00  0.00     0.002 C 
ENDROOT
BRANCH   1   2
ATOM      2  C   UNL A   1      35.429  29.814  27.745  1.00  0.00     0.021 C 
BRANCH   2   3
ATOM      3  C   UNL A   1      34.187  29.769  26.857  1.00  0.00     0.116 C 
BRANCH   3   4
ATOM      4  N   UNL A   1      33.064  29.217  27.592  1.00  0.00    -0.356 N 
ATOM      5  C   UNL A   1      32.389  28.052  27.390  1.00  0.00     0.222 C 
ATOM      6  O   UNL A   1      31.365  27.848  28.044  1.00  0.00    -0.275 OA
ATOM      7  H   UNL A   1      32.744  29.763  28.345  1.00  0.00     0.163 HD
BRANCH   5   8
ATOM      8  C   UNL A   1      32.898  27.025  26.400  1.00  0.00     0.124 C 
BRANCH   8   9
ATOM      9  C   UNL A   1      31.806  26.322  25.575  1.00  0.00     0.088 C 
ATOM     10  C   UNL A   1      30.926  27.389  24.915  1.00  0.00     0.031 C 
BRANCH   9  11
ATOM     11  N   UNL A   1      30.934  25.487  26.402  1.00  0.00    -0.353 N 
ATOM     12  C   UNL A   1      30.707  24.152  26.461  1.00  0.00     0.225 C 
ATOM     13  O   UNL A   1      29.801  23.785  27.216  1.00  0.00    -0.275 OA
ATOM     14  H   UNL A   1      30.401  26.002  27.050  1.00  0.00     0.163 HD
BRANCH  12  15
ATOM     15  C   UNL A   1      31.478  23.114  25.673  1.00  0.00     0.107 C 
ATOM     16  N   UNL A   1      33.532  22.772  24.593  1.00  0.00    -0.339 N 
ATOM     17  C   UNL A   1      32.979  23.065  25.894  1.00  0.00     0.133 C 
ATOM     18  C   UNL A   1      32.599  22.891  23.575  1.00  0.00     0.223 C 
ATOM     19  C   UNL A   1      31.267  23.246  24.174  1.00  0.00     0.115 C 
ATOM     20  O   UNL A   1      32.812  22.776  22.381  1.00  0.00    -0.275 OA
BRANCH  16  21
ATOM     21  C   UNL A   1      34.965  22.623  24.328  1.00  0.00     0.078 C 
ATOM     22  C   UNL A   1      35.746  23.795  24.923  1.00  0.00     0.031 C 
ATOM     23  C   UNL A   1      35.535  21.292  24.814  1.00  0.00     0.031 C 
ENDBRANCH  16  21
ENDBRANCH  12  15
ENDBRANCH   9  11
ENDBRANCH   8   9
ENDBRANCH   5   8
ENDBRANCH   3   4
ENDBRANCH   2   3
ENDBRANCH   1   2
BRANCH   1  24
ATOM     24  C   UNL A   1      36.116  32.271  28.076  1.00  0.00     0.002 C 
BRANCH  24  25
ATOM     25  C   UNL A   1      35.148  33.445  27.905  1.00  0.00     0.021 C 
BRANCH  25  26
ATOM     26  C   UNL A   1      33.696  33.132  28.254  1.00  0.00     0.116 C 
BRANCH  26  27
ATOM     27  N   UNL A   1      33.091  34.197  29.038  1.00  0.00    -0.352 N 
ATOM     28  C   UNL A   1      33.359  34.594  30.324  1.00  0.00     0.251 C 
ATOM     29  H   UNL A   1      32.386  34.708  28.579  1.00  0.00     0.163 HD
ATOM     30  O   UNL A   1      32.575  35.332  30.914  1.00  0.00    -0.269 OA
BRANCH  28  31
ATOM     31  C   UNL A   1      34.588  34.122  30.999  1.00  0.00     0.039 A 
ATOM     32  C   UNL A   1      34.570  32.895  31.664  1.00  0.00     0.014 A 
ATOM     33  C   UNL A   1      35.750  34.899  30.990  1.00  0.00     0.014 A 
ATOM     34  C   UNL A   1      35.735  32.421  32.271  1.00  0.00     0.010 A 
ATOM     35  C   UNL A   1      36.929  34.390  31.527  1.00  0.00     0.010 A 
ATOM     36  C   UNL A   1      36.934  33.148  32.180  1.00  0.00    -0.014 A 
BRANCH  36  37
ATOM     37  C   UNL A   1      38.199  32.625  32.756  1.00  0.00     0.031 A 
ATOM     38  C   UNL A   1      39.101  31.742  31.931  1.00  0.00     0.074 A 
ATOM     39  C   UNL A   1      38.507  32.895  34.040  1.00  0.00     0.049 A 
ATOM     40  N   UNL A   1      40.220  31.159  32.275  1.00  0.00    -0.248 NA
ATOM     41  C   UNL A   1      38.679  31.462  30.548  1.00  0.00     0.031 C 
ATOM     42  C   UNL A   1      37.700  33.709  34.953  1.00  0.00     0.029 A 
ATOM     43  N   UNL A   1      39.583  32.514  34.804  1.00  0.00    -0.354 N 
ATOM     44  C   UNL A   1      40.625  30.430  31.164  1.00  0.00     0.074 A 
ATOM     45  C   UNL A   1      39.611  30.606  30.150  1.00  0.00     0.031 C 
ATOM     46  C   UNL A   1      38.325  33.794  36.138  1.00  0.00     0.029 A 
ATOM     47  C   UNL A   1      39.550  33.004  36.089  1.00  0.00     0.049 A 
ATOM     48  H   UNL A   1      40.310  31.944  34.463  1.00  0.00     0.167 HD
ATOM     49  C   UNL A   1      41.748  29.691  30.997  1.00  0.00     0.031 A 
ATOM     50  C   UNL A   1      40.405  32.830  37.116  1.00  0.00     0.031 A 
ATOM     51  C   UNL A   1      42.762  29.528  32.007  1.00  0.00     0.049 A 
ATOM     52  C   UNL A   1      41.634  31.984  36.910  1.00  0.00     0.074 A 
ATOM     53  C   UNL A   1      43.967  28.855  31.911  1.00  0.00     0.029 A 
ATOM     54  N   UNL A   1      42.687  30.035  33.296  1.00  0.00    -0.354 N 
ATOM     55  N   UNL A   1      42.037  31.367  35.825  1.00  0.00    -0.248 NA
ATOM     56  C   UNL A   1      42.527  31.821  38.065  1.00  0.00     0.031 C 
ATOM     57  C   UNL A   1      44.590  28.896  33.163  1.00  0.00     0.029 A 
ATOM     58  C   UNL A   1      43.809  29.658  34.016  1.00  0.00     0.049 A 
ATOM     59  H   UNL A   1      41.947  30.581  33.646  1.00  0.00     0.167 HD
ATOM     60  C   UNL A   1      43.250  30.771  36.158  1.00  0.00     0.074 A 
ATOM     61  C   UNL A   1      43.520  31.116  37.539  1.00  0.00     0.031 C 
ATOM     62  C   UNL A   1      44.066  30.011  35.390  1.00  0.00     0.031 A 
BRANCH  49  63
ATOM     63  C   UNL A   1      41.942  28.988  29.678  1.00  0.00    -0.014 A 
ATOM     64  C   UNL A   1      41.517  27.661  29.486  1.00  0.00     0.010 A 
ATOM     65  C   UNL A   1      42.502  29.689  28.594  1.00  0.00     0.010 A 
ATOM     66  C   UNL A   1      41.675  27.039  28.244  1.00  0.00     0.020 A 
ATOM     67  C   UNL A   1      42.635  29.081  27.342  1.00  0.00     0.020 A 
ATOM     68  C   UNL A   1      42.232  27.755  27.179  1.00  0.00     0.054 A 
BRANCH  68  69
ATOM     69  S   UNL A   1      42.386  26.935  25.568  1.00  0.00     0.124 S 
ATOM     70  O   UNL A   1      43.590  26.128  25.755  1.00  0.00    -0.237 OA
ATOM     71  O   UNL A   1      41.137  26.184  25.472  1.00  0.00    -0.237 OA
ATOM     72  O   UNL A   1      42.519  28.042  24.625  1.00  0.00    -0.744 OA
ENDBRANCH  68  69
ENDBRANCH  49  63
BRANCH  50  73
ATOM     73  C   UNL A   1      40.141  33.477  38.433  1.00  0.00    -0.014 A 
ATOM     74  C   UNL A   1      40.716  34.721  38.745  1.00  0.00     0.010 A 
ATOM     75  C   UNL A   1      39.320  32.847  39.385  1.00  0.00     0.010 A 
ATOM     76  C   UNL A   1      40.503  35.308  39.995  1.00  0.00     0.020 A 
ATOM     77  C   UNL A   1      39.076  33.447  40.624  1.00  0.00     0.020 A 
ATOM     78  C   UNL A   1      39.683  34.667  40.928  1.00  0.00     0.054 A 
BRANCH  78  79
ATOM     79  S   UNL A   1      39.395  35.462  42.533  1.00  0.00     0.124 S 
ATOM     80  O   UNL A   1      39.442  36.878  42.183  1.00  0.00    -0.237 OA
ATOM     81  O   UNL A   1      38.083  34.945  42.909  1.00  0.00    -0.237 OA
ATOM     82  O   UNL A   1      40.505  34.983  43.355  1.00  0.00    -0.744 OA
ENDBRANCH  78  79
ENDBRANCH  50  73
BRANCH  62  83
ATOM     83  C   UNL A   1      45.357  29.534  36.005  1.00  0.00    -0.014 A 
ATOM     84  C   UNL A   1      46.529  30.309  35.946  1.00  0.00     0.010 A 
ATOM     85  C   UNL A   1      45.379  28.311  36.702  1.00  0.00     0.010 A 
ATOM     86  C   UNL A   1      47.707  29.854  36.544  1.00  0.00     0.020 A 
ATOM     87  C   UNL A   1      46.546  27.869  37.329  1.00  0.00     0.020 A 
ATOM     88  C   UNL A   1      47.708  28.636  37.233  1.00  0.00     0.054 A 
BRANCH  88  89
ATOM     89  S   UNL A   1      49.238  28.091  38.039  1.00  0.00     0.124 S 
ATOM     90  O   UNL A   1      49.666  29.304  38.731  1.00  0.00    -0.237 OA
ATOM     91  O   UNL A   1      48.777  27.005  38.900  1.00  0.00    -0.237 OA
ATOM     92  O   UNL A   1      50.089  27.677  36.925  1.00  0.00    -0.744 OA
ENDBRANCH  88  89
ENDBRANCH  62  83
ENDBRANCH  36  37
ENDBRANCH  28  31
ENDBRANCH  26  27
ENDBRANCH  25  26
ENDBRANCH  24  25
ENDBRANCH   1  24
TORSDOF 20
ENDMDL
MODEL 3
REMARK VINA RESULT:      -9.5      4.488     10.339
REMARK SMILES CC(C)N1C[C@@H](C(=O)N[C@@H](C)CC(=O)NCCCCCCNC(=O)c2ccc(-c3c4nc(c(-c5ccc(S(=O)(=O)[O-])cc5)c5ccc([nH]5)c(-c5ccc(S(=O)(=O)[O-])cc5)c5nc(c(-c6ccc(S(=O)(=O)[O-])cc6)c6ccc3[nH]6)C=C5)C=C4)cc2)CC1=O
REMARK SMILES IDX 18 1 17 2 16 3 15 4 13 5 14 6 12 8 10 9 11 10 9 11 7 12 8 13
REMARK SMILES IDX 6 15 4 16 5 17 86 18 85 19 87 20 2 21 1 22 3 23 19 24 20 25
REMARK SMILES IDX 21 26 22 27 23 28 24 30 25 31 26 32 84 33 27 34 83 35 28 36
REMARK SMILES IDX 29 37 30 38 77 39 31 40 82 41 76 42 78 43 32 44 81 45 75 46
REMARK SMILES IDX 74 47 33 49 63 50 44 51 62 52 45 53 48 54 61 55 79 56 46 57
REMARK SMILES IDX 47 58 60 60 80 61 49 62 34 63 35 64 43 65 36 66 42 67 37 68
REMARK SMILES IDX 38 69 39 70 40 71 41 72 64 73 65 74 73 75 66 76 72 77 67 78
REMARK SMILES IDX 68 79 69 80 70 81 71 82 50 83 51 84 59 85 52 86 58 87 53 88
REMARK SMILES IDX 54 89 55 90 56 91 57 92
REMARK H PARENT 15 7 9 14 22 29 78 48 48 59
REMARK Flexibility Score: inf
ROOT
ATOM      1  C   UNL A   1      36.081  23.620  26.114  1.00  0.00     0.002 C 
ENDROOT
BRANCH   1   2
ATOM      2  C   UNL A   1      35.076  24.620  25.548  1.00  0.00     0.021 C 
BRANCH   2   3
ATOM      3  C   UNL A   1      33.610  24.287  25.818  1.00  0.00     0.116 C 
BRANCH   3   4
ATOM      4  N   UNL A   1      33.443  22.855  25.989  1.00  0.00    -0.356 N 
ATOM      5  C   UNL A   1      33.393  21.872  25.048  1.00  0.00     0.222 C 
ATOM      6  O   UNL A   1      33.094  20.733  25.408  1.00  0.00    -0.275 OA
ATOM      7  H   UNL A   1      33.355  22.550  26.921  1.00  0.00     0.163 HD
BRANCH   5   8
ATOM      8  C   UNL A   1      33.715  22.172  23.599  1.00  0.00     0.124 C 
BRANCH   8   9
ATOM      9  C   UNL A   1      32.503  22.549  22.729  1.00  0.00     0.088 C 
ATOM     10  C   UNL A   1      31.886  21.264  22.166  1.00  0.00     0.031 C 
BRANCH   9  11
ATOM     11  N   UNL A   1      32.876  23.388  21.589  1.00  0.00    -0.353 N 
ATOM     12  C   UNL A   1      32.945  24.730  21.407  1.00  0.00     0.225 C 
ATOM     13  O   UNL A   1      33.194  25.113  20.258  1.00  0.00    -0.275 OA
ATOM     14  H   UNL A   1      33.130  22.873  20.790  1.00  0.00     0.163 HD
BRANCH  12  15
ATOM     15  C   UNL A   1      32.736  25.758  22.499  1.00  0.00     0.107 C 
ATOM     16  N   UNL A   1      31.681  27.810  22.921  1.00  0.00    -0.339 N 
ATOM     17  C   UNL A   1      31.386  26.450  22.536  1.00  0.00     0.133 C 
ATOM     18  C   UNL A   1      33.036  28.099  22.871  1.00  0.00     0.223 C 
ATOM     19  C   UNL A   1      33.785  26.858  22.471  1.00  0.00     0.115 C 
ATOM     20  O   UNL A   1      33.552  29.184  23.070  1.00  0.00    -0.275 OA
BRANCH  16  21
ATOM     21  C   UNL A   1      30.664  28.850  23.092  1.00  0.00     0.078 C 
ATOM     22  C   UNL A   1      29.261  28.253  22.984  1.00  0.00     0.031 C 
ATOM     23  C   UNL A   1      30.817  29.638  24.390  1.00  0.00     0.031 C 
ENDBRANCH  16  21
ENDBRANCH  12  15
ENDBRANCH   9  11
ENDBRANCH   8   9
ENDBRANCH   5   8
ENDBRANCH   3   4
ENDBRANCH   2   3
ENDBRANCH   1   2
BRANCH   1  24
ATOM     24  C   UNL A   1      37.467  23.678  25.473  1.00  0.00     0.002 C 
BRANCH  24  25
ATOM     25  C   UNL A   1      38.541  22.840  26.172  1.00  0.00     0.021 C 
BRANCH  25  26
ATOM     26  C   UNL A   1      39.601  23.650  26.915  1.00  0.00     0.116 C 
BRANCH  26  27
ATOM     27  N   UNL A   1      40.599  24.189  26.005  1.00  0.00    -0.352 N 
ATOM     28  C   UNL A   1      41.216  25.415  26.015  1.00  0.00     0.251 C 
ATOM     29  H   UNL A   1      40.872  23.587  25.276  1.00  0.00     0.163 HD
ATOM     30  O   UNL A   1      41.832  25.798  25.025  1.00  0.00    -0.269 OA
BRANCH  28  31
ATOM     31  C   UNL A   1      41.128  26.275  27.216  1.00  0.00     0.039 A 
ATOM     32  C   UNL A   1      41.991  27.366  27.335  1.00  0.00     0.014 A 
ATOM     33  C   UNL A   1      40.208  25.993  28.229  1.00  0.00     0.014 A 
ATOM     34  C   UNL A   1      41.891  28.207  28.445  1.00  0.00     0.010 A 
ATOM     35  C   UNL A   1      40.057  26.876  29.294  1.00  0.00     0.010 A 
ATOM     36  C   UNL A   1      40.901  27.990  29.418  1.00  0.00    -0.014 A 
BRANCH  36  37
ATOM     37  C   UNL A   1      40.733  28.917  30.566  1.00  0.00     0.031 A 
ATOM     38  C   UNL A   1      41.595  28.769  31.794  1.00  0.00     0.074 A 
ATOM     39  C   UNL A   1      39.766  29.855  30.529  1.00  0.00     0.049 A 
ATOM     40  N   UNL A   1      41.566  29.455  32.908  1.00  0.00    -0.248 NA
ATOM     41  C   UNL A   1      42.606  27.698  31.776  1.00  0.00     0.031 C 
ATOM     42  C   UNL A   1      38.844  30.078  29.412  1.00  0.00     0.029 A 
ATOM     43  N   UNL A   1      39.394  30.798  31.455  1.00  0.00    -0.354 N 
ATOM     44  C   UNL A   1      42.535  28.889  33.727  1.00  0.00     0.074 A 
ATOM     45  C   UNL A   1      43.104  27.775  33.002  1.00  0.00     0.031 C 
ATOM     46  C   UNL A   1      38.039  31.112  29.703  1.00  0.00     0.029 A 
ATOM     47  C   UNL A   1      38.351  31.596  31.044  1.00  0.00     0.049 A 
ATOM     48  H   UNL A   1      39.833  30.895  32.331  1.00  0.00     0.167 HD
ATOM     49  C   UNL A   1      42.926  29.270  34.967  1.00  0.00     0.031 A 
ATOM     50  C   UNL A   1      37.711  32.599  31.677  1.00  0.00     0.031 A 
ATOM     51  C   UNL A   1      42.363  30.387  35.680  1.00  0.00     0.049 A 
ATOM     52  C   UNL A   1      38.151  32.986  33.064  1.00  0.00     0.074 A 
ATOM     53  C   UNL A   1      42.738  30.894  36.913  1.00  0.00     0.029 A 
ATOM     54  N   UNL A   1      41.306  31.164  35.232  1.00  0.00    -0.354 N 
ATOM     55  N   UNL A   1      39.122  32.487  33.791  1.00  0.00    -0.248 NA
ATOM     56  C   UNL A   1      37.413  34.079  33.712  1.00  0.00     0.031 C 
ATOM     57  C   UNL A   1      41.861  31.934  37.240  1.00  0.00     0.029 A 
ATOM     58  C   UNL A   1      40.990  32.123  36.180  1.00  0.00     0.049 A 
ATOM     59  H   UNL A   1      40.847  31.050  34.369  1.00  0.00     0.167 HD
ATOM     60  C   UNL A   1      39.135  33.230  34.967  1.00  0.00     0.074 A 
ATOM     61  C   UNL A   1      38.084  34.221  34.847  1.00  0.00     0.031 C 
ATOM     62  C   UNL A   1      39.944  33.106  36.047  1.00  0.00     0.031 A 
BRANCH  49  63
ATOM     63  C   UNL A   1      44.008  28.468  35.644  1.00  0.00    -0.014 A 
ATOM     64  C   UNL A   1      43.701  27.358  36.451  1.00  0.00     0.010 A 
ATOM     65  C   UNL A   1      45.358  28.795  35.418  1.00  0.00     0.010 A 
ATOM     66  C   UNL A   1      44.721  26.608  37.042  1.00  0.00     0.020 A 
ATOM     67  C   UNL A   1      46.383  28.029  35.982  1.00  0.00     0.020 A 
ATOM     68  C   UNL A   1      46.057  26.947  36.802  1.00  0.00     0.054 A 
BRANCH  68  69
ATOM     69  S   UNL A   1      47.360  25.930  37.549  1.00  0.00     0.124 S 
ATOM     70  O   UNL A   1      48.510  26.248  36.706  1.00  0.00    -0.237 OA
ATOM     71  O   UNL A   1      47.422  26.443  38.914  1.00  0.00    -0.237 OA
ATOM     72  O   UNL A   1      46.853  24.566  37.420  1.00  0.00    -0.744 OA
ENDBRANCH  68  69
ENDBRANCH  49  63
BRANCH  50  73
ATOM     73  C   UNL A   1      36.591  33.318  31.007  1.00  0.00    -0.014 A 
ATOM     74  C   UNL A   1      35.295  33.288  31.551  1.00  0.00     0.010 A 
ATOM     75  C   UNL A   1      36.812  34.028  29.813  1.00  0.00     0.010 A 
ATOM     76  C   UNL A   1      34.236  33.927  30.900  1.00  0.00     0.020 A 
ATOM     77  C   UNL A   1      35.763  34.697  29.176  1.00  0.00     0.020 A 
ATOM     78  C   UNL A   1      34.477  34.628  29.716  1.00  0.00     0.054 A 
BRANCH  78  79
ATOM     79  S   UNL A   1      33.094  35.476  28.905  1.00  0.00     0.124 S 
ATOM     80  O   UNL A   1      33.785  36.435  28.048  1.00  0.00    -0.237 OA
ATOM     81  O   UNL A   1      32.416  34.382  28.214  1.00  0.00    -0.237 OA
ATOM     82  O   UNL A   1      32.347  36.057  30.020  1.00  0.00    -0.744 OA
ENDBRANCH  78  79
ENDBRANCH  50  73
BRANCH  62  83
ATOM     83  C   UNL A   1      39.763  34.093  37.171  1.00  0.00    -0.014 A 
ATOM     84  C   UNL A   1      39.039  33.759  38.330  1.00  0.00     0.010 A 
ATOM     85  C   UNL A   1      40.376  35.356  37.087  1.00  0.00     0.010 A 
ATOM     86  C   UNL A   1      38.904  34.685  39.368  1.00  0.00     0.020 A 
ATOM     87  C   UNL A   1      40.272  36.271  38.137  1.00  0.00     0.020 A 
ATOM     88  C   UNL A   1      39.523  35.936  39.265  1.00  0.00     0.054 A 
BRANCH  88  89
ATOM     89  S   UNL A   1      39.370  37.101  40.647  1.00  0.00     0.124 S 
ATOM     90  O   UNL A   1      40.767  37.335  41.002  1.00  0.00    -0.237 OA
ATOM     91  O   UNL A   1      38.678  38.232  40.036  1.00  0.00    -0.237 OA
ATOM     92  O   UNL A   1      38.591  36.363  41.639  1.00  0.00    -0.744 OA
ENDBRANCH  88  89
ENDBRANCH  62  83
ENDBRANCH  36  37
ENDBRANCH  28  31
ENDBRANCH  26  27
ENDBRANCH  25  26
ENDBRANCH  24  25
ENDBRANCH   1  24
TORSDOF 20
ENDMDL
