MODEL 1
REMARK VINA RESULT:      -9.7      0.000      0.000
REMARK SMILES COc1cccc([C@@H]2CC(c3cccc(C)c3)=NN2C(=O)CCC(=O)NCCCCCCNC(=O)c2ccc(-c3c4nc(c(-c5ccc(S(=O)(=O)[O-])cc5)c5ccc([nH]5)c(-c5ccc(S(=O)(=O)[O-])cc5)c5nc(c(-c6ccc(S(=O)(=O)[O-])cc6)c6ccc3[nH]6)C=C5)C=C4)cc2)c1
REMARK SMILES IDX 28 1 27 2 26 3 24 4 25 5 23 7 22 8 20 9 21 10 19 11 8 12
REMARK SMILES IDX 9 13 10 14 18 15 7 16 3 17 4 18 96 19 5 20 6 21 2 22 1 23
REMARK SMILES IDX 11 24 12 25 17 26 13 27 15 28 14 29 16 30 29 31 30 32 31 33
REMARK SMILES IDX 32 34 33 35 34 36 35 38 36 39 37 40 95 41 38 42 94 43 39 44
REMARK SMILES IDX 40 45 41 46 88 47 42 48 93 49 87 50 89 51 43 52 92 53 86 54
REMARK SMILES IDX 85 55 44 57 74 58 55 59 73 60 56 61 59 62 72 63 90 64 57 65
REMARK SMILES IDX 58 66 71 68 91 69 60 70 45 71 46 72 54 73 47 74 53 75 48 76
REMARK SMILES IDX 49 77 50 78 51 79 52 80 75 81 76 82 84 83 77 84 83 85 78 86
REMARK SMILES IDX 79 87 80 88 81 89 82 90 61 91 62 92 70 93 63 94 69 95 64 96
REMARK SMILES IDX 65 97 66 98 67 99 68 100
REMARK H PARENT 26 6 33 37 89 56 59 67
REMARK Flexibility Score: inf
ROOT
ATOM      1  C   UNL A   1      44.226  24.193  31.000  1.00  0.00     0.021 C 
ENDROOT
BRANCH   1   2
ATOM      2  C   UNL A   1      44.221  23.448  32.336  1.00  0.00     0.116 C 
BRANCH   2   3
ATOM      3  N   UNL A   1      44.203  24.252  33.548  1.00  0.00    -0.356 N 
ATOM      4  C   UNL A   1      44.534  23.927  34.824  1.00  0.00     0.220 C 
ATOM      5  O   UNL A   1      44.712  24.834  35.643  1.00  0.00    -0.275 OA
ATOM      6  H   UNL A   1      43.903  25.181  33.422  1.00  0.00     0.163 HD
BRANCH   4   7
ATOM      7  C   UNL A   1      44.585  22.480  35.255  1.00  0.00     0.110 C 
BRANCH   7   8
ATOM      8  C   UNL A   1      45.953  21.869  34.948  1.00  0.00     0.112 C 
BRANCH   8   9
ATOM      9  C   UNL A   1      46.893  22.060  36.124  1.00  0.00     0.243 C 
ATOM     10  O   UNL A   1      47.455  23.147  36.270  1.00  0.00    -0.273 OA
BRANCH   9  11
ATOM     11  N   UNL A   1      47.142  20.941  36.904  1.00  0.00    -0.225 N 
ATOM     12  C   UNL A   1      48.440  20.471  37.405  1.00  0.00     0.147 C 
ATOM     13  C   UNL A   1      48.075  19.310  38.327  1.00  0.00     0.091 C 
ATOM     14  C   UNL A   1      46.623  19.169  37.987  1.00  0.00     0.071 C 
ATOM     15  N   UNL A   1      46.139  20.047  37.168  1.00  0.00    -0.174 NA
BRANCH  12  16
ATOM     16  C   UNL A   1      49.311  20.105  36.210  1.00  0.00    -0.019 A 
ATOM     17  C   UNL A   1      51.520  19.560  35.351  1.00  0.00     0.119 A 
ATOM     18  C   UNL A   1      51.087  19.875  34.061  1.00  0.00     0.046 A 
ATOM     19  C   UNL A   1      50.630  19.672  36.422  1.00  0.00     0.052 A 
ATOM     20  C   UNL A   1      49.770  20.263  33.829  1.00  0.00     0.004 A 
ATOM     21  C   UNL A   1      48.882  20.363  34.895  1.00  0.00     0.006 A 
BRANCH  17  22
ATOM     22  O   UNL A   1      52.836  19.199  35.444  1.00  0.00    -0.497 OA
ATOM     23  C   UNL A   1      53.784  20.258  35.462  1.00  0.00     0.278 C 
ENDBRANCH  17  22
ENDBRANCH  12  16
BRANCH  14  24
ATOM     24  C   UNL A   1      45.797  18.108  38.569  1.00  0.00    -0.002 A 
ATOM     25  C   UNL A   1      44.770  17.572  37.792  1.00  0.00     0.010 A 
ATOM     26  C   UNL A   1      45.944  17.757  39.916  1.00  0.00     0.013 A 
ATOM     27  C   UNL A   1      43.912  16.633  38.354  1.00  0.00     0.001 A 
ATOM     28  C   UNL A   1      45.055  16.841  40.494  1.00  0.00    -0.050 A 
ATOM     29  C   UNL A   1      44.062  16.263  39.692  1.00  0.00     0.003 A 
ATOM     30  C   UNL A   1      45.048  16.578  41.973  1.00  0.00     0.044 C 
ENDBRANCH  14  24
ENDBRANCH   9  11
ENDBRANCH   8   9
ENDBRANCH   7   8
ENDBRANCH   4   7
ENDBRANCH   2   3
ENDBRANCH   1   2
BRANCH   1  31
ATOM     31  C   UNL A   1      44.041  23.416  29.690  1.00  0.00     0.002 C 
BRANCH  31  32
ATOM     32  C   UNL A   1      42.635  23.327  29.090  1.00  0.00     0.002 C 
BRANCH  32  33
ATOM     33  C   UNL A   1      42.436  22.175  28.112  1.00  0.00     0.021 C 
BRANCH  33  34
ATOM     34  C   UNL A   1      41.870  22.611  26.767  1.00  0.00     0.116 C 
BRANCH  34  35
ATOM     35  N   UNL A   1      40.574  22.017  26.435  1.00  0.00    -0.352 N 
ATOM     36  C   UNL A   1      39.353  22.663  26.446  1.00  0.00     0.251 C 
ATOM     37  H   UNL A   1      40.573  21.067  26.178  1.00  0.00     0.163 HD
ATOM     38  O   UNL A   1      38.288  22.098  26.234  1.00  0.00    -0.269 OA
BRANCH  36  39
ATOM     39  C   UNL A   1      39.373  24.088  26.803  1.00  0.00     0.039 A 
ATOM     40  C   UNL A   1      39.189  24.429  28.143  1.00  0.00     0.014 A 
ATOM     41  C   UNL A   1      39.856  25.004  25.866  1.00  0.00     0.014 A 
ATOM     42  C   UNL A   1      39.629  25.671  28.581  1.00  0.00     0.010 A 
ATOM     43  C   UNL A   1      40.365  26.209  26.321  1.00  0.00     0.010 A 
ATOM     44  C   UNL A   1      40.289  26.528  27.686  1.00  0.00    -0.014 A 
BRANCH  44  45
ATOM     45  C   UNL A   1      40.977  27.739  28.177  1.00  0.00     0.031 A 
ATOM     46  C   UNL A   1      42.472  27.796  28.145  1.00  0.00     0.074 A 
ATOM     47  C   UNL A   1      40.243  28.733  28.716  1.00  0.00     0.049 A 
ATOM     48  N   UNL A   1      43.266  28.742  28.565  1.00  0.00    -0.248 NA
ATOM     49  C   UNL A   1      43.167  26.620  27.592  1.00  0.00     0.031 C 
ATOM     50  C   UNL A   1      38.781  28.734  28.848  1.00  0.00     0.029 A 
ATOM     51  N   UNL A   1      40.620  29.935  29.256  1.00  0.00    -0.354 N 
ATOM     52  C   UNL A   1      44.553  28.272  28.340  1.00  0.00     0.074 A 
ATOM     53  C   UNL A   1      44.436  26.938  27.798  1.00  0.00     0.031 C 
ATOM     54  C   UNL A   1      38.386  29.894  29.399  1.00  0.00     0.029 A 
ATOM     55  C   UNL A   1      39.563  30.702  29.691  1.00  0.00     0.049 A 
ATOM     56  H   UNL A   1      41.558  30.223  29.328  1.00  0.00     0.167 HD
ATOM     57  C   UNL A   1      45.727  28.911  28.551  1.00  0.00     0.031 A 
ATOM     58  C   UNL A   1      39.552  31.923  30.262  1.00  0.00     0.031 A 
ATOM     59  C   UNL A   1      45.816  30.239  29.090  1.00  0.00     0.049 A 
ATOM     60  C   UNL A   1      40.870  32.614  30.479  1.00  0.00     0.074 A 
ATOM     61  C   UNL A   1      46.942  31.011  29.303  1.00  0.00     0.029 A 
ATOM     62  N   UNL A   1      44.725  30.992  29.505  1.00  0.00    -0.354 N 
ATOM     63  N   UNL A   1      42.077  32.189  30.186  1.00  0.00    -0.248 NA
ATOM     64  C   UNL A   1      40.829  33.945  31.097  1.00  0.00     0.031 C 
ATOM     65  C   UNL A   1      46.535  32.216  29.885  1.00  0.00     0.029 A 
ATOM     66  C   UNL A   1      45.152  32.213  29.995  1.00  0.00     0.049 A 
ATOM     67  H   UNL A   1      43.786  30.700  29.457  1.00  0.00     0.167 HD
ATOM     68  C   UNL A   1      42.941  33.203  30.579  1.00  0.00     0.074 A 
ATOM     69  C   UNL A   1      42.115  34.273  31.107  1.00  0.00     0.031 C 
ATOM     70  C   UNL A   1      44.295  33.247  30.519  1.00  0.00     0.031 A 
BRANCH  57  71
ATOM     71  C   UNL A   1      46.985  28.166  28.200  1.00  0.00    -0.014 A 
ATOM     72  C   UNL A   1      47.548  28.265  26.913  1.00  0.00     0.010 A 
ATOM     73  C   UNL A   1      47.608  27.347  29.158  1.00  0.00     0.010 A 
ATOM     74  C   UNL A   1      48.678  27.518  26.575  1.00  0.00     0.020 A 
ATOM     75  C   UNL A   1      48.756  26.618  28.831  1.00  0.00     0.020 A 
ATOM     76  C   UNL A   1      49.271  26.692  27.534  1.00  0.00     0.054 A 
BRANCH  76  77
ATOM     77  S   UNL A   1      50.737  25.733  27.069  1.00  0.00     0.124 S 
ATOM     78  O   UNL A   1      50.745  25.881  25.615  1.00  0.00    -0.237 OA
ATOM     79  O   UNL A   1      51.812  26.428  27.774  1.00  0.00    -0.237 OA
ATOM     80  O   UNL A   1      50.443  24.389  27.557  1.00  0.00    -0.744 OA
ENDBRANCH  76  77
ENDBRANCH  57  71
BRANCH  58  81
ATOM     81  C   UNL A   1      38.264  32.562  30.646  1.00  0.00    -0.014 A 
ATOM     82  C   UNL A   1      37.464  33.196  29.677  1.00  0.00     0.010 A 
ATOM     83  C   UNL A   1      37.811  32.519  31.978  1.00  0.00     0.010 A 
ATOM     84  C   UNL A   1      36.245  33.783  30.035  1.00  0.00     0.020 A 
ATOM     85  C   UNL A   1      36.583  33.085  32.335  1.00  0.00     0.020 A 
ATOM     86  C   UNL A   1      35.811  33.721  31.362  1.00  0.00     0.054 A 
BRANCH  86  87
ATOM     87  S   UNL A   1      34.197  34.435  31.792  1.00  0.00     0.124 S 
ATOM     88  O   UNL A   1      33.574  34.589  30.482  1.00  0.00    -0.237 OA
ATOM     89  O   UNL A   1      33.615  33.407  32.652  1.00  0.00    -0.237 OA
ATOM     90  O   UNL A   1      34.546  35.680  32.473  1.00  0.00    -0.744 OA
ENDBRANCH  86  87
ENDBRANCH  58  81
BRANCH  70  91
ATOM     91  C   UNL A   1      44.960  34.488  31.040  1.00  0.00    -0.014 A 
ATOM     92  C   UNL A   1      45.395  34.558  32.375  1.00  0.00     0.010 A 
ATOM     93  C   UNL A   1      45.228  35.556  30.166  1.00  0.00     0.010 A 
ATOM     94  C   UNL A   1      46.077  35.686  32.832  1.00  0.00     0.020 A 
ATOM     95  C   UNL A   1      45.930  36.675  30.614  1.00  0.00     0.020 A 
ATOM     96  C   UNL A   1      46.344  36.737  31.948  1.00  0.00     0.054 A 
BRANCH  96  97
ATOM     97  S   UNL A   1      47.296  38.158  32.546  1.00  0.00     0.124 S 
ATOM     98  O   UNL A   1      46.286  38.908  33.290  1.00  0.00    -0.237 OA
ATOM     99  O   UNL A   1      48.335  37.530  33.358  1.00  0.00    -0.237 OA
ATOM    100  O   UNL A   1      47.771  38.797  31.321  1.00  0.00    -0.744 OA
ENDBRANCH  96  97
ENDBRANCH  70  91
ENDBRANCH  44  45
ENDBRANCH  36  39
ENDBRANCH  34  35
ENDBRANCH  33  34
ENDBRANCH  32  33
ENDBRANCH  31  32
ENDBRANCH   1  31
TORSDOF 22
ENDMDL
MODEL 2
REMARK VINA RESULT:      -9.4      4.736     12.068
REMARK SMILES COc1cccc([C@@H]2CC(c3cccc(C)c3)=NN2C(=O)CCC(=O)NCCCCCCNC(=O)c2ccc(-c3c4nc(c(-c5ccc(S(=O)(=O)[O-])cc5)c5ccc([nH]5)c(-c5ccc(S(=O)(=O)[O-])cc5)c5nc(c(-c6ccc(S(=O)(=O)[O-])cc6)c6ccc3[nH]6)C=C5)C=C4)cc2)c1
REMARK SMILES IDX 28 1 27 2 26 3 24 4 25 5 23 7 22 8 20 9 21 10 19 11 8 12
REMARK SMILES IDX 9 13 10 14 18 15 7 16 3 17 4 18 96 19 5 20 6 21 2 22 1 23
REMARK SMILES IDX 11 24 12 25 17 26 13 27 15 28 14 29 16 30 29 31 30 32 31 33
REMARK SMILES IDX 32 34 33 35 34 36 35 38 36 39 37 40 95 41 38 42 94 43 39 44
REMARK SMILES IDX 40 45 41 46 88 47 42 48 93 49 87 50 89 51 43 52 92 53 86 54
REMARK SMILES IDX 85 55 44 57 74 58 55 59 73 60 56 61 59 62 72 63 90 64 57 65
REMARK SMILES IDX 58 66 71 68 91 69 60 70 45 71 46 72 54 73 47 74 53 75 48 76
REMARK SMILES IDX 49 77 50 78 51 79 52 80 75 81 76 82 84 83 77 84 83 85 78 86
REMARK SMILES IDX 79 87 80 88 81 89 82 90 61 91 62 92 70 93 63 94 69 95 64 96
REMARK SMILES IDX 65 97 66 98 67 99 68 100
REMARK H PARENT 26 6 33 37 89 56 59 67
REMARK Flexibility Score: inf
ROOT
ATOM      1  C   UNL A   1      40.802  26.370  27.033  1.00  0.00     0.021 C 
ENDROOT
BRANCH   1   2
ATOM      2  C   UNL A   1      41.691  26.161  25.806  1.00  0.00     0.116 C 
BRANCH   2   3
ATOM      3  N   UNL A   1      41.852  24.800  25.323  1.00  0.00    -0.356 N 
ATOM      4  C   UNL A   1      42.962  24.021  25.237  1.00  0.00     0.220 C 
ATOM      5  O   UNL A   1      42.826  22.808  25.059  1.00  0.00    -0.275 OA
ATOM      6  H   UNL A   1      41.023  24.373  25.008  1.00  0.00     0.163 HD
BRANCH   4   7
ATOM      7  C   UNL A   1      44.337  24.647  25.258  1.00  0.00     0.110 C 
BRANCH   7   8
ATOM      8  C   UNL A   1      45.136  24.161  26.468  1.00  0.00     0.112 C 
BRANCH   8   9
ATOM      9  C   UNL A   1      46.562  24.675  26.400  1.00  0.00     0.243 C 
ATOM     10  O   UNL A   1      47.487  23.919  26.705  1.00  0.00    -0.273 OA
BRANCH   9  11
ATOM     11  N   UNL A   1      46.721  26.020  26.101  1.00  0.00    -0.225 N 
ATOM     12  C   UNL A   1      47.742  26.630  25.240  1.00  0.00     0.147 C 
ATOM     13  C   UNL A   1      47.319  28.095  25.156  1.00  0.00     0.091 C 
ATOM     14  C   UNL A   1      46.249  28.105  26.205  1.00  0.00     0.071 C 
ATOM     15  N   UNL A   1      45.967  26.963  26.746  1.00  0.00    -0.174 NA
BRANCH  12  16
ATOM     16  C   UNL A   1      49.108  26.382  25.866  1.00  0.00    -0.019 A 
ATOM     17  C   UNL A   1      51.421  25.689  25.575  1.00  0.00     0.119 A 
ATOM     18  C   UNL A   1      51.518  25.463  26.950  1.00  0.00     0.046 A 
ATOM     19  C   UNL A   1      50.218  26.151  25.037  1.00  0.00     0.052 A 
ATOM     20  C   UNL A   1      50.440  25.729  27.790  1.00  0.00     0.004 A 
ATOM     21  C   UNL A   1      49.246  26.200  27.254  1.00  0.00     0.006 A 
BRANCH  17  22
ATOM     22  O   UNL A   1      52.547  25.382  24.861  1.00  0.00    -0.497 OA
ATOM     23  C   UNL A   1      53.326  24.295  25.342  1.00  0.00     0.278 C 
ENDBRANCH  17  22
ENDBRANCH  12  16
BRANCH  14  24
ATOM     24  C   UNL A   1      45.551  29.338  26.579  1.00  0.00    -0.002 A 
ATOM     25  C   UNL A   1      46.163  30.557  26.287  1.00  0.00     0.010 A 
ATOM     26  C   UNL A   1      44.379  29.281  27.344  1.00  0.00     0.013 A 
ATOM     27  C   UNL A   1      45.567  31.737  26.717  1.00  0.00     0.001 A 
ATOM     28  C   UNL A   1      43.801  30.469  27.812  1.00  0.00    -0.050 A 
ATOM     29  C   UNL A   1      44.389  31.692  27.464  1.00  0.00     0.003 A 
ATOM     30  C   UNL A   1      42.662  30.455  28.792  1.00  0.00     0.044 C 
ENDBRANCH  14  24
ENDBRANCH   9  11
ENDBRANCH   8   9
ENDBRANCH   7   8
ENDBRANCH   4   7
ENDBRANCH   2   3
ENDBRANCH   1   2
BRANCH   1  31
ATOM     31  C   UNL A   1      40.478  27.792  27.510  1.00  0.00     0.002 C 
BRANCH  31  32
ATOM     32  C   UNL A   1      39.376  27.974  28.558  1.00  0.00     0.002 C 
BRANCH  32  33
ATOM     33  C   UNL A   1      39.069  29.425  28.907  1.00  0.00     0.021 C 
BRANCH  33  34
ATOM     34  C   UNL A   1      39.672  29.871  30.233  1.00  0.00     0.116 C 
BRANCH  34  35
ATOM     35  N   UNL A   1      39.314  29.027  31.375  1.00  0.00    -0.352 N 
ATOM     36  C   UNL A   1      40.185  28.281  32.144  1.00  0.00     0.251 C 
ATOM     37  H   UNL A   1      38.361  28.989  31.617  1.00  0.00     0.163 HD
ATOM     38  O   UNL A   1      39.822  27.532  33.041  1.00  0.00    -0.269 OA
BRANCH  36  39
ATOM     39  C   UNL A   1      41.608  28.370  31.788  1.00  0.00     0.039 A 
ATOM     40  C   UNL A   1      42.434  29.154  32.595  1.00  0.00     0.014 A 
ATOM     41  C   UNL A   1      42.124  27.463  30.861  1.00  0.00     0.014 A 
ATOM     42  C   UNL A   1      43.803  28.920  32.570  1.00  0.00     0.010 A 
ATOM     43  C   UNL A   1      43.478  27.179  30.896  1.00  0.00     0.010 A 
ATOM     44  C   UNL A   1      44.316  27.879  31.780  1.00  0.00    -0.014 A 
BRANCH  44  45
ATOM     45  C   UNL A   1      45.723  27.454  31.920  1.00  0.00     0.031 A 
ATOM     46  C   UNL A   1      46.777  28.135  31.103  1.00  0.00     0.074 A 
ATOM     47  C   UNL A   1      46.014  26.410  32.721  1.00  0.00     0.049 A 
ATOM     48  N   UNL A   1      48.056  27.886  31.044  1.00  0.00    -0.248 NA
ATOM     49  C   UNL A   1      46.327  29.220  30.214  1.00  0.00     0.031 C 
ATOM     50  C   UNL A   1      45.038  25.644  33.505  1.00  0.00     0.029 A 
ATOM     51  N   UNL A   1      47.210  25.807  33.010  1.00  0.00    -0.354 N 
ATOM     52  C   UNL A   1      48.563  28.774  30.104  1.00  0.00     0.074 A 
ATOM     53  C   UNL A   1      47.447  29.528  29.580  1.00  0.00     0.031 C 
ATOM     54  C   UNL A   1      45.680  24.698  34.210  1.00  0.00     0.029 A 
ATOM     55  C   UNL A   1      47.103  24.766  33.903  1.00  0.00     0.049 A 
ATOM     56  H   UNL A   1      48.065  26.091  32.615  1.00  0.00     0.167 HD
ATOM     57  C   UNL A   1      49.850  28.954  29.731  1.00  0.00     0.031 A 
ATOM     58  C   UNL A   1      48.053  23.959  34.415  1.00  0.00     0.031 A 
ATOM     59  C   UNL A   1      50.942  28.191  30.269  1.00  0.00     0.049 A 
ATOM     60  C   UNL A   1      49.478  24.184  33.988  1.00  0.00     0.074 A 
ATOM     61  C   UNL A   1      52.293  28.313  30.007  1.00  0.00     0.029 A 
ATOM     62  N   UNL A   1      50.799  27.155  31.183  1.00  0.00    -0.354 N 
ATOM     63  N   UNL A   1      49.953  25.083  33.157  1.00  0.00    -0.248 NA
ATOM     64  C   UNL A   1      50.494  23.295  34.565  1.00  0.00     0.031 C 
ATOM     65  C   UNL A   1      52.964  27.323  30.733  1.00  0.00     0.029 A 
ATOM     66  C   UNL A   1      52.035  26.613  31.480  1.00  0.00     0.049 A 
ATOM     67  H   UNL A   1      49.943  26.852  31.564  1.00  0.00     0.167 HD
ATOM     68  C   UNL A   1      51.324  24.872  33.115  1.00  0.00     0.074 A 
ATOM     69  C   UNL A   1      51.606  23.777  34.024  1.00  0.00     0.031 C 
ATOM     70  C   UNL A   1      52.269  25.516  32.386  1.00  0.00     0.031 A 
BRANCH  57  71
ATOM     71  C   UNL A   1      50.122  30.007  28.692  1.00  0.00    -0.014 A 
ATOM     72  C   UNL A   1      50.239  29.665  27.331  1.00  0.00     0.010 A 
ATOM     73  C   UNL A   1      50.276  31.350  29.076  1.00  0.00     0.010 A 
ATOM     74  C   UNL A   1      50.557  30.638  26.382  1.00  0.00     0.020 A 
ATOM     75  C   UNL A   1      50.568  32.333  28.124  1.00  0.00     0.020 A 
ATOM     76  C   UNL A   1      50.728  31.966  26.785  1.00  0.00     0.054 A 
BRANCH  76  77
ATOM     77  S   UNL A   1      51.141  33.209  25.532  1.00  0.00     0.124 S 
ATOM     78  O   UNL A   1      52.227  33.941  26.180  1.00  0.00    -0.237 OA
ATOM     79  O   UNL A   1      51.532  32.392  24.386  1.00  0.00    -0.237 OA
ATOM     80  O   UNL A   1      49.899  33.959  25.363  1.00  0.00    -0.744 OA
ENDBRANCH  76  77
ENDBRANCH  57  71
BRANCH  58  81
ATOM     81  C   UNL A   1      47.690  22.891  35.387  1.00  0.00    -0.014 A 
ATOM     82  C   UNL A   1      47.535  23.190  36.752  1.00  0.00     0.010 A 
ATOM     83  C   UNL A   1      47.470  21.571  34.951  1.00  0.00     0.010 A 
ATOM     84  C   UNL A   1      47.177  22.190  37.663  1.00  0.00     0.020 A 
ATOM     85  C   UNL A   1      47.090  20.573  35.855  1.00  0.00     0.020 A 
ATOM     86  C   UNL A   1      46.955  20.887  37.208  1.00  0.00     0.054 A 
BRANCH  86  87
ATOM     87  S   UNL A   1      46.431  19.619  38.397  1.00  0.00     0.124 S 
ATOM     88  O   UNL A   1      45.934  20.426  39.505  1.00  0.00    -0.237 OA
ATOM     89  O   UNL A   1      45.417  18.881  37.647  1.00  0.00    -0.237 OA
ATOM     90  O   UNL A   1      47.659  18.874  38.664  1.00  0.00    -0.744 OA
ENDBRANCH  86  87
ENDBRANCH  58  81
BRANCH  70  91
ATOM     91  C   UNL A   1      53.687  25.048  32.543  1.00  0.00    -0.014 A 
ATOM     92  C   UNL A   1      54.216  24.071  31.681  1.00  0.00     0.010 A 
ATOM     93  C   UNL A   1      54.520  25.651  33.501  1.00  0.00     0.010 A 
ATOM     94  C   UNL A   1      55.555  23.694  31.787  1.00  0.00     0.020 A 
ATOM     95  C   UNL A   1      55.865  25.294  33.593  1.00  0.00     0.020 A 
ATOM     96  C   UNL A   1      56.373  24.311  32.740  1.00  0.00     0.054 A 
BRANCH  96  97
ATOM     97  S   UNL A   1      58.126  23.857  32.806  1.00  0.00     0.124 S 
ATOM     98  O   UNL A   1      58.751  25.116  33.203  1.00  0.00    -0.237 OA
ATOM     99  O   UNL A   1      58.146  22.800  33.815  1.00  0.00    -0.237 OA
ATOM    100  O   UNL A   1      58.421  23.415  31.445  1.00  0.00    -0.744 OA
ENDBRANCH  96  97
ENDBRANCH  70  91
ENDBRANCH  44  45
ENDBRANCH  36  39
ENDBRANCH  34  35
ENDBRANCH  33  34
ENDBRANCH  32  33
ENDBRANCH  31  32
ENDBRANCH   1  31
TORSDOF 22
ENDMDL
MODEL 3
REMARK VINA RESULT:      -9.2      4.256      8.731
REMARK SMILES COc1cccc([C@@H]2CC(c3cccc(C)c3)=NN2C(=O)CCC(=O)NCCCCCCNC(=O)c2ccc(-c3c4nc(c(-c5ccc(S(=O)(=O)[O-])cc5)c5ccc([nH]5)c(-c5ccc(S(=O)(=O)[O-])cc5)c5nc(c(-c6ccc(S(=O)(=O)[O-])cc6)c6ccc3[nH]6)C=C5)C=C4)cc2)c1
REMARK SMILES IDX 28 1 27 2 26 3 24 4 25 5 23 7 22 8 20 9 21 10 19 11 8 12
REMARK SMILES IDX 9 13 10 14 18 15 7 16 3 17 4 18 96 19 5 20 6 21 2 22 1 23
REMARK SMILES IDX 11 24 12 25 17 26 13 27 15 28 14 29 16 30 29 31 30 32 31 33
REMARK SMILES IDX 32 34 33 35 34 36 35 38 36 39 37 40 95 41 38 42 94 43 39 44
REMARK SMILES IDX 40 45 41 46 88 47 42 48 93 49 87 50 89 51 43 52 92 53 86 54
REMARK SMILES IDX 85 55 44 57 74 58 55 59 73 60 56 61 59 62 72 63 90 64 57 65
REMARK SMILES IDX 58 66 71 68 91 69 60 70 45 71 46 72 54 73 47 74 53 75 48 76
REMARK SMILES IDX 49 77 50 78 51 79 52 80 75 81 76 82 84 83 77 84 83 85 78 86
REMARK SMILES IDX 79 87 80 88 81 89 82 90 61 91 62 92 70 93 63 94 69 95 64 96
REMARK SMILES IDX 65 97 66 98 67 99 68 100
REMARK H PARENT 26 6 33 37 89 56 59 67
REMARK Flexibility Score: inf
ROOT
ATOM      1  C   UNL A   1      49.478  25.278  29.137  1.00  0.00     0.021 C 
ENDROOT
BRANCH   1   2
ATOM      2  C   UNL A   1      49.520  25.204  27.610  1.00  0.00     0.116 C 
BRANCH   2   3
ATOM      3  N   UNL A   1      48.291  24.841  26.926  1.00  0.00    -0.356 N 
ATOM      4  C   UNL A   1      47.309  25.622  26.404  1.00  0.00     0.220 C 
ATOM      5  O   UNL A   1      46.497  25.117  25.624  1.00  0.00    -0.275 OA
ATOM      6  H   UNL A   1      48.146  23.873  26.823  1.00  0.00     0.163 HD
BRANCH   4   7
ATOM      7  C   UNL A   1      47.158  27.057  26.851  1.00  0.00     0.110 C 
BRANCH   7   8
ATOM      8  C   UNL A   1      46.307  27.145  28.119  1.00  0.00     0.112 C 
BRANCH   8   9
ATOM      9  C   UNL A   1      44.948  27.741  27.803  1.00  0.00     0.243 C 
ATOM     10  O   UNL A   1      44.757  28.242  26.693  1.00  0.00    -0.273 OA
BRANCH   9  11
ATOM     11  N   UNL A   1      44.033  27.781  28.844  1.00  0.00    -0.225 N 
ATOM     12  C   UNL A   1      43.990  26.918  30.031  1.00  0.00     0.147 C 
ATOM     13  C   UNL A   1      42.885  27.532  30.888  1.00  0.00     0.091 C 
ATOM     14  C   UNL A   1      42.320  28.509  29.902  1.00  0.00     0.071 C 
ATOM     15  N   UNL A   1      42.936  28.598  28.768  1.00  0.00    -0.174 NA
BRANCH  12  16
ATOM     16  C   UNL A   1      43.741  25.487  29.575  1.00  0.00    -0.019 A 
ATOM     17  C   UNL A   1      42.211  23.859  28.614  1.00  0.00     0.119 A 
ATOM     18  C   UNL A   1      43.003  22.826  29.123  1.00  0.00     0.046 A 
ATOM     19  C   UNL A   1      42.584  25.186  28.839  1.00  0.00     0.052 A 
ATOM     20  C   UNL A   1      44.177  23.108  29.816  1.00  0.00     0.004 A 
ATOM     21  C   UNL A   1      44.553  24.431  30.029  1.00  0.00     0.006 A 
BRANCH  17  22
ATOM     22  O   UNL A   1      41.083  23.448  27.958  1.00  0.00    -0.497 OA
ATOM     23  C   UNL A   1      40.610  24.295  26.919  1.00  0.00     0.278 C 
ENDBRANCH  17  22
ENDBRANCH  12  16
BRANCH  14  24
ATOM     24  C   UNL A   1      41.147  29.328  30.219  1.00  0.00    -0.002 A 
ATOM     25  C   UNL A   1      41.185  30.685  29.900  1.00  0.00     0.010 A 
ATOM     26  C   UNL A   1      40.087  28.787  30.957  1.00  0.00     0.013 A 
ATOM     27  C   UNL A   1      40.126  31.502  30.276  1.00  0.00     0.001 A 
ATOM     28  C   UNL A   1      39.038  29.618  31.371  1.00  0.00    -0.050 A 
ATOM     29  C   UNL A   1      39.055  30.968  30.997  1.00  0.00     0.003 A 
ATOM     30  C   UNL A   1      37.981  29.134  32.323  1.00  0.00     0.044 C 
ENDBRANCH  14  24
ENDBRANCH   9  11
ENDBRANCH   8   9
ENDBRANCH   7   8
ENDBRANCH   4   7
ENDBRANCH   2   3
ENDBRANCH   1   2
BRANCH   1  31
ATOM     31  C   UNL A   1      50.415  26.237  29.883  1.00  0.00     0.002 C 
BRANCH  31  32
ATOM     32  C   UNL A   1      51.176  25.708  31.102  1.00  0.00     0.002 C 
BRANCH  32  33
ATOM     33  C   UNL A   1      50.496  24.548  31.819  1.00  0.00     0.021 C 
BRANCH  33  34
ATOM     34  C   UNL A   1      49.813  24.955  33.118  1.00  0.00     0.116 C 
BRANCH  34  35
ATOM     35  N   UNL A   1      49.408  23.833  33.967  1.00  0.00    -0.352 N 
ATOM     36  C   UNL A   1      48.236  23.739  34.692  1.00  0.00     0.251 C 
ATOM     37  H   UNL A   1      50.031  23.074  34.027  1.00  0.00     0.163 HD
ATOM     38  O   UNL A   1      47.982  22.810  35.447  1.00  0.00    -0.269 OA
BRANCH  36  39
ATOM     39  C   UNL A   1      47.302  24.867  34.570  1.00  0.00     0.039 A 
ATOM     40  C   UNL A   1      47.632  26.060  35.215  1.00  0.00     0.014 A 
ATOM     41  C   UNL A   1      46.299  24.802  33.601  1.00  0.00     0.014 A 
ATOM     42  C   UNL A   1      47.039  27.237  34.779  1.00  0.00     0.010 A 
ATOM     43  C   UNL A   1      45.768  25.986  33.118  1.00  0.00     0.010 A 
ATOM     44  C   UNL A   1      46.168  27.210  33.678  1.00  0.00    -0.014 A 
BRANCH  44  45
ATOM     45  C   UNL A   1      45.717  28.467  33.047  1.00  0.00     0.031 A 
ATOM     46  C   UNL A   1      46.493  29.028  31.897  1.00  0.00     0.074 A 
ATOM     47  C   UNL A   1      44.663  29.120  33.574  1.00  0.00     0.049 A 
ATOM     48  N   UNL A   1      46.293  30.134  31.234  1.00  0.00    -0.248 NA
ATOM     49  C   UNL A   1      47.667  28.256  31.451  1.00  0.00     0.031 C 
ATOM     50  C   UNL A   1      43.886  28.679  34.739  1.00  0.00     0.029 A 
ATOM     51  N   UNL A   1      44.060  30.295  33.207  1.00  0.00    -0.354 N 
ATOM     52  C   UNL A   1      47.321  30.198  30.303  1.00  0.00     0.074 A 
ATOM     53  C   UNL A   1      48.172  29.051  30.521  1.00  0.00     0.031 C 
ATOM     54  C   UNL A   1      42.891  29.553  34.965  1.00  0.00     0.029 A 
ATOM     55  C   UNL A   1      42.979  30.631  33.989  1.00  0.00     0.049 A 
ATOM     56  H   UNL A   1      44.371  30.847  32.454  1.00  0.00     0.167 HD
ATOM     57  C   UNL A   1      47.520  31.126  29.338  1.00  0.00     0.031 A 
ATOM     58  C   UNL A   1      42.155  31.695  33.921  1.00  0.00     0.031 A 
ATOM     59  C   UNL A   1      46.658  32.257  29.142  1.00  0.00     0.049 A 
ATOM     60  C   UNL A   1      42.394  32.708  32.836  1.00  0.00     0.074 A 
ATOM     61  C   UNL A   1      46.727  33.237  28.170  1.00  0.00     0.029 A 
ATOM     62  N   UNL A   1      45.564  32.558  29.943  1.00  0.00    -0.354 N 
ATOM     63  N   UNL A   1      43.324  32.712  31.909  1.00  0.00    -0.248 NA
ATOM     64  C   UNL A   1      41.477  33.853  32.781  1.00  0.00     0.031 C 
ATOM     65  C   UNL A   1      45.697  34.154  28.408  1.00  0.00     0.029 A 
ATOM     66  C   UNL A   1      44.962  33.722  29.503  1.00  0.00     0.049 A 
ATOM     67  H   UNL A   1      45.262  32.022  30.712  1.00  0.00     0.167 HD
ATOM     68  C   UNL A   1      43.102  33.858  31.156  1.00  0.00     0.074 A 
ATOM     69  C   UNL A   1      41.934  34.507  31.720  1.00  0.00     0.031 C 
ATOM     70  C   UNL A   1      43.803  34.338  30.099  1.00  0.00     0.031 A 
BRANCH  57  71
ATOM     71  C   UNL A   1      48.718  30.940  28.447  1.00  0.00    -0.014 A 
ATOM     72  C   UNL A   1      49.897  31.680  28.659  1.00  0.00     0.010 A 
ATOM     73  C   UNL A   1      48.664  30.030  27.377  1.00  0.00     0.010 A 
ATOM     74  C   UNL A   1      50.980  31.552  27.787  1.00  0.00     0.020 A 
ATOM     75  C   UNL A   1      49.757  29.878  26.518  1.00  0.00     0.020 A 
ATOM     76  C   UNL A   1      50.901  30.657  26.716  1.00  0.00     0.054 A 
BRANCH  76  77
ATOM     77  S   UNL A   1      52.321  30.510  25.599  1.00  0.00     0.124 S 
ATOM     78  O   UNL A   1      53.363  31.215  26.343  1.00  0.00    -0.237 OA
ATOM     79  O   UNL A   1      52.497  29.063  25.493  1.00  0.00    -0.237 OA
ATOM     80  O   UNL A   1      51.872  31.171  24.377  1.00  0.00    -0.744 OA
ENDBRANCH  76  77
ENDBRANCH  57  71
BRANCH  58  81
ATOM     81  C   UNL A   1      41.033  31.840  34.889  1.00  0.00    -0.014 A 
ATOM     82  C   UNL A   1      39.788  31.234  34.637  1.00  0.00     0.010 A 
ATOM     83  C   UNL A   1      41.207  32.562  36.085  1.00  0.00     0.010 A 
ATOM     84  C   UNL A   1      38.739  31.357  35.555  1.00  0.00     0.020 A 
ATOM     85  C   UNL A   1      40.168  32.668  37.016  1.00  0.00     0.020 A 
ATOM     86  C   UNL A   1      38.937  32.071  36.740  1.00  0.00     0.054 A 
BRANCH  86  87
ATOM     87  S   UNL A   1      37.581  32.165  37.945  1.00  0.00     0.124 S 
ATOM     88  O   UNL A   1      37.201  30.764  38.085  1.00  0.00    -0.237 OA
ATOM     89  O   UNL A   1      38.232  32.763  39.108  1.00  0.00    -0.237 OA
ATOM     90  O   UNL A   1      36.597  33.020  37.285  1.00  0.00    -0.744 OA
ENDBRANCH  86  87
ENDBRANCH  58  81
BRANCH  70  91
ATOM     91  C   UNL A   1      43.324  35.625  29.493  1.00  0.00    -0.014 A 
ATOM     92  C   UNL A   1      43.853  36.856  29.919  1.00  0.00     0.010 A 
ATOM     93  C   UNL A   1      42.403  35.597  28.431  1.00  0.00     0.010 A 
ATOM     94  C   UNL A   1      43.456  38.042  29.300  1.00  0.00     0.020 A 
ATOM     95  C   UNL A   1      42.022  36.779  27.795  1.00  0.00     0.020 A 
ATOM     96  C   UNL A   1      42.546  37.996  28.239  1.00  0.00     0.054 A 
BRANCH  96  97
ATOM     97  S   UNL A   1      42.103  39.542  27.404  1.00  0.00     0.124 S 
ATOM     98  O   UNL A   1      41.433  40.282  28.470  1.00  0.00    -0.237 OA
ATOM     99  O   UNL A   1      43.403  40.069  26.994  1.00  0.00    -0.237 OA
ATOM    100  O   UNL A   1      41.240  39.108  26.308  1.00  0.00    -0.744 OA
ENDBRANCH  96  97
ENDBRANCH  70  91
ENDBRANCH  44  45
ENDBRANCH  36  39
ENDBRANCH  34  35
ENDBRANCH  33  34
ENDBRANCH  32  33
ENDBRANCH  31  32
ENDBRANCH   1  31
TORSDOF 22
ENDMDL
