MODEL 1
REMARK VINA RESULT:     -11.4      0.000      0.000
REMARK SMILES O=C(NCCCCCCNC(=O)[C@@H]1[C@H](C(=O)Nc2ccccc2Cc2ccccc2)[C@H]2C=C[C@@H]1O2)c1ccc(-c2c3nc(c(-c4ccc(S(=O)(=O)[O-])cc4)c4ccc([nH]4)c(-c4ccc(S(=O)(=O)[O-])cc4)c4nc(c(-c5ccc(S(=O)(=O)[O-])cc5)c5ccc2[nH]5)C=C4)C=C3)cc1
REMARK SMILES IDX 7 1 6 2 5 3 4 4 3 5 1 6 2 7 36 9 37 10 95 11 38 12 94 13
REMARK SMILES IDX 39 14 40 15 41 16 88 17 42 18 93 19 87 20 89 21 43 22 92 23
REMARK SMILES IDX 86 24 85 25 44 27 74 28 55 29 73 30 56 31 59 32 72 33 90 34
REMARK SMILES IDX 57 35 58 36 71 38 91 39 60 40 45 41 46 42 54 43 47 44 53 45
REMARK SMILES IDX 48 46 49 47 50 48 51 49 52 50 75 51 76 52 84 53 77 54 83 55
REMARK SMILES IDX 78 56 79 57 80 58 81 59 82 60 61 61 62 62 70 63 63 64 69 65
REMARK SMILES IDX 64 66 65 67 66 68 67 69 68 70 8 71 9 72 10 73 11 74 12 76
REMARK SMILES IDX 13 77 14 78 34 79 31 80 33 81 35 82 32 83 15 84 16 85 17 86
REMARK SMILES IDX 18 88 19 89 23 90 20 91 22 92 21 93 24 94 25 95 26 96 30 97
REMARK SMILES IDX 27 98 29 99 28 100
REMARK H PARENT 3 8 89 26 59 37 10 75 17 87
REMARK Flexibility Score: inf
ROOT
ATOM      1  C   UNL A   1      34.678  31.862  27.621  1.00  0.00     0.002 C 
ENDROOT
BRANCH   1   2
ATOM      2  C   UNL A   1      34.899  33.323  28.030  1.00  0.00     0.002 C 
BRANCH   2   3
ATOM      3  C   UNL A   1      35.983  33.593  29.065  1.00  0.00     0.021 C 
BRANCH   3   4
ATOM      4  C   UNL A   1      36.832  32.388  29.411  1.00  0.00     0.116 C 
BRANCH   4   5
ATOM      5  N   UNL A   1      36.127  31.389  30.192  1.00  0.00    -0.352 N 
ATOM      6  O   UNL A   1      35.885  29.326  31.097  1.00  0.00    -0.269 OA
ATOM      7  C   UNL A   1      36.589  30.132  30.519  1.00  0.00     0.251 C 
ATOM      8  H   UNL A   1      35.232  31.634  30.520  1.00  0.00     0.163 HD
BRANCH   7   9
ATOM      9  C   UNL A   1      37.967  29.786  30.101  1.00  0.00     0.039 A 
ATOM     10  C   UNL A   1      38.978  29.675  31.059  1.00  0.00     0.014 A 
ATOM     11  C   UNL A   1      38.251  29.663  28.740  1.00  0.00     0.014 A 
ATOM     12  C   UNL A   1      40.298  29.545  30.650  1.00  0.00     0.010 A 
ATOM     13  C   UNL A   1      39.570  29.447  28.337  1.00  0.00     0.010 A 
ATOM     14  C   UNL A   1      40.603  29.396  29.287  1.00  0.00    -0.014 A 
BRANCH  14  15
ATOM     15  C   UNL A   1      41.985  29.045  28.884  1.00  0.00     0.031 A 
ATOM     16  C   UNL A   1      43.069  30.080  28.804  1.00  0.00     0.074 A 
ATOM     17  C   UNL A   1      42.232  27.762  28.553  1.00  0.00     0.049 A 
ATOM     18  N   UNL A   1      44.305  29.938  28.398  1.00  0.00    -0.248 NA
ATOM     19  C   UNL A   1      42.729  31.449  29.222  1.00  0.00     0.031 C 
ATOM     20  C   UNL A   1      41.242  26.679  28.583  1.00  0.00     0.029 A 
ATOM     21  N   UNL A   1      43.377  27.148  28.120  1.00  0.00    -0.354 N 
ATOM     22  C   UNL A   1      44.882  31.199  28.480  1.00  0.00     0.074 A 
ATOM     23  C   UNL A   1      43.861  32.098  28.973  1.00  0.00     0.031 C 
ATOM     24  C   UNL A   1      41.827  25.534  28.208  1.00  0.00     0.029 A 
ATOM     25  C   UNL A   1      43.207  25.813  27.838  1.00  0.00     0.049 A 
ATOM     26  H   UNL A   1      44.237  27.616  28.020  1.00  0.00     0.167 HD
ATOM     27  C   UNL A   1      46.147  31.566  28.163  1.00  0.00     0.031 A 
ATOM     28  C   UNL A   1      44.052  24.917  27.297  1.00  0.00     0.031 A 
ATOM     29  C   UNL A   1      47.152  30.654  27.679  1.00  0.00     0.049 A 
ATOM     30  C   UNL A   1      45.433  25.363  26.923  1.00  0.00     0.074 A 
ATOM     31  C   UNL A   1      48.482  30.913  27.394  1.00  0.00     0.029 A 
ATOM     32  N   UNL A   1      46.938  29.314  27.392  1.00  0.00    -0.354 N 
ATOM     33  N   UNL A   1      45.980  26.546  27.070  1.00  0.00    -0.248 NA
ATOM     34  C   UNL A   1      46.308  24.360  26.304  1.00  0.00     0.031 C 
ATOM     35  C   UNL A   1      49.054  29.746  26.877  1.00  0.00     0.029 A 
ATOM     36  C   UNL A   1      48.097  28.745  26.892  1.00  0.00     0.049 A 
ATOM     37  H   UNL A   1      46.085  28.837  27.523  1.00  0.00     0.167 HD
ATOM     38  C   UNL A   1      47.267  26.429  26.565  1.00  0.00     0.074 A 
ATOM     39  C   UNL A   1      47.426  25.054  26.134  1.00  0.00     0.031 C 
ATOM     40  C   UNL A   1      48.231  27.376  26.462  1.00  0.00     0.031 A 
BRANCH  27  41
ATOM     41  C   UNL A   1      46.523  33.019  28.291  1.00  0.00    -0.014 A 
ATOM     42  C   UNL A   1      46.427  33.900  27.199  1.00  0.00     0.010 A 
ATOM     43  C   UNL A   1      46.890  33.529  29.550  1.00  0.00     0.010 A 
ATOM     44  C   UNL A   1      46.712  35.259  27.361  1.00  0.00     0.020 A 
ATOM     45  C   UNL A   1      47.156  34.891  29.721  1.00  0.00     0.020 A 
ATOM     46  C   UNL A   1      47.076  35.747  28.621  1.00  0.00     0.054 A 
BRANCH  46  47
ATOM     47  S   UNL A   1      47.397  37.522  28.810  1.00  0.00     0.124 S 
ATOM     48  O   UNL A   1      47.982  37.861  27.515  1.00  0.00    -0.237 OA
ATOM     49  O   UNL A   1      46.064  38.065  29.056  1.00  0.00    -0.237 OA
ATOM     50  O   UNL A   1      48.314  37.592  29.945  1.00  0.00    -0.744 OA
ENDBRANCH  46  47
ENDBRANCH  27  41
BRANCH  28  51
ATOM     51  C   UNL A   1      43.584  23.532  27.031  1.00  0.00    -0.014 A 
ATOM     52  C   UNL A   1      43.241  22.673  28.088  1.00  0.00     0.010 A 
ATOM     53  C   UNL A   1      43.451  23.075  25.705  1.00  0.00     0.010 A 
ATOM     54  C   UNL A   1      42.794  21.375  27.824  1.00  0.00     0.020 A 
ATOM     55  C   UNL A   1      42.975  21.791  25.437  1.00  0.00     0.020 A 
ATOM     56  C   UNL A   1      42.663  20.943  26.501  1.00  0.00     0.054 A 
BRANCH  56  57
ATOM     57  S   UNL A   1      42.042  19.269  26.181  1.00  0.00     0.124 S 
ATOM     58  O   UNL A   1      42.379  18.580  27.422  1.00  0.00    -0.237 OA
ATOM     59  O   UNL A   1      40.618  19.498  25.949  1.00  0.00    -0.237 OA
ATOM     60  O   UNL A   1      42.796  18.846  25.003  1.00  0.00    -0.744 OA
ENDBRANCH  56  57
ENDBRANCH  28  51
BRANCH  40  61
ATOM     61  C   UNL A   1      49.545  26.954  25.868  1.00  0.00    -0.014 A 
ATOM     62  C   UNL A   1      49.788  27.086  24.490  1.00  0.00     0.010 A 
ATOM     63  C   UNL A   1      50.566  26.475  26.707  1.00  0.00     0.010 A 
ATOM     64  C   UNL A   1      51.028  26.727  23.957  1.00  0.00     0.020 A 
ATOM     65  C   UNL A   1      51.816  26.141  26.181  1.00  0.00     0.020 A 
ATOM     66  C   UNL A   1      52.036  26.260  24.808  1.00  0.00     0.054 A 
BRANCH  66  67
ATOM     67  S   UNL A   1      53.657  25.863  24.101  1.00  0.00     0.124 S 
ATOM     68  O   UNL A   1      53.891  24.516  24.614  1.00  0.00    -0.237 OA
ATOM     69  O   UNL A   1      53.412  25.954  22.663  1.00  0.00    -0.237 OA
ATOM     70  O   UNL A   1      54.535  26.898  24.644  1.00  0.00    -0.744 OA
ENDBRANCH  66  67
ENDBRANCH  40  61
ENDBRANCH  14  15
ENDBRANCH   7   9
ENDBRANCH   4   5
ENDBRANCH   3   4
ENDBRANCH   2   3
ENDBRANCH   1   2
BRANCH   1  71
ATOM     71  C   UNL A   1      33.257  31.260  27.654  1.00  0.00     0.021 C 
BRANCH  71  72
ATOM     72  C   UNL A   1      32.757  30.458  26.443  1.00  0.00     0.116 C 
BRANCH  72  73
ATOM     73  N   UNL A   1      32.943  29.040  26.613  1.00  0.00    -0.356 N 
ATOM     74  C   UNL A   1      31.964  28.115  26.496  1.00  0.00     0.227 C 
ATOM     75  H   UNL A   1      33.849  28.721  26.831  1.00  0.00     0.163 HD
ATOM     76  O   UNL A   1      31.770  27.457  27.512  1.00  0.00    -0.275 OA
BRANCH  74  77
ATOM     77  C   UNL A   1      31.208  27.962  25.192  1.00  0.00     0.127 C 
ATOM     78  C   UNL A   1      31.882  26.974  24.230  1.00  0.00     0.127 C 
ATOM     79  C   UNL A   1      31.086  29.198  24.260  1.00  0.00     0.155 C 
ATOM     80  C   UNL A   1      31.840  27.682  22.889  1.00  0.00     0.155 C 
ATOM     81  C   UNL A   1      29.974  28.935  23.280  1.00  0.00     0.004 C 
ATOM     82  O   UNL A   1      32.188  29.014  23.321  1.00  0.00    -0.365 OA
ATOM     83  C   UNL A   1      30.418  27.960  22.471  1.00  0.00     0.004 C 
BRANCH  78  84
ATOM     84  C   UNL A   1      33.254  26.482  24.619  1.00  0.00     0.231 C 
ATOM     85  O   UNL A   1      34.108  27.379  24.783  1.00  0.00    -0.274 OA
ATOM     86  N   UNL A   1      33.724  25.247  24.885  1.00  0.00    -0.325 N 
ATOM     87  H   UNL A   1      34.655  25.371  25.178  1.00  0.00     0.169 HD
BRANCH  86  88
ATOM     88  C   UNL A   1      33.484  23.846  24.934  1.00  0.00     0.044 A 
ATOM     89  C   UNL A   1      32.143  23.675  25.395  1.00  0.00     0.026 A 
ATOM     90  C   UNL A   1      34.249  22.660  24.729  1.00  0.00    -0.020 A 
ATOM     91  C   UNL A   1      31.532  22.441  25.593  1.00  0.00     0.002 A 
ATOM     92  C   UNL A   1      33.575  21.415  24.923  1.00  0.00     0.006 A 
ATOM     93  C   UNL A   1      32.254  21.300  25.346  1.00  0.00     0.000 A 
BRANCH  90  94
ATOM     94  C   UNL A   1      35.699  22.453  24.292  1.00  0.00     0.073 C 
BRANCH  94  95
ATOM     95  C   UNL A   1      36.903  22.709  25.226  1.00  0.00    -0.044 A 
ATOM     96  C   UNL A   1      37.112  23.984  25.781  1.00  0.00     0.004 A 
ATOM     97  C   UNL A   1      37.942  21.786  25.416  1.00  0.00     0.004 A 
ATOM     98  C   UNL A   1      38.273  24.339  26.477  1.00  0.00     0.000 A 
ATOM     99  C   UNL A   1      39.108  22.127  26.127  1.00  0.00     0.000 A 
ATOM    100  C   UNL A   1      39.279  23.405  26.651  1.00  0.00     0.000 A 
ENDBRANCH  94  95
ENDBRANCH  90  94
ENDBRANCH  86  88
ENDBRANCH  78  84
ENDBRANCH  74  77
ENDBRANCH  72  73
ENDBRANCH  71  72
ENDBRANCH   1  71
TORSDOF 20
ENDMDL
MODEL 2
REMARK VINA RESULT:     -10.8      4.370     10.277
REMARK SMILES O=C(NCCCCCCNC(=O)[C@@H]1[C@H](C(=O)Nc2ccccc2Cc2ccccc2)[C@H]2C=C[C@@H]1O2)c1ccc(-c2c3nc(c(-c4ccc(S(=O)(=O)[O-])cc4)c4ccc([nH]4)c(-c4ccc(S(=O)(=O)[O-])cc4)c4nc(c(-c5ccc(S(=O)(=O)[O-])cc5)c5ccc2[nH]5)C=C4)C=C3)cc1
REMARK SMILES IDX 7 1 6 2 5 3 4 4 3 5 1 6 2 7 36 9 37 10 95 11 38 12 94 13
REMARK SMILES IDX 39 14 40 15 41 16 88 17 42 18 93 19 87 20 89 21 43 22 92 23
REMARK SMILES IDX 86 24 85 25 44 27 74 28 55 29 73 30 56 31 59 32 72 33 90 34
REMARK SMILES IDX 57 35 58 36 71 38 91 39 60 40 45 41 46 42 54 43 47 44 53 45
REMARK SMILES IDX 48 46 49 47 50 48 51 49 52 50 75 51 76 52 84 53 77 54 83 55
REMARK SMILES IDX 78 56 79 57 80 58 81 59 82 60 61 61 62 62 70 63 63 64 69 65
REMARK SMILES IDX 64 66 65 67 66 68 67 69 68 70 8 71 9 72 10 73 11 74 12 76
REMARK SMILES IDX 13 77 14 78 34 79 31 80 33 81 35 82 32 83 15 84 16 85 17 86
REMARK SMILES IDX 18 88 19 89 23 90 20 91 22 92 21 93 24 94 25 95 26 96 30 97
REMARK SMILES IDX 27 98 29 99 28 100
REMARK H PARENT 3 8 89 26 59 37 10 75 17 87
REMARK Flexibility Score: inf
ROOT
ATOM      1  C   UNL A   1      41.360  35.805  28.691  1.00  0.00     0.002 C 
ENDROOT
BRANCH   1   2
ATOM      2  C   UNL A   1      42.761  35.689  28.079  1.00  0.00     0.002 C 
BRANCH   2   3
ATOM      3  C   UNL A   1      43.562  36.976  27.941  1.00  0.00     0.021 C 
BRANCH   3   4
ATOM      4  C   UNL A   1      44.527  37.237  29.079  1.00  0.00     0.116 C 
BRANCH   4   5
ATOM      5  N   UNL A   1      45.844  37.655  28.636  1.00  0.00    -0.352 N 
ATOM      6  O   UNL A   1      47.971  37.265  27.957  1.00  0.00    -0.269 OA
ATOM      7  C   UNL A   1      46.866  36.829  28.218  1.00  0.00     0.251 C 
ATOM      8  H   UNL A   1      46.025  38.623  28.633  1.00  0.00     0.163 HD
BRANCH   7   9
ATOM      9  C   UNL A   1      46.577  35.379  28.140  1.00  0.00     0.039 A 
ATOM     10  C   UNL A   1      46.656  34.590  29.291  1.00  0.00     0.014 A 
ATOM     11  C   UNL A   1      46.315  34.806  26.895  1.00  0.00     0.014 A 
ATOM     12  C   UNL A   1      46.578  33.208  29.182  1.00  0.00     0.010 A 
ATOM     13  C   UNL A   1      46.152  33.423  26.802  1.00  0.00     0.010 A 
ATOM     14  C   UNL A   1      46.292  32.614  27.942  1.00  0.00    -0.014 A 
BRANCH  14  15
ATOM     15  C   UNL A   1      46.000  31.163  27.879  1.00  0.00     0.031 A 
ATOM     16  C   UNL A   1      47.061  30.161  27.527  1.00  0.00     0.074 A 
ATOM     17  C   UNL A   1      44.732  30.770  28.114  1.00  0.00     0.049 A 
ATOM     18  N   UNL A   1      46.940  28.868  27.362  1.00  0.00    -0.248 NA
ATOM     19  C   UNL A   1      48.427  30.666  27.325  1.00  0.00     0.031 C 
ATOM     20  C   UNL A   1      43.621  31.668  28.452  1.00  0.00     0.029 A 
ATOM     21  N   UNL A   1      44.157  29.528  28.101  1.00  0.00    -0.354 N 
ATOM     22  C   UNL A   1      48.201  28.408  27.006  1.00  0.00     0.074 A 
ATOM     23  C   UNL A   1      49.076  29.560  26.977  1.00  0.00     0.031 C 
ATOM     24  C   UNL A   1      42.508  30.946  28.634  1.00  0.00     0.029 A 
ATOM     25  C   UNL A   1      42.806  29.549  28.352  1.00  0.00     0.049 A 
ATOM     26  H   UNL A   1      44.662  28.700  27.928  1.00  0.00     0.167 HD
ATOM     27  C   UNL A   1      48.584  27.139  26.724  1.00  0.00     0.031 A 
ATOM     28  C   UNL A   1      41.891  28.562  28.316  1.00  0.00     0.031 A 
ATOM     29  C   UNL A   1      47.698  26.004  26.766  1.00  0.00     0.049 A 
ATOM     30  C   UNL A   1      42.340  27.176  27.964  1.00  0.00     0.074 A 
ATOM     31  C   UNL A   1      48.003  24.669  26.563  1.00  0.00     0.029 A 
ATOM     32  N   UNL A   1      46.334  26.068  27.009  1.00  0.00    -0.354 N 
ATOM     33  N   UNL A   1      43.552  26.751  27.696  1.00  0.00    -0.248 NA
ATOM     34  C   UNL A   1      41.303  26.140  27.902  1.00  0.00     0.031 C 
ATOM     35  C   UNL A   1      46.814  23.935  26.623  1.00  0.00     0.029 A 
ATOM     36  C   UNL A   1      45.777  24.804  26.917  1.00  0.00     0.049 A 
ATOM     37  H   UNL A   1      45.835  26.892  27.215  1.00  0.00     0.167 HD
ATOM     38  C   UNL A   1      43.422  25.394  27.437  1.00  0.00     0.074 A 
ATOM     39  C   UNL A   1      42.021  25.065  27.607  1.00  0.00     0.031 C 
ATOM     40  C   UNL A   1      44.378  24.500  27.084  1.00  0.00     0.031 A 
BRANCH  27  41
ATOM     41  C   UNL A   1      50.012  26.900  26.312  1.00  0.00    -0.014 A 
ATOM     42  C   UNL A   1      51.016  26.641  27.261  1.00  0.00     0.010 A 
ATOM     43  C   UNL A   1      50.336  26.842  24.943  1.00  0.00     0.010 A 
ATOM     44  C   UNL A   1      52.321  26.350  26.849  1.00  0.00     0.020 A 
ATOM     45  C   UNL A   1      51.634  26.532  24.526  1.00  0.00     0.020 A 
ATOM     46  C   UNL A   1      52.622  26.297  25.484  1.00  0.00     0.054 A 
BRANCH  46  47
ATOM     47  S   UNL A   1      54.312  25.874  24.979  1.00  0.00     0.124 S 
ATOM     48  O   UNL A   1      54.406  26.520  23.672  1.00  0.00    -0.237 OA
ATOM     49  O   UNL A   1      55.122  26.477  26.035  1.00  0.00    -0.237 OA
ATOM     50  O   UNL A   1      54.314  24.414  24.954  1.00  0.00    -0.744 OA
ENDBRANCH  46  47
ENDBRANCH  27  41
BRANCH  28  51
ATOM     51  C   UNL A   1      40.460  28.876  28.565  1.00  0.00    -0.014 A 
ATOM     52  C   UNL A   1      39.926  28.816  29.862  1.00  0.00     0.010 A 
ATOM     53  C   UNL A   1      39.628  29.268  27.498  1.00  0.00     0.010 A 
ATOM     54  C   UNL A   1      38.581  29.122  30.086  1.00  0.00     0.020 A 
ATOM     55  C   UNL A   1      38.292  29.604  27.722  1.00  0.00     0.020 A 
ATOM     56  C   UNL A   1      37.773  29.514  29.015  1.00  0.00     0.054 A 
BRANCH  56  57
ATOM     57  S   UNL A   1      36.041  29.946  29.333  1.00  0.00     0.124 S 
ATOM     58  O   UNL A   1      35.864  29.493  30.708  1.00  0.00    -0.237 OA
ATOM     59  O   UNL A   1      36.033  31.393  29.136  1.00  0.00    -0.237 OA
ATOM     60  O   UNL A   1      35.309  29.185  28.321  1.00  0.00    -0.744 OA
ENDBRANCH  56  57
ENDBRANCH  28  51
BRANCH  40  61
ATOM     61  C   UNL A   1      43.940  23.079  26.868  1.00  0.00    -0.014 A 
ATOM     62  C   UNL A   1      42.986  22.484  27.713  1.00  0.00     0.010 A 
ATOM     63  C   UNL A   1      44.445  22.352  25.776  1.00  0.00     0.010 A 
ATOM     64  C   UNL A   1      42.558  21.175  27.477  1.00  0.00     0.020 A 
ATOM     65  C   UNL A   1      43.999  21.053  25.523  1.00  0.00     0.020 A 
ATOM     66  C   UNL A   1      43.065  20.469  26.381  1.00  0.00     0.054 A 
BRANCH  66  67
ATOM     67  S   UNL A   1      42.445  18.796  26.060  1.00  0.00     0.124 S 
ATOM     68  O   UNL A   1      41.038  19.046  25.757  1.00  0.00    -0.237 OA
ATOM     69  O   UNL A   1      43.263  18.362  24.930  1.00  0.00    -0.237 OA
ATOM     70  O   UNL A   1      42.697  18.087  27.313  1.00  0.00    -0.744 OA
ENDBRANCH  66  67
ENDBRANCH  40  61
ENDBRANCH  14  15
ENDBRANCH   7   9
ENDBRANCH   4   5
ENDBRANCH   3   4
ENDBRANCH   2   3
ENDBRANCH   1   2
BRANCH   1  71
ATOM     71  C   UNL A   1      40.806  34.664  29.569  1.00  0.00     0.021 C 
BRANCH  71  72
ATOM     72  C   UNL A   1      39.537  34.907  30.400  1.00  0.00     0.116 C 
BRANCH  72  73
ATOM     73  N   UNL A   1      38.616  33.802  30.326  1.00  0.00    -0.356 N 
ATOM     74  C   UNL A   1      37.844  33.373  31.350  1.00  0.00     0.227 C 
ATOM     75  H   UNL A   1      38.545  33.324  29.468  1.00  0.00     0.163 HD
ATOM     76  O   UNL A   1      38.050  32.212  31.683  1.00  0.00    -0.275 OA
BRANCH  74  77
ATOM     77  C   UNL A   1      36.833  34.305  31.987  1.00  0.00     0.127 C 
ATOM     78  C   UNL A   1      36.930  34.324  33.519  1.00  0.00     0.127 C 
ATOM     79  C   UNL A   1      35.324  33.984  31.820  1.00  0.00     0.155 C 
ATOM     80  C   UNL A   1      35.486  34.240  33.977  1.00  0.00     0.155 C 
ATOM     81  C   UNL A   1      34.543  35.228  32.150  1.00  0.00     0.004 C 
ATOM     82  O   UNL A   1      35.004  33.253  33.042  1.00  0.00    -0.365 OA
ATOM     83  C   UNL A   1      34.691  35.417  33.471  1.00  0.00     0.004 C 
BRANCH  78  84
ATOM     84  C   UNL A   1      37.833  33.294  34.151  1.00  0.00     0.231 C 
ATOM     85  O   UNL A   1      37.241  32.355  34.724  1.00  0.00    -0.274 OA
ATOM     86  N   UNL A   1      39.174  33.162  34.163  1.00  0.00    -0.325 N 
ATOM     87  H   UNL A   1      39.356  32.308  34.619  1.00  0.00     0.169 HD
BRANCH  86  88
ATOM     88  C   UNL A   1      40.447  33.696  33.817  1.00  0.00     0.044 A 
ATOM     89  C   UNL A   1      40.580  34.929  34.524  1.00  0.00     0.026 A 
ATOM     90  C   UNL A   1      41.502  33.350  32.921  1.00  0.00    -0.020 A 
ATOM     91  C   UNL A   1      41.687  35.767  34.439  1.00  0.00     0.002 A 
ATOM     92  C   UNL A   1      42.628  34.228  32.882  1.00  0.00     0.006 A 
ATOM     93  C   UNL A   1      42.725  35.407  33.615  1.00  0.00     0.000 A 
BRANCH  90  94
ATOM     94  C   UNL A   1      41.683  32.158  31.983  1.00  0.00     0.073 C 
BRANCH  94  95
ATOM     95  C   UNL A   1      41.791  30.701  32.484  1.00  0.00    -0.044 A 
ATOM     96  C   UNL A   1      42.807  29.858  32.001  1.00  0.00     0.004 A 
ATOM     97  C   UNL A   1      40.806  30.080  33.267  1.00  0.00     0.004 A 
ATOM     98  C   UNL A   1      42.855  28.484  32.262  1.00  0.00     0.000 A 
ATOM     99  C   UNL A   1      40.853  28.701  33.549  1.00  0.00     0.000 A 
ATOM    100  C   UNL A   1      41.871  27.900  33.040  1.00  0.00     0.000 A 
ENDBRANCH  94  95
ENDBRANCH  90  94
ENDBRANCH  86  88
ENDBRANCH  78  84
ENDBRANCH  74  77
ENDBRANCH  72  73
ENDBRANCH  71  72
ENDBRANCH   1  71
TORSDOF 20
ENDMDL
MODEL 3
REMARK VINA RESULT:     -10.8      1.109      7.960
REMARK SMILES O=C(NCCCCCCNC(=O)[C@@H]1[C@H](C(=O)Nc2ccccc2Cc2ccccc2)[C@H]2C=C[C@@H]1O2)c1ccc(-c2c3nc(c(-c4ccc(S(=O)(=O)[O-])cc4)c4ccc([nH]4)c(-c4ccc(S(=O)(=O)[O-])cc4)c4nc(c(-c5ccc(S(=O)(=O)[O-])cc5)c5ccc2[nH]5)C=C4)C=C3)cc1
REMARK SMILES IDX 7 1 6 2 5 3 4 4 3 5 1 6 2 7 36 9 37 10 95 11 38 12 94 13
REMARK SMILES IDX 39 14 40 15 41 16 88 17 42 18 93 19 87 20 89 21 43 22 92 23
REMARK SMILES IDX 86 24 85 25 44 27 74 28 55 29 73 30 56 31 59 32 72 33 90 34
REMARK SMILES IDX 57 35 58 36 71 38 91 39 60 40 45 41 46 42 54 43 47 44 53 45
REMARK SMILES IDX 48 46 49 47 50 48 51 49 52 50 75 51 76 52 84 53 77 54 83 55
REMARK SMILES IDX 78 56 79 57 80 58 81 59 82 60 61 61 62 62 70 63 63 64 69 65
REMARK SMILES IDX 64 66 65 67 66 68 67 69 68 70 8 71 9 72 10 73 11 74 12 76
REMARK SMILES IDX 13 77 14 78 34 79 31 80 33 81 35 82 32 83 15 84 16 85 17 86
REMARK SMILES IDX 18 88 19 89 23 90 20 91 22 92 21 93 24 94 25 95 26 96 30 97
REMARK SMILES IDX 27 98 29 99 28 100
REMARK H PARENT 3 8 89 26 59 37 10 75 17 87
REMARK Flexibility Score: inf
ROOT
ATOM      1  C   UNL A   1      33.961  32.734  28.320  1.00  0.00     0.002 C 
ENDROOT
BRANCH   1   2
ATOM      2  C   UNL A   1      34.465  33.489  29.556  1.00  0.00     0.002 C 
BRANCH   2   3
ATOM      3  C   UNL A   1      35.887  34.028  29.502  1.00  0.00     0.021 C 
BRANCH   3   4
ATOM      4  C   UNL A   1      36.825  33.425  30.528  1.00  0.00     0.116 C 
BRANCH   4   5
ATOM      5  N   UNL A   1      36.202  32.405  31.350  1.00  0.00    -0.352 N 
ATOM      6  O   UNL A   1      36.013  30.299  32.167  1.00  0.00    -0.269 OA
ATOM      7  C   UNL A   1      36.656  31.116  31.536  1.00  0.00     0.251 C 
ATOM      8  H   UNL A   1      35.375  32.657  31.820  1.00  0.00     0.163 HD
BRANCH   7   9
ATOM      9  C   UNL A   1      37.943  30.752  30.900  1.00  0.00     0.039 A 
ATOM     10  C   UNL A   1      38.018  30.611  29.511  1.00  0.00     0.014 A 
ATOM     11  C   UNL A   1      39.044  30.469  31.709  1.00  0.00     0.014 A 
ATOM     12  C   UNL A   1      39.166  30.082  28.937  1.00  0.00     0.010 A 
ATOM     13  C   UNL A   1      40.225  30.018  31.119  1.00  0.00     0.010 A 
ATOM     14  C   UNL A   1      40.292  29.813  29.732  1.00  0.00    -0.014 A 
BRANCH  14  15
ATOM     15  C   UNL A   1      41.574  29.454  29.081  1.00  0.00     0.031 A 
ATOM     16  C   UNL A   1      41.833  28.071  28.559  1.00  0.00     0.074 A 
ATOM     17  C   UNL A   1      42.524  30.408  29.005  1.00  0.00     0.049 A 
ATOM     18  N   UNL A   1      42.929  27.589  28.032  1.00  0.00    -0.248 NA
ATOM     19  C   UNL A   1      40.731  27.100  28.643  1.00  0.00     0.031 C 
ATOM     20  C   UNL A   1      42.378  31.783  29.496  1.00  0.00     0.029 A 
ATOM     21  N   UNL A   1      43.795  30.374  28.499  1.00  0.00    -0.354 N 
ATOM     22  C   UNL A   1      42.665  26.254  27.751  1.00  0.00     0.074 A 
ATOM     23  C   UNL A   1      41.302  25.999  28.167  1.00  0.00     0.031 C 
ATOM     24  C   UNL A   1      43.504  32.464  29.248  1.00  0.00     0.029 A 
ATOM     25  C   UNL A   1      44.476  31.559  28.653  1.00  0.00     0.049 A 
ATOM     26  H   UNL A   1      44.185  29.579  28.067  1.00  0.00     0.167 HD
ATOM     27  C   UNL A   1      43.491  25.332  27.203  1.00  0.00     0.031 A 
ATOM     28  C   UNL A   1      45.757  31.875  28.388  1.00  0.00     0.031 A 
ATOM     29  C   UNL A   1      44.843  25.608  26.789  1.00  0.00     0.049 A 
ATOM     30  C   UNL A   1      46.656  30.821  27.817  1.00  0.00     0.074 A 
ATOM     31  C   UNL A   1      45.740  24.759  26.161  1.00  0.00     0.029 A 
ATOM     32  N   UNL A   1      45.502  26.815  26.976  1.00  0.00    -0.354 N 
ATOM     33  N   UNL A   1      46.367  29.582  27.497  1.00  0.00    -0.248 NA
ATOM     34  C   UNL A   1      48.053  31.201  27.578  1.00  0.00     0.031 C 
ATOM     35  C   UNL A   1      46.957  25.434  26.024  1.00  0.00     0.029 A 
ATOM     36  C   UNL A   1      46.804  26.720  26.516  1.00  0.00     0.049 A 
ATOM     37  H   UNL A   1      45.101  27.620  27.377  1.00  0.00     0.167 HD
ATOM     38  C   UNL A   1      47.546  29.035  27.013  1.00  0.00     0.074 A 
ATOM     39  C   UNL A   1      48.545  30.085  27.058  1.00  0.00     0.031 C 
ATOM     40  C   UNL A   1      47.784  27.775  26.576  1.00  0.00     0.031 A 
BRANCH  27  41
ATOM     41  C   UNL A   1      42.983  23.923  27.043  1.00  0.00    -0.014 A 
ATOM     42  C   UNL A   1      42.877  23.322  25.777  1.00  0.00     0.010 A 
ATOM     43  C   UNL A   1      42.694  23.159  28.189  1.00  0.00     0.010 A 
ATOM     44  C   UNL A   1      42.471  21.988  25.659  1.00  0.00     0.020 A 
ATOM     45  C   UNL A   1      42.307  21.820  28.078  1.00  0.00     0.020 A 
ATOM     46  C   UNL A   1      42.188  21.245  26.811  1.00  0.00     0.054 A 
BRANCH  46  47
ATOM     47  S   UNL A   1      41.706  19.506  26.630  1.00  0.00     0.124 S 
ATOM     48  O   UNL A   1      40.300  19.541  27.025  1.00  0.00    -0.237 OA
ATOM     49  O   UNL A   1      41.951  19.251  25.213  1.00  0.00    -0.237 OA
ATOM     50  O   UNL A   1      42.594  18.800  27.549  1.00  0.00    -0.744 OA
ENDBRANCH  46  47
ENDBRANCH  27  41
BRANCH  28  51
ATOM     51  C   UNL A   1      46.263  33.232  28.720  1.00  0.00    -0.014 A 
ATOM     52  C   UNL A   1      46.160  34.284  27.796  1.00  0.00     0.010 A 
ATOM     53  C   UNL A   1      46.828  33.484  29.986  1.00  0.00     0.010 A 
ATOM     54  C   UNL A   1      46.632  35.558  28.123  1.00  0.00     0.020 A 
ATOM     55  C   UNL A   1      47.272  34.762  30.327  1.00  0.00     0.020 A 
ATOM     56  C   UNL A   1      47.184  35.790  29.386  1.00  0.00     0.054 A 
BRANCH  56  57
ATOM     57  S   UNL A   1      47.753  37.459  29.804  1.00  0.00     0.124 S 
ATOM     58  O   UNL A   1      47.277  38.235  28.664  1.00  0.00    -0.237 OA
ATOM     59  O   UNL A   1      47.076  37.717  31.073  1.00  0.00    -0.237 OA
ATOM     60  O   UNL A   1      49.204  37.311  29.901  1.00  0.00    -0.744 OA
ENDBRANCH  56  57
ENDBRANCH  28  51
BRANCH  40  61
ATOM     61  C   UNL A   1      49.176  27.465  26.103  1.00  0.00    -0.014 A 
ATOM     62  C   UNL A   1      50.189  27.126  27.017  1.00  0.00     0.010 A 
ATOM     63  C   UNL A   1      49.458  27.457  24.726  1.00  0.00     0.010 A 
ATOM     64  C   UNL A   1      51.468  26.801  26.561  1.00  0.00     0.020 A 
ATOM     65  C   UNL A   1      50.729  27.107  24.264  1.00  0.00     0.020 A 
ATOM     66  C   UNL A   1      51.729  26.791  25.186  1.00  0.00     0.054 A 
BRANCH  66  67
ATOM     67  S   UNL A   1      53.379  26.303  24.616  1.00  0.00     0.124 S 
ATOM     68  O   UNL A   1      53.407  26.849  23.262  1.00  0.00    -0.237 OA
ATOM     69  O   UNL A   1      54.259  26.962  25.578  1.00  0.00    -0.237 OA
ATOM     70  O   UNL A   1      53.357  24.844  24.700  1.00  0.00    -0.744 OA
ENDBRANCH  66  67
ENDBRANCH  40  61
ENDBRANCH  14  15
ENDBRANCH   7   9
ENDBRANCH   4   5
ENDBRANCH   3   4
ENDBRANCH   2   3
ENDBRANCH   1   2
BRANCH   1  71
ATOM     71  C   UNL A   1      34.320  31.246  28.127  1.00  0.00     0.021 C 
BRANCH  71  72
ATOM     72  C   UNL A   1      35.121  30.825  26.884  1.00  0.00     0.116 C 
BRANCH  72  73
ATOM     73  N   UNL A   1      35.102  29.400  26.681  1.00  0.00    -0.356 N 
ATOM     74  C   UNL A   1      33.986  28.667  26.465  1.00  0.00     0.227 C 
ATOM     75  H   UNL A   1      35.964  28.924  26.700  1.00  0.00     0.163 HD
ATOM     76  O   UNL A   1      33.783  27.799  27.307  1.00  0.00    -0.275 OA
BRANCH  74  77
ATOM     77  C   UNL A   1      33.103  28.953  25.268  1.00  0.00     0.127 C 
ATOM     78  C   UNL A   1      31.663  28.461  25.464  1.00  0.00     0.127 C 
ATOM     79  C   UNL A   1      33.439  28.260  23.920  1.00  0.00     0.155 C 
ATOM     80  C   UNL A   1      31.328  27.778  24.151  1.00  0.00     0.155 C 
ATOM     81  C   UNL A   1      32.723  29.001  22.822  1.00  0.00     0.004 C 
ATOM     82  O   UNL A   1      32.574  27.085  23.927  1.00  0.00    -0.365 OA
ATOM     83  C   UNL A   1      31.416  28.749  23.000  1.00  0.00     0.004 C 
BRANCH  78  84
ATOM     84  C   UNL A   1      31.400  27.609  26.680  1.00  0.00     0.231 C 
ATOM     85  O   UNL A   1      31.010  28.235  27.688  1.00  0.00    -0.274 OA
ATOM     86  N   UNL A   1      31.450  26.275  26.871  1.00  0.00    -0.325 N 
ATOM     87  H   UNL A   1      31.128  26.122  27.788  1.00  0.00     0.169 HD
BRANCH  86  88
ATOM     88  C   UNL A   1      31.757  24.988  26.347  1.00  0.00     0.044 A 
ATOM     89  C   UNL A   1      30.591  24.183  26.530  1.00  0.00     0.026 A 
ATOM     90  C   UNL A   1      32.906  24.342  25.803  1.00  0.00    -0.020 A 
ATOM     91  C   UNL A   1      30.494  22.846  26.158  1.00  0.00     0.002 A 
ATOM     92  C   UNL A   1      32.755  22.976  25.416  1.00  0.00     0.006 A 
ATOM     93  C   UNL A   1      31.586  22.239  25.588  1.00  0.00     0.000 A 
BRANCH  90  94
ATOM     94  C   UNL A   1      34.314  24.858  25.512  1.00  0.00     0.073 C 
BRANCH  94  95
ATOM     95  C   UNL A   1      35.490  23.929  25.140  1.00  0.00    -0.044 A 
ATOM     96  C   UNL A   1      35.717  23.573  23.798  1.00  0.00     0.004 A 
ATOM     97  C   UNL A   1      36.259  23.239  26.089  1.00  0.00     0.004 A 
ATOM     98  C   UNL A   1      36.637  22.594  23.407  1.00  0.00     0.000 A 
ATOM     99  C   UNL A   1      37.200  22.263  25.706  1.00  0.00     0.000 A 
ATOM    100  C   UNL A   1      37.383  21.934  24.366  1.00  0.00     0.000 A 
ENDBRANCH  94  95
ENDBRANCH  90  94
ENDBRANCH  86  88
ENDBRANCH  78  84
ENDBRANCH  74  77
ENDBRANCH  72  73
ENDBRANCH  71  72
ENDBRANCH   1  71
TORSDOF 20
ENDMDL
