MODEL 1
REMARK VINA RESULT:     -11.1      0.000      0.000
REMARK SMILES O=C(NCCCCCCNC(=O)[C@H]1CC[C@H]2CCCC[C@@H]2[N@H+]1[C@@H]1CCCSC1)c1ccc(-c2c3nc(c(-c4ccc(S(=O)(=O)[O-])cc4)c4ccc([nH]4)c(-c4ccc(S(=O)(=O)[O-])cc4)c4nc(c(-c5ccc(S(=O)(=O)[O-])cc5)c5ccc2[nH]5)C=C4)C=C3)cc1
REMARK SMILES IDX 5 1 4 2 3 3 1 4 2 5 29 7 30 8 88 9 31 10 87 11 32 12 33 13
REMARK SMILES IDX 34 14 81 15 35 16 86 17 80 18 82 19 36 20 85 21 79 22 78 23
REMARK SMILES IDX 37 25 67 26 48 27 66 28 49 29 52 30 65 31 83 32 50 33 51 34
REMARK SMILES IDX 64 36 84 37 53 38 38 39 39 40 47 41 40 42 46 43 41 44 42 45
REMARK SMILES IDX 43 46 44 47 45 48 68 49 69 50 77 51 70 52 76 53 71 54 72 55
REMARK SMILES IDX 73 56 74 57 75 58 54 59 55 60 63 61 56 62 62 63 57 64 58 65
REMARK SMILES IDX 59 66 60 67 61 68 6 69 7 70 8 71 9 72 10 73 11 74 12 76
REMARK SMILES IDX 13 77 14 78 22 79 15 80 21 81 16 83 20 84 17 85 19 86 18 87
REMARK SMILES IDX 23 88 24 89 28 90 25 91 27 92 26 93
REMARK H PARENT 3 6 82 24 52 35 10 75 22 82
REMARK Flexibility Score: inf
ROOT
ATOM      1  C   UNL A   1      35.196  23.586  25.872  1.00  0.00     0.021 C 
ENDROOT
BRANCH   1   2
ATOM      2  C   UNL A   1      36.575  23.946  25.337  1.00  0.00     0.116 C 
BRANCH   2   3
ATOM      3  N   UNL A   1      37.557  22.902  25.568  1.00  0.00    -0.352 N 
ATOM      4  O   UNL A   1      39.544  22.006  26.129  1.00  0.00    -0.269 OA
ATOM      5  C   UNL A   1      38.793  22.972  26.166  1.00  0.00     0.251 C 
ATOM      6  H   UNL A   1      37.299  22.007  25.246  1.00  0.00     0.163 HD
BRANCH   5   7
ATOM      7  C   UNL A   1      39.222  24.223  26.833  1.00  0.00     0.039 A 
ATOM      8  C   UNL A   1      39.967  25.183  26.146  1.00  0.00     0.014 A 
ATOM      9  C   UNL A   1      38.862  24.441  28.166  1.00  0.00     0.014 A 
ATOM     10  C   UNL A   1      40.475  26.282  26.829  1.00  0.00     0.010 A 
ATOM     11  C   UNL A   1      39.298  25.594  28.827  1.00  0.00     0.010 A 
ATOM     12  C   UNL A   1      40.138  26.509  28.174  1.00  0.00    -0.014 A 
BRANCH  12  13
ATOM     13  C   UNL A   1      40.636  27.735  28.851  1.00  0.00     0.031 A 
ATOM     14  C   UNL A   1      42.070  27.858  29.292  1.00  0.00     0.074 A 
ATOM     15  C   UNL A   1      39.785  28.765  29.030  1.00  0.00     0.049 A 
ATOM     16  N   UNL A   1      42.676  28.883  29.835  1.00  0.00    -0.248 NA
ATOM     17  C   UNL A   1      42.934  26.681  29.108  1.00  0.00     0.031 C 
ATOM     18  C   UNL A   1      38.367  28.761  28.653  1.00  0.00     0.029 A 
ATOM     19  N   UNL A   1      39.987  30.020  29.543  1.00  0.00    -0.354 N 
ATOM     20  C   UNL A   1      43.981  28.469  30.084  1.00  0.00     0.074 A 
ATOM     21  C   UNL A   1      44.074  27.092  29.649  1.00  0.00     0.031 C 
ATOM     22  C   UNL A   1      37.848  29.975  28.883  1.00  0.00     0.029 A 
ATOM     23  C   UNL A   1      38.871  30.822  29.483  1.00  0.00     0.049 A 
ATOM     24  H   UNL A   1      40.847  30.319  29.917  1.00  0.00     0.167 HD
ATOM     25  C   UNL A   1      45.005  29.172  30.627  1.00  0.00     0.031 A 
ATOM     26  C   UNL A   1      38.686  32.098  29.869  1.00  0.00     0.031 A 
ATOM     27  C   UNL A   1      44.910  30.545  31.053  1.00  0.00     0.049 A 
ATOM     28  C   UNL A   1      39.835  32.849  30.475  1.00  0.00     0.074 A 
ATOM     29  C   UNL A   1      45.902  31.356  31.575  1.00  0.00     0.029 A 
ATOM     30  N   UNL A   1      43.751  31.308  31.015  1.00  0.00    -0.354 N 
ATOM     31  N   UNL A   1      41.070  32.451  30.666  1.00  0.00    -0.248 NA
ATOM     32  C   UNL A   1      39.565  34.222  30.917  1.00  0.00     0.031 C 
ATOM     33  C   UNL A   1      45.334  32.593  31.898  1.00  0.00     0.029 A 
ATOM     34  C   UNL A   1      43.999  32.572  31.526  1.00  0.00     0.049 A 
ATOM     35  H   UNL A   1      42.882  30.998  30.675  1.00  0.00     0.167 HD
ATOM     36  C   UNL A   1      41.731  33.532  31.234  1.00  0.00     0.074 A 
ATOM     37  C   UNL A   1      40.763  34.607  31.338  1.00  0.00     0.031 C 
ATOM     38  C   UNL A   1      43.024  33.627  31.632  1.00  0.00     0.031 A 
BRANCH  25  39
ATOM     39  C   UNL A   1      46.317  28.456  30.822  1.00  0.00    -0.014 A 
ATOM     40  C   UNL A   1      46.593  27.736  31.998  1.00  0.00     0.010 A 
ATOM     41  C   UNL A   1      47.277  28.474  29.792  1.00  0.00     0.010 A 
ATOM     42  C   UNL A   1      47.820  27.085  32.159  1.00  0.00     0.020 A 
ATOM     43  C   UNL A   1      48.495  27.804  29.938  1.00  0.00     0.020 A 
ATOM     44  C   UNL A   1      48.767  27.129  31.130  1.00  0.00     0.054 A 
BRANCH  44  45
ATOM     45  S   UNL A   1      50.347  26.269  31.361  1.00  0.00     0.124 S 
ATOM     46  O   UNL A   1      50.192  25.116  30.477  1.00  0.00    -0.237 OA
ATOM     47  O   UNL A   1      51.323  27.266  30.927  1.00  0.00    -0.237 OA
ATOM     48  O   UNL A   1      50.369  25.962  32.789  1.00  0.00    -0.744 OA
ENDBRANCH  44  45
ENDBRANCH  25  39
BRANCH  26  49
ATOM     49  C   UNL A   1      37.357  32.739  29.685  1.00  0.00    -0.014 A 
ATOM     50  C   UNL A   1      36.390  32.680  30.704  1.00  0.00     0.010 A 
ATOM     51  C   UNL A   1      37.063  33.441  28.502  1.00  0.00     0.010 A 
ATOM     52  C   UNL A   1      35.151  33.304  30.539  1.00  0.00     0.020 A 
ATOM     53  C   UNL A   1      35.837  34.090  28.345  1.00  0.00     0.020 A 
ATOM     54  C   UNL A   1      34.884  34.009  29.361  1.00  0.00     0.054 A 
BRANCH  54  55
ATOM     55  S   UNL A   1      33.293  34.864  29.192  1.00  0.00     0.124 S 
ATOM     56  O   UNL A   1      32.785  34.830  30.559  1.00  0.00    -0.237 OA
ATOM     57  O   UNL A   1      33.693  36.180  28.697  1.00  0.00    -0.237 OA
ATOM     58  O   UNL A   1      32.564  34.042  28.230  1.00  0.00    -0.744 OA
ENDBRANCH  54  55
ENDBRANCH  26  49
BRANCH  38  59
ATOM     59  C   UNL A   1      43.470  34.951  32.189  1.00  0.00    -0.014 A 
ATOM     60  C   UNL A   1      44.011  35.948  31.359  1.00  0.00     0.010 A 
ATOM     61  C   UNL A   1      43.321  35.209  33.565  1.00  0.00     0.010 A 
ATOM     62  C   UNL A   1      44.436  37.164  31.900  1.00  0.00     0.020 A 
ATOM     63  C   UNL A   1      43.720  36.433  34.106  1.00  0.00     0.020 A 
ATOM     64  C   UNL A   1      44.292  37.396  33.273  1.00  0.00     0.054 A 
BRANCH  64  65
ATOM     65  S   UNL A   1      44.829  38.990  33.952  1.00  0.00     0.124 S 
ATOM     66  O   UNL A   1      44.811  39.845  32.769  1.00  0.00    -0.237 OA
ATOM     67  O   UNL A   1      43.803  39.277  34.952  1.00  0.00    -0.237 OA
ATOM     68  O   UNL A   1      46.155  38.704  34.495  1.00  0.00    -0.744 OA
ENDBRANCH  64  65
ENDBRANCH  38  59
ENDBRANCH  12  13
ENDBRANCH   5   7
ENDBRANCH   2   3
ENDBRANCH   1   2
BRANCH   1  69
ATOM     69  C   UNL A   1      34.033  24.391  25.289  1.00  0.00     0.002 C 
BRANCH  69  70
ATOM     70  C   UNL A   1      32.623  23.870  25.604  1.00  0.00     0.002 C 
BRANCH  70  71
ATOM     71  C   UNL A   1      31.752  23.506  24.400  1.00  0.00     0.021 C 
BRANCH  71  72
ATOM     72  C   UNL A   1      32.493  23.455  23.073  1.00  0.00     0.116 C 
BRANCH  72  73
ATOM     73  N   UNL A   1      31.910  24.274  22.040  1.00  0.00    -0.351 N 
ATOM     74  C   UNL A   1      32.003  25.619  21.833  1.00  0.00     0.278 C 
ATOM     75  H   UNL A   1      31.359  23.789  21.383  1.00  0.00     0.163 HD
ATOM     76  O   UNL A   1      31.628  26.020  20.722  1.00  0.00    -0.268 OA
BRANCH  74  77
ATOM     77  C   UNL A   1      32.495  26.634  22.903  1.00  0.00     0.274 C 
ATOM     78  C   UNL A   1      33.686  27.523  22.502  1.00  0.00     0.076 C 
ATOM     79  N   UNL A   1      31.426  27.280  23.714  1.00  0.00    -0.319 N 
ATOM     80  C   UNL A   1      34.012  28.593  23.554  1.00  0.00     0.016 C 
ATOM     81  C   UNL A   1      31.960  27.979  24.901  1.00  0.00     0.188 C 
ATOM     82  H   UNL A   1      30.893  26.476  24.044  1.00  0.00     0.349 HD
ATOM     83  C   UNL A   1      33.499  28.160  24.922  1.00  0.00     0.048 C 
ATOM     84  C   UNL A   1      31.565  27.260  26.202  1.00  0.00     0.065 C 
ATOM     85  C   UNL A   1      33.854  29.145  26.039  1.00  0.00     0.010 C 
ATOM     86  C   UNL A   1      31.947  28.121  27.411  1.00  0.00     0.006 C 
ATOM     87  C   UNL A   1      33.407  28.587  27.394  1.00  0.00     0.001 C 
BRANCH  79  88
ATOM     88  C   UNL A   1      30.353  28.018  23.004  1.00  0.00     0.194 C 
ATOM     89  C   UNL A   1      30.678  29.494  22.663  1.00  0.00     0.067 C 
ATOM     90  C   UNL A   1      29.020  27.948  23.789  1.00  0.00     0.134 C 
ATOM     91  C   UNL A   1      29.630  30.140  21.757  1.00  0.00     0.017 C 
ATOM     92  S   UNL A   1      27.609  28.587  22.821  1.00  0.00    -0.156 SA
ATOM     93  C   UNL A   1      28.260  30.232  22.411  1.00  0.00     0.070 C 
ENDBRANCH  79  88
ENDBRANCH  74  77
ENDBRANCH  72  73
ENDBRANCH  71  72
ENDBRANCH  70  71
ENDBRANCH  69  70
ENDBRANCH   1  69
TORSDOF 17
ENDMDL
MODEL 2
REMARK VINA RESULT:     -11.1      3.016      9.392
REMARK SMILES O=C(NCCCCCCNC(=O)[C@H]1CC[C@H]2CCCC[C@@H]2[N@H+]1[C@@H]1CCCSC1)c1ccc(-c2c3nc(c(-c4ccc(S(=O)(=O)[O-])cc4)c4ccc([nH]4)c(-c4ccc(S(=O)(=O)[O-])cc4)c4nc(c(-c5ccc(S(=O)(=O)[O-])cc5)c5ccc2[nH]5)C=C4)C=C3)cc1
REMARK SMILES IDX 5 1 4 2 3 3 1 4 2 5 29 7 30 8 88 9 31 10 87 11 32 12 33 13
REMARK SMILES IDX 34 14 81 15 35 16 86 17 80 18 82 19 36 20 85 21 79 22 78 23
REMARK SMILES IDX 37 25 67 26 48 27 66 28 49 29 52 30 65 31 83 32 50 33 51 34
REMARK SMILES IDX 64 36 84 37 53 38 38 39 39 40 47 41 40 42 46 43 41 44 42 45
REMARK SMILES IDX 43 46 44 47 45 48 68 49 69 50 77 51 70 52 76 53 71 54 72 55
REMARK SMILES IDX 73 56 74 57 75 58 54 59 55 60 63 61 56 62 62 63 57 64 58 65
REMARK SMILES IDX 59 66 60 67 61 68 6 69 7 70 8 71 9 72 10 73 11 74 12 76
REMARK SMILES IDX 13 77 14 78 22 79 15 80 21 81 16 83 20 84 17 85 19 86 18 87
REMARK SMILES IDX 23 88 24 89 28 90 25 91 27 92 26 93
REMARK H PARENT 3 6 82 24 52 35 10 75 22 82
REMARK Flexibility Score: inf
ROOT
ATOM      1  C   UNL A   1      32.628  27.427  26.785  1.00  0.00     0.021 C 
ENDROOT
BRANCH   1   2
ATOM      2  C   UNL A   1      33.896  28.271  26.765  1.00  0.00     0.116 C 
BRANCH   2   3
ATOM      3  N   UNL A   1      33.682  29.617  27.265  1.00  0.00    -0.352 N 
ATOM      4  O   UNL A   1      34.091  31.476  28.465  1.00  0.00    -0.269 OA
ATOM      5  C   UNL A   1      34.514  30.423  28.006  1.00  0.00     0.251 C 
ATOM      6  H   UNL A   1      32.808  30.013  27.040  1.00  0.00     0.163 HD
BRANCH   5   7
ATOM      7  C   UNL A   1      35.910  30.005  28.268  1.00  0.00     0.039 A 
ATOM      8  C   UNL A   1      36.282  29.481  29.508  1.00  0.00     0.014 A 
ATOM      9  C   UNL A   1      36.859  30.129  27.249  1.00  0.00     0.014 A 
ATOM     10  C   UNL A   1      37.622  29.225  29.775  1.00  0.00     0.010 A 
ATOM     11  C   UNL A   1      38.192  29.783  27.492  1.00  0.00     0.010 A 
ATOM     12  C   UNL A   1      38.592  29.361  28.769  1.00  0.00    -0.014 A 
BRANCH  12  13
ATOM     13  C   UNL A   1      40.004  29.003  29.068  1.00  0.00     0.031 A 
ATOM     14  C   UNL A   1      40.907  29.944  29.820  1.00  0.00     0.074 A 
ATOM     15  C   UNL A   1      40.458  27.792  28.688  1.00  0.00     0.049 A 
ATOM     16  N   UNL A   1      42.140  29.756  30.216  1.00  0.00    -0.248 NA
ATOM     17  C   UNL A   1      40.363  31.267  30.165  1.00  0.00     0.031 C 
ATOM     18  C   UNL A   1      39.680  26.796  27.944  1.00  0.00     0.029 A 
ATOM     19  N   UNL A   1      41.666  27.179  28.896  1.00  0.00    -0.354 N 
ATOM     20  C   UNL A   1      42.530  30.941  30.831  1.00  0.00     0.074 A 
ATOM     21  C   UNL A   1      41.407  31.850  30.739  1.00  0.00     0.031 C 
ATOM     22  C   UNL A   1      40.404  25.675  27.820  1.00  0.00     0.029 A 
ATOM     23  C   UNL A   1      41.717  25.891  28.415  1.00  0.00     0.049 A 
ATOM     24  H   UNL A   1      42.423  27.616  29.348  1.00  0.00     0.167 HD
ATOM     25  C   UNL A   1      43.714  31.244  31.417  1.00  0.00     0.031 A 
ATOM     26  C   UNL A   1      42.710  24.983  28.442  1.00  0.00     0.031 A 
ATOM     27  C   UNL A   1      44.827  30.334  31.512  1.00  0.00     0.049 A 
ATOM     28  C   UNL A   1      44.014  25.348  29.088  1.00  0.00     0.074 A 
ATOM     29  C   UNL A   1      46.053  30.533  32.124  1.00  0.00     0.029 A 
ATOM     30  N   UNL A   1      44.854  29.055  30.973  1.00  0.00    -0.354 N 
ATOM     31  N   UNL A   1      44.347  26.461  29.697  1.00  0.00    -0.248 NA
ATOM     32  C   UNL A   1      45.074  24.334  29.052  1.00  0.00     0.031 C 
ATOM     33  C   UNL A   1      46.839  29.394  31.913  1.00  0.00     0.029 A 
ATOM     34  C   UNL A   1      46.083  28.463  31.218  1.00  0.00     0.049 A 
ATOM     35  H   UNL A   1      44.110  28.631  30.490  1.00  0.00     0.167 HD
ATOM     36  C   UNL A   1      45.652  26.275  30.135  1.00  0.00     0.074 A 
ATOM     37  C   UNL A   1      46.039  24.935  29.736  1.00  0.00     0.031 C 
ATOM     38  C   UNL A   1      46.457  27.134  30.807  1.00  0.00     0.031 A 
BRANCH  25  39
ATOM     39  C   UNL A   1      43.883  32.634  31.976  1.00  0.00    -0.014 A 
ATOM     40  C   UNL A   1      44.286  33.709  31.163  1.00  0.00     0.010 A 
ATOM     41  C   UNL A   1      43.594  32.875  33.333  1.00  0.00     0.010 A 
ATOM     42  C   UNL A   1      44.441  34.988  31.705  1.00  0.00     0.020 A 
ATOM     43  C   UNL A   1      43.724  34.157  33.874  1.00  0.00     0.020 A 
ATOM     44  C   UNL A   1      44.165  35.203  33.060  1.00  0.00     0.054 A 
BRANCH  44  45
ATOM     45  S   UNL A   1      44.366  36.874  33.737  1.00  0.00     0.124 S 
ATOM     46  O   UNL A   1      43.193  37.558  33.199  1.00  0.00    -0.237 OA
ATOM     47  O   UNL A   1      44.352  36.641  35.179  1.00  0.00    -0.237 OA
ATOM     48  O   UNL A   1      45.649  37.316  33.194  1.00  0.00    -0.744 OA
ENDBRANCH  44  45
ENDBRANCH  25  39
BRANCH  26  49
ATOM     49  C   UNL A   1      42.497  23.640  27.840  1.00  0.00    -0.014 A 
ATOM     50  C   UNL A   1      42.812  23.406  26.490  1.00  0.00     0.010 A 
ATOM     51  C   UNL A   1      42.008  22.578  28.624  1.00  0.00     0.010 A 
ATOM     52  C   UNL A   1      42.635  22.136  25.933  1.00  0.00     0.020 A 
ATOM     53  C   UNL A   1      41.857  21.301  28.078  1.00  0.00     0.020 A 
ATOM     54  C   UNL A   1      42.162  21.091  26.733  1.00  0.00     0.054 A 
BRANCH  54  55
ATOM     55  S   UNL A   1      41.998  19.437  26.006  1.00  0.00     0.124 S 
ATOM     56  O   UNL A   1      40.567  19.367  25.730  1.00  0.00    -0.237 OA
ATOM     57  O   UNL A   1      42.867  19.519  24.834  1.00  0.00    -0.237 OA
ATOM     58  O   UNL A   1      42.478  18.551  27.065  1.00  0.00    -0.744 OA
ENDBRANCH  54  55
ENDBRANCH  26  49
BRANCH  38  59
ATOM     59  C   UNL A   1      47.827  26.636  31.178  1.00  0.00    -0.014 A 
ATOM     60  C   UNL A   1      48.946  26.910  30.373  1.00  0.00     0.010 A 
ATOM     61  C   UNL A   1      47.998  25.902  32.366  1.00  0.00     0.010 A 
ATOM     62  C   UNL A   1      50.207  26.422  30.727  1.00  0.00     0.020 A 
ATOM     63  C   UNL A   1      49.261  25.435  32.737  1.00  0.00     0.020 A 
ATOM     64  C   UNL A   1      50.354  25.682  31.906  1.00  0.00     0.054 A 
BRANCH  64  65
ATOM     65  S   UNL A   1      52.003  25.077  32.359  1.00  0.00     0.124 S 
ATOM     66  O   UNL A   1      51.784  23.636  32.443  1.00  0.00    -0.237 OA
ATOM     67  O   UNL A   1      52.829  25.523  31.240  1.00  0.00    -0.237 OA
ATOM     68  O   UNL A   1      52.277  25.741  33.631  1.00  0.00    -0.744 OA
ENDBRANCH  64  65
ENDBRANCH  38  59
ENDBRANCH  12  13
ENDBRANCH   5   7
ENDBRANCH   2   3
ENDBRANCH   1   2
BRANCH   1  69
ATOM     69  C   UNL A   1      31.663  27.662  25.622  1.00  0.00     0.002 C 
BRANCH  69  70
ATOM     70  C   UNL A   1      30.624  26.559  25.370  1.00  0.00     0.002 C 
BRANCH  70  71
ATOM     71  C   UNL A   1      30.392  26.170  23.908  1.00  0.00     0.021 C 
BRANCH  71  72
ATOM     72  C   UNL A   1      30.763  24.734  23.567  1.00  0.00     0.116 C 
BRANCH  72  73
ATOM     73  N   UNL A   1      30.230  23.756  24.482  1.00  0.00    -0.351 N 
ATOM     74  C   UNL A   1      30.835  23.104  25.516  1.00  0.00     0.278 C 
ATOM     75  H   UNL A   1      29.285  23.521  24.338  1.00  0.00     0.163 HD
ATOM     76  O   UNL A   1      30.076  22.522  26.304  1.00  0.00    -0.268 OA
BRANCH  74  77
ATOM     77  C   UNL A   1      32.376  23.025  25.715  1.00  0.00     0.274 C 
ATOM     78  C   UNL A   1      32.875  23.024  27.171  1.00  0.00     0.076 C 
ATOM     79  N   UNL A   1      33.101  22.139  24.762  1.00  0.00    -0.319 N 
ATOM     80  C   UNL A   1      34.389  22.795  27.282  1.00  0.00     0.016 C 
ATOM     81  C   UNL A   1      34.563  22.348  24.797  1.00  0.00     0.188 C 
ATOM     82  H   UNL A   1      32.763  22.475  23.860  1.00  0.00     0.349 HD
ATOM     83  C   UNL A   1      35.079  23.200  25.984  1.00  0.00     0.048 C 
ATOM     84  C   UNL A   1      35.067  23.009  23.504  1.00  0.00     0.065 C 
ATOM     85  C   UNL A   1      36.603  23.069  26.045  1.00  0.00     0.010 C 
ATOM     86  C   UNL A   1      36.601  23.013  23.483  1.00  0.00     0.006 C 
ATOM     87  C   UNL A   1      37.228  23.601  24.751  1.00  0.00     0.001 C 
BRANCH  79  88
ATOM     88  C   UNL A   1      32.689  20.717  24.670  1.00  0.00     0.194 C 
ATOM     89  C   UNL A   1      33.394  19.759  25.663  1.00  0.00     0.067 C 
ATOM     90  C   UNL A   1      32.856  20.185  23.225  1.00  0.00     0.134 C 
ATOM     91  C   UNL A   1      32.788  18.355  25.666  1.00  0.00     0.017 C 
ATOM     92  S   UNL A   1      32.094  18.540  23.000  1.00  0.00    -0.156 SA
ATOM     93  C   UNL A   1      32.941  17.643  24.331  1.00  0.00     0.070 C 
ENDBRANCH  79  88
ENDBRANCH  74  77
ENDBRANCH  72  73
ENDBRANCH  71  72
ENDBRANCH  70  71
ENDBRANCH  69  70
ENDBRANCH   1  69
TORSDOF 17
ENDMDL
MODEL 3
REMARK VINA RESULT:     -11.0      2.921      8.044
REMARK SMILES O=C(NCCCCCCNC(=O)[C@H]1CC[C@H]2CCCC[C@@H]2[N@H+]1[C@@H]1CCCSC1)c1ccc(-c2c3nc(c(-c4ccc(S(=O)(=O)[O-])cc4)c4ccc([nH]4)c(-c4ccc(S(=O)(=O)[O-])cc4)c4nc(c(-c5ccc(S(=O)(=O)[O-])cc5)c5ccc2[nH]5)C=C4)C=C3)cc1
REMARK SMILES IDX 5 1 4 2 3 3 1 4 2 5 29 7 30 8 88 9 31 10 87 11 32 12 33 13
REMARK SMILES IDX 34 14 81 15 35 16 86 17 80 18 82 19 36 20 85 21 79 22 78 23
REMARK SMILES IDX 37 25 67 26 48 27 66 28 49 29 52 30 65 31 83 32 50 33 51 34
REMARK SMILES IDX 64 36 84 37 53 38 38 39 39 40 47 41 40 42 46 43 41 44 42 45
REMARK SMILES IDX 43 46 44 47 45 48 68 49 69 50 77 51 70 52 76 53 71 54 72 55
REMARK SMILES IDX 73 56 74 57 75 58 54 59 55 60 63 61 56 62 62 63 57 64 58 65
REMARK SMILES IDX 59 66 60 67 61 68 6 69 7 70 8 71 9 72 10 73 11 74 12 76
REMARK SMILES IDX 13 77 14 78 22 79 15 80 21 81 16 83 20 84 17 85 19 86 18 87
REMARK SMILES IDX 23 88 24 89 28 90 25 91 27 92 26 93
REMARK H PARENT 3 6 82 24 52 35 10 75 22 82
REMARK Flexibility Score: inf
ROOT
ATOM      1  C   UNL A   1      32.901  26.981  26.523  1.00  0.00     0.021 C 
ENDROOT
BRANCH   1   2
ATOM      2  C   UNL A   1      34.029  28.003  26.465  1.00  0.00     0.116 C 
BRANCH   2   3
ATOM      3  N   UNL A   1      33.603  29.332  26.865  1.00  0.00    -0.352 N 
ATOM      4  O   UNL A   1      33.659  31.280  27.990  1.00  0.00    -0.269 OA
ATOM      5  C   UNL A   1      34.252  30.269  27.633  1.00  0.00     0.251 C 
ATOM      6  H   UNL A   1      32.714  29.603  26.537  1.00  0.00     0.163 HD
BRANCH   5   7
ATOM      7  C   UNL A   1      35.655  30.045  28.048  1.00  0.00     0.039 A 
ATOM      8  C   UNL A   1      36.710  30.265  27.159  1.00  0.00     0.014 A 
ATOM      9  C   UNL A   1      35.919  29.618  29.353  1.00  0.00     0.014 A 
ATOM     10  C   UNL A   1      38.005  29.917  27.525  1.00  0.00     0.010 A 
ATOM     11  C   UNL A   1      37.235  29.356  29.748  1.00  0.00     0.010 A 
ATOM     12  C   UNL A   1      38.287  29.470  28.826  1.00  0.00    -0.014 A 
BRANCH  12  13
ATOM     13  C   UNL A   1      39.695  29.181  29.206  1.00  0.00     0.031 A 
ATOM     14  C   UNL A   1      40.351  27.876  28.844  1.00  0.00     0.074 A 
ATOM     15  C   UNL A   1      40.398  30.133  29.852  1.00  0.00     0.049 A 
ATOM     16  N   UNL A   1      41.587  27.496  29.044  1.00  0.00    -0.248 NA
ATOM     17  C   UNL A   1      39.514  26.863  28.181  1.00  0.00     0.031 C 
ATOM     18  C   UNL A   1      39.868  31.436  30.266  1.00  0.00     0.029 A 
ATOM     19  N   UNL A   1      41.710  30.170  30.247  1.00  0.00    -0.354 N 
ATOM     20  C   UNL A   1      41.672  26.195  28.560  1.00  0.00     0.074 A 
ATOM     21  C   UNL A   1      40.356  25.843  28.072  1.00  0.00     0.031 C 
ATOM     22  C   UNL A   1      40.860  32.168  30.792  1.00  0.00     0.029 A 
ATOM     23  C   UNL A   1      42.078  31.367  30.814  1.00  0.00     0.049 A 
ATOM     24  H   UNL A   1      42.329  29.413  30.134  1.00  0.00     0.167 HD
ATOM     25  C   UNL A   1      42.747  25.370  28.525  1.00  0.00     0.031 A 
ATOM     26  C   UNL A   1      43.263  31.779  31.304  1.00  0.00     0.031 A 
ATOM     27  C   UNL A   1      44.058  25.726  29.007  1.00  0.00     0.049 A 
ATOM     28  C   UNL A   1      44.433  30.843  31.262  1.00  0.00     0.074 A 
ATOM     29  C   UNL A   1      45.220  24.976  28.977  1.00  0.00     0.029 A 
ATOM     30  N   UNL A   1      44.378  26.933  29.614  1.00  0.00    -0.354 N 
ATOM     31  N   UNL A   1      44.500  29.631  30.764  1.00  0.00    -0.248 NA
ATOM     32  C   UNL A   1      45.688  31.328  31.847  1.00  0.00     0.031 C 
ATOM     33  C   UNL A   1      46.232  25.707  29.609  1.00  0.00     0.029 A 
ATOM     34  C   UNL A   1      45.714  26.937  29.984  1.00  0.00     0.049 A 
ATOM     35  H   UNL A   1      43.750  27.676  29.759  1.00  0.00     0.167 HD
ATOM     36  C   UNL A   1      45.811  29.215  30.959  1.00  0.00     0.074 A 
ATOM     37  C   UNL A   1      46.506  30.313  31.603  1.00  0.00     0.031 C 
ATOM     38  C   UNL A   1      46.388  28.033  30.633  1.00  0.00     0.031 A 
BRANCH  25  39
ATOM     39  C   UNL A   1      42.545  23.981  27.976  1.00  0.00    -0.014 A 
ATOM     40  C   UNL A   1      42.224  22.899  28.814  1.00  0.00     0.010 A 
ATOM     41  C   UNL A   1      42.642  23.764  26.588  1.00  0.00     0.010 A 
ATOM     42  C   UNL A   1      42.047  21.618  28.282  1.00  0.00     0.020 A 
ATOM     43  C   UNL A   1      42.441  22.490  26.049  1.00  0.00     0.020 A 
ATOM     44  C   UNL A   1      42.164  21.420  26.902  1.00  0.00     0.054 A 
BRANCH  44  45
ATOM     45  S   UNL A   1      41.922  19.750  26.236  1.00  0.00     0.124 S 
ATOM     46  O   UNL A   1      42.836  19.747  25.097  1.00  0.00    -0.237 OA
ATOM     47  O   UNL A   1      42.311  18.897  27.357  1.00  0.00    -0.237 OA
ATOM     48  O   UNL A   1      40.501  19.715  25.896  1.00  0.00    -0.744 OA
ENDBRANCH  44  45
ENDBRANCH  25  39
BRANCH  26  49
ATOM     49  C   UNL A   1      43.391  33.149  31.868  1.00  0.00    -0.014 A 
ATOM     50  C   UNL A   1      43.675  34.241  31.029  1.00  0.00     0.010 A 
ATOM     51  C   UNL A   1      43.196  33.374  33.243  1.00  0.00     0.010 A 
ATOM     52  C   UNL A   1      43.770  35.532  31.557  1.00  0.00     0.020 A 
ATOM     53  C   UNL A   1      43.262  34.666  33.770  1.00  0.00     0.020 A 
ATOM     54  C   UNL A   1      43.559  35.736  32.925  1.00  0.00     0.054 A 
BRANCH  54  55
ATOM     55  S   UNL A   1      43.625  37.426  33.579  1.00  0.00     0.124 S 
ATOM     56  O   UNL A   1      44.800  37.372  34.441  1.00  0.00    -0.237 OA
ATOM     57  O   UNL A   1      43.765  38.229  32.366  1.00  0.00    -0.237 OA
ATOM     58  O   UNL A   1      42.346  37.575  34.269  1.00  0.00    -0.744 OA
ENDBRANCH  54  55
ENDBRANCH  26  49
BRANCH  38  59
ATOM     59  C   UNL A   1      47.852  27.880  30.942  1.00  0.00    -0.014 A 
ATOM     60  C   UNL A   1      48.838  28.277  30.023  1.00  0.00     0.010 A 
ATOM     61  C   UNL A   1      48.245  27.351  32.186  1.00  0.00     0.010 A 
ATOM     62  C   UNL A   1      50.193  28.110  30.323  1.00  0.00     0.020 A 
ATOM     63  C   UNL A   1      49.598  27.206  32.501  1.00  0.00     0.020 A 
ATOM     64  C   UNL A   1      50.563  27.570  31.560  1.00  0.00     0.054 A 
BRANCH  64  65
ATOM     65  S   UNL A   1      52.327  27.380  31.939  1.00  0.00     0.124 S 
ATOM     66  O   UNL A   1      52.633  26.094  31.320  1.00  0.00    -0.237 OA
ATOM     67  O   UNL A   1      52.923  28.548  31.293  1.00  0.00    -0.237 OA
ATOM     68  O   UNL A   1      52.369  27.396  33.400  1.00  0.00    -0.744 OA
ENDBRANCH  64  65
ENDBRANCH  38  59
ENDBRANCH  12  13
ENDBRANCH   5   7
ENDBRANCH   2   3
ENDBRANCH   1   2
BRANCH   1  69
ATOM     69  C   UNL A   1      32.367  26.512  25.168  1.00  0.00     0.002 C 
BRANCH  69  70
ATOM     70  C   UNL A   1      30.966  27.010  24.782  1.00  0.00     0.002 C 
BRANCH  70  71
ATOM     71  C   UNL A   1      30.189  26.140  23.792  1.00  0.00     0.021 C 
BRANCH  71  72
ATOM     72  C   UNL A   1      30.772  24.752  23.573  1.00  0.00     0.116 C 
BRANCH  72  73
ATOM     73  N   UNL A   1      30.237  23.743  24.452  1.00  0.00    -0.351 N 
ATOM     74  C   UNL A   1      30.834  23.067  25.475  1.00  0.00     0.278 C 
ATOM     75  H   UNL A   1      29.295  23.505  24.289  1.00  0.00     0.163 HD
ATOM     76  O   UNL A   1      30.070  22.456  26.236  1.00  0.00    -0.268 OA
BRANCH  74  77
ATOM     77  C   UNL A   1      32.372  22.996  25.692  1.00  0.00     0.274 C 
ATOM     78  C   UNL A   1      32.856  23.011  27.153  1.00  0.00     0.076 C 
ATOM     79  N   UNL A   1      33.111  22.104  24.755  1.00  0.00    -0.319 N 
ATOM     80  C   UNL A   1      34.369  22.789  27.283  1.00  0.00     0.016 C 
ATOM     81  C   UNL A   1      34.572  22.317  24.805  1.00  0.00     0.188 C 
ATOM     82  H   UNL A   1      32.782  22.429  23.847  1.00  0.00     0.349 HD
ATOM     83  C   UNL A   1      35.072  23.183  25.989  1.00  0.00     0.048 C 
ATOM     84  C   UNL A   1      35.089  22.968  23.511  1.00  0.00     0.065 C 
ATOM     85  C   UNL A   1      36.596  23.059  26.068  1.00  0.00     0.010 C 
ATOM     86  C   UNL A   1      36.622  22.977  23.507  1.00  0.00     0.006 C 
ATOM     87  C   UNL A   1      37.233  23.580  24.776  1.00  0.00     0.001 C 
BRANCH  79  88
ATOM     88  C   UNL A   1      32.706  20.679  24.674  1.00  0.00     0.194 C 
ATOM     89  C   UNL A   1      33.428  19.727  25.660  1.00  0.00     0.067 C 
ATOM     90  C   UNL A   1      32.856  20.143  23.228  1.00  0.00     0.134 C 
ATOM     91  C   UNL A   1      32.829  18.320  25.675  1.00  0.00     0.017 C 
ATOM     92  S   UNL A   1      32.100  18.494  23.017  1.00  0.00    -0.156 SA
ATOM     93  C   UNL A   1      32.968  17.605  24.341  1.00  0.00     0.070 C 
ENDBRANCH  79  88
ENDBRANCH  74  77
ENDBRANCH  72  73
ENDBRANCH  71  72
ENDBRANCH  70  71
ENDBRANCH  69  70
ENDBRANCH   1  69
TORSDOF 17
ENDMDL
