MODEL 1
REMARK VINA RESULT:      -9.5      0.000      0.000
REMARK SMILES C=CCc1cc([C@H]([NH3+])C(=O)NCCCCCCNC(=O)c2ccc(-c3c4nc(c(-c5ccc(S(=O)(=O)[O-])cc5)c5ccc([nH]5)c(-c5ccc(S(=O)(=O)[O-])cc5)c5nc(c(-c6ccc(S(=O)(=O)[O-])cc6)c6ccc3[nH]6)C=C5)C=C4)cc2)cc(OC)c1OCC
REMARK SMILES IDX 14 1 13 2 12 3 11 4 9 5 10 6 7 8 6 9 4 10 5 11 85 12 82 13
REMARK SMILES IDX 81 14 3 15 2 16 1 17 86 18 87 19 88 20 83 21 84 22 8 23
REMARK SMILES IDX 15 27 16 28 17 29 18 30 19 31 20 33 21 34 22 35 80 36 23 37
REMARK SMILES IDX 79 38 24 39 25 40 26 41 73 42 27 43 78 44 72 45 74 46 28 47
REMARK SMILES IDX 77 48 71 49 70 50 29 52 59 53 40 54 58 55 41 56 44 57 57 58
REMARK SMILES IDX 75 59 42 60 43 61 56 63 76 64 45 65 30 66 31 67 39 68 32 69
REMARK SMILES IDX 38 70 33 71 34 72 35 73 36 74 37 75 60 76 61 77 69 78 62 79
REMARK SMILES IDX 68 80 63 81 64 82 65 83 66 84 67 85 46 86 47 87 55 88 48 89
REMARK SMILES IDX 54 90 49 91 50 92 51 93 52 94 53 95
REMARK H PARENT 11 7 8 24 8 25 8 26 18 32 74 51 44 62
REMARK Flexibility Score: inf
ROOT
ATOM      1  C   UNL A   1      37.993  21.857  25.135  1.00  0.00     0.002 C 
ENDROOT
BRANCH   1   2
ATOM      2  C   UNL A   1      36.780  20.936  25.313  1.00  0.00     0.021 C 
BRANCH   2   3
ATOM      3  C   UNL A   1      35.646  21.548  26.127  1.00  0.00     0.116 C 
BRANCH   3   4
ATOM      4  N   UNL A   1      34.515  21.896  25.286  1.00  0.00    -0.351 N 
ATOM      5  C   UNL A   1      33.962  23.115  25.016  1.00  0.00     0.283 C 
ATOM      6  O   UNL A   1      33.027  23.148  24.209  1.00  0.00    -0.268 OA
ATOM      7  H   UNL A   1      34.079  21.134  24.841  1.00  0.00     0.163 HD
BRANCH   5   8
ATOM      8  C   UNL A   1      34.432  24.394  25.753  1.00  0.00     0.302 C 
BRANCH   8   9
ATOM      9  C   UNL A   1      33.817  25.701  25.266  1.00  0.00     0.023 A 
ATOM     10  C   UNL A   1      33.368  27.229  23.372  1.00  0.00     0.002 A 
ATOM     11  C   UNL A   1      34.009  26.102  23.939  1.00  0.00     0.018 A 
ATOM     12  C   UNL A   1      32.573  28.047  24.201  1.00  0.00     0.164 A 
ATOM     13  C   UNL A   1      32.375  27.654  25.546  1.00  0.00     0.161 A 
ATOM     14  C   UNL A   1      33.026  26.523  26.070  1.00  0.00     0.061 A 
BRANCH  10  15
ATOM     15  C   UNL A   1      33.480  27.316  21.863  1.00  0.00     0.066 C 
BRANCH  15  16
ATOM     16  C   UNL A   1      32.734  26.192  21.196  1.00  0.00    -0.030 C 
ATOM     17  C   UNL A   1      31.786  25.445  21.774  1.00  0.00     0.004 C 
ENDBRANCH  15  16
ENDBRANCH  10  15
BRANCH  12  18
ATOM     18  O   UNL A   1      31.919  29.189  23.839  1.00  0.00    -0.490 OA
BRANCH  18  19
ATOM     19  C   UNL A   1      30.507  29.289  23.738  1.00  0.00     0.226 C 
ATOM     20  C   UNL A   1      29.878  28.338  22.732  1.00  0.00     0.049 C 
ENDBRANCH  18  19
ENDBRANCH  12  18
BRANCH  13  21
ATOM     21  O   UNL A   1      31.587  28.277  26.489  1.00  0.00    -0.493 OA
ATOM     22  C   UNL A   1      31.710  27.847  27.841  1.00  0.00     0.278 C 
ENDBRANCH  13  21
ENDBRANCH   8   9
BRANCH   8  23
ATOM     23  N   UNL A   1      35.920  24.435  25.741  1.00  0.00    -0.343 N 
ATOM     24  H   UNL A   1      36.285  23.498  25.567  1.00  0.00     0.345 HD
ATOM     25  H   UNL A   1      36.258  24.768  26.644  1.00  0.00     0.345 HD
ATOM     26  H   UNL A   1      36.237  25.066  25.005  1.00  0.00     0.345 HD
ENDBRANCH   8  23
ENDBRANCH   5   8
ENDBRANCH   3   4
ENDBRANCH   2   3
ENDBRANCH   1   2
BRANCH   1  27
ATOM     27  C   UNL A   1      39.151  21.599  26.104  1.00  0.00     0.002 C 
BRANCH  27  28
ATOM     28  C   UNL A   1      39.512  22.779  27.008  1.00  0.00     0.021 C 
BRANCH  28  29
ATOM     29  C   UNL A   1      41.008  23.013  27.179  1.00  0.00     0.116 C 
BRANCH  29  30
ATOM     30  N   UNL A   1      41.567  23.798  26.088  1.00  0.00    -0.352 N 
ATOM     31  C   UNL A   1      41.773  25.152  26.019  1.00  0.00     0.251 C 
ATOM     32  H   UNL A   1      41.834  23.287  25.291  1.00  0.00     0.163 HD
ATOM     33  O   UNL A   1      42.073  25.676  24.949  1.00  0.00    -0.269 OA
BRANCH  31  34
ATOM     34  C   UNL A   1      41.611  25.978  27.234  1.00  0.00     0.039 A 
ATOM     35  C   UNL A   1      42.708  26.688  27.725  1.00  0.00     0.014 A 
ATOM     36  C   UNL A   1      40.372  26.061  27.876  1.00  0.00     0.014 A 
ATOM     37  C   UNL A   1      42.547  27.530  28.828  1.00  0.00     0.010 A 
ATOM     38  C   UNL A   1      40.196  26.958  28.925  1.00  0.00     0.010 A 
ATOM     39  C   UNL A   1      41.281  27.699  29.415  1.00  0.00    -0.014 A 
BRANCH  39  40
ATOM     40  C   UNL A   1      41.072  28.646  30.539  1.00  0.00     0.031 A 
ATOM     41  C   UNL A   1      41.901  28.528  31.790  1.00  0.00     0.074 A 
ATOM     42  C   UNL A   1      40.092  29.570  30.462  1.00  0.00     0.049 A 
ATOM     43  N   UNL A   1      41.817  29.212  32.902  1.00  0.00    -0.248 NA
ATOM     44  C   UNL A   1      42.945  27.488  31.804  1.00  0.00     0.031 C 
ATOM     45  C   UNL A   1      39.197  29.762  29.318  1.00  0.00     0.029 A 
ATOM     46  N   UNL A   1      39.679  30.515  31.367  1.00  0.00    -0.354 N 
ATOM     47  C   UNL A   1      42.781  28.677  33.750  1.00  0.00     0.074 A 
ATOM     48  C   UNL A   1      43.403  27.579  33.043  1.00  0.00     0.031 C 
ATOM     49  C   UNL A   1      38.358  30.777  29.581  1.00  0.00     0.029 A 
ATOM     50  C   UNL A   1      38.622  31.277  30.926  1.00  0.00     0.049 A 
ATOM     51  H   UNL A   1      40.099  30.637  32.249  1.00  0.00     0.167 HD
ATOM     52  C   UNL A   1      43.129  29.075  34.996  1.00  0.00     0.031 A 
ATOM     53  C   UNL A   1      37.932  32.259  31.540  1.00  0.00     0.031 A 
ATOM     54  C   UNL A   1      42.514  30.175  35.690  1.00  0.00     0.049 A 
ATOM     55  C   UNL A   1      38.324  32.669  32.933  1.00  0.00     0.074 A 
ATOM     56  C   UNL A   1      42.833  30.691  36.934  1.00  0.00     0.029 A 
ATOM     57  N   UNL A   1      41.453  30.926  35.207  1.00  0.00    -0.354 N 
ATOM     58  N   UNL A   1      39.283  32.194  33.692  1.00  0.00    -0.248 NA
ATOM     59  C   UNL A   1      37.549  33.754  33.551  1.00  0.00     0.031 C 
ATOM     60  C   UNL A   1      41.926  31.714  37.229  1.00  0.00     0.029 A 
ATOM     61  C   UNL A   1      41.087  31.882  36.139  1.00  0.00     0.049 A 
ATOM     62  H   UNL A   1      41.023  30.797  34.330  1.00  0.00     0.167 HD
ATOM     63  C   UNL A   1      39.247  32.946  34.862  1.00  0.00     0.074 A 
ATOM     64  C   UNL A   1      38.182  33.914  34.705  1.00  0.00     0.031 C 
ATOM     65  C   UNL A   1      40.027  32.843  35.967  1.00  0.00     0.031 A 
BRANCH  52  66
ATOM     66  C   UNL A   1      44.224  28.313  35.696  1.00  0.00    -0.014 A 
ATOM     67  C   UNL A   1      45.571  28.703  35.582  1.00  0.00     0.010 A 
ATOM     68  C   UNL A   1      43.896  27.227  36.527  1.00  0.00     0.010 A 
ATOM     69  C   UNL A   1      46.571  27.999  36.257  1.00  0.00     0.020 A 
ATOM     70  C   UNL A   1      44.891  26.539  37.228  1.00  0.00     0.020 A 
ATOM     71  C   UNL A   1      46.225  26.921  37.077  1.00  0.00     0.054 A 
BRANCH  71  72
ATOM     72  S   UNL A   1      47.543  26.050  37.969  1.00  0.00     0.124 S 
ATOM     73  O   UNL A   1      48.326  25.485  36.872  1.00  0.00    -0.237 OA
ATOM     74  O   UNL A   1      48.190  27.127  38.713  1.00  0.00    -0.237 OA
ATOM     75  O   UNL A   1      46.824  25.075  38.786  1.00  0.00    -0.744 OA
ENDBRANCH  71  72
ENDBRANCH  52  66
BRANCH  53  76
ATOM     76  C   UNL A   1      36.797  32.925  30.839  1.00  0.00    -0.014 A 
ATOM     77  C   UNL A   1      37.032  33.947  29.903  1.00  0.00     0.010 A 
ATOM     78  C   UNL A   1      35.471  32.541  31.112  1.00  0.00     0.010 A 
ATOM     79  C   UNL A   1      35.963  34.590  29.272  1.00  0.00     0.020 A 
ATOM     80  C   UNL A   1      34.401  33.159  30.459  1.00  0.00     0.020 A 
ATOM     81  C   UNL A   1      34.653  34.191  29.554  1.00  0.00     0.054 A 
BRANCH  81  82
ATOM     82  S   UNL A   1      33.283  35.017  28.698  1.00  0.00     0.124 S 
ATOM     83  O   UNL A   1      32.709  33.923  27.920  1.00  0.00    -0.237 OA
ATOM     84  O   UNL A   1      32.467  35.503  29.807  1.00  0.00    -0.237 OA
ATOM     85  O   UNL A   1      33.947  36.060  27.918  1.00  0.00    -0.744 OA
ENDBRANCH  81  82
ENDBRANCH  53  76
BRANCH  65  86
ATOM     86  C   UNL A   1      39.792  33.831  37.080  1.00  0.00    -0.014 A 
ATOM     87  C   UNL A   1      39.014  33.499  38.202  1.00  0.00     0.010 A 
ATOM     88  C   UNL A   1      40.420  35.089  37.030  1.00  0.00     0.010 A 
ATOM     89  C   UNL A   1      38.844  34.420  39.241  1.00  0.00     0.020 A 
ATOM     90  C   UNL A   1      40.279  35.999  38.080  1.00  0.00     0.020 A 
ATOM     91  C   UNL A   1      39.481  35.663  39.174  1.00  0.00     0.054 A 
BRANCH  91  92
ATOM     92  S   UNL A   1      39.286  36.817  40.559  1.00  0.00     0.124 S 
ATOM     93  O   UNL A   1      38.342  36.107  41.416  1.00  0.00    -0.237 OA
ATOM     94  O   UNL A   1      40.648  36.925  41.077  1.00  0.00    -0.237 OA
ATOM     95  O   UNL A   1      38.767  38.030  39.931  1.00  0.00    -0.744 OA
ENDBRANCH  91  92
ENDBRANCH  65  86
ENDBRANCH  39  40
ENDBRANCH  31  34
ENDBRANCH  29  30
ENDBRANCH  28  29
ENDBRANCH  27  28
ENDBRANCH   1  27
TORSDOF 23
ENDMDL
MODEL 2
REMARK VINA RESULT:      -9.3      3.649      5.880
REMARK SMILES C=CCc1cc([C@H]([NH3+])C(=O)NCCCCCCNC(=O)c2ccc(-c3c4nc(c(-c5ccc(S(=O)(=O)[O-])cc5)c5ccc([nH]5)c(-c5ccc(S(=O)(=O)[O-])cc5)c5nc(c(-c6ccc(S(=O)(=O)[O-])cc6)c6ccc3[nH]6)C=C5)C=C4)cc2)cc(OC)c1OCC
REMARK SMILES IDX 14 1 13 2 12 3 11 4 9 5 10 6 7 8 6 9 4 10 5 11 85 12 82 13
REMARK SMILES IDX 81 14 3 15 2 16 1 17 86 18 87 19 88 20 83 21 84 22 8 23
REMARK SMILES IDX 15 27 16 28 17 29 18 30 19 31 20 33 21 34 22 35 80 36 23 37
REMARK SMILES IDX 79 38 24 39 25 40 26 41 73 42 27 43 78 44 72 45 74 46 28 47
REMARK SMILES IDX 77 48 71 49 70 50 29 52 59 53 40 54 58 55 41 56 44 57 57 58
REMARK SMILES IDX 75 59 42 60 43 61 56 63 76 64 45 65 30 66 31 67 39 68 32 69
REMARK SMILES IDX 38 70 33 71 34 72 35 73 36 74 37 75 60 76 61 77 69 78 62 79
REMARK SMILES IDX 68 80 63 81 64 82 65 83 66 84 67 85 46 86 47 87 55 88 48 89
REMARK SMILES IDX 54 90 49 91 50 92 51 93 52 94 53 95
REMARK H PARENT 11 7 8 24 8 25 8 26 18 32 74 51 44 62
REMARK Flexibility Score: inf
ROOT
ATOM      1  C   UNL A   1      41.375  21.591  26.874  1.00  0.00     0.002 C 
ENDROOT
BRANCH   1   2
ATOM      2  C   UNL A   1      40.448  22.621  27.531  1.00  0.00     0.021 C 
BRANCH   2   3
ATOM      3  C   UNL A   1      39.235  22.997  26.687  1.00  0.00     0.116 C 
BRANCH   3   4
ATOM      4  N   UNL A   1      38.671  21.837  26.021  1.00  0.00    -0.351 N 
ATOM      5  C   UNL A   1      37.755  21.760  25.012  1.00  0.00     0.283 C 
ATOM      6  O   UNL A   1      37.480  20.637  24.577  1.00  0.00    -0.268 OA
ATOM      7  H   UNL A   1      39.001  20.969  26.350  1.00  0.00     0.163 HD
BRANCH   5   8
ATOM      8  C   UNL A   1      37.026  23.023  24.489  1.00  0.00     0.302 C 
BRANCH   8   9
ATOM      9  C   UNL A   1      35.673  23.318  25.126  1.00  0.00     0.023 A 
ATOM     10  C   UNL A   1      34.002  25.010  25.807  1.00  0.00     0.002 A 
ATOM     11  C   UNL A   1      35.288  24.646  25.343  1.00  0.00     0.018 A 
ATOM     12  C   UNL A   1      33.093  23.993  26.162  1.00  0.00     0.164 A 
ATOM     13  C   UNL A   1      33.474  22.646  25.951  1.00  0.00     0.161 A 
ATOM     14  C   UNL A   1      34.760  22.325  25.483  1.00  0.00     0.061 A 
BRANCH  10  15
ATOM     15  C   UNL A   1      33.695  26.491  25.693  1.00  0.00     0.066 C 
BRANCH  15  16
ATOM     16  C   UNL A   1      33.341  26.866  24.280  1.00  0.00    -0.030 C 
ATOM     17  C   UNL A   1      33.510  28.078  23.737  1.00  0.00     0.004 C 
ENDBRANCH  15  16
ENDBRANCH  10  15
BRANCH  12  18
ATOM     18  O   UNL A   1      31.835  24.157  26.664  1.00  0.00    -0.490 OA
BRANCH  18  19
ATOM     19  C   UNL A   1      30.682  24.338  25.856  1.00  0.00     0.226 C 
ATOM     20  C   UNL A   1      30.052  25.717  25.957  1.00  0.00     0.049 C 
ENDBRANCH  18  19
ENDBRANCH  12  18
BRANCH  13  21
ATOM     21  O   UNL A   1      32.710  21.520  26.170  1.00  0.00    -0.493 OA
ATOM     22  C   UNL A   1      32.111  20.899  25.037  1.00  0.00     0.278 C 
ENDBRANCH  13  21
ENDBRANCH   8   9
BRANCH   8  23
ATOM     23  N   UNL A   1      36.943  22.948  23.004  1.00  0.00    -0.343 N 
ATOM     24  H   UNL A   1      37.750  23.416  22.594  1.00  0.00     0.345 HD
ATOM     25  H   UNL A   1      36.088  23.405  22.688  1.00  0.00     0.345 HD
ATOM     26  H   UNL A   1      36.933  21.970  22.713  1.00  0.00     0.345 HD
ENDBRANCH   8  23
ENDBRANCH   5   8
ENDBRANCH   3   4
ENDBRANCH   2   3
ENDBRANCH   1   2
BRANCH   1  27
ATOM     27  C   UNL A   1      42.154  22.102  25.659  1.00  0.00     0.002 C 
BRANCH  27  28
ATOM     28  C   UNL A   1      43.595  22.528  25.948  1.00  0.00     0.021 C 
BRANCH  28  29
ATOM     29  C   UNL A   1      44.018  23.830  25.277  1.00  0.00     0.116 C 
BRANCH  29  30
ATOM     30  N   UNL A   1      42.875  24.649  24.903  1.00  0.00    -0.352 N 
ATOM     31  C   UNL A   1      42.180  25.556  25.663  1.00  0.00     0.251 C 
ATOM     32  H   UNL A   1      42.558  24.538  23.978  1.00  0.00     0.163 HD
ATOM     33  O   UNL A   1      41.118  26.018  25.252  1.00  0.00    -0.269 OA
BRANCH  31  34
ATOM     34  C   UNL A   1      42.704  25.955  26.985  1.00  0.00     0.039 A 
ATOM     35  C   UNL A   1      43.508  27.092  27.084  1.00  0.00     0.014 A 
ATOM     36  C   UNL A   1      42.389  25.213  28.128  1.00  0.00     0.014 A 
ATOM     37  C   UNL A   1      43.947  27.520  28.338  1.00  0.00     0.010 A 
ATOM     38  C   UNL A   1      42.762  25.684  29.382  1.00  0.00     0.010 A 
ATOM     39  C   UNL A   1      43.548  26.840  29.501  1.00  0.00    -0.014 A 
BRANCH  39  40
ATOM     40  C   UNL A   1      43.940  27.321  30.850  1.00  0.00     0.031 A 
ATOM     41  C   UNL A   1      45.205  26.818  31.493  1.00  0.00     0.074 A 
ATOM     42  C   UNL A   1      43.126  28.160  31.524  1.00  0.00     0.049 A 
ATOM     43  N   UNL A   1      45.676  27.065  32.689  1.00  0.00    -0.248 NA
ATOM     44  C   UNL A   1      46.036  25.897  30.699  1.00  0.00     0.031 C 
ATOM     45  C   UNL A   1      41.856  28.691  31.024  1.00  0.00     0.029 A 
ATOM     46  N   UNL A   1      43.242  28.706  32.777  1.00  0.00    -0.354 N 
ATOM     47  C   UNL A   1      46.846  26.320  32.795  1.00  0.00     0.074 A 
ATOM     48  C   UNL A   1      46.986  25.573  31.565  1.00  0.00     0.031 C 
ATOM     49  C   UNL A   1      41.323  29.505  31.951  1.00  0.00     0.029 A 
ATOM     50  C   UNL A   1      42.187  29.516  33.127  1.00  0.00     0.049 A 
ATOM     51  H   UNL A   1      44.008  28.534  33.372  1.00  0.00     0.167 HD
ATOM     52  C   UNL A   1      47.731  26.275  33.818  1.00  0.00     0.031 A 
ATOM     53  C   UNL A   1      41.933  30.183  34.271  1.00  0.00     0.031 A 
ATOM     54  C   UNL A   1      47.593  27.029  35.036  1.00  0.00     0.049 A 
ATOM     55  C   UNL A   1      42.924  30.100  35.401  1.00  0.00     0.074 A 
ATOM     56  C   UNL A   1      48.465  27.094  36.109  1.00  0.00     0.029 A 
ATOM     57  N   UNL A   1      46.515  27.843  35.347  1.00  0.00    -0.354 N 
ATOM     58  N   UNL A   1      44.057  29.442  35.457  1.00  0.00    -0.248 NA
ATOM     59  C   UNL A   1      42.607  30.858  36.619  1.00  0.00     0.031 C 
ATOM     60  C   UNL A   1      47.886  27.898  37.095  1.00  0.00     0.029 A 
ATOM     61  C   UNL A   1      46.686  28.392  36.607  1.00  0.00     0.049 A 
ATOM     62  H   UNL A   1      45.741  28.006  34.760  1.00  0.00     0.167 HD
ATOM     63  C   UNL A   1      44.603  29.735  36.702  1.00  0.00     0.074 A 
ATOM     64  C   UNL A   1      43.684  30.638  37.361  1.00  0.00     0.031 C 
ATOM     65  C   UNL A   1      45.763  29.295  37.249  1.00  0.00     0.031 A 
BRANCH  52  66
ATOM     66  C   UNL A   1      48.932  25.377  33.669  1.00  0.00    -0.014 A 
ATOM     67  C   UNL A   1      50.150  25.865  33.161  1.00  0.00     0.010 A 
ATOM     68  C   UNL A   1      48.859  24.038  34.096  1.00  0.00     0.010 A 
ATOM     69  C   UNL A   1      51.259  25.023  33.050  1.00  0.00     0.020 A 
ATOM     70  C   UNL A   1      49.975  23.201  34.016  1.00  0.00     0.020 A 
ATOM     71  C   UNL A   1      51.165  23.696  33.480  1.00  0.00     0.054 A 
BRANCH  71  72
ATOM     72  S   UNL A   1      52.634  22.638  33.358  1.00  0.00     0.124 S 
ATOM     73  O   UNL A   1      53.606  23.542  32.748  1.00  0.00    -0.237 OA
ATOM     74  O   UNL A   1      52.891  22.288  34.752  1.00  0.00    -0.237 OA
ATOM     75  O   UNL A   1      52.196  21.532  32.510  1.00  0.00    -0.744 OA
ENDBRANCH  71  72
ENDBRANCH  52  66
BRANCH  53  76
ATOM     76  C   UNL A   1      40.688  30.990  34.405  1.00  0.00    -0.014 A 
ATOM     77  C   UNL A   1      39.478  30.385  34.789  1.00  0.00     0.010 A 
ATOM     78  C   UNL A   1      40.706  32.372  34.145  1.00  0.00     0.010 A 
ATOM     79  C   UNL A   1      38.306  31.140  34.882  1.00  0.00     0.020 A 
ATOM     80  C   UNL A   1      39.542  33.138  34.269  1.00  0.00     0.020 A 
ATOM     81  C   UNL A   1      38.345  32.513  34.623  1.00  0.00     0.054 A 
BRANCH  81  82
ATOM     82  S   UNL A   1      36.819  33.480  34.785  1.00  0.00     0.124 S 
ATOM     83  O   UNL A   1      37.203  34.756  34.189  1.00  0.00    -0.237 OA
ATOM     84  O   UNL A   1      35.861  32.685  34.021  1.00  0.00    -0.237 OA
ATOM     85  O   UNL A   1      36.584  33.507  36.227  1.00  0.00    -0.744 OA
ENDBRANCH  81  82
ENDBRANCH  53  76
BRANCH  65  86
ATOM     86  C   UNL A   1      46.133  29.816  38.613  1.00  0.00    -0.014 A 
ATOM     87  C   UNL A   1      45.844  29.088  39.780  1.00  0.00     0.010 A 
ATOM     88  C   UNL A   1      46.842  31.028  38.720  1.00  0.00     0.010 A 
ATOM     89  C   UNL A   1      46.233  29.575  41.032  1.00  0.00     0.020 A 
ATOM     90  C   UNL A   1      47.260  31.502  39.965  1.00  0.00     0.020 A 
ATOM     91  C   UNL A   1      46.941  30.778  41.115  1.00  0.00     0.054 A 
BRANCH  91  92
ATOM     92  S   UNL A   1      47.480  31.361  42.746  1.00  0.00     0.124 S 
ATOM     93  O   UNL A   1      47.079  32.764  42.715  1.00  0.00    -0.237 OA
ATOM     94  O   UNL A   1      46.718  30.509  43.657  1.00  0.00    -0.237 OA
ATOM     95  O   UNL A   1      48.922  31.124  42.741  1.00  0.00    -0.744 OA
ENDBRANCH  91  92
ENDBRANCH  65  86
ENDBRANCH  39  40
ENDBRANCH  31  34
ENDBRANCH  29  30
ENDBRANCH  28  29
ENDBRANCH  27  28
ENDBRANCH   1  27
TORSDOF 23
ENDMDL
MODEL 3
REMARK VINA RESULT:      -9.1      1.996      3.014
REMARK SMILES C=CCc1cc([C@H]([NH3+])C(=O)NCCCCCCNC(=O)c2ccc(-c3c4nc(c(-c5ccc(S(=O)(=O)[O-])cc5)c5ccc([nH]5)c(-c5ccc(S(=O)(=O)[O-])cc5)c5nc(c(-c6ccc(S(=O)(=O)[O-])cc6)c6ccc3[nH]6)C=C5)C=C4)cc2)cc(OC)c1OCC
REMARK SMILES IDX 14 1 13 2 12 3 11 4 9 5 10 6 7 8 6 9 4 10 5 11 85 12 82 13
REMARK SMILES IDX 81 14 3 15 2 16 1 17 86 18 87 19 88 20 83 21 84 22 8 23
REMARK SMILES IDX 15 27 16 28 17 29 18 30 19 31 20 33 21 34 22 35 80 36 23 37
REMARK SMILES IDX 79 38 24 39 25 40 26 41 73 42 27 43 78 44 72 45 74 46 28 47
REMARK SMILES IDX 77 48 71 49 70 50 29 52 59 53 40 54 58 55 41 56 44 57 57 58
REMARK SMILES IDX 75 59 42 60 43 61 56 63 76 64 45 65 30 66 31 67 39 68 32 69
REMARK SMILES IDX 38 70 33 71 34 72 35 73 36 74 37 75 60 76 61 77 69 78 62 79
REMARK SMILES IDX 68 80 63 81 64 82 65 83 66 84 67 85 46 86 47 87 55 88 48 89
REMARK SMILES IDX 54 90 49 91 50 92 51 93 52 94 53 95
REMARK H PARENT 11 7 8 24 8 25 8 26 18 32 74 51 44 62
REMARK Flexibility Score: inf
ROOT
ATOM      1  C   UNL A   1      39.791  22.150  26.794  1.00  0.00     0.002 C 
ENDROOT
BRANCH   1   2
ATOM      2  C   UNL A   1      38.575  22.137  25.860  1.00  0.00     0.021 C 
BRANCH   2   3
ATOM      3  C   UNL A   1      37.738  23.411  25.908  1.00  0.00     0.116 C 
BRANCH   3   4
ATOM      4  N   UNL A   1      36.468  23.187  26.575  1.00  0.00    -0.351 N 
ATOM      5  C   UNL A   1      35.204  23.130  26.063  1.00  0.00     0.283 C 
ATOM      6  O   UNL A   1      34.285  22.865  26.846  1.00  0.00    -0.268 OA
ATOM      7  H   UNL A   1      36.528  23.057  27.549  1.00  0.00     0.163 HD
BRANCH   5   8
ATOM      8  C   UNL A   1      34.920  23.465  24.578  1.00  0.00     0.302 C 
BRANCH   8   9
ATOM      9  C   UNL A   1      34.060  24.699  24.331  1.00  0.00     0.023 A 
ATOM     10  C   UNL A   1      33.434  26.990  25.024  1.00  0.00     0.002 A 
ATOM     11  C   UNL A   1      34.097  25.759  25.243  1.00  0.00     0.018 A 
ATOM     12  C   UNL A   1      32.617  27.129  23.883  1.00  0.00     0.164 A 
ATOM     13  C   UNL A   1      32.568  26.060  22.956  1.00  0.00     0.161 A 
ATOM     14  C   UNL A   1      33.246  24.855  23.207  1.00  0.00     0.061 A 
BRANCH  10  15
ATOM     15  C   UNL A   1      33.838  28.095  25.980  1.00  0.00     0.066 C 
BRANCH  15  16
ATOM     16  C   UNL A   1      32.987  28.078  27.221  1.00  0.00    -0.030 C 
ATOM     17  C   UNL A   1      31.703  28.448  27.281  1.00  0.00     0.004 C 
ENDBRANCH  15  16
ENDBRANCH  10  15
BRANCH  12  18
ATOM     18  O   UNL A   1      31.874  28.219  23.535  1.00  0.00    -0.490 OA
BRANCH  18  19
ATOM     19  C   UNL A   1      30.511  28.390  23.891  1.00  0.00     0.226 C 
ATOM     20  C   UNL A   1      29.736  29.332  22.983  1.00  0.00     0.049 C 
ENDBRANCH  18  19
ENDBRANCH  12  18
BRANCH  13  21
ATOM     21  O   UNL A   1      31.887  26.027  21.759  1.00  0.00    -0.493 OA
ATOM     22  C   UNL A   1      32.587  25.548  20.614  1.00  0.00     0.278 C 
ENDBRANCH  13  21
ENDBRANCH   8   9
BRANCH   8  23
ATOM     23  N   UNL A   1      34.369  22.253  23.910  1.00  0.00    -0.343 N 
ATOM     24  H   UNL A   1      33.449  22.465  23.526  1.00  0.00     0.345 HD
ATOM     25  H   UNL A   1      34.288  21.498  24.590  1.00  0.00     0.345 HD
ATOM     26  H   UNL A   1      34.995  21.967  23.156  1.00  0.00     0.345 HD
ENDBRANCH   8  23
ENDBRANCH   5   8
ENDBRANCH   3   4
ENDBRANCH   2   3
ENDBRANCH   1   2
BRANCH   1  27
ATOM     27  C   UNL A   1      40.744  23.332  26.601  1.00  0.00     0.002 C 
BRANCH  27  28
ATOM     28  C   UNL A   1      42.142  22.960  26.102  1.00  0.00     0.021 C 
BRANCH  28  29
ATOM     29  C   UNL A   1      42.943  22.083  27.058  1.00  0.00     0.116 C 
BRANCH  29  30
ATOM     30  N   UNL A   1      44.377  22.221  26.854  1.00  0.00    -0.352 N 
ATOM     31  C   UNL A   1      45.211  23.234  27.253  1.00  0.00     0.251 C 
ATOM     32  H   UNL A   1      44.809  21.485  26.362  1.00  0.00     0.163 HD
ATOM     33  O   UNL A   1      46.363  23.288  26.828  1.00  0.00    -0.269 OA
BRANCH  31  34
ATOM     34  C   UNL A   1      44.709  24.271  28.178  1.00  0.00     0.039 A 
ATOM     35  C   UNL A   1      44.260  23.894  29.445  1.00  0.00     0.014 A 
ATOM     36  C   UNL A   1      44.696  25.617  27.797  1.00  0.00     0.014 A 
ATOM     37  C   UNL A   1      43.854  24.873  30.353  1.00  0.00     0.010 A 
ATOM     38  C   UNL A   1      44.364  26.595  28.729  1.00  0.00     0.010 A 
ATOM     39  C   UNL A   1      43.936  26.235  30.015  1.00  0.00    -0.014 A 
BRANCH  39  40
ATOM     40  C   UNL A   1      43.581  27.296  30.991  1.00  0.00     0.031 A 
ATOM     41  C   UNL A   1      44.403  27.480  32.238  1.00  0.00     0.074 A 
ATOM     42  C   UNL A   1      42.481  28.050  30.788  1.00  0.00     0.049 A 
ATOM     43  N   UNL A   1      44.209  28.300  33.240  1.00  0.00    -0.248 NA
ATOM     44  C   UNL A   1      45.583  26.613  32.395  1.00  0.00     0.031 C 
ATOM     45  C   UNL A   1      41.582  27.943  29.636  1.00  0.00     0.029 A 
ATOM     46  N   UNL A   1      41.927  29.048  31.548  1.00  0.00    -0.354 N 
ATOM     47  C   UNL A   1      45.229  28.038  34.148  1.00  0.00     0.074 A 
ATOM     48  C   UNL A   1      46.009  26.948  33.604  1.00  0.00     0.031 C 
ATOM     49  C   UNL A   1      40.605  28.857  29.755  1.00  0.00     0.029 A 
ATOM     50  C   UNL A   1      40.778  29.580  31.010  1.00  0.00     0.049 A 
ATOM     51  H   UNL A   1      42.315  29.357  32.399  1.00  0.00     0.167 HD
ATOM     52  C   UNL A   1      45.501  28.658  35.319  1.00  0.00     0.031 A 
ATOM     53  C   UNL A   1      39.948  30.533  31.480  1.00  0.00     0.031 A 
ATOM     54  C   UNL A   1      44.728  29.749  35.851  1.00  0.00     0.049 A 
ATOM     55  C   UNL A   1      40.262  31.193  32.795  1.00  0.00     0.074 A 
ATOM     56  C   UNL A   1      44.955  30.482  37.003  1.00  0.00     0.029 A 
ATOM     57  N   UNL A   1      43.578  30.263  35.272  1.00  0.00    -0.354 N 
ATOM     58  N   UNL A   1      41.268  30.976  33.607  1.00  0.00    -0.248 NA
ATOM     59  C   UNL A   1      39.333  32.236  33.254  1.00  0.00     0.031 C 
ATOM     60  C   UNL A   1      43.909  31.397  37.153  1.00  0.00     0.029 A 
ATOM     61  C   UNL A   1      43.068  31.283  36.057  1.00  0.00     0.049 A 
ATOM     62  H   UNL A   1      43.181  29.948  34.427  1.00  0.00     0.167 HD
ATOM     63  C   UNL A   1      41.112  31.877  34.654  1.00  0.00     0.074 A 
ATOM     64  C   UNL A   1      39.922  32.650  34.367  1.00  0.00     0.031 C 
ATOM     65  C   UNL A   1      41.885  32.048  35.755  1.00  0.00     0.031 A 
BRANCH  52  66
ATOM     66  C   UNL A   1      46.685  28.170  36.114  1.00  0.00    -0.014 A 
ATOM     67  C   UNL A   1      47.964  28.727  35.933  1.00  0.00     0.010 A 
ATOM     68  C   UNL A   1      46.504  27.180  37.097  1.00  0.00     0.010 A 
ATOM     69  C   UNL A   1      49.046  28.278  36.695  1.00  0.00     0.020 A 
ATOM     70  C   UNL A   1      47.578  26.750  37.882  1.00  0.00     0.020 A 
ATOM     71  C   UNL A   1      48.846  27.293  37.666  1.00  0.00     0.054 A 
BRANCH  71  72
ATOM     72  S   UNL A   1      50.262  26.757  38.664  1.00  0.00     0.124 S 
ATOM     73  O   UNL A   1      49.672  25.701  39.482  1.00  0.00    -0.237 OA
ATOM     74  O   UNL A   1      51.214  26.308  37.651  1.00  0.00    -0.237 OA
ATOM     75  O   UNL A   1      50.652  27.963  39.391  1.00  0.00    -0.744 OA
ENDBRANCH  71  72
ENDBRANCH  52  66
BRANCH  53  76
ATOM     76  C   UNL A   1      38.739  30.922  30.699  1.00  0.00    -0.014 A 
ATOM     77  C   UNL A   1      38.825  31.874  29.668  1.00  0.00     0.010 A 
ATOM     78  C   UNL A   1      37.491  30.342  30.989  1.00  0.00     0.010 A 
ATOM     79  C   UNL A   1      37.683  32.258  28.961  1.00  0.00     0.020 A 
ATOM     80  C   UNL A   1      36.351  30.699  30.262  1.00  0.00     0.020 A 
ATOM     81  C   UNL A   1      36.452  31.667  29.262  1.00  0.00     0.054 A 
BRANCH  81  82
ATOM     82  S   UNL A   1      34.989  32.157  28.307  1.00  0.00     0.124 S 
ATOM     83  O   UNL A   1      34.764  30.980  27.473  1.00  0.00    -0.237 OA
ATOM     84  O   UNL A   1      33.997  32.394  29.352  1.00  0.00    -0.237 OA
ATOM     85  O   UNL A   1      35.432  33.354  27.595  1.00  0.00    -0.744 OA
ENDBRANCH  81  82
ENDBRANCH  53  76
BRANCH  65  86
ATOM     86  C   UNL A   1      41.499  33.144  36.715  1.00  0.00    -0.014 A 
ATOM     87  C   UNL A   1      40.653  32.896  37.810  1.00  0.00     0.010 A 
ATOM     88  C   UNL A   1      42.049  34.429  36.551  1.00  0.00     0.010 A 
ATOM     89  C   UNL A   1      40.342  33.921  38.708  1.00  0.00     0.020 A 
ATOM     90  C   UNL A   1      41.765  35.448  37.464  1.00  0.00     0.020 A 
ATOM     91  C   UNL A   1      40.903  35.190  38.531  1.00  0.00     0.054 A 
BRANCH  91  92
ATOM     92  S   UNL A   1      40.525  36.487  39.741  1.00  0.00     0.124 S 
ATOM     93  O   UNL A   1      41.143  35.961  40.954  1.00  0.00    -0.237 OA
ATOM     94  O   UNL A   1      41.173  37.662  39.162  1.00  0.00    -0.237 OA
ATOM     95  O   UNL A   1      39.064  36.533  39.755  1.00  0.00    -0.744 OA
ENDBRANCH  91  92
ENDBRANCH  65  86
ENDBRANCH  39  40
ENDBRANCH  31  34
ENDBRANCH  29  30
ENDBRANCH  28  29
ENDBRANCH  27  28
ENDBRANCH   1  27
TORSDOF 23
ENDMDL
