MODEL 1
REMARK VINA RESULT:     -11.1      0.000      0.000
REMARK SMILES CS(=O)(=O)c1ccc(/C=C(/C(=O)NCCCCCCNC(=O)c2ccc(-c3c4nc(c(-c5ccc(S(=O)(=O)[O-])cc5)c5ccc([nH]5)c(-c5ccc(S(=O)(=O)[O-])cc5)c5nc(c(-c6ccc(S(=O)(=O)[O-])cc6)c6ccc3[nH]6)C=C5)C=C4)cc2)c2ccc(O)cc2)cc1
REMARK SMILES IDX 17 1 16 2 15 3 14 4 13 5 11 6 12 7 10 9 9 10 8 11 5 12 6 13
REMARK SMILES IDX 91 14 7 15 90 16 2 17 1 18 3 19 4 20 83 21 84 22 89 23 85 24
REMARK SMILES IDX 88 25 86 26 87 27 18 29 19 30 20 31 21 32 22 34 23 35 24 36
REMARK SMILES IDX 82 37 25 38 81 39 26 40 27 41 28 42 75 43 29 44 80 45 74 46
REMARK SMILES IDX 76 47 30 48 79 49 73 50 72 51 31 53 61 54 42 55 60 56 43 57
REMARK SMILES IDX 46 58 59 59 77 60 44 61 45 62 58 64 78 65 47 66 32 67 33 68
REMARK SMILES IDX 41 69 34 70 40 71 35 72 36 73 37 74 38 75 39 76 62 77 63 78
REMARK SMILES IDX 71 79 64 80 70 81 65 82 66 83 67 84 68 85 69 86 48 87 49 88
REMARK SMILES IDX 57 89 50 90 56 91 51 92 52 93 53 94 54 95 55 96
REMARK H PARENT 13 8 87 28 20 33 76 52 46 63
REMARK Flexibility Score: inf
ROOT
ATOM      1  C   UNL A   1      37.005  21.701  24.311  1.00  0.00     0.002 C 
ENDROOT
BRANCH   1   2
ATOM      2  C   UNL A   1      36.224  22.604  25.275  1.00  0.00     0.002 C 
BRANCH   2   3
ATOM      3  C   UNL A   1      35.720  23.923  24.668  1.00  0.00     0.021 C 
BRANCH   3   4
ATOM      4  C   UNL A   1      34.413  23.776  23.884  1.00  0.00     0.116 C 
BRANCH   4   5
ATOM      5  N   UNL A   1      33.360  23.325  24.774  1.00  0.00    -0.352 N 
ATOM      6  C   UNL A   1      32.289  23.920  25.357  1.00  0.00     0.251 C 
ATOM      7  O   UNL A   1      31.652  23.222  26.152  1.00  0.00    -0.269 OA
ATOM      8  H   UNL A   1      33.441  22.371  25.007  1.00  0.00     0.163 HD
BRANCH   6   9
ATOM      9  C   UNL A   1      31.809  25.311  25.012  1.00  0.00     0.047 C 
ATOM     10  C   UNL A   1      31.135  25.589  23.871  1.00  0.00     0.022 C 
BRANCH  10  11
ATOM     11  C   UNL A   1      30.482  26.852  23.453  1.00  0.00    -0.025 A 
ATOM     12  C   UNL A   1      29.136  29.257  22.901  1.00  0.00     0.067 A 
ATOM     13  C   UNL A   1      30.509  29.163  22.683  1.00  0.00     0.021 A 
ATOM     14  C   UNL A   1      28.415  28.152  23.351  1.00  0.00     0.021 A 
ATOM     15  C   UNL A   1      31.167  27.952  22.922  1.00  0.00     0.009 A 
ATOM     16  C   UNL A   1      29.091  26.958  23.630  1.00  0.00     0.009 A 
BRANCH  12  17
ATOM     17  S   UNL A   1      28.309  30.803  22.618  1.00  0.00     0.175 S 
ATOM     18  C   UNL A   1      27.981  30.822  20.876  1.00  0.00     0.163 C 
ATOM     19  O   UNL A   1      29.272  31.849  22.910  1.00  0.00    -0.224 OA
ATOM     20  O   UNL A   1      27.029  30.750  23.295  1.00  0.00    -0.224 OA
ENDBRANCH  12  17
ENDBRANCH  10  11
BRANCH   9  21
ATOM     21  C   UNL A   1      32.276  26.408  25.899  1.00  0.00    -0.013 A 
ATOM     22  C   UNL A   1      33.606  26.847  25.770  1.00  0.00     0.013 A 
ATOM     23  C   UNL A   1      31.418  27.086  26.774  1.00  0.00     0.013 A 
ATOM     24  C   UNL A   1      34.056  27.973  26.457  1.00  0.00     0.047 A 
ATOM     25  C   UNL A   1      31.866  28.227  27.453  1.00  0.00     0.047 A 
ATOM     26  C   UNL A   1      33.176  28.668  27.274  1.00  0.00     0.115 A 
BRANCH  26  27
ATOM     27  O   UNL A   1      33.633  29.804  27.872  1.00  0.00    -0.508 OA
ATOM     28  H   UNL A   1      33.026  30.420  28.234  1.00  0.00     0.293 HD
ENDBRANCH  26  27
ENDBRANCH   9  21
ENDBRANCH   6   9
ENDBRANCH   4   5
ENDBRANCH   3   4
ENDBRANCH   2   3
ENDBRANCH   1   2
BRANCH   1  29
ATOM     29  C   UNL A   1      37.753  20.542  24.975  1.00  0.00     0.021 C 
BRANCH  29  30
ATOM     30  C   UNL A   1      38.886  20.970  25.903  1.00  0.00     0.116 C 
BRANCH  30  31
ATOM     31  N   UNL A   1      39.890  19.929  26.046  1.00  0.00    -0.352 N 
ATOM     32  C   UNL A   1      41.241  20.054  26.254  1.00  0.00     0.251 C 
ATOM     33  H   UNL A   1      39.554  19.005  25.986  1.00  0.00     0.163 HD
ATOM     34  O   UNL A   1      41.973  19.075  26.139  1.00  0.00    -0.269 OA
BRANCH  32  35
ATOM     35  C   UNL A   1      41.813  21.372  26.600  1.00  0.00     0.039 A 
ATOM     36  C   UNL A   1      42.163  21.634  27.927  1.00  0.00     0.014 A 
ATOM     37  C   UNL A   1      41.992  22.353  25.619  1.00  0.00     0.014 A 
ATOM     38  C   UNL A   1      42.739  22.861  28.263  1.00  0.00     0.010 A 
ATOM     39  C   UNL A   1      42.624  23.551  25.943  1.00  0.00     0.010 A 
ATOM     40  C   UNL A   1      42.998  23.820  27.269  1.00  0.00    -0.014 A 
BRANCH  40  41
ATOM     41  C   UNL A   1      43.655  25.111  27.597  1.00  0.00     0.031 A 
ATOM     42  C   UNL A   1      42.846  26.246  28.164  1.00  0.00     0.074 A 
ATOM     43  C   UNL A   1      44.963  25.283  27.325  1.00  0.00     0.049 A 
ATOM     44  N   UNL A   1      43.229  27.463  28.459  1.00  0.00    -0.248 NA
ATOM     45  C   UNL A   1      41.418  25.990  28.409  1.00  0.00     0.031 C 
ATOM     46  C   UNL A   1      45.847  24.271  26.739  1.00  0.00     0.029 A 
ATOM     47  N   UNL A   1      45.777  26.374  27.497  1.00  0.00    -0.354 N 
ATOM     48  C   UNL A   1      42.086  28.121  28.901  1.00  0.00     0.074 A 
ATOM     49  C   UNL A   1      40.991  27.182  28.796  1.00  0.00     0.031 C 
ATOM     50  C   UNL A   1      47.084  24.781  26.627  1.00  0.00     0.029 A 
ATOM     51  C   UNL A   1      47.075  26.163  27.095  1.00  0.00     0.049 A 
ATOM     52  H   UNL A   1      45.461  27.227  27.874  1.00  0.00     0.167 HD
ATOM     53  C   UNL A   1      41.963  29.388  29.367  1.00  0.00     0.031 A 
ATOM     54  C   UNL A   1      48.138  26.991  27.098  1.00  0.00     0.031 A 
ATOM     55  C   UNL A   1      43.059  30.313  29.486  1.00  0.00     0.049 A 
ATOM     56  C   UNL A   1      47.978  28.391  27.622  1.00  0.00     0.074 A 
ATOM     57  C   UNL A   1      43.048  31.595  30.007  1.00  0.00     0.029 A 
ATOM     58  N   UNL A   1      44.359  30.057  29.079  1.00  0.00    -0.354 N 
ATOM     59  N   UNL A   1      46.903  28.974  28.096  1.00  0.00    -0.248 NA
ATOM     60  C   UNL A   1      49.176  29.241  27.618  1.00  0.00     0.031 C 
ATOM     61  C   UNL A   1      44.334  32.132  29.872  1.00  0.00     0.029 A 
ATOM     62  C   UNL A   1      45.155  31.165  29.314  1.00  0.00     0.049 A 
ATOM     63  H   UNL A   1      44.671  29.213  28.680  1.00  0.00     0.167 HD
ATOM     64  C   UNL A   1      47.302  30.251  28.474  1.00  0.00     0.074 A 
ATOM     65  C   UNL A   1      48.718  30.351  28.181  1.00  0.00     0.031 C 
ATOM     66  C   UNL A   1      46.563  31.249  29.017  1.00  0.00     0.031 A 
BRANCH  53  67
ATOM     67  C   UNL A   1      40.588  29.848  29.771  1.00  0.00    -0.014 A 
ATOM     68  C   UNL A   1      39.592  30.096  28.809  1.00  0.00     0.010 A 
ATOM     69  C   UNL A   1      40.278  30.010  31.133  1.00  0.00     0.010 A 
ATOM     70  C   UNL A   1      38.327  30.544  29.200  1.00  0.00     0.020 A 
ATOM     71  C   UNL A   1      39.005  30.431  31.529  1.00  0.00     0.020 A 
ATOM     72  C   UNL A   1      38.044  30.715  30.558  1.00  0.00     0.054 A 
BRANCH  72  73
ATOM     73  S   UNL A   1      36.392  31.289  31.038  1.00  0.00     0.124 S 
ATOM     74  O   UNL A   1      35.958  30.227  31.944  1.00  0.00    -0.237 OA
ATOM     75  O   UNL A   1      36.669  32.577  31.669  1.00  0.00    -0.237 OA
ATOM     76  O   UNL A   1      35.668  31.362  29.772  1.00  0.00    -0.744 OA
ENDBRANCH  72  73
ENDBRANCH  53  67
BRANCH  54  77
ATOM     77  C   UNL A   1      49.456  26.503  26.612  1.00  0.00    -0.014 A 
ATOM     78  C   UNL A   1      49.853  26.740  25.283  1.00  0.00     0.010 A 
ATOM     79  C   UNL A   1      50.331  25.820  27.476  1.00  0.00     0.010 A 
ATOM     80  C   UNL A   1      51.095  26.291  24.825  1.00  0.00     0.020 A 
ATOM     81  C   UNL A   1      51.583  25.391  27.028  1.00  0.00     0.020 A 
ATOM     82  C   UNL A   1      51.953  25.621  25.701  1.00  0.00     0.054 A 
BRANCH  82  83
ATOM     83  S   UNL A   1      53.586  25.102  25.102  1.00  0.00     0.124 S 
ATOM     84  O   UNL A   1      53.526  23.654  25.275  1.00  0.00    -0.237 OA
ATOM     85  O   UNL A   1      53.581  25.576  23.720  1.00  0.00    -0.237 OA
ATOM     86  O   UNL A   1      54.512  25.803  25.989  1.00  0.00    -0.744 OA
ENDBRANCH  82  83
ENDBRANCH  54  77
BRANCH  66  87
ATOM     87  C   UNL A   1      47.276  32.530  29.360  1.00  0.00    -0.014 A 
ATOM     88  C   UNL A   1      47.868  32.718  30.621  1.00  0.00     0.010 A 
ATOM     89  C   UNL A   1      47.399  33.536  28.385  1.00  0.00     0.010 A 
ATOM     90  C   UNL A   1      48.548  33.904  30.910  1.00  0.00     0.020 A 
ATOM     91  C   UNL A   1      48.101  34.713  28.663  1.00  0.00     0.020 A 
ATOM     92  C   UNL A   1      48.659  34.894  29.929  1.00  0.00     0.054 A 
BRANCH  92  93
ATOM     93  S   UNL A   1      49.586  36.405  30.312  1.00  0.00     0.124 S 
ATOM     94  O   UNL A   1      50.407  36.570  29.116  1.00  0.00    -0.237 OA
ATOM     95  O   UNL A   1      48.527  37.396  30.491  1.00  0.00    -0.237 OA
ATOM     96  O   UNL A   1      50.319  36.063  31.529  1.00  0.00    -0.744 OA
ENDBRANCH  92  93
ENDBRANCH  66  87
ENDBRANCH  40  41
ENDBRANCH  32  35
ENDBRANCH  30  31
ENDBRANCH  29  30
ENDBRANCH   1  29
TORSDOF 20
ENDMDL
MODEL 2
REMARK VINA RESULT:     -11.0      1.924      2.738
REMARK SMILES CS(=O)(=O)c1ccc(/C=C(/C(=O)NCCCCCCNC(=O)c2ccc(-c3c4nc(c(-c5ccc(S(=O)(=O)[O-])cc5)c5ccc([nH]5)c(-c5ccc(S(=O)(=O)[O-])cc5)c5nc(c(-c6ccc(S(=O)(=O)[O-])cc6)c6ccc3[nH]6)C=C5)C=C4)cc2)c2ccc(O)cc2)cc1
REMARK SMILES IDX 17 1 16 2 15 3 14 4 13 5 11 6 12 7 10 9 9 10 8 11 5 12 6 13
REMARK SMILES IDX 91 14 7 15 90 16 2 17 1 18 3 19 4 20 83 21 84 22 89 23 85 24
REMARK SMILES IDX 88 25 86 26 87 27 18 29 19 30 20 31 21 32 22 34 23 35 24 36
REMARK SMILES IDX 82 37 25 38 81 39 26 40 27 41 28 42 75 43 29 44 80 45 74 46
REMARK SMILES IDX 76 47 30 48 79 49 73 50 72 51 31 53 61 54 42 55 60 56 43 57
REMARK SMILES IDX 46 58 59 59 77 60 44 61 45 62 58 64 78 65 47 66 32 67 33 68
REMARK SMILES IDX 41 69 34 70 40 71 35 72 36 73 37 74 38 75 39 76 62 77 63 78
REMARK SMILES IDX 71 79 64 80 70 81 65 82 66 83 67 84 68 85 69 86 48 87 49 88
REMARK SMILES IDX 57 89 50 90 56 91 51 92 52 93 53 94 54 95 55 96
REMARK H PARENT 13 8 87 28 20 33 76 52 46 63
REMARK Flexibility Score: inf
ROOT
ATOM      1  C   UNL A   1      34.822  23.657  24.564  1.00  0.00     0.002 C 
ENDROOT
BRANCH   1   2
ATOM      2  C   UNL A   1      34.226  22.790  23.448  1.00  0.00     0.002 C 
BRANCH   2   3
ATOM      3  C   UNL A   1      32.960  22.009  23.836  1.00  0.00     0.021 C 
BRANCH   3   4
ATOM      4  C   UNL A   1      31.698  22.875  23.882  1.00  0.00     0.116 C 
BRANCH   4   5
ATOM      5  N   UNL A   1      31.305  23.090  25.262  1.00  0.00    -0.352 N 
ATOM      6  C   UNL A   1      30.994  24.184  26.002  1.00  0.00     0.251 C 
ATOM      7  O   UNL A   1      30.796  23.983  27.204  1.00  0.00    -0.269 OA
ATOM      8  H   UNL A   1      31.252  22.252  25.777  1.00  0.00     0.163 HD
BRANCH   6   9
ATOM      9  C   UNL A   1      30.793  25.564  25.419  1.00  0.00     0.047 C 
ATOM     10  C   UNL A   1      29.926  25.811  24.409  1.00  0.00     0.022 C 
BRANCH  10  11
ATOM     11  C   UNL A   1      29.512  27.110  23.826  1.00  0.00    -0.025 A 
ATOM     12  C   UNL A   1      28.568  29.600  22.928  1.00  0.00     0.067 A 
ATOM     13  C   UNL A   1      29.939  29.377  23.048  1.00  0.00     0.021 A 
ATOM     14  C   UNL A   1      27.661  28.580  23.209  1.00  0.00     0.021 A 
ATOM     15  C   UNL A   1      30.405  28.125  23.457  1.00  0.00     0.009 A 
ATOM     16  C   UNL A   1      28.136  27.343  23.662  1.00  0.00     0.009 A 
BRANCH  12  17
ATOM     17  S   UNL A   1      27.982  31.200  22.429  1.00  0.00     0.175 S 
ATOM     18  C   UNL A   1      29.364  32.281  22.681  1.00  0.00     0.163 C 
ATOM     19  O   UNL A   1      26.939  31.572  23.367  1.00  0.00    -0.224 OA
ATOM     20  O   UNL A   1      27.729  31.153  21.003  1.00  0.00    -0.224 OA
ENDBRANCH  12  17
ENDBRANCH  10  11
BRANCH   9  21
ATOM     21  C   UNL A   1      31.735  26.617  25.879  1.00  0.00    -0.013 A 
ATOM     22  C   UNL A   1      32.969  26.743  25.215  1.00  0.00     0.013 A 
ATOM     23  C   UNL A   1      31.398  27.549  26.869  1.00  0.00     0.013 A 
ATOM     24  C   UNL A   1      33.824  27.808  25.493  1.00  0.00     0.047 A 
ATOM     25  C   UNL A   1      32.250  28.628  27.137  1.00  0.00     0.047 A 
ATOM     26  C   UNL A   1      33.447  28.755  26.433  1.00  0.00     0.115 A 
BRANCH  26  27
ATOM     27  O   UNL A   1      34.277  29.820  26.624  1.00  0.00    -0.508 OA
ATOM     28  H   UNL A   1      33.940  30.693  26.565  1.00  0.00     0.293 HD
ENDBRANCH  26  27
ENDBRANCH   9  21
ENDBRANCH   6   9
ENDBRANCH   4   5
ENDBRANCH   3   4
ENDBRANCH   2   3
ENDBRANCH   1   2
BRANCH   1  29
ATOM     29  C   UNL A   1      35.471  22.878  25.710  1.00  0.00     0.021 C 
BRANCH  29  30
ATOM     30  C   UNL A   1      36.870  23.356  26.088  1.00  0.00     0.116 C 
BRANCH  30  31
ATOM     31  N   UNL A   1      37.838  22.273  26.062  1.00  0.00    -0.352 N 
ATOM     32  C   UNL A   1      39.195  22.321  26.262  1.00  0.00     0.251 C 
ATOM     33  H   UNL A   1      37.468  21.379  25.876  1.00  0.00     0.163 HD
ATOM     34  O   UNL A   1      39.890  21.345  25.995  1.00  0.00    -0.269 OA
BRANCH  32  35
ATOM     35  C   UNL A   1      39.818  23.556  26.784  1.00  0.00     0.039 A 
ATOM     36  C   UNL A   1      40.501  23.509  28.002  1.00  0.00     0.014 A 
ATOM     37  C   UNL A   1      39.718  24.760  26.079  1.00  0.00     0.014 A 
ATOM     38  C   UNL A   1      41.127  24.659  28.490  1.00  0.00     0.010 A 
ATOM     39  C   UNL A   1      40.394  25.888  26.535  1.00  0.00     0.010 A 
ATOM     40  C   UNL A   1      41.100  25.851  27.747  1.00  0.00    -0.014 A 
BRANCH  40  41
ATOM     41  C   UNL A   1      41.800  27.071  28.224  1.00  0.00     0.031 A 
ATOM     42  C   UNL A   1      41.011  28.229  28.774  1.00  0.00     0.074 A 
ATOM     43  C   UNL A   1      43.139  27.162  28.104  1.00  0.00     0.049 A 
ATOM     44  N   UNL A   1      41.438  29.396  29.184  1.00  0.00    -0.248 NA
ATOM     45  C   UNL A   1      39.551  28.063  28.849  1.00  0.00     0.031 C 
ATOM     46  C   UNL A   1      44.013  26.124  27.553  1.00  0.00     0.029 A 
ATOM     47  N   UNL A   1      43.999  28.181  28.431  1.00  0.00    -0.354 N 
ATOM     48  C   UNL A   1      40.300  30.109  29.544  1.00  0.00     0.074 A 
ATOM     49  C   UNL A   1      39.163  29.260  29.264  1.00  0.00     0.031 C 
ATOM     50  C   UNL A   1      45.286  26.548  27.605  1.00  0.00     0.029 A 
ATOM     51  C   UNL A   1      45.317  27.899  28.156  1.00  0.00     0.049 A 
ATOM     52  H   UNL A   1      43.701  29.032  28.825  1.00  0.00     0.167 HD
ATOM     53  C   UNL A   1      40.210  31.353  30.073  1.00  0.00     0.031 A 
ATOM     54  C   UNL A   1      46.426  28.646  28.324  1.00  0.00     0.031 A 
ATOM     55  C   UNL A   1      41.344  32.189  30.366  1.00  0.00     0.049 A 
ATOM     56  C   UNL A   1      46.301  30.023  28.915  1.00  0.00     0.074 A 
ATOM     57  C   UNL A   1      41.361  33.437  30.963  1.00  0.00     0.029 A 
ATOM     58  N   UNL A   1      42.661  31.863  30.083  1.00  0.00    -0.354 N 
ATOM     59  N   UNL A   1      45.222  30.655  29.309  1.00  0.00    -0.248 NA
ATOM     60  C   UNL A   1      47.546  30.783  29.093  1.00  0.00     0.031 C 
ATOM     61  C   UNL A   1      42.686  33.887  30.999  1.00  0.00     0.029 A 
ATOM     62  C   UNL A   1      43.499  32.895  30.471  1.00  0.00     0.049 A 
ATOM     63  H   UNL A   1      42.959  31.021  29.667  1.00  0.00     0.167 HD
ATOM     64  C   UNL A   1      45.660  31.877  29.807  1.00  0.00     0.074 A 
ATOM     65  C   UNL A   1      47.103  31.890  29.673  1.00  0.00     0.031 C 
ATOM     66  C   UNL A   1      44.933  32.894  30.331  1.00  0.00     0.031 A 
BRANCH  53  67
ATOM     67  C   UNL A   1      38.832  31.889  30.357  1.00  0.00    -0.014 A 
ATOM     68  C   UNL A   1      38.152  32.683  29.416  1.00  0.00     0.010 A 
ATOM     69  C   UNL A   1      38.197  31.572  31.571  1.00  0.00     0.010 A 
ATOM     70  C   UNL A   1      36.881  33.190  29.705  1.00  0.00     0.020 A 
ATOM     71  C   UNL A   1      36.915  32.054  31.852  1.00  0.00     0.020 A 
ATOM     72  C   UNL A   1      36.274  32.878  30.925  1.00  0.00     0.054 A 
BRANCH  72  73
ATOM     73  S   UNL A   1      34.622  33.542  31.271  1.00  0.00     0.124 S 
ATOM     74  O   UNL A   1      34.014  33.538  29.942  1.00  0.00    -0.237 OA
ATOM     75  O   UNL A   1      34.075  32.570  32.214  1.00  0.00    -0.237 OA
ATOM     76  O   UNL A   1      34.890  34.865  31.829  1.00  0.00    -0.744 OA
ENDBRANCH  72  73
ENDBRANCH  53  67
BRANCH  54  77
ATOM     77  C   UNL A   1      47.754  28.092  27.950  1.00  0.00    -0.014 A 
ATOM     78  C   UNL A   1      48.524  27.395  28.899  1.00  0.00     0.010 A 
ATOM     79  C   UNL A   1      48.248  28.238  26.642  1.00  0.00     0.010 A 
ATOM     80  C   UNL A   1      49.769  26.866  28.549  1.00  0.00     0.020 A 
ATOM     81  C   UNL A   1      49.482  27.689  26.281  1.00  0.00     0.020 A 
ATOM     82  C   UNL A   1      50.239  27.013  27.241  1.00  0.00     0.054 A 
BRANCH  82  83
ATOM     83  S   UNL A   1      51.829  26.264  26.792  1.00  0.00     0.124 S 
ATOM     84  O   UNL A   1      52.178  26.997  25.578  1.00  0.00    -0.237 OA
ATOM     85  O   UNL A   1      52.655  26.548  27.963  1.00  0.00    -0.237 OA
ATOM     86  O   UNL A   1      51.499  24.853  26.600  1.00  0.00    -0.744 OA
ENDBRANCH  82  83
ENDBRANCH  54  77
BRANCH  66  87
ATOM     87  C   UNL A   1      45.686  34.098  30.829  1.00  0.00    -0.014 A 
ATOM     88  C   UNL A   1      45.949  35.192  29.986  1.00  0.00     0.010 A 
ATOM     89  C   UNL A   1      46.090  34.154  32.175  1.00  0.00     0.010 A 
ATOM     90  C   UNL A   1      46.627  36.312  30.476  1.00  0.00     0.020 A 
ATOM     91  C   UNL A   1      46.745  35.283  32.674  1.00  0.00     0.020 A 
ATOM     92  C   UNL A   1      47.022  36.349  31.817  1.00  0.00     0.054 A 
BRANCH  92  93
ATOM     93  S   UNL A   1      47.859  37.832  32.441  1.00  0.00     0.124 S 
ATOM     94  O   UNL A   1      49.214  37.656  31.926  1.00  0.00    -0.237 OA
ATOM     95  O   UNL A   1      47.091  38.916  31.832  1.00  0.00    -0.237 OA
ATOM     96  O   UNL A   1      47.724  37.722  33.892  1.00  0.00    -0.744 OA
ENDBRANCH  92  93
ENDBRANCH  66  87
ENDBRANCH  40  41
ENDBRANCH  32  35
ENDBRANCH  30  31
ENDBRANCH  29  30
ENDBRANCH   1  29
TORSDOF 20
ENDMDL
MODEL 3
REMARK VINA RESULT:     -11.0      3.059      9.105
REMARK SMILES CS(=O)(=O)c1ccc(/C=C(/C(=O)NCCCCCCNC(=O)c2ccc(-c3c4nc(c(-c5ccc(S(=O)(=O)[O-])cc5)c5ccc([nH]5)c(-c5ccc(S(=O)(=O)[O-])cc5)c5nc(c(-c6ccc(S(=O)(=O)[O-])cc6)c6ccc3[nH]6)C=C5)C=C4)cc2)c2ccc(O)cc2)cc1
REMARK SMILES IDX 17 1 16 2 15 3 14 4 13 5 11 6 12 7 10 9 9 10 8 11 5 12 6 13
REMARK SMILES IDX 91 14 7 15 90 16 2 17 1 18 3 19 4 20 83 21 84 22 89 23 85 24
REMARK SMILES IDX 88 25 86 26 87 27 18 29 19 30 20 31 21 32 22 34 23 35 24 36
REMARK SMILES IDX 82 37 25 38 81 39 26 40 27 41 28 42 75 43 29 44 80 45 74 46
REMARK SMILES IDX 76 47 30 48 79 49 73 50 72 51 31 53 61 54 42 55 60 56 43 57
REMARK SMILES IDX 46 58 59 59 77 60 44 61 45 62 58 64 78 65 47 66 32 67 33 68
REMARK SMILES IDX 41 69 34 70 40 71 35 72 36 73 37 74 38 75 39 76 62 77 63 78
REMARK SMILES IDX 71 79 64 80 70 81 65 82 66 83 67 84 68 85 69 86 48 87 49 88
REMARK SMILES IDX 57 89 50 90 56 91 51 92 52 93 53 94 54 95 55 96
REMARK H PARENT 13 8 87 28 20 33 76 52 46 63
REMARK Flexibility Score: inf
ROOT
ATOM      1  C   UNL A   1      33.423  29.759  26.436  1.00  0.00     0.002 C 
ENDROOT
BRANCH   1   2
ATOM      2  C   UNL A   1      32.273  28.857  25.971  1.00  0.00     0.002 C 
BRANCH   2   3
ATOM      3  C   UNL A   1      32.107  27.551  26.765  1.00  0.00     0.021 C 
BRANCH   3   4
ATOM      4  C   UNL A   1      32.794  26.347  26.113  1.00  0.00     0.116 C 
BRANCH   4   5
ATOM      5  N   UNL A   1      32.505  26.332  24.693  1.00  0.00    -0.352 N 
ATOM      6  C   UNL A   1      32.656  25.417  23.701  1.00  0.00     0.251 C 
ATOM      7  O   UNL A   1      32.377  25.806  22.563  1.00  0.00    -0.269 OA
ATOM      8  H   UNL A   1      32.109  27.177  24.375  1.00  0.00     0.163 HD
BRANCH   6   9
ATOM      9  C   UNL A   1      33.041  23.976  23.940  1.00  0.00     0.047 C 
ATOM     10  C   UNL A   1      32.126  22.996  24.131  1.00  0.00     0.022 C 
BRANCH  10  11
ATOM     11  C   UNL A   1      32.328  21.532  24.237  1.00  0.00    -0.025 A 
ATOM     12  C   UNL A   1      32.888  18.778  24.241  1.00  0.00     0.067 A 
ATOM     13  C   UNL A   1      32.970  19.507  25.427  1.00  0.00     0.021 A 
ATOM     14  C   UNL A   1      32.487  19.397  23.058  1.00  0.00     0.021 A 
ATOM     15  C   UNL A   1      32.653  20.868  25.426  1.00  0.00     0.009 A 
ATOM     16  C   UNL A   1      32.215  20.771  23.061  1.00  0.00     0.009 A 
BRANCH  12  17
ATOM     17  S   UNL A   1      33.314  17.054  24.243  1.00  0.00     0.175 S 
ATOM     18  C   UNL A   1      34.978  17.005  24.855  1.00  0.00     0.163 C 
ATOM     19  O   UNL A   1      33.330  16.628  22.856  1.00  0.00    -0.224 OA
ATOM     20  O   UNL A   1      32.477  16.393  25.223  1.00  0.00    -0.224 OA
ENDBRANCH  12  17
ENDBRANCH  10  11
BRANCH   9  21
ATOM     21  C   UNL A   1      34.488  23.706  24.145  1.00  0.00    -0.013 A 
ATOM     22  C   UNL A   1      35.003  23.791  25.452  1.00  0.00     0.013 A 
ATOM     23  C   UNL A   1      35.327  23.269  23.111  1.00  0.00     0.013 A 
ATOM     24  C   UNL A   1      36.309  23.396  25.731  1.00  0.00     0.047 A 
ATOM     25  C   UNL A   1      36.635  22.857  23.395  1.00  0.00     0.047 A 
ATOM     26  C   UNL A   1      37.107  22.909  24.706  1.00  0.00     0.115 A 
BRANCH  26  27
ATOM     27  O   UNL A   1      38.354  22.465  25.033  1.00  0.00    -0.508 OA
ATOM     28  H   UNL A   1      38.586  22.342  25.933  1.00  0.00     0.293 HD
ENDBRANCH  26  27
ENDBRANCH   9  21
ENDBRANCH   6   9
ENDBRANCH   4   5
ENDBRANCH   3   4
ENDBRANCH   2   3
ENDBRANCH   1   2
BRANCH   1  29
ATOM     29  C   UNL A   1      34.451  29.077  27.342  1.00  0.00     0.021 C 
BRANCH  29  30
ATOM     30  C   UNL A   1      35.530  30.009  27.887  1.00  0.00     0.116 C 
BRANCH  30  31
ATOM     31  N   UNL A   1      35.479  30.108  29.336  1.00  0.00    -0.352 N 
ATOM     32  C   UNL A   1      36.464  29.848  30.256  1.00  0.00     0.251 C 
ATOM     33  H   UNL A   1      34.617  30.404  29.710  1.00  0.00     0.163 HD
ATOM     34  O   UNL A   1      36.187  29.779  31.449  1.00  0.00    -0.269 OA
BRANCH  32  35
ATOM     35  C   UNL A   1      37.855  29.636  29.803  1.00  0.00     0.039 A 
ATOM     36  C   UNL A   1      38.868  29.508  30.757  1.00  0.00     0.014 A 
ATOM     37  C   UNL A   1      38.161  29.574  28.439  1.00  0.00     0.014 A 
ATOM     38  C   UNL A   1      40.181  29.270  30.346  1.00  0.00     0.010 A 
ATOM     39  C   UNL A   1      39.459  29.275  28.033  1.00  0.00     0.010 A 
ATOM     40  C   UNL A   1      40.482  29.125  28.981  1.00  0.00    -0.014 A 
BRANCH  40  41
ATOM     41  C   UNL A   1      41.864  28.823  28.526  1.00  0.00     0.031 A 
ATOM     42  C   UNL A   1      42.227  27.428  28.093  1.00  0.00     0.074 A 
ATOM     43  C   UNL A   1      42.805  29.786  28.562  1.00  0.00     0.049 A 
ATOM     44  N   UNL A   1      43.391  26.958  27.719  1.00  0.00    -0.248 NA
ATOM     45  C   UNL A   1      41.150  26.425  28.105  1.00  0.00     0.031 C 
ATOM     46  C   UNL A   1      42.586  31.168  28.997  1.00  0.00     0.029 A 
ATOM     47  N   UNL A   1      44.137  29.748  28.235  1.00  0.00    -0.354 N 
ATOM     48  C   UNL A   1      43.190  25.604  27.475  1.00  0.00     0.074 A 
ATOM     49  C   UNL A   1      41.806  25.320  27.783  1.00  0.00     0.031 C 
ATOM     50  C   UNL A   1      43.737  31.851  28.884  1.00  0.00     0.029 A 
ATOM     51  C   UNL A   1      44.782  30.950  28.406  1.00  0.00     0.049 A 
ATOM     52  H   UNL A   1      44.588  28.937  27.908  1.00  0.00     0.167 HD
ATOM     53  C   UNL A   1      44.075  24.684  27.021  1.00  0.00     0.031 A 
ATOM     54  C   UNL A   1      46.070  31.290  28.205  1.00  0.00     0.031 A 
ATOM     55  C   UNL A   1      45.447  24.975  26.699  1.00  0.00     0.049 A 
ATOM     56  C   UNL A   1      47.033  30.252  27.699  1.00  0.00     0.074 A 
ATOM     57  C   UNL A   1      46.405  24.126  26.171  1.00  0.00     0.029 A 
ATOM     58  N   UNL A   1      46.058  26.206  26.876  1.00  0.00    -0.354 N 
ATOM     59  N   UNL A   1      46.809  28.992  27.412  1.00  0.00    -0.248 NA
ATOM     60  C   UNL A   1      48.420  30.685  27.481  1.00  0.00     0.031 C 
ATOM     61  C   UNL A   1      47.608  24.834  26.072  1.00  0.00     0.029 A 
ATOM     62  C   UNL A   1      47.386  26.136  26.490  1.00  0.00     0.049 A 
ATOM     63  H   UNL A   1      45.614  27.013  27.225  1.00  0.00     0.167 HD
ATOM     64  C   UNL A   1      48.021  28.488  26.954  1.00  0.00     0.074 A 
ATOM     65  C   UNL A   1      48.970  29.582  26.992  1.00  0.00     0.031 C 
ATOM     66  C   UNL A   1      48.319  27.234  26.535  1.00  0.00     0.031 A 
BRANCH  53  67
ATOM     67  C   UNL A   1      43.584  23.271  26.858  1.00  0.00    -0.014 A 
ATOM     68  C   UNL A   1      43.322  22.457  27.976  1.00  0.00     0.010 A 
ATOM     69  C   UNL A   1      43.355  22.755  25.570  1.00  0.00     0.010 A 
ATOM     70  C   UNL A   1      42.887  21.139  27.806  1.00  0.00     0.020 A 
ATOM     71  C   UNL A   1      42.893  21.447  25.397  1.00  0.00     0.020 A 
ATOM     72  C   UNL A   1      42.683  20.641  26.517  1.00  0.00     0.054 A 
BRANCH  72  73
ATOM     73  S   UNL A   1      42.110  18.931  26.325  1.00  0.00     0.124 S 
ATOM     74  O   UNL A   1      43.087  18.392  25.381  1.00  0.00    -0.237 OA
ATOM     75  O   UNL A   1      42.197  18.407  27.685  1.00  0.00    -0.237 OA
ATOM     76  O   UNL A   1      40.753  19.076  25.802  1.00  0.00    -0.744 OA
ENDBRANCH  72  73
ENDBRANCH  53  67
BRANCH  54  77
ATOM     77  C   UNL A   1      46.516  32.686  28.460  1.00  0.00    -0.014 A 
ATOM     78  C   UNL A   1      47.023  33.049  29.721  1.00  0.00     0.010 A 
ATOM     79  C   UNL A   1      46.456  33.653  27.442  1.00  0.00     0.010 A 
ATOM     80  C   UNL A   1      47.450  34.357  29.962  1.00  0.00     0.020 A 
ATOM     81  C   UNL A   1      46.905  34.957  27.672  1.00  0.00     0.020 A 
ATOM     82  C   UNL A   1      47.391  35.303  28.934  1.00  0.00     0.054 A 
BRANCH  82  83
ATOM     83  S   UNL A   1      48.010  36.979  29.250  1.00  0.00     0.124 S 
ATOM     84  O   UNL A   1      49.444  36.751  29.396  1.00  0.00    -0.237 OA
ATOM     85  O   UNL A   1      47.603  37.699  28.045  1.00  0.00    -0.237 OA
ATOM     86  O   UNL A   1      47.310  37.377  30.469  1.00  0.00    -0.744 OA
ENDBRANCH  82  83
ENDBRANCH  54  77
BRANCH  66  87
ATOM     87  C   UNL A   1      49.722  26.980  26.055  1.00  0.00    -0.014 A 
ATOM     88  C   UNL A   1      50.718  26.512  26.929  1.00  0.00     0.010 A 
ATOM     89  C   UNL A   1      50.033  27.163  24.695  1.00  0.00     0.010 A 
ATOM     90  C   UNL A   1      52.008  26.257  26.457  1.00  0.00     0.020 A 
ATOM     91  C   UNL A   1      51.315  26.884  24.214  1.00  0.00     0.020 A 
ATOM     92  C   UNL A   1      52.298  26.446  25.102  1.00  0.00     0.054 A 
BRANCH  92  93
ATOM     93  S   UNL A   1      53.967  26.064  24.503  1.00  0.00     0.124 S 
ATOM     94  O   UNL A   1      54.109  24.659  24.874  1.00  0.00    -0.237 OA
ATOM     95  O   UNL A   1      53.864  26.330  23.070  1.00  0.00    -0.237 OA
ATOM     96  O   UNL A   1      54.821  26.993  25.241  1.00  0.00    -0.744 OA
ENDBRANCH  92  93
ENDBRANCH  66  87
ENDBRANCH  40  41
ENDBRANCH  32  35
ENDBRANCH  30  31
ENDBRANCH  29  30
ENDBRANCH   1  29
TORSDOF 20
ENDMDL
