MODEL 1
REMARK VINA RESULT:      -8.2      0.000      0.000
REMARK SMILES CC(C)(C)c1csc(C[NH2+][C@H]2CCC[C@@H](C(=O)NCCCCCCNC(=O)c3ccc(-c4c5nc(c(-c6ccc(S(=O)(=O)[O-])cc6)c6ccc([nH]6)c(-c6ccc(S(=O)(=O)[O-])cc6)c6nc(c(-c7ccc(S(=O)(=O)[O-])cc7)c7ccc4[nH]7)C=C6)C=C5)cc3)C2)n1
REMARK SMILES IDX 21 1 20 2 19 3 18 4 16 5 17 6 15 8 11 9 12 10 88 11 13 12
REMARK SMILES IDX 14 13 10 14 9 17 8 18 5 19 6 20 89 21 7 22 2 23 1 24 3 25
REMARK SMILES IDX 4 26 22 27 23 28 24 29 25 30 26 31 27 33 28 34 29 35 87 36
REMARK SMILES IDX 30 37 86 38 31 39 32 40 33 41 80 42 34 43 85 44 79 45 81 46
REMARK SMILES IDX 35 47 84 48 78 49 77 50 36 52 66 53 47 54 65 55 48 56 51 57
REMARK SMILES IDX 64 58 82 59 49 60 50 61 63 63 83 64 52 65 37 66 38 67 46 68
REMARK SMILES IDX 39 69 45 70 40 71 41 72 42 73 43 74 44 75 67 76 68 77 76 78
REMARK SMILES IDX 69 79 75 80 70 81 71 82 72 83 73 84 74 85 53 86 54 87 62 88
REMARK SMILES IDX 55 89 61 90 56 91 57 92 58 93 59 94 60 95
REMARK H PARENT 18 7 10 15 10 16 25 32 81 51 51 62
REMARK Flexibility Score: inf
ROOT
ATOM      1  C   UNL A   1      36.782  33.120  31.955  1.00  0.00     0.002 C 
ENDROOT
BRANCH   1   2
ATOM      2  C   UNL A   1      37.859  32.088  32.325  1.00  0.00     0.021 C 
BRANCH   2   3
ATOM      3  C   UNL A   1      38.908  32.615  33.305  1.00  0.00     0.116 C 
BRANCH   3   4
ATOM      4  N   UNL A   1      39.054  31.686  34.408  1.00  0.00    -0.356 N 
ATOM      5  C   UNL A   1      39.588  30.437  34.420  1.00  0.00     0.223 C 
ATOM      6  O   UNL A   1      39.358  29.719  35.395  1.00  0.00    -0.275 OA
ATOM      7  H   UNL A   1      38.719  32.007  35.275  1.00  0.00     0.163 HD
BRANCH   5   8
ATOM      8  C   UNL A   1      40.539  30.018  33.305  1.00  0.00     0.084 C 
ATOM      9  C   UNL A   1      42.671  29.643  34.728  1.00  0.00     0.183 C 
ATOM     10  C   UNL A   1      42.648  28.169  34.296  1.00  0.00     0.065 C 
ATOM     11  C   UNL A   1      41.970  30.487  33.636  1.00  0.00     0.078 C 
ATOM     12  C   UNL A   1      41.235  27.650  34.051  1.00  0.00     0.007 C 
ATOM     13  C   UNL A   1      40.481  28.507  33.033  1.00  0.00     0.014 C 
BRANCH   9  14
ATOM     14  N   UNL A   1      42.046  29.911  36.028  1.00  0.00    -0.338 N 
ATOM     15  H   UNL A   1      41.085  30.209  35.861  1.00  0.00     0.346 HD
ATOM     16  H   UNL A   1      42.116  29.043  36.560  1.00  0.00     0.346 HD
BRANCH  14  17
ATOM     17  C   UNL A   1      42.707  30.939  36.837  1.00  0.00     0.329 C 
BRANCH  17  18
ATOM     18  C   UNL A   1      41.840  32.170  36.962  1.00  0.00     0.147 A 
ATOM     19  C   UNL A   1      40.190  33.512  37.634  1.00  0.00     0.057 A 
ATOM     20  C   UNL A   1      40.779  34.324  36.681  1.00  0.00     0.091 A 
ATOM     21  N   UNL A   1      40.830  32.289  37.802  1.00  0.00    -0.240 NA
ATOM     22  S   UNL A   1      42.126  33.543  35.968  1.00  0.00    -0.121 S 
BRANCH  19  23
ATOM     23  C   UNL A   1      38.993  33.844  38.516  1.00  0.00     0.005 C 
ATOM     24  C   UNL A   1      39.068  33.009  39.808  1.00  0.00     0.017 C 
ATOM     25  C   UNL A   1      37.666  33.523  37.798  1.00  0.00     0.017 C 
ATOM     26  C   UNL A   1      38.964  35.340  38.894  1.00  0.00     0.017 C 
ENDBRANCH  19  23
ENDBRANCH  17  18
ENDBRANCH  14  17
ENDBRANCH   9  14
ENDBRANCH   5   8
ENDBRANCH   3   4
ENDBRANCH   2   3
ENDBRANCH   1   2
BRANCH   1  27
ATOM     27  C   UNL A   1      35.410  32.527  31.616  1.00  0.00     0.002 C 
BRANCH  27  28
ATOM     28  C   UNL A   1      34.681  33.224  30.466  1.00  0.00     0.021 C 
BRANCH  28  29
ATOM     29  C   UNL A   1      35.076  32.729  29.081  1.00  0.00     0.116 C 
BRANCH  29  30
ATOM     30  N   UNL A   1      34.217  31.649  28.620  1.00  0.00    -0.352 N 
ATOM     31  C   UNL A   1      34.573  30.391  28.200  1.00  0.00     0.251 C 
ATOM     32  H   UNL A   1      33.253  31.847  28.607  1.00  0.00     0.163 HD
ATOM     33  O   UNL A   1      33.746  29.659  27.663  1.00  0.00    -0.269 OA
BRANCH  31  34
ATOM     34  C   UNL A   1      35.968  29.938  28.379  1.00  0.00     0.039 A 
ATOM     35  C   UNL A   1      36.851  30.006  27.300  1.00  0.00     0.014 A 
ATOM     36  C   UNL A   1      36.404  29.466  29.621  1.00  0.00     0.014 A 
ATOM     37  C   UNL A   1      38.191  29.654  27.482  1.00  0.00     0.010 A 
ATOM     38  C   UNL A   1      37.752  29.192  29.819  1.00  0.00     0.010 A 
ATOM     39  C   UNL A   1      38.658  29.274  28.750  1.00  0.00    -0.014 A 
BRANCH  39  40
ATOM     40  C   UNL A   1      40.085  28.942  28.987  1.00  0.00     0.031 A 
ATOM     41  C   UNL A   1      41.014  29.982  29.553  1.00  0.00     0.074 A 
ATOM     42  C   UNL A   1      40.564  27.736  28.623  1.00  0.00     0.049 A 
ATOM     43  N   UNL A   1      42.303  29.914  29.760  1.00  0.00    -0.248 NA
ATOM     44  C   UNL A   1      40.417  31.281  29.904  1.00  0.00     0.031 C 
ATOM     45  C   UNL A   1      39.773  26.649  28.042  1.00  0.00     0.029 A 
ATOM     46  N   UNL A   1      41.836  27.222  28.685  1.00  0.00    -0.354 N 
ATOM     47  C   UNL A   1      42.676  31.165  30.236  1.00  0.00     0.074 A 
ATOM     48  C   UNL A   1      41.485  31.987  30.243  1.00  0.00     0.031 C 
ATOM     49  C   UNL A   1      40.569  25.588  27.836  1.00  0.00     0.029 A 
ATOM     50  C   UNL A   1      41.934  25.932  28.221  1.00  0.00     0.049 A 
ATOM     51  H   UNL A   1      42.606  27.732  29.028  1.00  0.00     0.167 HD
ATOM     52  C   UNL A   1      43.895  31.591  30.645  1.00  0.00     0.031 A 
ATOM     53  C   UNL A   1      43.003  25.119  28.114  1.00  0.00     0.031 A 
ATOM     54  C   UNL A   1      45.074  30.766  30.647  1.00  0.00     0.049 A 
ATOM     55  C   UNL A   1      44.352  25.618  28.553  1.00  0.00     0.074 A 
ATOM     56  C   UNL A   1      46.342  31.078  31.103  1.00  0.00     0.029 A 
ATOM     57  N   UNL A   1      45.132  29.467  30.161  1.00  0.00    -0.354 N 
ATOM     58  N   UNL A   1      44.675  26.783  29.061  1.00  0.00    -0.248 NA
ATOM     59  C   UNL A   1      45.482  24.688  28.409  1.00  0.00     0.031 C 
ATOM     60  C   UNL A   1      47.182  29.992  30.836  1.00  0.00     0.029 A 
ATOM     61  C   UNL A   1      46.422  28.977  30.277  1.00  0.00     0.049 A 
ATOM     62  H   UNL A   1      44.369  28.969  29.789  1.00  0.00     0.167 HD
ATOM     63  C   UNL A   1      46.036  26.714  29.334  1.00  0.00     0.074 A 
ATOM     64  C   UNL A   1      46.476  25.392  28.935  1.00  0.00     0.031 C 
ATOM     65  C   UNL A   1      46.846  27.657  29.876  1.00  0.00     0.031 A 
BRANCH  52  66
ATOM     66  C   UNL A   1      44.015  33.024  31.095  1.00  0.00    -0.014 A 
ATOM     67  C   UNL A   1      43.913  33.380  32.453  1.00  0.00     0.010 A 
ATOM     68  C   UNL A   1      44.237  34.034  30.142  1.00  0.00     0.010 A 
ATOM     69  C   UNL A   1      43.964  34.721  32.841  1.00  0.00     0.020 A 
ATOM     70  C   UNL A   1      44.323  35.375  30.528  1.00  0.00     0.020 A 
ATOM     71  C   UNL A   1      44.159  35.712  31.873  1.00  0.00     0.054 A 
BRANCH  71  72
ATOM     72  S   UNL A   1      44.205  37.447  32.400  1.00  0.00     0.124 S 
ATOM     73  O   UNL A   1      45.580  37.577  32.878  1.00  0.00    -0.237 OA
ATOM     74  O   UNL A   1      43.899  38.165  31.166  1.00  0.00    -0.237 OA
ATOM     75  O   UNL A   1      43.177  37.523  33.435  1.00  0.00    -0.744 OA
ENDBRANCH  71  72
ENDBRANCH  52  66
BRANCH  53  76
ATOM     76  C   UNL A   1      42.827  23.730  27.608  1.00  0.00    -0.014 A 
ATOM     77  C   UNL A   1      42.612  22.672  28.508  1.00  0.00     0.010 A 
ATOM     78  C   UNL A   1      42.836  23.460  26.227  1.00  0.00     0.010 A 
ATOM     79  C   UNL A   1      42.416  21.371  28.041  1.00  0.00     0.020 A 
ATOM     80  C   UNL A   1      42.613  22.164  25.754  1.00  0.00     0.020 A 
ATOM     81  C   UNL A   1      42.411  21.126  26.665  1.00  0.00     0.054 A 
BRANCH  81  82
ATOM     82  S   UNL A   1      42.080  19.439  26.082  1.00  0.00     0.124 S 
ATOM     83  O   UNL A   1      40.630  19.456  25.911  1.00  0.00    -0.237 OA
ATOM     84  O   UNL A   1      42.861  19.374  24.850  1.00  0.00    -0.237 OA
ATOM     85  O   UNL A   1      42.573  18.599  27.170  1.00  0.00    -0.744 OA
ENDBRANCH  81  82
ENDBRANCH  53  76
BRANCH  65  86
ATOM     86  C   UNL A   1      48.286  27.287  30.117  1.00  0.00    -0.014 A 
ATOM     87  C   UNL A   1      49.303  27.678  29.230  1.00  0.00     0.010 A 
ATOM     88  C   UNL A   1      48.630  26.599  31.295  1.00  0.00     0.010 A 
ATOM     89  C   UNL A   1      50.638  27.368  29.506  1.00  0.00     0.020 A 
ATOM     90  C   UNL A   1      49.966  26.314  31.590  1.00  0.00     0.020 A 
ATOM     91  C   UNL A   1      50.961  26.690  30.688  1.00  0.00     0.054 A 
BRANCH  91  92
ATOM     92  S   UNL A   1      52.706  26.356  31.053  1.00  0.00     0.124 S 
ATOM     93  O   UNL A   1      53.114  27.583  31.733  1.00  0.00    -0.237 OA
ATOM     94  O   UNL A   1      52.635  25.165  31.895  1.00  0.00    -0.237 OA
ATOM     95  O   UNL A   1      53.302  26.146  29.736  1.00  0.00    -0.744 OA
ENDBRANCH  91  92
ENDBRANCH  65  86
ENDBRANCH  39  40
ENDBRANCH  31  34
ENDBRANCH  29  30
ENDBRANCH  28  29
ENDBRANCH  27  28
ENDBRANCH   1  27
TORSDOF 20
ENDMDL
MODEL 2
REMARK VINA RESULT:      -8.1      4.927     12.409
REMARK SMILES CC(C)(C)c1csc(C[NH2+][C@H]2CCC[C@@H](C(=O)NCCCCCCNC(=O)c3ccc(-c4c5nc(c(-c6ccc(S(=O)(=O)[O-])cc6)c6ccc([nH]6)c(-c6ccc(S(=O)(=O)[O-])cc6)c6nc(c(-c7ccc(S(=O)(=O)[O-])cc7)c7ccc4[nH]7)C=C6)C=C5)cc3)C2)n1
REMARK SMILES IDX 21 1 20 2 19 3 18 4 16 5 17 6 15 8 11 9 12 10 88 11 13 12
REMARK SMILES IDX 14 13 10 14 9 17 8 18 5 19 6 20 89 21 7 22 2 23 1 24 3 25
REMARK SMILES IDX 4 26 22 27 23 28 24 29 25 30 26 31 27 33 28 34 29 35 87 36
REMARK SMILES IDX 30 37 86 38 31 39 32 40 33 41 80 42 34 43 85 44 79 45 81 46
REMARK SMILES IDX 35 47 84 48 78 49 77 50 36 52 66 53 47 54 65 55 48 56 51 57
REMARK SMILES IDX 64 58 82 59 49 60 50 61 63 63 83 64 52 65 37 66 38 67 46 68
REMARK SMILES IDX 39 69 45 70 40 71 41 72 42 73 43 74 44 75 67 76 68 77 76 78
REMARK SMILES IDX 69 79 75 80 70 81 71 82 72 83 73 84 74 85 53 86 54 87 62 88
REMARK SMILES IDX 55 89 61 90 56 91 57 92 58 93 59 94 60 95
REMARK H PARENT 18 7 10 15 10 16 25 32 81 51 51 62
REMARK Flexibility Score: inf
ROOT
ATOM      1  C   UNL A   1      35.039  29.863  27.971  1.00  0.00     0.002 C 
ENDROOT
BRANCH   1   2
ATOM      2  C   UNL A   1      34.324  29.123  26.829  1.00  0.00     0.021 C 
BRANCH   2   3
ATOM      3  C   UNL A   1      32.886  28.724  27.159  1.00  0.00     0.116 C 
BRANCH   3   4
ATOM      4  N   UNL A   1      32.731  27.291  27.005  1.00  0.00    -0.356 N 
ATOM      5  C   UNL A   1      31.950  26.594  26.140  1.00  0.00     0.223 C 
ATOM      6  O   UNL A   1      31.758  25.398  26.367  1.00  0.00    -0.275 OA
ATOM      7  H   UNL A   1      33.272  26.742  27.617  1.00  0.00     0.163 HD
BRANCH   5   8
ATOM      8  C   UNL A   1      31.446  27.274  24.872  1.00  0.00     0.084 C 
ATOM      9  C   UNL A   1      32.740  25.859  23.129  1.00  0.00     0.183 C 
ATOM     10  C   UNL A   1      31.389  25.394  22.567  1.00  0.00     0.065 C 
ATOM     11  C   UNL A   1      32.547  27.244  23.792  1.00  0.00     0.078 C 
ATOM     12  C   UNL A   1      30.300  25.324  23.633  1.00  0.00     0.007 C 
ATOM     13  C   UNL A   1      30.134  26.656  24.367  1.00  0.00     0.014 C 
BRANCH   9  14
ATOM     14  N   UNL A   1      33.353  24.939  24.092  1.00  0.00    -0.338 N 
ATOM     15  H   UNL A   1      33.724  25.491  24.866  1.00  0.00     0.346 HD
ATOM     16  H   UNL A   1      32.617  24.289  24.371  1.00  0.00     0.346 HD
BRANCH  14  17
ATOM     17  C   UNL A   1      34.443  24.114  23.560  1.00  0.00     0.329 C 
BRANCH  17  18
ATOM     18  C   UNL A   1      34.545  22.805  24.307  1.00  0.00     0.147 A 
ATOM     19  C   UNL A   1      34.163  20.683  24.878  1.00  0.00     0.057 A 
ATOM     20  C   UNL A   1      35.027  21.048  25.895  1.00  0.00     0.091 A 
ATOM     21  N   UNL A   1      33.919  21.697  23.958  1.00  0.00    -0.240 NA
ATOM     22  S   UNL A   1      35.517  22.679  25.719  1.00  0.00    -0.121 S 
BRANCH  19  23
ATOM     23  C   UNL A   1      33.529  19.316  24.653  1.00  0.00     0.005 C 
ATOM     24  C   UNL A   1      34.634  18.293  24.327  1.00  0.00     0.017 C 
ATOM     25  C   UNL A   1      32.530  19.353  23.478  1.00  0.00     0.017 C 
ATOM     26  C   UNL A   1      32.759  18.835  25.901  1.00  0.00     0.017 C 
ENDBRANCH  19  23
ENDBRANCH  17  18
ENDBRANCH  14  17
ENDBRANCH   9  14
ENDBRANCH   5   8
ENDBRANCH   3   4
ENDBRANCH   2   3
ENDBRANCH   1   2
BRANCH   1  27
ATOM     27  C   UNL A   1      35.206  31.371  27.758  1.00  0.00     0.002 C 
BRANCH  27  28
ATOM     28  C   UNL A   1      33.923  32.185  27.935  1.00  0.00     0.021 C 
BRANCH  28  29
ATOM     29  C   UNL A   1      34.058  33.657  27.568  1.00  0.00     0.116 C 
BRANCH  29  30
ATOM     30  N   UNL A   1      33.214  34.507  28.392  1.00  0.00    -0.352 N 
ATOM     31  C   UNL A   1      33.287  34.735  29.745  1.00  0.00     0.251 C 
ATOM     32  H   UNL A   1      32.494  34.982  27.918  1.00  0.00     0.163 HD
ATOM     33  O   UNL A   1      32.384  35.332  30.323  1.00  0.00    -0.269 OA
BRANCH  31  34
ATOM     34  C   UNL A   1      34.453  34.230  30.500  1.00  0.00     0.039 A 
ATOM     35  C   UNL A   1      34.265  33.236  31.462  1.00  0.00     0.014 A 
ATOM     36  C   UNL A   1      35.733  34.727  30.238  1.00  0.00     0.014 A 
ATOM     37  C   UNL A   1      35.371  32.699  32.123  1.00  0.00     0.010 A 
ATOM     38  C   UNL A   1      36.838  34.137  30.840  1.00  0.00     0.010 A 
ATOM     39  C   UNL A   1      36.669  33.123  31.795  1.00  0.00    -0.014 A 
BRANCH  39  40
ATOM     40  C   UNL A   1      37.867  32.536  32.445  1.00  0.00     0.031 A 
ATOM     41  C   UNL A   1      38.602  31.403  31.780  1.00  0.00     0.074 A 
ATOM     42  C   UNL A   1      38.250  32.966  33.663  1.00  0.00     0.049 A 
ATOM     43  N   UNL A   1      39.619  30.707  32.219  1.00  0.00    -0.248 NA
ATOM     44  C   UNL A   1      38.107  30.978  30.460  1.00  0.00     0.031 C 
ATOM     45  C   UNL A   1      37.608  34.041  34.424  1.00  0.00     0.029 A 
ATOM     46  N   UNL A   1      39.272  32.548  34.480  1.00  0.00    -0.354 N 
ATOM     47  C   UNL A   1      39.866  29.746  31.246  1.00  0.00     0.074 A 
ATOM     48  C   UNL A   1      38.864  29.918  30.217  1.00  0.00     0.031 C 
ATOM     49  C   UNL A   1      38.273  34.220  35.576  1.00  0.00     0.029 A 
ATOM     50  C   UNL A   1      39.354  33.244  35.662  1.00  0.00     0.049 A 
ATOM     51  H   UNL A   1      39.886  31.816  34.240  1.00  0.00     0.167 HD
ATOM     52  C   UNL A   1      40.846  28.812  31.204  1.00  0.00     0.031 A 
ATOM     53  C   UNL A   1      40.204  33.110  36.699  1.00  0.00     0.031 A 
ATOM     54  C   UNL A   1      41.847  28.652  32.225  1.00  0.00     0.049 A 
ATOM     55  C   UNL A   1      41.271  32.052  36.643  1.00  0.00     0.074 A 
ATOM     56  C   UNL A   1      42.923  27.783  32.247  1.00  0.00     0.029 A 
ATOM     57  N   UNL A   1      41.890  29.373  33.410  1.00  0.00    -0.354 N 
ATOM     58  N   UNL A   1      41.531  31.193  35.686  1.00  0.00    -0.248 NA
ATOM     59  C   UNL A   1      42.165  31.949  37.805  1.00  0.00     0.031 C 
ATOM     60  C   UNL A   1      43.581  27.933  33.472  1.00  0.00     0.029 A 
ATOM     61  C   UNL A   1      42.956  28.945  34.184  1.00  0.00     0.049 A 
ATOM     62  H   UNL A   1      41.257  30.083  33.663  1.00  0.00     0.167 HD
ATOM     63  C   UNL A   1      42.641  30.475  36.112  1.00  0.00     0.074 A 
ATOM     64  C   UNL A   1      43.005  30.999  37.414  1.00  0.00     0.031 C 
ATOM     65  C   UNL A   1      43.307  29.477  35.478  1.00  0.00     0.031 A 
BRANCH  52  66
ATOM     66  C   UNL A   1      40.860  27.873  30.025  1.00  0.00    -0.014 A 
ATOM     67  C   UNL A   1      41.938  27.842  29.120  1.00  0.00     0.010 A 
ATOM     68  C   UNL A   1      39.774  27.002  29.819  1.00  0.00     0.010 A 
ATOM     69  C   UNL A   1      41.901  27.009  28.000  1.00  0.00     0.020 A 
ATOM     70  C   UNL A   1      39.748  26.142  28.718  1.00  0.00     0.020 A 
ATOM     71  C   UNL A   1      40.800  26.170  27.800  1.00  0.00     0.054 A 
BRANCH  71  72
ATOM     72  S   UNL A   1      40.768  25.110  26.329  1.00  0.00     0.124 S 
ATOM     73  O   UNL A   1      39.375  24.667  26.311  1.00  0.00    -0.237 OA
ATOM     74  O   UNL A   1      41.147  26.031  25.261  1.00  0.00    -0.237 OA
ATOM     75  O   UNL A   1      41.748  24.070  26.629  1.00  0.00    -0.744 OA
ENDBRANCH  71  72
ENDBRANCH  52  66
BRANCH  53  76
ATOM     76  C   UNL A   1      40.102  34.034  37.861  1.00  0.00    -0.014 A 
ATOM     77  C   UNL A   1      40.807  35.250  37.860  1.00  0.00     0.010 A 
ATOM     78  C   UNL A   1      39.275  33.725  38.958  1.00  0.00     0.010 A 
ATOM     79  C   UNL A   1      40.693  36.138  38.933  1.00  0.00     0.020 A 
ATOM     80  C   UNL A   1      39.138  34.622  40.021  1.00  0.00     0.020 A 
ATOM     81  C   UNL A   1      39.854  35.821  40.004  1.00  0.00     0.054 A 
BRANCH  81  82
ATOM     82  S   UNL A   1      39.667  37.024  41.350  1.00  0.00     0.124 S 
ATOM     83  O   UNL A   1      38.933  36.252  42.348  1.00  0.00    -0.237 OA
ATOM     84  O   UNL A   1      41.053  37.338  41.686  1.00  0.00    -0.237 OA
ATOM     85  O   UNL A   1      38.921  38.117  40.730  1.00  0.00    -0.744 OA
ENDBRANCH  81  82
ENDBRANCH  53  76
BRANCH  65  86
ATOM     86  C   UNL A   1      44.527  28.910  36.155  1.00  0.00    -0.014 A 
ATOM     87  C   UNL A   1      45.796  29.489  35.986  1.00  0.00     0.010 A 
ATOM     88  C   UNL A   1      44.381  27.822  37.036  1.00  0.00     0.010 A 
ATOM     89  C   UNL A   1      46.902  28.976  36.670  1.00  0.00     0.020 A 
ATOM     90  C   UNL A   1      45.478  27.325  37.744  1.00  0.00     0.020 A 
ATOM     91  C   UNL A   1      46.735  27.899  37.548  1.00  0.00     0.054 A 
BRANCH  91  92
ATOM     92  S   UNL A   1      48.175  27.293  38.471  1.00  0.00     0.124 S 
ATOM     93  O   UNL A   1      49.003  28.492  38.562  1.00  0.00    -0.237 OA
ATOM     94  O   UNL A   1      47.583  26.840  39.727  1.00  0.00    -0.237 OA
ATOM     95  O   UNL A   1      48.708  26.230  37.622  1.00  0.00    -0.744 OA
ENDBRANCH  91  92
ENDBRANCH  65  86
ENDBRANCH  39  40
ENDBRANCH  31  34
ENDBRANCH  29  30
ENDBRANCH  28  29
ENDBRANCH  27  28
ENDBRANCH   1  27
TORSDOF 20
ENDMDL
MODEL 3
REMARK VINA RESULT:      -8.1      4.890      9.720
REMARK SMILES CC(C)(C)c1csc(C[NH2+][C@H]2CCC[C@@H](C(=O)NCCCCCCNC(=O)c3ccc(-c4c5nc(c(-c6ccc(S(=O)(=O)[O-])cc6)c6ccc([nH]6)c(-c6ccc(S(=O)(=O)[O-])cc6)c6nc(c(-c7ccc(S(=O)(=O)[O-])cc7)c7ccc4[nH]7)C=C6)C=C5)cc3)C2)n1
REMARK SMILES IDX 21 1 20 2 19 3 18 4 16 5 17 6 15 8 11 9 12 10 88 11 13 12
REMARK SMILES IDX 14 13 10 14 9 17 8 18 5 19 6 20 89 21 7 22 2 23 1 24 3 25
REMARK SMILES IDX 4 26 22 27 23 28 24 29 25 30 26 31 27 33 28 34 29 35 87 36
REMARK SMILES IDX 30 37 86 38 31 39 32 40 33 41 80 42 34 43 85 44 79 45 81 46
REMARK SMILES IDX 35 47 84 48 78 49 77 50 36 52 66 53 47 54 65 55 48 56 51 57
REMARK SMILES IDX 64 58 82 59 49 60 50 61 63 63 83 64 52 65 37 66 38 67 46 68
REMARK SMILES IDX 39 69 45 70 40 71 41 72 42 73 43 74 44 75 67 76 68 77 76 78
REMARK SMILES IDX 69 79 75 80 70 81 71 82 72 83 73 84 74 85 53 86 54 87 62 88
REMARK SMILES IDX 55 89 61 90 56 91 57 92 58 93 59 94 60 95
REMARK H PARENT 18 7 10 15 10 16 25 32 81 51 51 62
REMARK Flexibility Score: inf
ROOT
ATOM      1  C   UNL A   1      35.361  30.297  27.397  1.00  0.00     0.002 C 
ENDROOT
BRANCH   1   2
ATOM      2  C   UNL A   1      34.777  28.933  26.997  1.00  0.00     0.021 C 
BRANCH   2   3
ATOM      3  C   UNL A   1      33.384  29.017  26.373  1.00  0.00     0.116 C 
BRANCH   3   4
ATOM      4  N   UNL A   1      33.339  28.210  25.171  1.00  0.00    -0.356 N 
ATOM      5  C   UNL A   1      33.384  26.860  25.035  1.00  0.00     0.223 C 
ATOM      6  O   UNL A   1      33.615  26.397  23.916  1.00  0.00    -0.275 OA
ATOM      7  H   UNL A   1      33.265  28.714  24.328  1.00  0.00     0.163 HD
BRANCH   5   8
ATOM      8  C   UNL A   1      33.030  25.975  26.224  1.00  0.00     0.084 C 
ATOM      9  C   UNL A   1      30.631  25.303  25.513  1.00  0.00     0.183 C 
ATOM     10  C   UNL A   1      31.099  23.840  25.471  1.00  0.00     0.065 C 
ATOM     11  C   UNL A   1      31.519  26.075  26.518  1.00  0.00     0.078 C 
ATOM     12  C   UNL A   1      32.571  23.704  25.091  1.00  0.00     0.007 C 
ATOM     13  C   UNL A   1      33.476  24.520  26.016  1.00  0.00     0.014 C 
BRANCH   9  14
ATOM     14  N   UNL A   1      30.649  25.990  24.217  1.00  0.00    -0.338 N 
ATOM     15  H   UNL A   1      31.361  26.718  24.256  1.00  0.00     0.346 HD
ATOM     16  H   UNL A   1      30.838  25.271  23.518  1.00  0.00     0.346 HD
BRANCH  14  17
ATOM     17  C   UNL A   1      29.382  26.614  23.825  1.00  0.00     0.329 C 
BRANCH  17  18
ATOM     18  C   UNL A   1      29.616  27.973  23.207  1.00  0.00     0.147 A 
ATOM     19  C   UNL A   1      29.245  30.077  22.567  1.00  0.00     0.057 A 
ATOM     20  C   UNL A   1      30.480  29.867  21.978  1.00  0.00     0.091 A 
ATOM     21  N   UNL A   1      28.777  28.987  23.293  1.00  0.00    -0.240 NA
ATOM     22  S   UNL A   1      31.048  28.286  22.309  1.00  0.00    -0.121 S 
BRANCH  19  23
ATOM     23  C   UNL A   1      28.416  31.355  22.542  1.00  0.00     0.005 C 
ATOM     24  C   UNL A   1      27.737  31.491  21.165  1.00  0.00     0.017 C 
ATOM     25  C   UNL A   1      29.301  32.596  22.780  1.00  0.00     0.017 C 
ATOM     26  C   UNL A   1      27.326  31.346  23.634  1.00  0.00     0.017 C 
ENDBRANCH  19  23
ENDBRANCH  17  18
ENDBRANCH  14  17
ENDBRANCH   9  14
ENDBRANCH   5   8
ENDBRANCH   3   4
ENDBRANCH   2   3
ENDBRANCH   1   2
BRANCH   1  27
ATOM     27  C   UNL A   1      34.403  31.205  28.175  1.00  0.00     0.002 C 
BRANCH  27  28
ATOM     28  C   UNL A   1      34.160  32.572  27.534  1.00  0.00     0.021 C 
BRANCH  28  29
ATOM     29  C   UNL A   1      32.782  33.159  27.811  1.00  0.00     0.116 C 
BRANCH  29  30
ATOM     30  N   UNL A   1      32.848  34.566  28.172  1.00  0.00    -0.352 N 
ATOM     31  C   UNL A   1      33.653  35.176  29.104  1.00  0.00     0.251 C 
ATOM     32  H   UNL A   1      32.234  35.161  27.685  1.00  0.00     0.163 HD
ATOM     33  O   UNL A   1      33.456  36.344  29.424  1.00  0.00    -0.269 OA
BRANCH  31  34
ATOM     34  C   UNL A   1      34.743  34.401  29.733  1.00  0.00     0.039 A 
ATOM     35  C   UNL A   1      36.042  34.522  29.235  1.00  0.00     0.014 A 
ATOM     36  C   UNL A   1      34.480  33.573  30.828  1.00  0.00     0.014 A 
ATOM     37  C   UNL A   1      37.090  33.855  29.873  1.00  0.00     0.010 A 
ATOM     38  C   UNL A   1      35.534  32.973  31.507  1.00  0.00     0.010 A 
ATOM     39  C   UNL A   1      36.849  33.100  31.032  1.00  0.00    -0.014 A 
BRANCH  39  40
ATOM     40  C   UNL A   1      37.948  32.420  31.761  1.00  0.00     0.031 A 
ATOM     41  C   UNL A   1      38.391  32.937  33.104  1.00  0.00     0.074 A 
ATOM     42  C   UNL A   1      38.599  31.390  31.187  1.00  0.00     0.049 A 
ATOM     43  N   UNL A   1      39.378  32.532  33.861  1.00  0.00    -0.248 NA
ATOM     44  C   UNL A   1      37.642  34.079  33.653  1.00  0.00     0.031 C 
ATOM     45  C   UNL A   1      38.283  30.810  29.879  1.00  0.00     0.029 A 
ATOM     46  N   UNL A   1      39.668  30.648  31.627  1.00  0.00    -0.354 N 
ATOM     47  C   UNL A   1      39.387  33.385  34.957  1.00  0.00     0.074 A 
ATOM     48  C   UNL A   1      38.338  34.359  34.744  1.00  0.00     0.031 C 
ATOM     49  C   UNL A   1      39.114  29.782  29.642  1.00  0.00     0.029 A 
ATOM     50  C   UNL A   1      40.052  29.660  30.753  1.00  0.00     0.049 A 
ATOM     51  H   UNL A   1      40.116  30.811  32.489  1.00  0.00     0.167 HD
ATOM     52  C   UNL A   1      40.186  33.356  36.051  1.00  0.00     0.031 A 
ATOM     53  C   UNL A   1      41.051  28.758  30.835  1.00  0.00     0.031 A 
ATOM     54  C   UNL A   1      41.221  32.379  36.263  1.00  0.00     0.049 A 
ATOM     55  C   UNL A   1      41.941  28.757  32.047  1.00  0.00     0.074 A 
ATOM     56  C   UNL A   1      42.041  32.220  37.365  1.00  0.00     0.029 A 
ATOM     57  N   UNL A   1      41.583  31.400  35.349  1.00  0.00    -0.354 N 
ATOM     58  N   UNL A   1      41.895  29.531  33.105  1.00  0.00    -0.248 NA
ATOM     59  C   UNL A   1      43.015  27.754  32.079  1.00  0.00     0.031 C 
ATOM     60  C   UNL A   1      42.942  31.185  37.093  1.00  0.00     0.029 A 
ATOM     61  C   UNL A   1      42.637  30.654  35.849  1.00  0.00     0.049 A 
ATOM     62  H   UNL A   1      41.155  31.257  34.474  1.00  0.00     0.167 HD
ATOM     63  C   UNL A   1      42.907  29.084  33.946  1.00  0.00     0.074 A 
ATOM     64  C   UNL A   1      43.550  27.972  33.274  1.00  0.00     0.031 C 
ATOM     65  C   UNL A   1      43.266  29.548  35.170  1.00  0.00     0.031 A 
BRANCH  52  66
ATOM     66  C   UNL A   1      39.987  34.434  37.085  1.00  0.00    -0.014 A 
ATOM     67  C   UNL A   1      39.035  34.301  38.114  1.00  0.00     0.010 A 
ATOM     68  C   UNL A   1      40.769  35.602  37.028  1.00  0.00     0.010 A 
ATOM     69  C   UNL A   1      38.824  35.339  39.024  1.00  0.00     0.020 A 
ATOM     70  C   UNL A   1      40.584  36.631  37.957  1.00  0.00     0.020 A 
ATOM     71  C   UNL A   1      39.594  36.503  38.933  1.00  0.00     0.054 A 
BRANCH  71  72
ATOM     72  S   UNL A   1      39.288  37.843  40.116  1.00  0.00     0.124 S 
ATOM     73  O   UNL A   1      40.517  38.627  40.003  1.00  0.00    -0.237 OA
ATOM     74  O   UNL A   1      38.088  38.479  39.579  1.00  0.00    -0.237 OA
ATOM     75  O   UNL A   1      39.108  37.150  41.388  1.00  0.00    -0.744 OA
ENDBRANCH  71  72
ENDBRANCH  52  66
BRANCH  53  76
ATOM     76  C   UNL A   1      41.230  27.754  29.751  1.00  0.00    -0.014 A 
ATOM     77  C   UNL A   1      40.241  26.783  29.519  1.00  0.00     0.010 A 
ATOM     78  C   UNL A   1      42.368  27.782  28.924  1.00  0.00     0.010 A 
ATOM     79  C   UNL A   1      40.387  25.855  28.484  1.00  0.00     0.020 A 
ATOM     80  C   UNL A   1      42.505  26.873  27.871  1.00  0.00     0.020 A 
ATOM     81  C   UNL A   1      41.515  25.911  27.662  1.00  0.00     0.054 A 
BRANCH  81  82
ATOM     82  S   UNL A   1      41.644  24.742  26.279  1.00  0.00     0.124 S 
ATOM     83  O   UNL A   1      41.509  25.622  25.123  1.00  0.00    -0.237 OA
ATOM     84  O   UNL A   1      42.968  24.161  26.482  1.00  0.00    -0.237 OA
ATOM     85  O   UNL A   1      40.529  23.824  26.503  1.00  0.00    -0.744 OA
ENDBRANCH  81  82
ENDBRANCH  53  76
BRANCH  65  86
ATOM     86  C   UNL A   1      44.376  28.829  35.891  1.00  0.00    -0.014 A 
ATOM     87  C   UNL A   1      45.707  29.275  35.821  1.00  0.00     0.010 A 
ATOM     88  C   UNL A   1      44.063  27.731  36.714  1.00  0.00     0.010 A 
ATOM     89  C   UNL A   1      46.708  28.621  36.545  1.00  0.00     0.020 A 
ATOM     90  C   UNL A   1      45.055  27.094  37.462  1.00  0.00     0.020 A 
ATOM     91  C   UNL A   1      46.375  27.536  37.364  1.00  0.00     0.054 A 
BRANCH  91  92
ATOM     92  S   UNL A   1      47.683  26.746  38.342  1.00  0.00     0.124 S 
ATOM     93  O   UNL A   1      46.921  25.823  39.178  1.00  0.00    -0.237 OA
ATOM     94  O   UNL A   1      48.519  26.125  37.317  1.00  0.00    -0.237 OA
ATOM     95  O   UNL A   1      48.305  27.861  39.052  1.00  0.00    -0.744 OA
ENDBRANCH  91  92
ENDBRANCH  65  86
ENDBRANCH  39  40
ENDBRANCH  31  34
ENDBRANCH  29  30
ENDBRANCH  28  29
ENDBRANCH  27  28
ENDBRANCH   1  27
TORSDOF 20
ENDMDL
