MODEL 1
REMARK VINA RESULT:     -10.6      0.000      0.000
REMARK SMILES C[C@@H](CC(=O)NCCCCCCNC(=O)c1ccc(-c2c3nc(c(-c4ccc(S(=O)(=O)[O-])cc4)c4ccc([nH]4)c(-c4ccc(S(=O)(=O)[O-])cc4)c4nc(c(-c5ccc(S(=O)(=O)[O-])cc5)c5ccc2[nH]5)C=C4)C=C3)cc1)NC(=O)[C@@H]1CCCN(C(N)=O)C1
REMARK SMILES IDX 9 1 8 2 7 3 6 4 4 5 5 6 3 8 2 9 1 10 76 11 77 12 78 14 79 15
REMARK SMILES IDX 80 16 87 17 81 18 83 19 82 20 84 21 85 22 86 23 10 26 11 27
REMARK SMILES IDX 12 28 13 29 14 30 15 32 16 33 17 34 75 35 18 36 74 37 19 38
REMARK SMILES IDX 20 39 21 40 68 41 22 42 73 43 67 44 69 45 23 46 72 47 66 48
REMARK SMILES IDX 65 49 24 51 54 52 35 53 53 54 36 55 39 56 52 57 70 58 37 59
REMARK SMILES IDX 38 60 51 62 71 63 40 64 25 65 26 66 34 67 27 68 33 69 28 70
REMARK SMILES IDX 29 71 30 72 31 73 32 74 55 75 56 76 64 77 57 78 63 79 58 80
REMARK SMILES IDX 59 81 60 82 61 83 62 84 41 85 42 86 50 87 43 88 49 89 44 90
REMARK SMILES IDX 45 91 46 92 47 93 48 94
REMARK H PARENT 6 7 76 13 85 24 85 25 13 31 69 50 39 61
REMARK Flexibility Score: inf
ROOT
ATOM      1  C   UNL A   1      34.203  31.064  27.495  1.00  0.00     0.002 C 
ENDROOT
BRANCH   1   2
ATOM      2  C   UNL A   1      33.060  30.259  26.870  1.00  0.00     0.021 C 
BRANCH   2   3
ATOM      3  C   UNL A   1      33.528  28.990  26.159  1.00  0.00     0.116 C 
BRANCH   3   4
ATOM      4  N   UNL A   1      33.750  29.270  24.756  1.00  0.00    -0.356 N 
ATOM      5  C   UNL A   1      33.801  28.411  23.706  1.00  0.00     0.222 C 
ATOM      6  O   UNL A   1      34.239  28.825  22.632  1.00  0.00    -0.275 OA
ATOM      7  H   UNL A   1      33.884  30.219  24.532  1.00  0.00     0.163 HD
BRANCH   5   8
ATOM      8  C   UNL A   1      33.302  26.990  23.845  1.00  0.00     0.124 C 
BRANCH   8   9
ATOM      9  C   UNL A   1      32.001  26.641  23.106  1.00  0.00     0.088 C 
ATOM     10  C   UNL A   1      32.008  25.270  22.441  1.00  0.00     0.031 C 
BRANCH   9  11
ATOM     11  N   UNL A   1      31.597  27.677  22.157  1.00  0.00    -0.353 N 
ATOM     12  C   UNL A   1      30.714  28.708  22.289  1.00  0.00     0.225 C 
ATOM     13  H   UNL A   1      32.035  27.620  21.278  1.00  0.00     0.163 HD
ATOM     14  O   UNL A   1      30.578  29.471  21.331  1.00  0.00    -0.275 OA
BRANCH  12  15
ATOM     15  C   UNL A   1      29.951  28.895  23.597  1.00  0.00     0.098 C 
ATOM     16  C   UNL A   1      28.574  28.213  23.575  1.00  0.00     0.017 C 
ATOM     17  C   UNL A   1      29.863  30.384  23.943  1.00  0.00     0.134 C 
ATOM     18  C   UNL A   1      27.479  29.044  22.904  1.00  0.00     0.022 C 
ATOM     19  N   UNL A   1      28.775  31.069  23.250  1.00  0.00    -0.324 N 
ATOM     20  C   UNL A   1      27.461  30.474  23.428  1.00  0.00     0.121 C 
BRANCH  19  21
ATOM     21  C   UNL A   1      28.902  32.189  22.464  1.00  0.00     0.314 C 
ATOM     22  N   UNL A   1      29.143  33.349  23.115  1.00  0.00    -0.351 N 
ATOM     23  O   UNL A   1      28.814  32.195  21.240  1.00  0.00    -0.249 OA
ATOM     24  H   UNL A   1      29.214  33.357  24.097  1.00  0.00     0.161 HD
ATOM     25  H   UNL A   1      29.246  34.187  22.608  1.00  0.00     0.161 HD
ENDBRANCH  19  21
ENDBRANCH  12  15
ENDBRANCH   9  11
ENDBRANCH   8   9
ENDBRANCH   5   8
ENDBRANCH   3   4
ENDBRANCH   2   3
ENDBRANCH   1   2
BRANCH   1  26
ATOM     26  C   UNL A   1      33.801  32.455  27.990  1.00  0.00     0.002 C 
BRANCH  26  27
ATOM     27  C   UNL A   1      34.969  33.351  28.411  1.00  0.00     0.021 C 
BRANCH  27  28
ATOM     28  C   UNL A   1      36.189  32.597  28.932  1.00  0.00     0.116 C 
BRANCH  28  29
ATOM     29  N   UNL A   1      35.888  31.869  30.155  1.00  0.00    -0.352 N 
ATOM     30  C   UNL A   1      36.572  30.837  30.738  1.00  0.00     0.251 C 
ATOM     31  H   UNL A   1      35.077  32.161  30.630  1.00  0.00     0.163 HD
ATOM     32  O   UNL A   1      36.041  30.172  31.628  1.00  0.00    -0.269 OA
BRANCH  30  33
ATOM     33  C   UNL A   1      37.941  30.519  30.290  1.00  0.00     0.039 A 
ATOM     34  C   UNL A   1      38.966  30.438  31.236  1.00  0.00     0.014 A 
ATOM     35  C   UNL A   1      38.214  30.308  28.934  1.00  0.00     0.014 A 
ATOM     36  C   UNL A   1      40.255  30.092  30.828  1.00  0.00     0.010 A 
ATOM     37  C   UNL A   1      39.484  29.896  28.539  1.00  0.00     0.010 A 
ATOM     38  C   UNL A   1      40.518  29.787  29.481  1.00  0.00    -0.014 A 
BRANCH  38  39
ATOM     39  C   UNL A   1      41.865  29.343  29.044  1.00  0.00     0.031 A 
ATOM     40  C   UNL A   1      42.999  30.328  28.960  1.00  0.00     0.074 A 
ATOM     41  C   UNL A   1      42.050  28.063  28.662  1.00  0.00     0.049 A 
ATOM     42  N   UNL A   1      44.227  30.135  28.553  1.00  0.00    -0.248 NA
ATOM     43  C   UNL A   1      42.711  31.716  29.360  1.00  0.00     0.031 C 
ATOM     44  C   UNL A   1      41.015  27.025  28.653  1.00  0.00     0.029 A 
ATOM     45  N   UNL A   1      43.168  27.419  28.197  1.00  0.00    -0.354 N 
ATOM     46  C   UNL A   1      44.852  31.375  28.632  1.00  0.00     0.074 A 
ATOM     47  C   UNL A   1      43.857  32.322  29.081  1.00  0.00     0.031 C 
ATOM     48  C   UNL A   1      41.554  25.871  28.229  1.00  0.00     0.029 A 
ATOM     49  C   UNL A   1      42.957  26.094  27.895  1.00  0.00     0.049 A 
ATOM     50  H   UNL A   1      44.041  27.863  28.091  1.00  0.00     0.167 HD
ATOM     51  C   UNL A   1      46.142  31.691  28.368  1.00  0.00     0.031 A 
ATOM     52  C   UNL A   1      43.794  25.164  27.395  1.00  0.00     0.031 A 
ATOM     53  C   UNL A   1      47.133  30.742  27.935  1.00  0.00     0.049 A 
ATOM     54  C   UNL A   1      45.222  25.541  27.112  1.00  0.00     0.074 A 
ATOM     55  C   UNL A   1      48.482  30.952  27.709  1.00  0.00     0.029 A 
ATOM     56  N   UNL A   1      46.883  29.407  27.657  1.00  0.00    -0.354 N 
ATOM     57  N   UNL A   1      45.813  26.702  27.269  1.00  0.00    -0.248 NA
ATOM     58  C   UNL A   1      46.100  24.481  26.597  1.00  0.00     0.031 C 
ATOM     59  C   UNL A   1      49.037  29.757  27.237  1.00  0.00     0.029 A 
ATOM     60  C   UNL A   1      48.047  28.788  27.232  1.00  0.00     0.049 A 
ATOM     61  H   UNL A   1      46.009  28.964  27.749  1.00  0.00     0.167 HD
ATOM     62  C   UNL A   1      47.137  26.505  26.895  1.00  0.00     0.074 A 
ATOM     63  C   UNL A   1      47.264  25.111  26.523  1.00  0.00     0.031 C 
ATOM     64  C   UNL A   1      48.157  27.399  26.862  1.00  0.00     0.031 A 
BRANCH  51  65
ATOM     65  C   UNL A   1      46.560  33.130  28.535  1.00  0.00    -0.014 A 
ATOM     66  C   UNL A   1      46.440  34.051  27.479  1.00  0.00     0.010 A 
ATOM     67  C   UNL A   1      47.023  33.580  29.786  1.00  0.00     0.010 A 
ATOM     68  C   UNL A   1      46.807  35.387  27.660  1.00  0.00     0.020 A 
ATOM     69  C   UNL A   1      47.365  34.922  29.979  1.00  0.00     0.020 A 
ATOM     70  C   UNL A   1      47.268  35.814  28.909  1.00  0.00     0.054 A 
BRANCH  70  71
ATOM     71  S   UNL A   1      47.703  37.562  29.124  1.00  0.00     0.124 S 
ATOM     72  O   UNL A   1      46.806  38.214  28.172  1.00  0.00    -0.237 OA
ATOM     73  O   UNL A   1      47.401  37.796  30.534  1.00  0.00    -0.237 OA
ATOM     74  O   UNL A   1      49.120  37.612  28.776  1.00  0.00    -0.744 OA
ENDBRANCH  70  71
ENDBRANCH  51  65
BRANCH  52  75
ATOM     75  C   UNL A   1      43.301  23.784  27.132  1.00  0.00    -0.014 A 
ATOM     76  C   UNL A   1      43.213  23.289  25.819  1.00  0.00     0.010 A 
ATOM     77  C   UNL A   1      42.924  22.951  28.203  1.00  0.00     0.010 A 
ATOM     78  C   UNL A   1      42.737  21.998  25.579  1.00  0.00     0.020 A 
ATOM     79  C   UNL A   1      42.476  21.649  27.969  1.00  0.00     0.020 A 
ATOM     80  C   UNL A   1      42.372  21.185  26.656  1.00  0.00     0.054 A 
BRANCH  80  81
ATOM     81  S   UNL A   1      41.800  19.494  26.325  1.00  0.00     0.124 S 
ATOM     82  O   UNL A   1      42.282  18.776  27.500  1.00  0.00    -0.237 OA
ATOM     83  O   UNL A   1      40.352  19.664  26.235  1.00  0.00    -0.237 OA
ATOM     84  O   UNL A   1      42.459  19.153  25.066  1.00  0.00    -0.744 OA
ENDBRANCH  80  81
ENDBRANCH  52  75
BRANCH  64  85
ATOM     85  C   UNL A   1      49.508  26.892  26.436  1.00  0.00    -0.014 A 
ATOM     86  C   UNL A   1      50.365  26.245  27.343  1.00  0.00     0.010 A 
ATOM     87  C   UNL A   1      49.903  27.017  25.090  1.00  0.00     0.010 A 
ATOM     88  C   UNL A   1      51.607  25.762  26.920  1.00  0.00     0.020 A 
ATOM     89  C   UNL A   1      51.131  26.509  24.657  1.00  0.00     0.020 A 
ATOM     90  C   UNL A   1      51.981  25.898  25.580  1.00  0.00     0.054 A 
BRANCH  90  91
ATOM     91  S   UNL A   1      53.579  25.224  25.048  1.00  0.00     0.124 S 
ATOM     92  O   UNL A   1      53.425  23.804  25.352  1.00  0.00    -0.237 OA
ATOM     93  O   UNL A   1      53.611  25.562  23.626  1.00  0.00    -0.237 OA
ATOM     94  O   UNL A   1      54.550  25.937  25.875  1.00  0.00    -0.744 OA
ENDBRANCH  90  91
ENDBRANCH  64  85
ENDBRANCH  38  39
ENDBRANCH  30  33
ENDBRANCH  28  29
ENDBRANCH  27  28
ENDBRANCH  26  27
ENDBRANCH   1  26
TORSDOF 20
ENDMDL
MODEL 2
REMARK VINA RESULT:     -10.5      1.945      3.717
REMARK SMILES C[C@@H](CC(=O)NCCCCCCNC(=O)c1ccc(-c2c3nc(c(-c4ccc(S(=O)(=O)[O-])cc4)c4ccc([nH]4)c(-c4ccc(S(=O)(=O)[O-])cc4)c4nc(c(-c5ccc(S(=O)(=O)[O-])cc5)c5ccc2[nH]5)C=C4)C=C3)cc1)NC(=O)[C@@H]1CCCN(C(N)=O)C1
REMARK SMILES IDX 9 1 8 2 7 3 6 4 4 5 5 6 3 8 2 9 1 10 76 11 77 12 78 14 79 15
REMARK SMILES IDX 80 16 87 17 81 18 83 19 82 20 84 21 85 22 86 23 10 26 11 27
REMARK SMILES IDX 12 28 13 29 14 30 15 32 16 33 17 34 75 35 18 36 74 37 19 38
REMARK SMILES IDX 20 39 21 40 68 41 22 42 73 43 67 44 69 45 23 46 72 47 66 48
REMARK SMILES IDX 65 49 24 51 54 52 35 53 53 54 36 55 39 56 52 57 70 58 37 59
REMARK SMILES IDX 38 60 51 62 71 63 40 64 25 65 26 66 34 67 27 68 33 69 28 70
REMARK SMILES IDX 29 71 30 72 31 73 32 74 55 75 56 76 64 77 57 78 63 79 58 80
REMARK SMILES IDX 59 81 60 82 61 83 62 84 41 85 42 86 50 87 43 88 49 89 44 90
REMARK SMILES IDX 45 91 46 92 47 93 48 94
REMARK H PARENT 6 7 76 13 85 24 85 25 13 31 69 50 39 61
REMARK Flexibility Score: inf
ROOT
ATOM      1  C   UNL A   1      32.105  30.865  26.596  1.00  0.00     0.002 C 
ENDROOT
BRANCH   1   2
ATOM      2  C   UNL A   1      31.755  29.542  25.911  1.00  0.00     0.021 C 
BRANCH   2   3
ATOM      3  C   UNL A   1      32.102  29.518  24.422  1.00  0.00     0.116 C 
BRANCH   3   4
ATOM      4  N   UNL A   1      30.887  29.559  23.637  1.00  0.00    -0.356 N 
ATOM      5  C   UNL A   1      30.488  28.744  22.627  1.00  0.00     0.222 C 
ATOM      6  O   UNL A   1      29.533  29.094  21.933  1.00  0.00    -0.275 OA
ATOM      7  H   UNL A   1      30.259  30.280  23.869  1.00  0.00     0.163 HD
BRANCH   5   8
ATOM      8  C   UNL A   1      31.183  27.422  22.380  1.00  0.00     0.124 C 
BRANCH   8   9
ATOM      9  C   UNL A   1      30.874  26.286  23.366  1.00  0.00     0.088 C 
ATOM     10  C   UNL A   1      29.475  26.344  23.968  1.00  0.00     0.031 C 
BRANCH   9  11
ATOM     11  N   UNL A   1      31.885  26.159  24.413  1.00  0.00    -0.353 N 
ATOM     12  C   UNL A   1      32.678  25.105  24.760  1.00  0.00     0.225 C 
ATOM     13  H   UNL A   1      32.016  26.968  24.957  1.00  0.00     0.163 HD
ATOM     14  O   UNL A   1      33.484  25.272  25.676  1.00  0.00    -0.275 OA
BRANCH  12  15
ATOM     15  C   UNL A   1      32.559  23.783  24.008  1.00  0.00     0.098 C 
ATOM     16  C   UNL A   1      31.295  22.999  24.394  1.00  0.00     0.017 C 
ATOM     17  C   UNL A   1      33.839  22.960  24.192  1.00  0.00     0.134 C 
ATOM     18  C   UNL A   1      31.441  22.173  25.673  1.00  0.00     0.022 C 
ATOM     19  N   UNL A   1      33.858  22.207  25.443  1.00  0.00    -0.324 N 
ATOM     20  C   UNL A   1      32.714  21.336  25.657  1.00  0.00     0.121 C 
BRANCH  19  21
ATOM     21  C   UNL A   1      34.842  22.266  26.401  1.00  0.00     0.314 C 
ATOM     22  N   UNL A   1      34.668  21.472  27.482  1.00  0.00    -0.351 N 
ATOM     23  O   UNL A   1      35.841  22.974  26.331  1.00  0.00    -0.249 OA
ATOM     24  H   UNL A   1      33.870  20.900  27.550  1.00  0.00     0.161 HD
ATOM     25  H   UNL A   1      35.340  21.468  28.202  1.00  0.00     0.161 HD
ENDBRANCH  19  21
ENDBRANCH  12  15
ENDBRANCH   9  11
ENDBRANCH   8   9
ENDBRANCH   5   8
ENDBRANCH   3   4
ENDBRANCH   2   3
ENDBRANCH   1   2
BRANCH   1  26
ATOM     26  C   UNL A   1      33.303  30.789  27.547  1.00  0.00     0.002 C 
BRANCH  26  27
ATOM     27  C   UNL A   1      34.508  30.018  27.004  1.00  0.00     0.021 C 
BRANCH  27  28
ATOM     28  C   UNL A   1      35.417  29.427  28.078  1.00  0.00     0.116 C 
BRANCH  28  29
ATOM     29  N   UNL A   1      35.378  30.210  29.303  1.00  0.00    -0.352 N 
ATOM     30  C   UNL A   1      36.379  30.461  30.202  1.00  0.00     0.251 C 
ATOM     31  H   UNL A   1      34.507  30.616  29.516  1.00  0.00     0.163 HD
ATOM     32  O   UNL A   1      36.109  30.927  31.309  1.00  0.00    -0.269 OA
BRANCH  30  33
ATOM     33  C   UNL A   1      37.779  30.163  29.843  1.00  0.00     0.039 A 
ATOM     34  C   UNL A   1      38.678  29.806  30.850  1.00  0.00     0.014 A 
ATOM     35  C   UNL A   1      38.204  30.246  28.512  1.00  0.00     0.014 A 
ATOM     36  C   UNL A   1      39.993  29.477  30.515  1.00  0.00     0.010 A 
ATOM     37  C   UNL A   1      39.495  29.852  28.173  1.00  0.00     0.010 A 
ATOM     38  C   UNL A   1      40.404  29.467  29.170  1.00  0.00    -0.014 A 
BRANCH  38  39
ATOM     39  C   UNL A   1      41.776  29.045  28.791  1.00  0.00     0.031 A 
ATOM     40  C   UNL A   1      42.894  30.051  28.750  1.00  0.00     0.074 A 
ATOM     41  C   UNL A   1      41.998  27.768  28.422  1.00  0.00     0.049 A 
ATOM     42  N   UNL A   1      44.141  29.879  28.394  1.00  0.00    -0.248 NA
ATOM     43  C   UNL A   1      42.565  31.434  29.132  1.00  0.00     0.031 C 
ATOM     44  C   UNL A   1      40.984  26.712  28.375  1.00  0.00     0.029 A 
ATOM     45  N   UNL A   1      43.147  27.142  28.006  1.00  0.00    -0.354 N 
ATOM     46  C   UNL A   1      44.740  31.130  28.494  1.00  0.00     0.074 A 
ATOM     47  C   UNL A   1      43.711  32.060  28.899  1.00  0.00     0.031 C 
ATOM     48  C   UNL A   1      41.561  25.566  27.977  1.00  0.00     0.029 A 
ATOM     49  C   UNL A   1      42.972  25.813  27.701  1.00  0.00     0.049 A 
ATOM     50  H   UNL A   1      44.015  27.602  27.934  1.00  0.00     0.167 HD
ATOM     51  C   UNL A   1      46.034  31.468  28.282  1.00  0.00     0.031 A 
ATOM     52  C   UNL A   1      43.845  24.897  27.240  1.00  0.00     0.031 A 
ATOM     53  C   UNL A   1      47.059  30.536  27.894  1.00  0.00     0.049 A 
ATOM     54  C   UNL A   1      45.277  25.299  27.014  1.00  0.00     0.074 A 
ATOM     55  C   UNL A   1      48.412  30.769  27.723  1.00  0.00     0.029 A 
ATOM     56  N   UNL A   1      46.845  29.195  27.611  1.00  0.00    -0.354 N 
ATOM     57  N   UNL A   1      45.840  26.470  27.190  1.00  0.00    -0.248 NA
ATOM     58  C   UNL A   1      46.194  24.253  26.539  1.00  0.00     0.031 C 
ATOM     59  C   UNL A   1      49.007  29.583  27.279  1.00  0.00     0.029 A 
ATOM     60  C   UNL A   1      48.036  28.596  27.237  1.00  0.00     0.049 A 
ATOM     61  H   UNL A   1      45.975  28.737  27.669  1.00  0.00     0.167 HD
ATOM     62  C   UNL A   1      47.182  26.296  26.872  1.00  0.00     0.074 A 
ATOM     63  C   UNL A   1      47.348  24.904  26.511  1.00  0.00     0.031 C 
ATOM     64  C   UNL A   1      48.186  27.208  26.877  1.00  0.00     0.031 A 
BRANCH  51  65
ATOM     65  C   UNL A   1      46.419  32.914  28.461  1.00  0.00    -0.014 A 
ATOM     66  C   UNL A   1      46.899  33.395  29.692  1.00  0.00     0.010 A 
ATOM     67  C   UNL A   1      46.357  33.792  27.362  1.00  0.00     0.010 A 
ATOM     68  C   UNL A   1      47.277  34.733  29.832  1.00  0.00     0.020 A 
ATOM     69  C   UNL A   1      46.760  35.125  27.490  1.00  0.00     0.020 A 
ATOM     70  C   UNL A   1      47.205  35.590  28.729  1.00  0.00     0.054 A 
BRANCH  70  71
ATOM     71  S   UNL A   1      47.737  37.312  28.931  1.00  0.00     0.124 S 
ATOM     72  O   UNL A   1      49.139  37.244  28.527  1.00  0.00    -0.237 OA
ATOM     73  O   UNL A   1      46.853  38.029  28.015  1.00  0.00    -0.237 OA
ATOM     74  O   UNL A   1      47.510  37.581  30.349  1.00  0.00    -0.744 OA
ENDBRANCH  70  71
ENDBRANCH  51  65
BRANCH  52  75
ATOM     75  C   UNL A   1      43.388  23.507  26.962  1.00  0.00    -0.014 A 
ATOM     76  C   UNL A   1      43.293  23.031  25.643  1.00  0.00     0.010 A 
ATOM     77  C   UNL A   1      43.053  22.647  28.025  1.00  0.00     0.010 A 
ATOM     78  C   UNL A   1      42.851  21.730  25.389  1.00  0.00     0.020 A 
ATOM     79  C   UNL A   1      42.639  21.336  27.776  1.00  0.00     0.020 A 
ATOM     80  C   UNL A   1      42.528  20.890  26.458  1.00  0.00     0.054 A 
BRANCH  80  81
ATOM     81  S   UNL A   1      42.000  19.189  26.109  1.00  0.00     0.124 S 
ATOM     82  O   UNL A   1      42.765  18.874  24.908  1.00  0.00    -0.237 OA
ATOM     83  O   UNL A   1      42.401  18.479  27.322  1.00  0.00    -0.237 OA
ATOM     84  O   UNL A   1      40.556  19.313  25.920  1.00  0.00    -0.744 OA
ENDBRANCH  80  81
ENDBRANCH  52  75
BRANCH  64  85
ATOM     85  C   UNL A   1      49.562  26.724  26.509  1.00  0.00    -0.014 A 
ATOM     86  C   UNL A   1      50.389  26.088  27.451  1.00  0.00     0.010 A 
ATOM     87  C   UNL A   1      50.013  26.861  25.182  1.00  0.00     0.010 A 
ATOM     88  C   UNL A   1      51.655  25.626  27.081  1.00  0.00     0.020 A 
ATOM     89  C   UNL A   1      51.267  26.374  24.802  1.00  0.00     0.020 A 
ATOM     90  C   UNL A   1      52.086  25.773  25.759  1.00  0.00     0.054 A 
BRANCH  90  91
ATOM     91  S   UNL A   1      53.716  25.127  25.295  1.00  0.00     0.124 S 
ATOM     92  O   UNL A   1      54.565  25.654  26.361  1.00  0.00    -0.237 OA
ATOM     93  O   UNL A   1      53.505  23.681  25.316  1.00  0.00    -0.237 OA
ATOM     94  O   UNL A   1      53.952  25.697  23.970  1.00  0.00    -0.744 OA
ENDBRANCH  90  91
ENDBRANCH  64  85
ENDBRANCH  38  39
ENDBRANCH  30  33
ENDBRANCH  28  29
ENDBRANCH  27  28
ENDBRANCH  26  27
ENDBRANCH   1  26
TORSDOF 20
ENDMDL
MODEL 3
REMARK VINA RESULT:     -10.4      0.718      8.189
REMARK SMILES C[C@@H](CC(=O)NCCCCCCNC(=O)c1ccc(-c2c3nc(c(-c4ccc(S(=O)(=O)[O-])cc4)c4ccc([nH]4)c(-c4ccc(S(=O)(=O)[O-])cc4)c4nc(c(-c5ccc(S(=O)(=O)[O-])cc5)c5ccc2[nH]5)C=C4)C=C3)cc1)NC(=O)[C@@H]1CCCN(C(N)=O)C1
REMARK SMILES IDX 9 1 8 2 7 3 6 4 4 5 5 6 3 8 2 9 1 10 76 11 77 12 78 14 79 15
REMARK SMILES IDX 80 16 87 17 81 18 83 19 82 20 84 21 85 22 86 23 10 26 11 27
REMARK SMILES IDX 12 28 13 29 14 30 15 32 16 33 17 34 75 35 18 36 74 37 19 38
REMARK SMILES IDX 20 39 21 40 68 41 22 42 73 43 67 44 69 45 23 46 72 47 66 48
REMARK SMILES IDX 65 49 24 51 54 52 35 53 53 54 36 55 39 56 52 57 70 58 37 59
REMARK SMILES IDX 38 60 51 62 71 63 40 64 25 65 26 66 34 67 27 68 33 69 28 70
REMARK SMILES IDX 29 71 30 72 31 73 32 74 55 75 56 76 64 77 57 78 63 79 58 80
REMARK SMILES IDX 59 81 60 82 61 83 62 84 41 85 42 86 50 87 43 88 49 89 44 90
REMARK SMILES IDX 45 91 46 92 47 93 48 94
REMARK H PARENT 6 7 76 13 85 24 85 25 13 31 69 50 39 61
REMARK Flexibility Score: inf
ROOT
ATOM      1  C   UNL A   1      34.383  31.093  27.592  1.00  0.00     0.002 C 
ENDROOT
BRANCH   1   2
ATOM      2  C   UNL A   1      33.194  30.389  26.933  1.00  0.00     0.021 C 
BRANCH   2   3
ATOM      3  C   UNL A   1      33.582  29.121  26.174  1.00  0.00     0.116 C 
BRANCH   3   4
ATOM      4  N   UNL A   1      33.773  29.430  24.773  1.00  0.00    -0.356 N 
ATOM      5  C   UNL A   1      33.743  28.601  23.698  1.00  0.00     0.222 C 
ATOM      6  O   UNL A   1      34.166  29.022  22.621  1.00  0.00    -0.275 OA
ATOM      7  H   UNL A   1      33.949  30.377  24.570  1.00  0.00     0.163 HD
BRANCH   5   8
ATOM      8  C   UNL A   1      33.174  27.204  23.814  1.00  0.00     0.124 C 
BRANCH   8   9
ATOM      9  C   UNL A   1      31.856  26.932  23.073  1.00  0.00     0.088 C 
ATOM     10  C   UNL A   1      31.799  25.579  22.375  1.00  0.00     0.031 C 
BRANCH   9  11
ATOM     11  N   UNL A   1      31.497  28.008  22.152  1.00  0.00    -0.353 N 
ATOM     12  C   UNL A   1      30.623  29.046  22.293  1.00  0.00     0.225 C 
ATOM     13  H   UNL A   1      31.962  27.978  21.285  1.00  0.00     0.163 HD
ATOM     14  O   UNL A   1      30.528  29.846  21.361  1.00  0.00    -0.275 OA
BRANCH  12  15
ATOM     15  C   UNL A   1      29.820  29.195  23.582  1.00  0.00     0.098 C 
ATOM     16  C   UNL A   1      28.473  28.457  23.523  1.00  0.00     0.017 C 
ATOM     17  C   UNL A   1      29.663  30.678  23.932  1.00  0.00     0.134 C 
ATOM     18  C   UNL A   1      27.363  29.246  22.827  1.00  0.00     0.022 C 
ATOM     19  N   UNL A   1      28.565  31.320  23.214  1.00  0.00    -0.324 N 
ATOM     20  C   UNL A   1      27.272  30.671  23.357  1.00  0.00     0.121 C 
BRANCH  19  21
ATOM     21  C   UNL A   1      28.664  32.448  22.436  1.00  0.00     0.314 C 
ATOM     22  N   UNL A   1      28.692  32.248  21.099  1.00  0.00    -0.351 N 
ATOM     23  O   UNL A   1      28.724  33.593  22.872  1.00  0.00    -0.249 OA
ATOM     24  H   UNL A   1      28.645  31.335  20.736  1.00  0.00     0.161 HD
ATOM     25  H   UNL A   1      28.760  33.018  20.487  1.00  0.00     0.161 HD
ENDBRANCH  19  21
ENDBRANCH  12  15
ENDBRANCH   9  11
ENDBRANCH   8   9
ENDBRANCH   5   8
ENDBRANCH   3   4
ENDBRANCH   2   3
ENDBRANCH   1   2
BRANCH   1  26
ATOM     26  C   UNL A   1      34.113  32.542  28.005  1.00  0.00     0.002 C 
BRANCH  26  27
ATOM     27  C   UNL A   1      35.309  33.269  28.624  1.00  0.00     0.021 C 
BRANCH  27  28
ATOM     28  C   UNL A   1      36.444  32.352  29.071  1.00  0.00     0.116 C 
BRANCH  28  29
ATOM     29  N   UNL A   1      36.036  31.490  30.169  1.00  0.00    -0.352 N 
ATOM     30  C   UNL A   1      36.582  30.307  30.590  1.00  0.00     0.251 C 
ATOM     31  H   UNL A   1      35.256  31.802  30.683  1.00  0.00     0.163 HD
ATOM     32  O   UNL A   1      35.959  29.585  31.369  1.00  0.00    -0.269 OA
BRANCH  30  33
ATOM     33  C   UNL A   1      37.912  29.898  30.099  1.00  0.00     0.039 A 
ATOM     34  C   UNL A   1      38.087  29.644  28.737  1.00  0.00     0.014 A 
ATOM     35  C   UNL A   1      38.984  29.757  30.987  1.00  0.00     0.014 A 
ATOM     36  C   UNL A   1      39.352  29.301  28.257  1.00  0.00     0.010 A 
ATOM     37  C   UNL A   1      40.257  29.483  30.496  1.00  0.00     0.010 A 
ATOM     38  C   UNL A   1      40.454  29.249  29.127  1.00  0.00    -0.014 A 
BRANCH  38  39
ATOM     39  C   UNL A   1      41.819  28.961  28.619  1.00  0.00     0.031 A 
ATOM     40  C   UNL A   1      42.177  27.579  28.145  1.00  0.00     0.074 A 
ATOM     41  C   UNL A   1      42.754  29.932  28.647  1.00  0.00     0.049 A 
ATOM     42  N   UNL A   1      43.329  27.129  27.717  1.00  0.00    -0.248 NA
ATOM     43  C   UNL A   1      41.112  26.563  28.179  1.00  0.00     0.031 C 
ATOM     44  C   UNL A   1      42.541  31.299  29.130  1.00  0.00     0.029 A 
ATOM     45  N   UNL A   1      44.074  29.916  28.270  1.00  0.00    -0.354 N 
ATOM     46  C   UNL A   1      43.132  25.779  27.447  1.00  0.00     0.074 A 
ATOM     47  C   UNL A   1      41.765  25.472  27.803  1.00  0.00     0.031 C 
ATOM     48  C   UNL A   1      43.682  31.994  28.997  1.00  0.00     0.029 A 
ATOM     49  C   UNL A   1      44.717  31.116  28.462  1.00  0.00     0.049 A 
ATOM     50  H   UNL A   1      44.518  29.121  27.897  1.00  0.00     0.167 HD
ATOM     51  C   UNL A   1      44.007  24.882  26.936  1.00  0.00     0.031 A 
ATOM     52  C   UNL A   1      45.998  31.469  28.243  1.00  0.00     0.031 A 
ATOM     53  C   UNL A   1      45.364  25.196  26.570  1.00  0.00     0.049 A 
ATOM     54  C   UNL A   1      46.950  30.454  27.673  1.00  0.00     0.074 A 
ATOM     55  C   UNL A   1      46.306  24.373  25.980  1.00  0.00     0.029 A 
ATOM     56  N   UNL A   1      45.971  26.427  26.764  1.00  0.00    -0.354 N 
ATOM     57  N   UNL A   1      46.723  29.203  27.351  1.00  0.00    -0.248 NA
ATOM     58  C   UNL A   1      48.328  30.900  27.425  1.00  0.00     0.031 C 
ATOM     59  C   UNL A   1      47.503  25.088  25.870  1.00  0.00     0.029 A 
ATOM     60  C   UNL A   1      47.287  26.377  26.333  1.00  0.00     0.049 A 
ATOM     61  H   UNL A   1      45.533  27.220  27.150  1.00  0.00     0.167 HD
ATOM     62  C   UNL A   1      47.921  28.720  26.840  1.00  0.00     0.074 A 
ATOM     63  C   UNL A   1      48.865  29.818  26.878  1.00  0.00     0.031 C 
ATOM     64  C   UNL A   1      48.215  27.478  26.380  1.00  0.00     0.031 A 
BRANCH  51  65
ATOM     65  C   UNL A   1      43.529  23.466  26.744  1.00  0.00    -0.014 A 
ATOM     66  C   UNL A   1      43.558  22.851  25.480  1.00  0.00     0.010 A 
ATOM     67  C   UNL A   1      43.101  22.719  27.858  1.00  0.00     0.010 A 
ATOM     68  C   UNL A   1      43.136  21.527  25.326  1.00  0.00     0.020 A 
ATOM     69  C   UNL A   1      42.704  21.386  27.713  1.00  0.00     0.020 A 
ATOM     70  C   UNL A   1      42.711  20.803  26.444  1.00  0.00     0.054 A 
BRANCH  70  71
ATOM     71  S   UNL A   1      42.204  19.076  26.219  1.00  0.00     0.124 S 
ATOM     72  O   UNL A   1      40.802  19.223  25.834  1.00  0.00    -0.237 OA
ATOM     73  O   UNL A   1      43.101  18.615  25.163  1.00  0.00    -0.237 OA
ATOM     74  O   UNL A   1      42.429  18.475  27.531  1.00  0.00    -0.744 OA
ENDBRANCH  70  71
ENDBRANCH  51  65
BRANCH  52  75
ATOM     75  C   UNL A   1      46.455  32.850  28.563  1.00  0.00    -0.014 A 
ATOM     76  C   UNL A   1      46.485  33.845  27.570  1.00  0.00     0.010 A 
ATOM     77  C   UNL A   1      46.854  33.178  29.872  1.00  0.00     0.010 A 
ATOM     78  C   UNL A   1      46.928  35.136  27.875  1.00  0.00     0.020 A 
ATOM     79  C   UNL A   1      47.268  34.474  30.187  1.00  0.00     0.020 A 
ATOM     80  C   UNL A   1      47.315  35.443  29.183  1.00  0.00     0.054 A 
BRANCH  80  81
ATOM     81  S   UNL A   1      47.842  37.136  29.567  1.00  0.00     0.124 S 
ATOM     82  O   UNL A   1      47.108  37.410  30.798  1.00  0.00    -0.237 OA
ATOM     83  O   UNL A   1      49.289  36.991  29.709  1.00  0.00    -0.237 OA
ATOM     84  O   UNL A   1      47.414  37.899  28.397  1.00  0.00    -0.744 OA
ENDBRANCH  80  81
ENDBRANCH  52  75
BRANCH  64  85
ATOM     85  C   UNL A   1      49.606  27.245  25.853  1.00  0.00    -0.014 A 
ATOM     86  C   UNL A   1      49.932  27.509  24.511  1.00  0.00     0.010 A 
ATOM     87  C   UNL A   1      50.615  26.808  26.731  1.00  0.00     0.010 A 
ATOM     88  C   UNL A   1      51.235  27.307  24.049  1.00  0.00     0.020 A 
ATOM     89  C   UNL A   1      51.926  26.634  26.280  1.00  0.00     0.020 A 
ATOM     90  C   UNL A   1      52.224  26.871  24.937  1.00  0.00     0.054 A 
BRANCH  90  91
ATOM     91  S   UNL A   1      53.917  26.658  24.322  1.00  0.00     0.124 S 
ATOM     92  O   UNL A   1      54.295  28.032  23.997  1.00  0.00    -0.237 OA
ATOM     93  O   UNL A   1      54.604  26.072  25.470  1.00  0.00    -0.237 OA
ATOM     94  O   UNL A   1      53.761  25.767  23.174  1.00  0.00    -0.744 OA
ENDBRANCH  90  91
ENDBRANCH  64  85
ENDBRANCH  38  39
ENDBRANCH  30  33
ENDBRANCH  28  29
ENDBRANCH  27  28
ENDBRANCH  26  27
ENDBRANCH   1  26
TORSDOF 20
ENDMDL
