MODEL 1
REMARK VINA RESULT:     -12.9      0.000      0.000
REMARK SMILES Cc1nn(-c2ccccc2)c(C)c1CNC(=O)[C@@H]1[C@@H](C(=O)NCCCCCCNC(=O)c2ccc(-c3c4nc(c(-c5ccc(S(=O)(=O)[O-])cc5)c5ccc([nH]5)c(-c5ccc(S(=O)(=O)[O-])cc5)c5nc(c(-c6ccc(S(=O)(=O)[O-])cc6)c6ccc3[nH]6)C=C5)C=C4)cc2)[C@@H]2C=C[C@H]1C2
REMARK SMILES IDX 25 1 24 2 23 3 22 4 20 5 21 6 19 8 18 9 95 10 92 11 94 12
REMARK SMILES IDX 96 13 93 14 16 15 15 16 17 18 14 19 13 20 1 21 2 22 3 23
REMARK SMILES IDX 4 24 11 25 12 26 5 27 6 28 10 29 7 30 9 31 8 32 26 33 27 34
REMARK SMILES IDX 28 35 29 36 30 37 31 39 32 40 33 41 91 42 34 43 90 44 35 45
REMARK SMILES IDX 36 46 37 47 84 48 38 49 89 50 83 51 85 52 39 53 88 54 82 55
REMARK SMILES IDX 81 56 40 58 70 59 51 60 69 61 52 62 55 63 68 64 86 65 53 66
REMARK SMILES IDX 54 67 67 69 87 70 56 71 41 72 42 73 50 74 43 75 49 76 44 77
REMARK SMILES IDX 45 78 46 79 47 80 48 81 71 82 72 83 80 84 73 85 79 86 74 87
REMARK SMILES IDX 75 88 76 89 77 90 78 91 57 92 58 93 66 94 59 95 65 96 60 97
REMARK SMILES IDX 61 98 62 99 63 100 64 101
REMARK H PARENT 22 7 15 17 29 38 85 57 55 68
REMARK Flexibility Score: inf
ROOT
ATOM      1  C   UNL A   1      35.235  19.239  24.645  1.00  0.00     0.002 C 
ENDROOT
BRANCH   1   2
ATOM      2  C   UNL A   1      33.910  19.612  25.350  1.00  0.00     0.021 C 
BRANCH   2   3
ATOM      3  C   UNL A   1      32.605  19.379  24.556  1.00  0.00     0.116 C 
BRANCH   3   4
ATOM      4  N   UNL A   1      32.621  20.145  23.328  1.00  0.00    -0.356 N 
ATOM      5  C   UNL A   1      32.119  21.371  23.060  1.00  0.00     0.224 C 
ATOM      6  O   UNL A   1      31.472  21.440  22.009  1.00  0.00    -0.275 OA
ATOM      7  H   UNL A   1      33.069  19.705  22.570  1.00  0.00     0.163 HD
BRANCH   5   8
ATOM      8  C   UNL A   1      32.547  22.616  23.846  1.00  0.00     0.098 C 
ATOM      9  C   UNL A   1      31.640  23.913  23.793  1.00  0.00     0.098 C 
ATOM     10  C   UNL A   1      32.530  24.911  23.003  1.00  0.00     0.025 C 
ATOM     11  C   UNL A   1      33.832  23.110  23.107  1.00  0.00     0.025 C 
ATOM     12  C   UNL A   1      33.763  25.278  23.812  1.00  0.00    -0.027 C 
ATOM     13  C   UNL A   1      33.220  23.990  22.006  1.00  0.00     0.017 C 
ATOM     14  C   UNL A   1      34.515  24.178  23.917  1.00  0.00    -0.027 C 
BRANCH   9  15
ATOM     15  C   UNL A   1      31.174  24.331  25.200  1.00  0.00     0.224 C 
ATOM     16  N   UNL A   1      30.502  25.477  25.500  1.00  0.00    -0.352 N 
ATOM     17  H   UNL A   1      30.066  25.443  26.382  1.00  0.00     0.163 HD
ATOM     18  O   UNL A   1      31.313  23.536  26.140  1.00  0.00    -0.275 OA
BRANCH  16  19
ATOM     19  C   UNL A   1      30.281  26.735  24.811  1.00  0.00     0.155 C 
BRANCH  19  20
ATOM     20  C   UNL A   1      31.344  27.739  25.060  1.00  0.00     0.016 A 
ATOM     21  C   UNL A   1      31.587  28.685  22.631  1.00  0.00     0.069 C 
ATOM     22  C   UNL A   1      31.895  28.623  24.085  1.00  0.00     0.065 A 
ATOM     23  N   UNL A   1      32.719  29.522  24.630  1.00  0.00    -0.173 NA
ATOM     24  N   UNL A   1      32.797  29.167  25.935  1.00  0.00    -0.237 N 
ATOM     25  C   UNL A   1      31.866  28.194  26.257  1.00  0.00     0.046 A 
ATOM     26  C   UNL A   1      31.469  27.893  27.662  1.00  0.00     0.067 C 
BRANCH  24  27
ATOM     27  C   UNL A   1      33.694  29.802  26.820  1.00  0.00     0.065 A 
ATOM     28  C   UNL A   1      34.876  29.157  27.190  1.00  0.00     0.028 A 
ATOM     29  C   UNL A   1      33.428  31.110  27.248  1.00  0.00     0.028 A 
ATOM     30  C   UNL A   1      35.834  29.867  27.916  1.00  0.00     0.002 A 
ATOM     31  C   UNL A   1      34.374  31.796  28.001  1.00  0.00     0.002 A 
ATOM     32  C   UNL A   1      35.586  31.183  28.313  1.00  0.00     0.000 A 
ENDBRANCH  24  27
ENDBRANCH  19  20
ENDBRANCH  16  19
ENDBRANCH   9  15
ENDBRANCH   5   8
ENDBRANCH   3   4
ENDBRANCH   2   3
ENDBRANCH   1   2
BRANCH   1  33
ATOM     33  C   UNL A   1      36.486  20.048  25.025  1.00  0.00     0.002 C 
BRANCH  33  34
ATOM     34  C   UNL A   1      36.257  21.489  25.495  1.00  0.00     0.021 C 
BRANCH  34  35
ATOM     35  C   UNL A   1      37.530  22.279  25.766  1.00  0.00     0.116 C 
BRANCH  35  36
ATOM     36  N   UNL A   1      38.658  21.452  26.225  1.00  0.00    -0.352 N 
ATOM     37  C   UNL A   1      39.933  21.855  26.598  1.00  0.00     0.251 C 
ATOM     38  H   UNL A   1      38.485  20.484  26.274  1.00  0.00     0.163 HD
ATOM     39  O   UNL A   1      40.877  21.061  26.570  1.00  0.00    -0.269 OA
BRANCH  37  40
ATOM     40  C   UNL A   1      40.139  23.242  27.048  1.00  0.00     0.039 A 
ATOM     41  C   UNL A   1      39.201  24.271  26.893  1.00  0.00     0.014 A 
ATOM     42  C   UNL A   1      41.347  23.493  27.679  1.00  0.00     0.014 A 
ATOM     43  C   UNL A   1      39.492  25.529  27.432  1.00  0.00     0.010 A 
ATOM     44  C   UNL A   1      41.481  24.598  28.456  1.00  0.00     0.010 A 
ATOM     45  C   UNL A   1      40.645  25.675  28.212  1.00  0.00    -0.014 A 
BRANCH  45  46
ATOM     46  C   UNL A   1      41.061  26.910  28.858  1.00  0.00     0.031 A 
ATOM     47  C   UNL A   1      42.211  27.576  28.207  1.00  0.00     0.074 A 
ATOM     48  C   UNL A   1      40.229  27.557  29.710  1.00  0.00     0.049 A 
ATOM     49  N   UNL A   1      43.421  27.671  28.646  1.00  0.00    -0.248 NA
ATOM     50  C   UNL A   1      42.043  28.031  26.816  1.00  0.00     0.031 C 
ATOM     51  C   UNL A   1      38.871  27.156  30.122  1.00  0.00     0.029 A 
ATOM     52  N   UNL A   1      40.347  28.790  30.268  1.00  0.00    -0.354 N 
ATOM     53  C   UNL A   1      44.093  28.435  27.699  1.00  0.00     0.074 A 
ATOM     54  C   UNL A   1      43.294  28.375  26.504  1.00  0.00     0.031 C 
ATOM     55  C   UNL A   1      38.224  28.216  30.659  1.00  0.00     0.029 A 
ATOM     56  C   UNL A   1      39.163  29.314  30.784  1.00  0.00     0.049 A 
ATOM     57  H   UNL A   1      41.204  29.275  30.305  1.00  0.00     0.167 HD
ATOM     58  C   UNL A   1      45.062  29.324  28.062  1.00  0.00     0.031 A 
ATOM     59  C   UNL A   1      38.961  30.571  31.256  1.00  0.00     0.031 A 
ATOM     60  C   UNL A   1      45.415  29.166  29.453  1.00  0.00     0.049 A 
ATOM     61  C   UNL A   1      40.298  31.135  31.555  1.00  0.00     0.074 A 
ATOM     62  C   UNL A   1      45.927  28.145  30.227  1.00  0.00     0.029 A 
ATOM     63  N   UNL A   1      44.832  30.061  30.324  1.00  0.00    -0.354 N 
ATOM     64  N   UNL A   1      41.083  30.656  32.480  1.00  0.00    -0.248 NA
ATOM     65  C   UNL A   1      40.960  31.928  30.533  1.00  0.00     0.031 C 
ATOM     66  C   UNL A   1      45.259  28.260  31.482  1.00  0.00     0.029 A 
ATOM     67  C   UNL A   1      44.431  29.385  31.445  1.00  0.00     0.049 A 
ATOM     68  H   UNL A   1      44.722  31.026  30.165  1.00  0.00     0.167 HD
ATOM     69  C   UNL A   1      42.353  30.697  31.923  1.00  0.00     0.074 A 
ATOM     70  C   UNL A   1      42.233  31.607  30.786  1.00  0.00     0.031 C 
ATOM     71  C   UNL A   1      43.295  29.766  32.263  1.00  0.00     0.031 A 
BRANCH  58  72
ATOM     72  C   UNL A   1      45.352  30.615  27.326  1.00  0.00    -0.014 A 
ATOM     73  C   UNL A   1      46.691  30.907  26.992  1.00  0.00     0.010 A 
ATOM     74  C   UNL A   1      44.423  31.666  27.192  1.00  0.00     0.010 A 
ATOM     75  C   UNL A   1      47.089  32.203  26.640  1.00  0.00     0.020 A 
ATOM     76  C   UNL A   1      44.800  32.951  26.798  1.00  0.00     0.020 A 
ATOM     77  C   UNL A   1      46.140  33.221  26.565  1.00  0.00     0.054 A 
BRANCH  77  78
ATOM     78  S   UNL A   1      46.676  34.917  26.238  1.00  0.00     0.124 S 
ATOM     79  O   UNL A   1      47.410  34.760  24.987  1.00  0.00    -0.237 OA
ATOM     80  O   UNL A   1      45.406  35.630  26.145  1.00  0.00    -0.237 OA
ATOM     81  O   UNL A   1      47.490  35.247  27.405  1.00  0.00    -0.744 OA
ENDBRANCH  77  78
ENDBRANCH  58  72
BRANCH  59  82
ATOM     82  C   UNL A   1      37.727  31.398  31.221  1.00  0.00    -0.014 A 
ATOM     83  C   UNL A   1      36.537  30.980  31.848  1.00  0.00     0.010 A 
ATOM     84  C   UNL A   1      37.803  32.741  30.797  1.00  0.00     0.010 A 
ATOM     85  C   UNL A   1      35.485  31.885  32.089  1.00  0.00     0.020 A 
ATOM     86  C   UNL A   1      36.759  33.647  31.032  1.00  0.00     0.020 A 
ATOM     87  C   UNL A   1      35.613  33.220  31.697  1.00  0.00     0.054 A 
BRANCH  87  88
ATOM     88  S   UNL A   1      34.326  34.422  32.158  1.00  0.00     0.124 S 
ATOM     89  O   UNL A   1      33.636  34.644  30.891  1.00  0.00    -0.237 OA
ATOM     90  O   UNL A   1      33.565  33.702  33.175  1.00  0.00    -0.237 OA
ATOM     91  O   UNL A   1      35.088  35.567  32.657  1.00  0.00    -0.744 OA
ENDBRANCH  87  88
ENDBRANCH  59  82
BRANCH  71  92
ATOM     92  C   UNL A   1      43.033  28.912  33.485  1.00  0.00    -0.014 A 
ATOM     93  C   UNL A   1      43.154  29.373  34.811  1.00  0.00     0.010 A 
ATOM     94  C   UNL A   1      42.509  27.626  33.268  1.00  0.00     0.010 A 
ATOM     95  C   UNL A   1      42.785  28.554  35.892  1.00  0.00     0.020 A 
ATOM     96  C   UNL A   1      42.124  26.815  34.337  1.00  0.00     0.020 A 
ATOM     97  C   UNL A   1      42.273  27.278  35.644  1.00  0.00     0.054 A 
BRANCH  97  98
ATOM     98  S   UNL A   1      41.764  26.231  37.038  1.00  0.00     0.124 S 
ATOM     99  O   UNL A   1      41.607  24.922  36.410  1.00  0.00    -0.237 OA
ATOM    100  O   UNL A   1      42.885  26.356  37.966  1.00  0.00    -0.237 OA
ATOM    101  O   UNL A   1      40.520  26.847  37.498  1.00  0.00    -0.744 OA
ENDBRANCH  97  98
ENDBRANCH  71  92
ENDBRANCH  45  46
ENDBRANCH  37  40
ENDBRANCH  35  36
ENDBRANCH  34  35
ENDBRANCH  33  34
ENDBRANCH   1  33
TORSDOF 20
ENDMDL
MODEL 2
REMARK VINA RESULT:     -12.3      2.341      9.582
REMARK SMILES Cc1nn(-c2ccccc2)c(C)c1CNC(=O)[C@@H]1[C@@H](C(=O)NCCCCCCNC(=O)c2ccc(-c3c4nc(c(-c5ccc(S(=O)(=O)[O-])cc5)c5ccc([nH]5)c(-c5ccc(S(=O)(=O)[O-])cc5)c5nc(c(-c6ccc(S(=O)(=O)[O-])cc6)c6ccc3[nH]6)C=C5)C=C4)cc2)[C@@H]2C=C[C@H]1C2
REMARK SMILES IDX 25 1 24 2 23 3 22 4 20 5 21 6 19 8 18 9 95 10 92 11 94 12
REMARK SMILES IDX 96 13 93 14 16 15 15 16 17 18 14 19 13 20 1 21 2 22 3 23
REMARK SMILES IDX 4 24 11 25 12 26 5 27 6 28 10 29 7 30 9 31 8 32 26 33 27 34
REMARK SMILES IDX 28 35 29 36 30 37 31 39 32 40 33 41 91 42 34 43 90 44 35 45
REMARK SMILES IDX 36 46 37 47 84 48 38 49 89 50 83 51 85 52 39 53 88 54 82 55
REMARK SMILES IDX 81 56 40 58 70 59 51 60 69 61 52 62 55 63 68 64 86 65 53 66
REMARK SMILES IDX 54 67 67 69 87 70 56 71 41 72 42 73 50 74 43 75 49 76 44 77
REMARK SMILES IDX 45 78 46 79 47 80 48 81 71 82 72 83 80 84 73 85 79 86 74 87
REMARK SMILES IDX 75 88 76 89 77 90 78 91 57 92 58 93 66 94 59 95 65 96 60 97
REMARK SMILES IDX 61 98 62 99 63 100 64 101
REMARK H PARENT 22 7 15 17 29 38 85 57 55 68
REMARK Flexibility Score: inf
ROOT
ATOM      1  C   UNL A   1      36.220  30.926  27.605  1.00  0.00     0.002 C 
ENDROOT
BRANCH   1   2
ATOM      2  C   UNL A   1      35.381  29.823  28.291  1.00  0.00     0.021 C 
BRANCH   2   3
ATOM      3  C   UNL A   1      34.348  29.081  27.413  1.00  0.00     0.116 C 
BRANCH   3   4
ATOM      4  N   UNL A   1      33.031  29.654  27.595  1.00  0.00    -0.356 N 
ATOM      5  C   UNL A   1      32.041  29.860  26.700  1.00  0.00     0.224 C 
ATOM      6  O   UNL A   1      31.524  30.981  26.757  1.00  0.00    -0.275 OA
ATOM      7  H   UNL A   1      32.825  29.936  28.516  1.00  0.00     0.163 HD
BRANCH   5   8
ATOM      8  C   UNL A   1      31.433  28.715  25.880  1.00  0.00     0.098 C 
ATOM      9  C   UNL A   1      32.310  27.434  25.572  1.00  0.00     0.098 C 
ATOM     10  C   UNL A   1      32.530  27.540  24.038  1.00  0.00     0.025 C 
ATOM     11  C   UNL A   1      31.260  29.320  24.449  1.00  0.00     0.025 C 
ATOM     12  C   UNL A   1      31.215  27.352  23.300  1.00  0.00    -0.027 C 
ATOM     13  C   UNL A   1      32.647  29.045  23.844  1.00  0.00     0.017 C 
ATOM     14  C   UNL A   1      30.437  28.397  23.594  1.00  0.00    -0.027 C 
BRANCH   9  15
ATOM     15  C   UNL A   1      31.645  26.154  26.111  1.00  0.00     0.224 C 
ATOM     16  N   UNL A   1      32.303  25.024  26.492  1.00  0.00    -0.352 N 
ATOM     17  H   UNL A   1      31.748  24.428  27.046  1.00  0.00     0.163 HD
ATOM     18  O   UNL A   1      30.425  26.157  26.329  1.00  0.00    -0.275 OA
BRANCH  16  19
ATOM     19  C   UNL A   1      33.638  24.501  26.266  1.00  0.00     0.155 C 
BRANCH  19  20
ATOM     20  C   UNL A   1      33.656  23.257  25.459  1.00  0.00     0.016 A 
ATOM     21  C   UNL A   1      33.932  24.320  23.082  1.00  0.00     0.069 C 
ATOM     22  C   UNL A   1      33.818  23.190  24.043  1.00  0.00     0.065 A 
ATOM     23  N   UNL A   1      33.953  21.933  23.611  1.00  0.00    -0.173 NA
ATOM     24  N   UNL A   1      33.773  21.171  24.716  1.00  0.00    -0.237 N 
ATOM     25  C   UNL A   1      33.743  21.940  25.868  1.00  0.00     0.046 A 
ATOM     26  C   UNL A   1      33.938  21.360  27.227  1.00  0.00     0.067 C 
BRANCH  24  27
ATOM     27  C   UNL A   1      33.702  19.764  24.638  1.00  0.00     0.065 A 
ATOM     28  C   UNL A   1      32.461  19.140  24.495  1.00  0.00     0.028 A 
ATOM     29  C   UNL A   1      34.887  19.016  24.617  1.00  0.00     0.028 A 
ATOM     30  C   UNL A   1      32.420  17.769  24.238  1.00  0.00     0.002 A 
ATOM     31  C   UNL A   1      34.833  17.644  24.395  1.00  0.00     0.002 A 
ATOM     32  C   UNL A   1      33.602  17.026  24.181  1.00  0.00     0.000 A 
ENDBRANCH  24  27
ENDBRANCH  19  20
ENDBRANCH  16  19
ENDBRANCH   9  15
ENDBRANCH   5   8
ENDBRANCH   3   4
ENDBRANCH   2   3
ENDBRANCH   1   2
BRANCH   1  33
ATOM     33  C   UNL A   1      35.854  32.386  27.918  1.00  0.00     0.002 C 
BRANCH  33  34
ATOM     34  C   UNL A   1      34.483  32.629  28.561  1.00  0.00     0.021 C 
BRANCH  34  35
ATOM     35  C   UNL A   1      34.346  33.963  29.281  1.00  0.00     0.116 C 
BRANCH  35  36
ATOM     36  N   UNL A   1      34.026  33.837  30.713  1.00  0.00    -0.352 N 
ATOM     37  C   UNL A   1      34.633  33.033  31.668  1.00  0.00     0.251 C 
ATOM     38  H   UNL A   1      33.284  34.396  31.036  1.00  0.00     0.163 HD
ATOM     39  O   UNL A   1      34.035  32.722  32.701  1.00  0.00    -0.269 OA
BRANCH  37  40
ATOM     40  C   UNL A   1      36.015  32.574  31.440  1.00  0.00     0.039 A 
ATOM     41  C   UNL A   1      37.119  33.424  31.303  1.00  0.00     0.014 A 
ATOM     42  C   UNL A   1      36.186  31.199  31.387  1.00  0.00     0.014 A 
ATOM     43  C   UNL A   1      38.389  32.856  31.163  1.00  0.00     0.010 A 
ATOM     44  C   UNL A   1      37.423  30.671  31.567  1.00  0.00     0.010 A 
ATOM     45  C   UNL A   1      38.522  31.469  31.296  1.00  0.00    -0.014 A 
BRANCH  45  46
ATOM     46  C   UNL A   1      39.779  30.742  31.204  1.00  0.00     0.031 A 
ATOM     47  C   UNL A   1      40.428  30.491  32.509  1.00  0.00     0.074 A 
ATOM     48  C   UNL A   1      40.092  30.043  30.085  1.00  0.00     0.049 A 
ATOM     49  N   UNL A   1      41.499  31.039  32.977  1.00  0.00    -0.248 NA
ATOM     50  C   UNL A   1      39.701  29.667  33.491  1.00  0.00     0.031 C 
ATOM     51  C   UNL A   1      39.296  29.915  28.850  1.00  0.00     0.029 A 
ATOM     52  N   UNL A   1      41.108  29.169  29.866  1.00  0.00    -0.354 N 
ATOM     53  C   UNL A   1      41.718  30.422  34.204  1.00  0.00     0.074 A 
ATOM     54  C   UNL A   1      40.462  29.825  34.575  1.00  0.00     0.031 C 
ATOM     55  C   UNL A   1      39.736  28.857  28.131  1.00  0.00     0.029 A 
ATOM     56  C   UNL A   1      40.937  28.340  28.759  1.00  0.00     0.049 A 
ATOM     57  H   UNL A   1      41.904  29.125  30.445  1.00  0.00     0.167 HD
ATOM     58  C   UNL A   1      42.980  30.160  34.651  1.00  0.00     0.031 A 
ATOM     59  C   UNL A   1      41.712  27.285  28.397  1.00  0.00     0.031 A 
ATOM     60  C   UNL A   1      43.969  30.805  33.819  1.00  0.00     0.049 A 
ATOM     61  C   UNL A   1      43.006  27.446  29.100  1.00  0.00     0.074 A 
ATOM     62  C   UNL A   1      44.260  32.107  33.470  1.00  0.00     0.029 A 
ATOM     63  N   UNL A   1      44.570  30.003  32.875  1.00  0.00    -0.354 N 
ATOM     64  N   UNL A   1      43.825  28.434  28.869  1.00  0.00    -0.248 NA
ATOM     65  C   UNL A   1      43.188  26.780  30.380  1.00  0.00     0.031 C 
ATOM     66  C   UNL A   1      44.660  32.044  32.103  1.00  0.00     0.029 A 
ATOM     67  C   UNL A   1      44.670  30.704  31.702  1.00  0.00     0.049 A 
ATOM     68  H   UNL A   1      44.877  29.079  33.018  1.00  0.00     0.167 HD
ATOM     69  C   UNL A   1      44.302  28.800  30.120  1.00  0.00     0.074 A 
ATOM     70  C   UNL A   1      43.981  27.669  30.987  1.00  0.00     0.031 C 
ATOM     71  C   UNL A   1      44.642  30.097  30.385  1.00  0.00     0.031 A 
BRANCH  58  72
ATOM     72  C   UNL A   1      43.346  28.977  35.522  1.00  0.00    -0.014 A 
ATOM     73  C   UNL A   1      44.076  29.218  36.704  1.00  0.00     0.010 A 
ATOM     74  C   UNL A   1      43.247  27.634  35.103  1.00  0.00     0.010 A 
ATOM     75  C   UNL A   1      44.749  28.186  37.371  1.00  0.00     0.020 A 
ATOM     76  C   UNL A   1      43.875  26.591  35.784  1.00  0.00     0.020 A 
ATOM     77  C   UNL A   1      44.658  26.880  36.891  1.00  0.00     0.054 A 
BRANCH  77  78
ATOM     78  S   UNL A   1      45.631  25.573  37.675  1.00  0.00     0.124 S 
ATOM     79  O   UNL A   1      44.587  24.680  38.168  1.00  0.00    -0.237 OA
ATOM     80  O   UNL A   1      46.426  25.068  36.560  1.00  0.00    -0.237 OA
ATOM     81  O   UNL A   1      46.386  26.283  38.705  1.00  0.00    -0.744 OA
ENDBRANCH  77  78
ENDBRANCH  58  72
BRANCH  59  82
ATOM     82  C   UNL A   1      41.323  26.031  27.702  1.00  0.00    -0.014 A 
ATOM     83  C   UNL A   1      42.204  25.364  26.829  1.00  0.00     0.010 A 
ATOM     84  C   UNL A   1      40.167  25.338  28.115  1.00  0.00     0.010 A 
ATOM     85  C   UNL A   1      41.965  24.035  26.429  1.00  0.00     0.020 A 
ATOM     86  C   UNL A   1      39.920  24.015  27.720  1.00  0.00     0.020 A 
ATOM     87  C   UNL A   1      40.832  23.362  26.895  1.00  0.00     0.054 A 
BRANCH  87  88
ATOM     88  S   UNL A   1      40.613  21.595  26.513  1.00  0.00     0.124 S 
ATOM     89  O   UNL A   1      40.658  20.981  27.837  1.00  0.00    -0.237 OA
ATOM     90  O   UNL A   1      39.314  21.571  25.849  1.00  0.00    -0.237 OA
ATOM     91  O   UNL A   1      41.752  21.287  25.648  1.00  0.00    -0.744 OA
ENDBRANCH  87  88
ENDBRANCH  59  82
BRANCH  71  92
ATOM     92  C   UNL A   1      44.803  31.038  29.211  1.00  0.00    -0.014 A 
ATOM     93  C   UNL A   1      43.752  31.800  28.661  1.00  0.00     0.010 A 
ATOM     94  C   UNL A   1      46.107  31.259  28.738  1.00  0.00     0.010 A 
ATOM     95  C   UNL A   1      44.002  32.737  27.644  1.00  0.00     0.020 A 
ATOM     96  C   UNL A   1      46.364  32.201  27.741  1.00  0.00     0.020 A 
ATOM     97  C   UNL A   1      45.309  32.928  27.190  1.00  0.00     0.054 A 
BRANCH  97  98
ATOM     98  S   UNL A   1      45.639  34.163  25.900  1.00  0.00     0.124 S 
ATOM     99  O   UNL A   1      44.784  33.712  24.805  1.00  0.00    -0.237 OA
ATOM    100  O   UNL A   1      45.239  35.415  26.538  1.00  0.00    -0.237 OA
ATOM    101  O   UNL A   1      47.074  34.034  25.654  1.00  0.00    -0.744 OA
ENDBRANCH  97  98
ENDBRANCH  71  92
ENDBRANCH  45  46
ENDBRANCH  37  40
ENDBRANCH  35  36
ENDBRANCH  34  35
ENDBRANCH  33  34
ENDBRANCH   1  33
TORSDOF 20
ENDMDL
MODEL 3
REMARK VINA RESULT:     -11.9      2.552      8.878
REMARK SMILES Cc1nn(-c2ccccc2)c(C)c1CNC(=O)[C@@H]1[C@@H](C(=O)NCCCCCCNC(=O)c2ccc(-c3c4nc(c(-c5ccc(S(=O)(=O)[O-])cc5)c5ccc([nH]5)c(-c5ccc(S(=O)(=O)[O-])cc5)c5nc(c(-c6ccc(S(=O)(=O)[O-])cc6)c6ccc3[nH]6)C=C5)C=C4)cc2)[C@@H]2C=C[C@H]1C2
REMARK SMILES IDX 25 1 24 2 23 3 22 4 20 5 21 6 19 8 18 9 95 10 92 11 94 12
REMARK SMILES IDX 96 13 93 14 16 15 15 16 17 18 14 19 13 20 1 21 2 22 3 23
REMARK SMILES IDX 4 24 11 25 12 26 5 27 6 28 10 29 7 30 9 31 8 32 26 33 27 34
REMARK SMILES IDX 28 35 29 36 30 37 31 39 32 40 33 41 91 42 34 43 90 44 35 45
REMARK SMILES IDX 36 46 37 47 84 48 38 49 89 50 83 51 85 52 39 53 88 54 82 55
REMARK SMILES IDX 81 56 40 58 70 59 51 60 69 61 52 62 55 63 68 64 86 65 53 66
REMARK SMILES IDX 54 67 67 69 87 70 56 71 41 72 42 73 50 74 43 75 49 76 44 77
REMARK SMILES IDX 45 78 46 79 47 80 48 81 71 82 72 83 80 84 73 85 79 86 74 87
REMARK SMILES IDX 75 88 76 89 77 90 78 91 57 92 58 93 66 94 59 95 65 96 60 97
REMARK SMILES IDX 61 98 62 99 63 100 64 101
REMARK H PARENT 22 7 15 17 29 38 85 57 55 68
REMARK Flexibility Score: inf
ROOT
ATOM      1  C   UNL A   1      34.662  29.125  27.000  1.00  0.00     0.002 C 
ENDROOT
BRANCH   1   2
ATOM      2  C   UNL A   1      33.151  28.872  27.210  1.00  0.00     0.021 C 
BRANCH   2   3
ATOM      3  C   UNL A   1      32.543  27.639  26.505  1.00  0.00     0.116 C 
BRANCH   3   4
ATOM      4  N   UNL A   1      33.534  27.002  25.664  1.00  0.00    -0.356 N 
ATOM      5  C   UNL A   1      33.985  25.728  25.664  1.00  0.00     0.224 C 
ATOM      6  O   UNL A   1      35.215  25.621  25.609  1.00  0.00    -0.275 OA
ATOM      7  H   UNL A   1      33.942  27.588  24.986  1.00  0.00     0.163 HD
BRANCH   5   8
ATOM      8  C   UNL A   1      33.046  24.531  25.470  1.00  0.00     0.098 C 
ATOM      9  C   UNL A   1      32.124  24.069  26.671  1.00  0.00     0.098 C 
ATOM     10  C   UNL A   1      32.734  22.691  27.049  1.00  0.00     0.025 C 
ATOM     11  C   UNL A   1      34.009  23.308  25.334  1.00  0.00     0.025 C 
ATOM     12  C   UNL A   1      32.517  21.689  25.926  1.00  0.00    -0.027 C 
ATOM     13  C   UNL A   1      34.218  22.932  26.810  1.00  0.00     0.017 C 
ATOM     14  C   UNL A   1      33.244  22.095  24.882  1.00  0.00    -0.027 C 
BRANCH   9  15
ATOM     15  C   UNL A   1      30.634  24.108  26.284  1.00  0.00     0.224 C 
ATOM     16  N   UNL A   1      30.151  24.149  25.011  1.00  0.00    -0.352 N 
ATOM     17  H   UNL A   1      29.199  23.904  24.957  1.00  0.00     0.163 HD
ATOM     18  O   UNL A   1      29.779  23.987  27.172  1.00  0.00    -0.275 OA
BRANCH  16  19
ATOM     19  C   UNL A   1      30.724  24.470  23.716  1.00  0.00     0.155 C 
BRANCH  19  20
ATOM     20  C   UNL A   1      30.630  25.909  23.370  1.00  0.00     0.016 A 
ATOM     21  C   UNL A   1      32.852  26.143  22.006  1.00  0.00     0.069 C 
ATOM     22  C   UNL A   1      31.571  26.634  22.580  1.00  0.00     0.065 A 
ATOM     23  N   UNL A   1      31.146  27.870  22.301  1.00  0.00    -0.173 NA
ATOM     24  N   UNL A   1      29.987  27.996  22.990  1.00  0.00    -0.237 N 
ATOM     25  C   UNL A   1      29.572  26.786  23.520  1.00  0.00     0.046 A 
ATOM     26  C   UNL A   1      28.177  26.548  23.986  1.00  0.00     0.067 C 
BRANCH  24  27
ATOM     27  C   UNL A   1      29.302  29.228  23.061  1.00  0.00     0.065 A 
ATOM     28  C   UNL A   1      29.718  30.201  23.972  1.00  0.00     0.028 A 
ATOM     29  C   UNL A   1      28.265  29.491  22.155  1.00  0.00     0.028 A 
ATOM     30  C   UNL A   1      29.151  31.474  23.905  1.00  0.00     0.002 A 
ATOM     31  C   UNL A   1      27.682  30.753  22.121  1.00  0.00     0.002 A 
ATOM     32  C   UNL A   1      28.142  31.750  22.979  1.00  0.00     0.000 A 
ENDBRANCH  24  27
ENDBRANCH  19  20
ENDBRANCH  16  19
ENDBRANCH   9  15
ENDBRANCH   5   8
ENDBRANCH   3   4
ENDBRANCH   2   3
ENDBRANCH   1   2
BRANCH   1  33
ATOM     33  C   UNL A   1      35.256  30.398  27.626  1.00  0.00     0.002 C 
BRANCH  33  34
ATOM     34  C   UNL A   1      34.265  31.504  28.008  1.00  0.00     0.021 C 
BRANCH  34  35
ATOM     35  C   UNL A   1      34.910  32.812  28.447  1.00  0.00     0.116 C 
BRANCH  35  36
ATOM     36  N   UNL A   1      34.534  33.234  29.806  1.00  0.00    -0.352 N 
ATOM     37  C   UNL A   1      34.878  32.655  31.020  1.00  0.00     0.251 C 
ATOM     38  H   UNL A   1      33.963  34.034  29.862  1.00  0.00     0.163 HD
ATOM     39  O   UNL A   1      34.192  32.850  32.026  1.00  0.00    -0.269 OA
BRANCH  37  40
ATOM     40  C   UNL A   1      36.087  31.817  31.093  1.00  0.00     0.039 A 
ATOM     41  C   UNL A   1      36.078  30.421  31.200  1.00  0.00     0.014 A 
ATOM     42  C   UNL A   1      37.292  32.500  31.025  1.00  0.00     0.014 A 
ATOM     43  C   UNL A   1      37.299  29.739  31.187  1.00  0.00     0.010 A 
ATOM     44  C   UNL A   1      38.426  31.828  30.700  1.00  0.00     0.010 A 
ATOM     45  C   UNL A   1      38.470  30.465  30.937  1.00  0.00    -0.014 A 
BRANCH  45  46
ATOM     46  C   UNL A   1      39.804  29.890  30.865  1.00  0.00     0.031 A 
ATOM     47  C   UNL A   1      40.474  29.750  32.177  1.00  0.00     0.074 A 
ATOM     48  C   UNL A   1      40.202  29.206  29.764  1.00  0.00     0.049 A 
ATOM     49  N   UNL A   1      41.470  30.433  32.631  1.00  0.00    -0.248 NA
ATOM     50  C   UNL A   1      39.845  28.870  33.178  1.00  0.00     0.031 C 
ATOM     51  C   UNL A   1      39.432  28.954  28.532  1.00  0.00     0.029 A 
ATOM     52  N   UNL A   1      41.315  28.453  29.568  1.00  0.00    -0.354 N 
ATOM     53  C   UNL A   1      41.756  29.876  33.873  1.00  0.00     0.074 A 
ATOM     54  C   UNL A   1      40.578  29.144  34.258  1.00  0.00     0.031 C 
ATOM     55  C   UNL A   1      39.996  27.938  27.840  1.00  0.00     0.029 A 
ATOM     56  C   UNL A   1      41.247  27.582  28.481  1.00  0.00     0.049 A 
ATOM     57  H   UNL A   1      42.109  28.518  30.148  1.00  0.00     0.167 HD
ATOM     58  C   UNL A   1      43.038  29.777  34.328  1.00  0.00     0.031 A 
ATOM     59  C   UNL A   1      42.143  26.618  28.147  1.00  0.00     0.031 A 
ATOM     60  C   UNL A   1      43.947  30.513  33.481  1.00  0.00     0.049 A 
ATOM     61  C   UNL A   1      43.407  26.949  28.847  1.00  0.00     0.074 A 
ATOM     62  C   UNL A   1      44.084  31.832  33.100  1.00  0.00     0.029 A 
ATOM     63  N   UNL A   1      44.643  29.765  32.557  1.00  0.00    -0.354 N 
ATOM     64  N   UNL A   1      44.104  28.021  28.591  1.00  0.00    -0.248 NA
ATOM     65  C   UNL A   1      43.661  26.340  30.143  1.00  0.00     0.031 C 
ATOM     66  C   UNL A   1      44.494  31.782  31.735  1.00  0.00     0.029 A 
ATOM     67  C   UNL A   1      44.663  30.444  31.368  1.00  0.00     0.049 A 
ATOM     68  H   UNL A   1      45.057  28.887  32.724  1.00  0.00     0.167 HD
ATOM     69  C   UNL A   1      44.530  28.471  29.833  1.00  0.00     0.074 A 
ATOM     70  C   UNL A   1      44.341  27.332  30.728  1.00  0.00     0.031 C 
ATOM     71  C   UNL A   1      44.713  29.805  30.067  1.00  0.00     0.031 A 
BRANCH  58  72
ATOM     72  C   UNL A   1      43.538  28.667  35.229  1.00  0.00    -0.014 A 
ATOM     73  C   UNL A   1      44.293  29.019  36.366  1.00  0.00     0.010 A 
ATOM     74  C   UNL A   1      43.536  27.304  34.869  1.00  0.00     0.010 A 
ATOM     75  C   UNL A   1      45.078  28.076  37.043  1.00  0.00     0.020 A 
ATOM     76  C   UNL A   1      44.278  26.347  35.562  1.00  0.00     0.020 A 
ATOM     77  C   UNL A   1      45.078  26.747  36.621  1.00  0.00     0.054 A 
BRANCH  77  78
ATOM     78  S   UNL A   1      46.190  25.562  37.413  1.00  0.00     0.124 S 
ATOM     79  O   UNL A   1      47.204  26.441  37.984  1.00  0.00    -0.237 OA
ATOM     80  O   UNL A   1      45.306  24.903  38.371  1.00  0.00    -0.237 OA
ATOM     81  O   UNL A   1      46.638  24.722  36.305  1.00  0.00    -0.744 OA
ENDBRANCH  77  78
ENDBRANCH  58  72
BRANCH  59  82
ATOM     82  C   UNL A   1      41.908  25.310  27.483  1.00  0.00    -0.014 A 
ATOM     83  C   UNL A   1      42.822  24.776  26.554  1.00  0.00     0.010 A 
ATOM     84  C   UNL A   1      40.903  24.452  27.975  1.00  0.00     0.010 A 
ATOM     85  C   UNL A   1      42.766  23.421  26.175  1.00  0.00     0.020 A 
ATOM     86  C   UNL A   1      40.839  23.102  27.601  1.00  0.00     0.020 A 
ATOM     87  C   UNL A   1      41.785  22.587  26.718  1.00  0.00     0.054 A 
BRANCH  87  88
ATOM     88  S   UNL A   1      41.817  20.803  26.357  1.00  0.00     0.124 S 
ATOM     89  O   UNL A   1      42.813  20.717  25.293  1.00  0.00    -0.237 OA
ATOM     90  O   UNL A   1      42.208  20.224  27.638  1.00  0.00    -0.237 OA
ATOM     91  O   UNL A   1      40.444  20.512  25.944  1.00  0.00    -0.744 OA
ENDBRANCH  87  88
ENDBRANCH  59  82
BRANCH  71  92
ATOM     92  C   UNL A   1      44.765  30.730  28.869  1.00  0.00    -0.014 A 
ATOM     93  C   UNL A   1      43.643  31.396  28.336  1.00  0.00     0.010 A 
ATOM     94  C   UNL A   1      46.035  31.040  28.353  1.00  0.00     0.010 A 
ATOM     95  C   UNL A   1      43.789  32.326  27.293  1.00  0.00     0.020 A 
ATOM     96  C   UNL A   1      46.188  31.977  27.329  1.00  0.00     0.020 A 
ATOM     97  C   UNL A   1      45.064  32.607  26.796  1.00  0.00     0.054 A 
BRANCH  97  98
ATOM     98  S   UNL A   1      45.259  33.835  25.472  1.00  0.00     0.124 S 
ATOM     99  O   UNL A   1      46.707  34.004  25.407  1.00  0.00    -0.237 OA
ATOM    100  O   UNL A   1      44.650  33.171  24.321  1.00  0.00    -0.237 OA
ATOM    101  O   UNL A   1      44.523  34.998  25.965  1.00  0.00    -0.744 OA
ENDBRANCH  97  98
ENDBRANCH  71  92
ENDBRANCH  45  46
ENDBRANCH  37  40
ENDBRANCH  35  36
ENDBRANCH  34  35
ENDBRANCH  33  34
ENDBRANCH   1  33
TORSDOF 20
ENDMDL
