MODEL 1
REMARK VINA RESULT:      -9.7      0.000      0.000
REMARK SMILES CCC[NH+](CCC)[C@@H]1[C@@H]2CC[C@@H](C2)[C@@H]1C(=O)NCCCCCCNC(=O)c1ccc(-c2c3nc(c(-c4ccc(S(=O)(=O)[O-])cc4)c4ccc([nH]4)c(-c4ccc(S(=O)(=O)[O-])cc4)c4nc(c(-c5ccc(S(=O)(=O)[O-])cc5)c5ccc2[nH]5)C=C4)C=C3)cc1
REMARK SMILES IDX 20 1 19 2 18 3 17 4 15 5 16 6 14 8 8 9 9 10 10 11 13 12
REMARK SMILES IDX 12 13 11 14 4 15 3 17 2 18 1 19 5 20 6 21 7 22 21 23 22 24
REMARK SMILES IDX 23 25 24 26 25 27 26 29 27 30 28 31 86 32 29 33 85 34 30 35
REMARK SMILES IDX 31 36 32 37 79 38 33 39 84 40 78 41 80 42 34 43 83 44 77 45
REMARK SMILES IDX 76 46 35 48 65 49 46 50 64 51 47 52 50 53 63 54 81 55 48 56
REMARK SMILES IDX 49 57 62 59 82 60 51 61 36 62 37 63 45 64 38 65 44 66 39 67
REMARK SMILES IDX 40 68 41 69 42 70 43 71 66 72 67 73 75 74 68 75 74 76 69 77
REMARK SMILES IDX 70 78 71 79 72 80 73 81 52 82 53 83 61 84 54 85 60 86 55 87
REMARK SMILES IDX 56 88 57 89 58 90 59 91
REMARK H PARENT 17 7 4 16 24 28 80 47 50 58
REMARK Flexibility Score: inf
ROOT
ATOM      1  C   UNL A   1      31.041  27.509  25.162  1.00  0.00     0.002 C 
ENDROOT
BRANCH   1   2
ATOM      2  C   UNL A   1      30.121  26.287  25.246  1.00  0.00     0.021 C 
BRANCH   2   3
ATOM      3  C   UNL A   1      30.451  25.156  24.278  1.00  0.00     0.116 C 
BRANCH   3   4
ATOM      4  N   UNL A   1      30.262  23.846  24.872  1.00  0.00    -0.356 N 
ATOM      5  C   UNL A   1      31.098  23.086  25.634  1.00  0.00     0.229 C 
ATOM      6  O   UNL A   1      30.592  22.128  26.220  1.00  0.00    -0.275 OA
ATOM      7  H   UNL A   1      29.384  23.438  24.694  1.00  0.00     0.163 HD
BRANCH   5   8
ATOM      8  C   UNL A   1      32.571  23.441  25.731  1.00  0.00     0.140 C 
ATOM      9  C   UNL A   1      33.618  23.293  24.548  1.00  0.00     0.200 C 
ATOM     10  C   UNL A   1      34.821  22.682  25.364  1.00  0.00     0.049 C 
ATOM     11  C   UNL A   1      34.565  21.195  25.665  1.00  0.00     0.010 C 
ATOM     12  C   UNL A   1      34.674  23.290  26.762  1.00  0.00     0.014 C 
ATOM     13  C   UNL A   1      33.258  22.756  26.938  1.00  0.00     0.008 C 
ATOM     14  C   UNL A   1      33.468  21.249  26.725  1.00  0.00     0.005 C 
BRANCH   9  15
ATOM     15  N   UNL A   1      33.440  22.556  23.261  1.00  0.00    -0.332 N 
ATOM     16  H   UNL A   1      34.166  21.839  23.301  1.00  0.00     0.348 HD
BRANCH  15  17
ATOM     17  C   UNL A   1      33.646  23.426  22.069  1.00  0.00     0.262 C 
BRANCH  17  18
ATOM     18  C   UNL A   1      32.806  24.700  21.902  1.00  0.00     0.058 C 
ATOM     19  C   UNL A   1      33.560  25.983  22.223  1.00  0.00     0.010 C 
ENDBRANCH  17  18
ENDBRANCH  15  17
BRANCH  15  20
ATOM     20  C   UNL A   1      32.137  21.879  23.121  1.00  0.00     0.262 C 
BRANCH  20  21
ATOM     21  C   UNL A   1      32.171  20.475  22.484  1.00  0.00     0.058 C 
ATOM     22  C   UNL A   1      32.390  19.375  23.513  1.00  0.00     0.010 C 
ENDBRANCH  20  21
ENDBRANCH  15  20
ENDBRANCH   9  15
ENDBRANCH   5   8
ENDBRANCH   3   4
ENDBRANCH   2   3
ENDBRANCH   1   2
BRANCH   1  23
ATOM     23  C   UNL A   1      31.714  27.926  26.473  1.00  0.00     0.002 C 
BRANCH  23  24
ATOM     24  C   UNL A   1      33.219  27.667  26.552  1.00  0.00     0.021 C 
BRANCH  24  25
ATOM     25  C   UNL A   1      34.088  28.734  25.899  1.00  0.00     0.116 C 
BRANCH  25  26
ATOM     26  N   UNL A   1      33.782  30.069  26.382  1.00  0.00    -0.352 N 
ATOM     27  C   UNL A   1      34.382  30.788  27.389  1.00  0.00     0.251 C 
ATOM     28  H   UNL A   1      33.040  30.525  25.923  1.00  0.00     0.163 HD
ATOM     29  O   UNL A   1      33.875  31.831  27.785  1.00  0.00    -0.269 OA
BRANCH  27  30
ATOM     30  C   UNL A   1      35.627  30.283  28.007  1.00  0.00     0.039 A 
ATOM     31  C   UNL A   1      36.837  30.455  27.331  1.00  0.00     0.014 A 
ATOM     32  C   UNL A   1      35.602  29.647  29.253  1.00  0.00     0.014 A 
ATOM     33  C   UNL A   1      38.030  30.045  27.934  1.00  0.00     0.010 A 
ATOM     34  C   UNL A   1      36.797  29.314  29.884  1.00  0.00     0.010 A 
ATOM     35  C   UNL A   1      38.023  29.504  29.230  1.00  0.00    -0.014 A 
BRANCH  35  36
ATOM     36  C   UNL A   1      39.287  29.134  29.918  1.00  0.00     0.031 A 
ATOM     37  C   UNL A   1      39.724  29.877  31.152  1.00  0.00     0.074 A 
ATOM     38  C   UNL A   1      40.069  28.164  29.403  1.00  0.00     0.049 A 
ATOM     39  N   UNL A   1      40.811  29.724  31.867  1.00  0.00    -0.248 NA
ATOM     40  C   UNL A   1      38.834  30.945  31.635  1.00  0.00     0.031 C 
ATOM     41  C   UNL A   1      39.772  27.389  28.197  1.00  0.00     0.029 A 
ATOM     42  N   UNL A   1      41.273  27.664  29.830  1.00  0.00    -0.354 N 
ATOM     43  C   UNL A   1      40.739  30.679  32.873  1.00  0.00     0.074 A 
ATOM     44  C   UNL A   1      39.536  31.448  32.640  1.00  0.00     0.031 C 
ATOM     45  C   UNL A   1      40.746  26.484  28.006  1.00  0.00     0.029 A 
ATOM     46  C   UNL A   1      41.759  26.646  29.043  1.00  0.00     0.049 A 
ATOM     47  H   UNL A   1      41.745  28.001  30.626  1.00  0.00     0.167 HD
ATOM     48  C   UNL A   1      41.583  30.885  33.914  1.00  0.00     0.031 A 
ATOM     49  C   UNL A   1      42.893  25.924  29.143  1.00  0.00     0.031 A 
ATOM     50  C   UNL A   1      42.784  30.125  34.138  1.00  0.00     0.049 A 
ATOM     51  C   UNL A   1      43.841  26.203  30.278  1.00  0.00     0.074 A 
ATOM     52  C   UNL A   1      43.689  30.230  35.179  1.00  0.00     0.029 A 
ATOM     53  N   UNL A   1      43.253  29.119  33.304  1.00  0.00    -0.354 N 
ATOM     54  N   UNL A   1      43.728  27.075  31.252  1.00  0.00    -0.248 NA
ATOM     55  C   UNL A   1      45.066  25.394  30.329  1.00  0.00     0.031 C 
ATOM     56  C   UNL A   1      44.736  29.333  34.942  1.00  0.00     0.029 A 
ATOM     57  C   UNL A   1      44.447  28.616  33.790  1.00  0.00     0.049 A 
ATOM     58  H   UNL A   1      42.801  28.809  32.486  1.00  0.00     0.167 HD
ATOM     59  C   UNL A   1      44.852  26.895  32.051  1.00  0.00     0.074 A 
ATOM     60  C   UNL A   1      45.624  25.824  31.453  1.00  0.00     0.031 C 
ATOM     61  C   UNL A   1      45.210  27.554  33.182  1.00  0.00     0.031 A 
BRANCH  48  62
ATOM     62  C   UNL A   1      41.235  31.991  34.878  1.00  0.00    -0.014 A 
ATOM     63  C   UNL A   1      40.377  31.761  35.970  1.00  0.00     0.010 A 
ATOM     64  C   UNL A   1      41.780  33.275  34.701  1.00  0.00     0.010 A 
ATOM     65  C   UNL A   1      40.023  32.807  36.827  1.00  0.00     0.020 A 
ATOM     66  C   UNL A   1      41.456  34.316  35.576  1.00  0.00     0.020 A 
ATOM     67  C   UNL A   1      40.560  34.080  36.620  1.00  0.00     0.054 A 
BRANCH  67  68
ATOM     68  S   UNL A   1      40.076  35.419  37.744  1.00  0.00     0.124 S 
ATOM     69  O   UNL A   1      38.892  34.856  38.389  1.00  0.00    -0.237 OA
ATOM     70  O   UNL A   1      41.251  35.558  38.600  1.00  0.00    -0.237 OA
ATOM     71  O   UNL A   1      39.821  36.546  36.851  1.00  0.00    -0.744 OA
ENDBRANCH  67  68
ENDBRANCH  48  62
BRANCH  49  72
ATOM     72  C   UNL A   1      43.177  24.848  28.155  1.00  0.00    -0.014 A 
ATOM     73  C   UNL A   1      43.881  25.139  26.973  1.00  0.00     0.010 A 
ATOM     74  C   UNL A   1      42.765  23.525  28.396  1.00  0.00     0.010 A 
ATOM     75  C   UNL A   1      44.156  24.130  26.045  1.00  0.00     0.020 A 
ATOM     76  C   UNL A   1      43.065  22.508  27.485  1.00  0.00     0.020 A 
ATOM     77  C   UNL A   1      43.751  22.819  26.311  1.00  0.00     0.054 A 
BRANCH  77  78
ATOM     78  S   UNL A   1      44.174  21.518  25.119  1.00  0.00     0.124 S 
ATOM     79  O   UNL A   1      44.056  22.221  23.846  1.00  0.00    -0.237 OA
ATOM     80  O   UNL A   1      45.530  21.153  25.520  1.00  0.00    -0.237 OA
ATOM     81  O   UNL A   1      43.164  20.490  25.362  1.00  0.00    -0.744 OA
ENDBRANCH  77  78
ENDBRANCH  49  72
BRANCH  61  82
ATOM     82  C   UNL A   1      46.477  27.115  33.869  1.00  0.00    -0.014 A 
ATOM     83  C   UNL A   1      47.714  27.718  33.583  1.00  0.00     0.010 A 
ATOM     84  C   UNL A   1      46.415  26.115  34.859  1.00  0.00     0.010 A 
ATOM     85  C   UNL A   1      48.872  27.307  34.250  1.00  0.00     0.020 A 
ATOM     86  C   UNL A   1      47.565  25.725  35.550  1.00  0.00     0.020 A 
ATOM     87  C   UNL A   1      48.790  26.314  35.231  1.00  0.00     0.054 A 
BRANCH  87  88
ATOM     88  S   UNL A   1      50.299  25.832  36.113  1.00  0.00     0.124 S 
ATOM     89  O   UNL A   1      49.956  24.498  36.598  1.00  0.00    -0.237 OA
ATOM     90  O   UNL A   1      51.311  25.877  35.059  1.00  0.00    -0.237 OA
ATOM     91  O   UNL A   1      50.439  26.854  37.146  1.00  0.00    -0.744 OA
ENDBRANCH  87  88
ENDBRANCH  61  82
ENDBRANCH  35  36
ENDBRANCH  27  30
ENDBRANCH  25  26
ENDBRANCH  24  25
ENDBRANCH  23  24
ENDBRANCH   1  23
TORSDOF 21
ENDMDL
MODEL 2
REMARK VINA RESULT:      -9.7      3.141      9.188
REMARK SMILES CCC[NH+](CCC)[C@@H]1[C@@H]2CC[C@@H](C2)[C@@H]1C(=O)NCCCCCCNC(=O)c1ccc(-c2c3nc(c(-c4ccc(S(=O)(=O)[O-])cc4)c4ccc([nH]4)c(-c4ccc(S(=O)(=O)[O-])cc4)c4nc(c(-c5ccc(S(=O)(=O)[O-])cc5)c5ccc2[nH]5)C=C4)C=C3)cc1
REMARK SMILES IDX 20 1 19 2 18 3 17 4 15 5 16 6 14 8 8 9 9 10 10 11 13 12
REMARK SMILES IDX 12 13 11 14 4 15 3 17 2 18 1 19 5 20 6 21 7 22 21 23 22 24
REMARK SMILES IDX 23 25 24 26 25 27 26 29 27 30 28 31 86 32 29 33 85 34 30 35
REMARK SMILES IDX 31 36 32 37 79 38 33 39 84 40 78 41 80 42 34 43 83 44 77 45
REMARK SMILES IDX 76 46 35 48 65 49 46 50 64 51 47 52 50 53 63 54 81 55 48 56
REMARK SMILES IDX 49 57 62 59 82 60 51 61 36 62 37 63 45 64 38 65 44 66 39 67
REMARK SMILES IDX 40 68 41 69 42 70 43 71 66 72 67 73 75 74 68 75 74 76 69 77
REMARK SMILES IDX 70 78 71 79 72 80 73 81 52 82 53 83 61 84 54 85 60 86 55 87
REMARK SMILES IDX 56 88 57 89 58 90 59 91
REMARK H PARENT 17 7 4 16 24 28 80 47 50 58
REMARK Flexibility Score: inf
ROOT
ATOM      1  C   UNL A   1      33.659  21.660  26.989  1.00  0.00     0.002 C 
ENDROOT
BRANCH   1   2
ATOM      2  C   UNL A   1      32.691  21.256  25.871  1.00  0.00     0.021 C 
BRANCH   2   3
ATOM      3  C   UNL A   1      31.288  21.841  25.984  1.00  0.00     0.116 C 
BRANCH   3   4
ATOM      4  N   UNL A   1      31.278  23.136  26.636  1.00  0.00    -0.356 N 
ATOM      5  C   UNL A   1      31.552  24.380  26.151  1.00  0.00     0.229 C 
ATOM      6  O   UNL A   1      31.218  25.334  26.854  1.00  0.00    -0.275 OA
ATOM      7  H   UNL A   1      31.032  23.113  27.590  1.00  0.00     0.163 HD
BRANCH   5   8
ATOM      8  C   UNL A   1      32.235  24.535  24.802  1.00  0.00     0.140 C 
ATOM      9  C   UNL A   1      33.001  25.837  24.319  1.00  0.00     0.200 C 
ATOM     10  C   UNL A   1      32.458  25.902  22.840  1.00  0.00     0.049 C 
ATOM     11  C   UNL A   1      31.015  26.435  22.821  1.00  0.00     0.010 C 
ATOM     12  C   UNL A   1      32.232  24.437  22.458  1.00  0.00     0.014 C 
ATOM     13  C   UNL A   1      31.287  24.190  23.628  1.00  0.00     0.008 C 
ATOM     14  C   UNL A   1      30.216  25.266  23.392  1.00  0.00     0.005 C 
BRANCH   9  15
ATOM     15  N   UNL A   1      32.971  27.194  24.941  1.00  0.00    -0.332 N 
ATOM     16  H   UNL A   1      32.028  27.253  25.328  1.00  0.00     0.348 HD
BRANCH  15  17
ATOM     17  C   UNL A   1      33.183  28.285  23.947  1.00  0.00     0.262 C 
BRANCH  17  18
ATOM     18  C   UNL A   1      32.455  29.625  24.121  1.00  0.00     0.058 C 
ATOM     19  C   UNL A   1      30.976  29.487  24.453  1.00  0.00     0.010 C 
ENDBRANCH  17  18
ENDBRANCH  15  17
BRANCH  15  20
ATOM     20  C   UNL A   1      33.932  27.382  26.045  1.00  0.00     0.262 C 
BRANCH  20  21
ATOM     21  C   UNL A   1      33.463  28.290  27.199  1.00  0.00     0.058 C 
ATOM     22  C   UNL A   1      34.276  29.574  27.295  1.00  0.00     0.010 C 
ENDBRANCH  20  21
ENDBRANCH  15  20
ENDBRANCH   9  15
ENDBRANCH   5   8
ENDBRANCH   3   4
ENDBRANCH   2   3
ENDBRANCH   1   2
BRANCH   1  23
ATOM     23  C   UNL A   1      35.048  22.116  26.531  1.00  0.00     0.002 C 
BRANCH  23  24
ATOM     24  C   UNL A   1      35.174  23.602  26.193  1.00  0.00     0.021 C 
BRANCH  24  25
ATOM     25  C   UNL A   1      36.527  24.019  25.633  1.00  0.00     0.116 C 
BRANCH  25  26
ATOM     26  N   UNL A   1      37.491  22.932  25.644  1.00  0.00    -0.352 N 
ATOM     27  C   UNL A   1      38.801  22.936  26.058  1.00  0.00     0.251 C 
ATOM     28  H   UNL A   1      37.157  22.069  25.306  1.00  0.00     0.163 HD
ATOM     29  O   UNL A   1      39.522  21.972  25.825  1.00  0.00    -0.269 OA
BRANCH  27  30
ATOM     30  C   UNL A   1      39.343  24.118  26.763  1.00  0.00     0.039 A 
ATOM     31  C   UNL A   1      40.123  25.033  26.051  1.00  0.00     0.014 A 
ATOM     32  C   UNL A   1      39.077  24.328  28.120  1.00  0.00     0.014 A 
ATOM     33  C   UNL A   1      40.583  26.189  26.686  1.00  0.00     0.010 A 
ATOM     34  C   UNL A   1      39.469  25.517  28.726  1.00  0.00     0.010 A 
ATOM     35  C   UNL A   1      40.230  26.458  28.018  1.00  0.00    -0.014 A 
BRANCH  35  36
ATOM     36  C   UNL A   1      40.646  27.719  28.687  1.00  0.00     0.031 A 
ATOM     37  C   UNL A   1      42.026  27.847  29.274  1.00  0.00     0.074 A 
ATOM     38  C   UNL A   1      39.764  28.731  28.811  1.00  0.00     0.049 A 
ATOM     39  N   UNL A   1      42.555  28.851  29.928  1.00  0.00    -0.248 NA
ATOM     40  C   UNL A   1      42.920  26.688  29.128  1.00  0.00     0.031 C 
ATOM     41  C   UNL A   1      38.388  28.722  28.310  1.00  0.00     0.029 A 
ATOM     42  N   UNL A   1      39.894  29.965  29.398  1.00  0.00    -0.354 N 
ATOM     43  C   UNL A   1      43.836  28.441  30.276  1.00  0.00     0.074 A 
ATOM     44  C   UNL A   1      43.982  27.076  29.819  1.00  0.00     0.031 C 
ATOM     45  C   UNL A   1      37.816  29.908  28.573  1.00  0.00     0.029 A 
ATOM     46  C   UNL A   1      38.764  30.743  29.303  1.00  0.00     0.049 A 
ATOM     47  H   UNL A   1      40.719  30.266  29.843  1.00  0.00     0.167 HD
ATOM     48  C   UNL A   1      44.815  29.143  30.898  1.00  0.00     0.031 A 
ATOM     49  C   UNL A   1      38.516  31.989  29.754  1.00  0.00     0.031 A 
ATOM     50  C   UNL A   1      44.664  30.498  31.360  1.00  0.00     0.049 A 
ATOM     51  C   UNL A   1      39.600  32.732  30.487  1.00  0.00     0.074 A 
ATOM     52  C   UNL A   1      45.604  31.310  31.970  1.00  0.00     0.029 A 
ATOM     53  N   UNL A   1      43.496  31.241  31.267  1.00  0.00    -0.354 N 
ATOM     54  N   UNL A   1      40.825  32.347  30.759  1.00  0.00    -0.248 NA
ATOM     55  C   UNL A   1      39.270  34.080  30.966  1.00  0.00     0.031 C 
ATOM     56  C   UNL A   1      44.986  32.520  32.302  1.00  0.00     0.029 A 
ATOM     57  C   UNL A   1      43.682  32.490  31.834  1.00  0.00     0.049 A 
ATOM     58  H   UNL A   1      42.658  30.926  30.857  1.00  0.00     0.167 HD
ATOM     59  C   UNL A   1      41.422  33.420  31.412  1.00  0.00     0.074 A 
ATOM     60  C   UNL A   1      40.427  34.472  31.482  1.00  0.00     0.031 C 
ATOM     61  C   UNL A   1      42.682  33.527  31.904  1.00  0.00     0.031 A 
BRANCH  48  62
ATOM     62  C   UNL A   1      46.131  28.442  31.125  1.00  0.00    -0.014 A 
ATOM     63  C   UNL A   1      47.148  28.472  30.152  1.00  0.00     0.010 A 
ATOM     64  C   UNL A   1      46.363  27.755  32.329  1.00  0.00     0.010 A 
ATOM     65  C   UNL A   1      48.343  27.776  30.353  1.00  0.00     0.020 A 
ATOM     66  C   UNL A   1      47.571  27.087  32.550  1.00  0.00     0.020 A 
ATOM     67  C   UNL A   1      48.544  27.082  31.549  1.00  0.00     0.054 A 
BRANCH  67  68
ATOM     68  S   UNL A   1      50.102  26.183  31.779  1.00  0.00     0.124 S 
ATOM     69  O   UNL A   1      51.086  27.260  31.699  1.00  0.00    -0.237 OA
ATOM     70  O   UNL A   1      49.934  25.583  33.100  1.00  0.00    -0.237 OA
ATOM     71  O   UNL A   1      50.124  25.237  30.666  1.00  0.00    -0.744 OA
ENDBRANCH  67  68
ENDBRANCH  48  62
BRANCH  49  72
ATOM     72  C   UNL A   1      37.193  32.622  29.499  1.00  0.00    -0.014 A 
ATOM     73  C   UNL A   1      36.143  32.466  30.422  1.00  0.00     0.010 A 
ATOM     74  C   UNL A   1      36.979  33.398  28.346  1.00  0.00     0.010 A 
ATOM     75  C   UNL A   1      34.901  33.064  30.189  1.00  0.00     0.020 A 
ATOM     76  C   UNL A   1      35.748  34.023  28.125  1.00  0.00     0.020 A 
ATOM     77  C   UNL A   1      34.713  33.844  29.044  1.00  0.00     0.054 A 
BRANCH  77  78
ATOM     78  S   UNL A   1      33.111  34.658  28.797  1.00  0.00     0.124 S 
ATOM     79  O   UNL A   1      33.507  35.950  28.246  1.00  0.00    -0.237 OA
ATOM     80  O   UNL A   1      32.439  33.752  27.869  1.00  0.00    -0.237 OA
ATOM     81  O   UNL A   1      32.538  34.699  30.140  1.00  0.00    -0.744 OA
ENDBRANCH  77  78
ENDBRANCH  49  72
BRANCH  61  82
ATOM     82  C   UNL A   1      43.071  34.839  32.534  1.00  0.00    -0.014 A 
ATOM     83  C   UNL A   1      43.755  35.829  31.807  1.00  0.00     0.010 A 
ATOM     84  C   UNL A   1      42.698  35.103  33.866  1.00  0.00     0.010 A 
ATOM     85  C   UNL A   1      44.086  37.046  32.409  1.00  0.00     0.020 A 
ATOM     86  C   UNL A   1      42.999  36.331  34.461  1.00  0.00     0.020 A 
ATOM     87  C   UNL A   1      43.705  37.290  33.732  1.00  0.00     0.054 A 
BRANCH  87  88
ATOM     88  S   UNL A   1      44.107  38.895  34.474  1.00  0.00     0.124 S 
ATOM     89  O   UNL A   1      45.431  39.164  33.919  1.00  0.00    -0.237 OA
ATOM     90  O   UNL A   1      43.032  39.753  33.980  1.00  0.00    -0.237 OA
ATOM     91  O   UNL A   1      44.075  38.632  35.911  1.00  0.00    -0.744 OA
ENDBRANCH  87  88
ENDBRANCH  61  82
ENDBRANCH  35  36
ENDBRANCH  27  30
ENDBRANCH  25  26
ENDBRANCH  24  25
ENDBRANCH  23  24
ENDBRANCH   1  23
TORSDOF 21
ENDMDL
MODEL 3
REMARK VINA RESULT:      -9.6      2.266      2.812
REMARK SMILES CCC[NH+](CCC)[C@@H]1[C@@H]2CC[C@@H](C2)[C@@H]1C(=O)NCCCCCCNC(=O)c1ccc(-c2c3nc(c(-c4ccc(S(=O)(=O)[O-])cc4)c4ccc([nH]4)c(-c4ccc(S(=O)(=O)[O-])cc4)c4nc(c(-c5ccc(S(=O)(=O)[O-])cc5)c5ccc2[nH]5)C=C4)C=C3)cc1
REMARK SMILES IDX 20 1 19 2 18 3 17 4 15 5 16 6 14 8 8 9 9 10 10 11 13 12
REMARK SMILES IDX 12 13 11 14 4 15 3 17 2 18 1 19 5 20 6 21 7 22 21 23 22 24
REMARK SMILES IDX 23 25 24 26 25 27 26 29 27 30 28 31 86 32 29 33 85 34 30 35
REMARK SMILES IDX 31 36 32 37 79 38 33 39 84 40 78 41 80 42 34 43 83 44 77 45
REMARK SMILES IDX 76 46 35 48 65 49 46 50 64 51 47 52 50 53 63 54 81 55 48 56
REMARK SMILES IDX 49 57 62 59 82 60 51 61 36 62 37 63 45 64 38 65 44 66 39 67
REMARK SMILES IDX 40 68 41 69 42 70 43 71 66 72 67 73 75 74 68 75 74 76 69 77
REMARK SMILES IDX 70 78 71 79 72 80 73 81 52 82 53 83 61 84 54 85 60 86 55 87
REMARK SMILES IDX 56 88 57 89 58 90 59 91
REMARK H PARENT 17 7 4 16 24 28 80 47 50 58
REMARK Flexibility Score: inf
ROOT
ATOM      1  C   UNL A   1      31.062  27.577  25.005  1.00  0.00     0.002 C 
ENDROOT
BRANCH   1   2
ATOM      2  C   UNL A   1      29.980  26.514  24.787  1.00  0.00     0.021 C 
BRANCH   2   3
ATOM      3  C   UNL A   1      30.447  25.242  24.090  1.00  0.00     0.116 C 
BRANCH   3   4
ATOM      4  N   UNL A   1      30.332  24.071  24.939  1.00  0.00    -0.356 N 
ATOM      5  C   UNL A   1      31.239  23.481  25.769  1.00  0.00     0.229 C 
ATOM      6  O   UNL A   1      30.799  22.651  26.566  1.00  0.00    -0.275 OA
ATOM      7  H   UNL A   1      29.453  23.629  24.911  1.00  0.00     0.163 HD
BRANCH   5   8
ATOM      8  C   UNL A   1      32.707  23.860  25.682  1.00  0.00     0.140 C 
ATOM      9  C   UNL A   1      33.645  23.570  24.436  1.00  0.00     0.200 C 
ATOM     10  C   UNL A   1      34.930  23.082  25.209  1.00  0.00     0.049 C 
ATOM     11  C   UNL A   1      34.735  21.644  25.720  1.00  0.00     0.010 C 
ATOM     12  C   UNL A   1      34.897  23.864  26.525  1.00  0.00     0.014 C 
ATOM     13  C   UNL A   1      33.514  23.344  26.898  1.00  0.00     0.008 C 
ATOM     14  C   UNL A   1      33.737  21.824  26.861  1.00  0.00     0.005 C 
BRANCH   9  15
ATOM     15  N   UNL A   1      33.368  22.672  23.276  1.00  0.00    -0.332 N 
ATOM     16  H   UNL A   1      34.146  22.011  23.302  1.00  0.00     0.348 HD
BRANCH  15  17
ATOM     17  C   UNL A   1      33.359  23.399  21.976  1.00  0.00     0.262 C 
BRANCH  17  18
ATOM     18  C   UNL A   1      32.484  24.649  21.808  1.00  0.00     0.058 C 
ATOM     19  C   UNL A   1      33.270  25.951  21.748  1.00  0.00     0.010 C 
ENDBRANCH  17  18
ENDBRANCH  15  17
BRANCH  15  20
ATOM     20  C   UNL A   1      32.112  21.904  23.385  1.00  0.00     0.262 C 
BRANCH  20  21
ATOM     21  C   UNL A   1      32.163  20.451  22.875  1.00  0.00     0.058 C 
ATOM     22  C   UNL A   1      32.435  19.452  23.991  1.00  0.00     0.010 C 
ENDBRANCH  20  21
ENDBRANCH  15  20
ENDBRANCH   9  15
ENDBRANCH   5   8
ENDBRANCH   3   4
ENDBRANCH   2   3
ENDBRANCH   1   2
BRANCH   1  23
ATOM     23  C   UNL A   1      31.421  27.869  26.465  1.00  0.00     0.002 C 
BRANCH  23  24
ATOM     24  C   UNL A   1      32.875  27.596  26.852  1.00  0.00     0.021 C 
BRANCH  24  25
ATOM     25  C   UNL A   1      33.874  28.638  26.369  1.00  0.00     0.116 C 
BRANCH  25  26
ATOM     26  N   UNL A   1      33.677  29.931  27.003  1.00  0.00    -0.352 N 
ATOM     27  C   UNL A   1      34.483  30.591  27.899  1.00  0.00     0.251 C 
ATOM     28  H   UNL A   1      32.847  30.400  26.755  1.00  0.00     0.163 HD
ATOM     29  O   UNL A   1      34.071  31.593  28.472  1.00  0.00    -0.269 OA
BRANCH  27  30
ATOM     30  C   UNL A   1      35.838  30.073  28.186  1.00  0.00     0.039 A 
ATOM     31  C   UNL A   1      36.833  30.205  27.214  1.00  0.00     0.014 A 
ATOM     32  C   UNL A   1      36.129  29.464  29.411  1.00  0.00     0.014 A 
ATOM     33  C   UNL A   1      38.135  29.782  27.497  1.00  0.00     0.010 A 
ATOM     34  C   UNL A   1      37.441  29.119  29.719  1.00  0.00     0.010 A 
ATOM     35  C   UNL A   1      38.457  29.269  28.764  1.00  0.00    -0.014 A 
BRANCH  35  36
ATOM     36  C   UNL A   1      39.851  28.886  29.110  1.00  0.00     0.031 A 
ATOM     37  C   UNL A   1      40.756  29.867  29.807  1.00  0.00     0.074 A 
ATOM     38  C   UNL A   1      40.320  27.675  28.750  1.00  0.00     0.049 A 
ATOM     39  N   UNL A   1      42.011  29.729  30.155  1.00  0.00    -0.248 NA
ATOM     40  C   UNL A   1      40.183  31.181  30.138  1.00  0.00     0.031 C 
ATOM     41  C   UNL A   1      39.554  26.645  28.045  1.00  0.00     0.029 A 
ATOM     42  N   UNL A   1      41.555  27.104  28.928  1.00  0.00    -0.354 N 
ATOM     43  C   UNL A   1      42.377  30.937  30.735  1.00  0.00     0.074 A 
ATOM     44  C   UNL A   1      41.233  31.818  30.633  1.00  0.00     0.031 C 
ATOM     45  C   UNL A   1      40.322  25.554  27.890  1.00  0.00     0.029 A 
ATOM     46  C   UNL A   1      41.648  25.823  28.437  1.00  0.00     0.049 A 
ATOM     47  H   UNL A   1      42.305  27.567  29.368  1.00  0.00     0.167 HD
ATOM     48  C   UNL A   1      43.550  31.280  31.322  1.00  0.00     0.031 A 
ATOM     49  C   UNL A   1      42.683  24.960  28.425  1.00  0.00     0.031 A 
ATOM     50  C   UNL A   1      44.689  30.405  31.412  1.00  0.00     0.049 A 
ATOM     51  C   UNL A   1      43.992  25.378  29.037  1.00  0.00     0.074 A 
ATOM     52  C   UNL A   1      45.912  30.642  32.016  1.00  0.00     0.029 A 
ATOM     53  N   UNL A   1      44.750  29.125  30.880  1.00  0.00    -0.354 N 
ATOM     54  N   UNL A   1      44.302  26.507  29.630  1.00  0.00    -0.248 NA
ATOM     55  C   UNL A   1      45.088  24.402  28.985  1.00  0.00     0.031 C 
ATOM     56  C   UNL A   1      46.732  29.530  31.794  1.00  0.00     0.029 A 
ATOM     57  C   UNL A   1      45.997  28.571  31.115  1.00  0.00     0.049 A 
ATOM     58  H   UNL A   1      44.014  28.676  30.404  1.00  0.00     0.167 HD
ATOM     59  C   UNL A   1      45.620  26.363  30.051  1.00  0.00     0.074 A 
ATOM     60  C   UNL A   1      46.042  25.033  29.655  1.00  0.00     0.031 C 
ATOM     61  C   UNL A   1      46.407  27.249  30.711  1.00  0.00     0.031 A 
BRANCH  48  62
ATOM     62  C   UNL A   1      43.656  32.670  31.897  1.00  0.00    -0.014 A 
ATOM     63  C   UNL A   1      43.320  32.929  33.239  1.00  0.00     0.010 A 
ATOM     64  C   UNL A   1      44.107  33.731  31.092  1.00  0.00     0.010 A 
ATOM     65  C   UNL A   1      43.375  34.230  33.746  1.00  0.00     0.020 A 
ATOM     66  C   UNL A   1      44.197  35.029  31.604  1.00  0.00     0.020 A 
ATOM     67  C   UNL A   1      43.807  35.273  32.922  1.00  0.00     0.054 A 
BRANCH  67  68
ATOM     68  S   UNL A   1      43.860  36.953  33.605  1.00  0.00     0.124 S 
ATOM     69  O   UNL A   1      43.940  37.767  32.394  1.00  0.00    -0.237 OA
ATOM     70  O   UNL A   1      42.599  37.040  34.338  1.00  0.00    -0.237 OA
ATOM     71  O   UNL A   1      45.062  36.952  34.435  1.00  0.00    -0.744 OA
ENDBRANCH  67  68
ENDBRANCH  48  62
BRANCH  49  72
ATOM     72  C   UNL A   1      42.511  23.602  27.838  1.00  0.00    -0.014 A 
ATOM     73  C   UNL A   1      43.248  23.224  26.701  1.00  0.00     0.010 A 
ATOM     74  C   UNL A   1      41.629  22.674  28.420  1.00  0.00     0.010 A 
ATOM     75  C   UNL A   1      43.095  21.948  26.150  1.00  0.00     0.020 A 
ATOM     76  C   UNL A   1      41.497  21.388  27.891  1.00  0.00     0.020 A 
ATOM     77  C   UNL A   1      42.224  21.036  26.753  1.00  0.00     0.054 A 
BRANCH  77  78
ATOM     78  S   UNL A   1      42.090  19.367  26.054  1.00  0.00     0.124 S 
ATOM     79  O   UNL A   1      42.950  19.458  24.879  1.00  0.00    -0.237 OA
ATOM     80  O   UNL A   1      42.589  18.530  27.142  1.00  0.00    -0.237 OA
ATOM     81  O   UNL A   1      40.662  19.227  25.775  1.00  0.00    -0.744 OA
ENDBRANCH  77  78
ENDBRANCH  49  72
BRANCH  61  82
ATOM     82  C   UNL A   1      47.798  26.802  31.078  1.00  0.00    -0.014 A 
ATOM     83  C   UNL A   1      48.045  26.055  32.243  1.00  0.00     0.010 A 
ATOM     84  C   UNL A   1      48.869  27.091  30.211  1.00  0.00     0.010 A 
ATOM     85  C   UNL A   1      49.342  25.633  32.551  1.00  0.00     0.020 A 
ATOM     86  C   UNL A   1      50.161  26.644  30.499  1.00  0.00     0.020 A 
ATOM     87  C   UNL A   1      50.392  25.929  31.676  1.00  0.00     0.054 A 
BRANCH  87  88
ATOM     88  S   UNL A   1      52.057  25.331  32.076  1.00  0.00     0.124 S 
ATOM     89  O   UNL A   1      52.324  26.002  33.345  1.00  0.00    -0.237 OA
ATOM     90  O   UNL A   1      51.864  23.885  32.158  1.00  0.00    -0.237 OA
ATOM     91  O   UNL A   1      52.869  25.782  30.949  1.00  0.00    -0.744 OA
ENDBRANCH  87  88
ENDBRANCH  61  82
ENDBRANCH  35  36
ENDBRANCH  27  30
ENDBRANCH  25  26
ENDBRANCH  24  25
ENDBRANCH  23  24
ENDBRANCH   1  23
TORSDOF 21
ENDMDL
