MODEL 1
REMARK VINA RESULT:     -11.1      0.000      0.000
REMARK SMILES C[C@@H]1[C@H](C(=O)NCCCCCCNC(=O)c2ccc(-c3c4nc(c(-c5ccc(S(=O)(=O)[O-])cc5)c5ccc([nH]5)c(-c5ccc(S(=O)(=O)[O-])cc5)c5nc(c(-c6ccc(S(=O)(=O)[O-])cc6)c6ccc3[nH]6)C=C5)C=C4)cc2)CCN1C(=O)c1c(Cl)cccc1[N+](=O)[O-]
REMARK SMILES IDX 9 1 8 2 7 3 6 4 4 5 5 6 3 8 1 9 2 10 78 11 76 12 77 13 79 14
REMARK SMILES IDX 80 15 81 16 82 17 87 18 83 19 84 20 86 21 85 22 88 23 89 24
REMARK SMILES IDX 90 25 10 26 11 27 12 28 13 29 14 30 15 32 16 33 17 34 75 35
REMARK SMILES IDX 18 36 74 37 19 38 20 39 21 40 68 41 22 42 73 43 67 44 69 45
REMARK SMILES IDX 23 46 72 47 66 48 65 49 24 51 54 52 35 53 53 54 36 55 39 56
REMARK SMILES IDX 52 57 70 58 37 59 38 60 51 62 71 63 40 64 25 65 26 66 34 67
REMARK SMILES IDX 27 68 33 69 28 70 29 71 30 72 31 73 32 74 55 75 56 76 64 77
REMARK SMILES IDX 57 78 63 79 58 80 59 81 60 82 61 83 62 84 41 85 42 86 50 87
REMARK SMILES IDX 43 88 49 89 44 90 45 91 46 92 47 93 48 94
REMARK H PARENT 6 7 13 31 69 50 39 61
REMARK Flexibility Score: inf
ROOT
ATOM      1  C   UNL A   1      37.164  23.495  25.781  1.00  0.00     0.002 C 
ENDROOT
BRANCH   1   2
ATOM      2  C   UNL A   1      36.968  22.000  25.513  1.00  0.00     0.021 C 
BRANCH   2   3
ATOM      3  C   UNL A   1      35.921  21.652  24.454  1.00  0.00     0.116 C 
BRANCH   3   4
ATOM      4  N   UNL A   1      34.934  20.713  24.965  1.00  0.00    -0.356 N 
ATOM      5  C   UNL A   1      33.586  20.794  25.100  1.00  0.00     0.225 C 
ATOM      6  O   UNL A   1      33.021  19.843  25.649  1.00  0.00    -0.275 OA
ATOM      7  H   UNL A   1      35.316  19.858  25.270  1.00  0.00     0.163 HD
BRANCH   5   8
ATOM      8  C   UNL A   1      32.758  21.982  24.630  1.00  0.00     0.102 C 
ATOM      9  C   UNL A   1      33.593  23.244  26.752  1.00  0.00     0.032 C 
ATOM     10  C   UNL A   1      32.691  23.240  25.528  1.00  0.00     0.094 C 
ATOM     11  N   UNL A   1      32.860  24.372  24.596  1.00  0.00    -0.335 N 
ATOM     12  C   UNL A   1      33.091  22.459  23.216  1.00  0.00     0.037 C 
ATOM     13  C   UNL A   1      32.738  23.929  23.219  1.00  0.00     0.121 C 
BRANCH  11  14
ATOM     14  C   UNL A   1      32.762  25.737  24.819  1.00  0.00     0.262 C 
ATOM     15  O   UNL A   1      33.516  26.361  25.563  1.00  0.00    -0.269 OA
BRANCH  14  16
ATOM     16  C   UNL A   1      31.721  26.522  24.153  1.00  0.00     0.136 A 
ATOM     17  C   UNL A   1      30.395  26.415  24.585  1.00  0.00     0.060 A 
ATOM     18  C   UNL A   1      32.009  27.317  23.037  1.00  0.00     0.283 A 
ATOM     19  Cl  UNL A   1      29.936  25.449  25.943  1.00  0.00    -0.083 Cl
ATOM     20  C   UNL A   1      29.381  27.125  23.927  1.00  0.00     0.022 A 
ATOM     21  C   UNL A   1      30.998  28.042  22.385  1.00  0.00     0.086 A 
ATOM     22  C   UNL A   1      29.682  27.941  22.834  1.00  0.00     0.009 A 
BRANCH  18  23
ATOM     23  N   UNL A   1      33.374  27.482  22.556  1.00  0.00     0.063 N 
ATOM     24  O   UNL A   1      34.069  28.322  23.147  1.00  0.00    -0.258 OA
ATOM     25  O   UNL A   1      33.750  26.796  21.604  1.00  0.00    -0.258 OA
ENDBRANCH  18  23
ENDBRANCH  14  16
ENDBRANCH  11  14
ENDBRANCH   5   8
ENDBRANCH   3   4
ENDBRANCH   2   3
ENDBRANCH   1   2
BRANCH   1  26
ATOM     26  C   UNL A   1      38.487  23.884  26.444  1.00  0.00     0.002 C 
BRANCH  26  27
ATOM     27  C   UNL A   1      39.530  22.769  26.555  1.00  0.00     0.021 C 
BRANCH  27  28
ATOM     28  C   UNL A   1      40.922  23.205  27.007  1.00  0.00     0.116 C 
BRANCH  28  29
ATOM     29  N   UNL A   1      41.621  23.978  25.995  1.00  0.00    -0.352 N 
ATOM     30  C   UNL A   1      41.931  25.314  25.968  1.00  0.00     0.251 C 
ATOM     31  H   UNL A   1      41.916  23.464  25.208  1.00  0.00     0.163 HD
ATOM     32  O   UNL A   1      42.387  25.808  24.941  1.00  0.00    -0.269 OA
BRANCH  30  33
ATOM     33  C   UNL A   1      41.704  26.167  27.157  1.00  0.00     0.039 A 
ATOM     34  C   UNL A   1      42.516  27.289  27.338  1.00  0.00     0.014 A 
ATOM     35  C   UNL A   1      40.733  25.847  28.111  1.00  0.00     0.014 A 
ATOM     36  C   UNL A   1      42.326  28.115  28.450  1.00  0.00     0.010 A 
ATOM     37  C   UNL A   1      40.505  26.704  29.189  1.00  0.00     0.010 A 
ATOM     38  C   UNL A   1      41.306  27.841  29.375  1.00  0.00    -0.014 A 
BRANCH  38  39
ATOM     39  C   UNL A   1      41.082  28.729  30.545  1.00  0.00     0.031 A 
ATOM     40  C   UNL A   1      41.949  28.607  31.769  1.00  0.00     0.074 A 
ATOM     41  C   UNL A   1      40.075  29.624  30.521  1.00  0.00     0.049 A 
ATOM     42  N   UNL A   1      41.900  29.288  32.886  1.00  0.00    -0.248 NA
ATOM     43  C   UNL A   1      42.999  27.576  31.743  1.00  0.00     0.031 C 
ATOM     44  C   UNL A   1      39.137  29.815  29.411  1.00  0.00     0.029 A 
ATOM     45  N   UNL A   1      39.671  30.543  31.457  1.00  0.00    -0.354 N 
ATOM     46  C   UNL A   1      42.897  28.760  33.698  1.00  0.00     0.074 A 
ATOM     47  C   UNL A   1      43.507  27.672  32.963  1.00  0.00     0.031 C 
ATOM     48  C   UNL A   1      38.285  30.806  29.721  1.00  0.00     0.029 A 
ATOM     49  C   UNL A   1      38.596  31.301  31.058  1.00  0.00     0.049 A 
ATOM     50  H   UNL A   1      40.110  30.649  32.332  1.00  0.00     0.167 HD
ATOM     51  C   UNL A   1      43.285  29.154  34.935  1.00  0.00     0.031 A 
ATOM     52  C   UNL A   1      37.934  32.287  31.695  1.00  0.00     0.031 A 
ATOM     53  C   UNL A   1      42.687  30.243  35.661  1.00  0.00     0.049 A 
ATOM     54  C   UNL A   1      38.384  32.709  33.066  1.00  0.00     0.074 A 
ATOM     55  C   UNL A   1      43.046  30.754  36.897  1.00  0.00     0.029 A 
ATOM     56  N   UNL A   1      41.606  30.991  35.219  1.00  0.00    -0.354 N 
ATOM     57  N   UNL A   1      39.372  32.239  33.790  1.00  0.00    -0.248 NA
ATOM     58  C   UNL A   1      37.637  33.804  33.702  1.00  0.00     0.031 C 
ATOM     59  C   UNL A   1      42.154  31.784  37.220  1.00  0.00     0.029 A 
ATOM     60  C   UNL A   1      41.271  31.944  36.165  1.00  0.00     0.049 A 
ATOM     61  H   UNL A   1      41.144  30.861  34.359  1.00  0.00     0.167 HD
ATOM     62  C   UNL A   1      39.379  32.995  34.957  1.00  0.00     0.074 A 
ATOM     63  C   UNL A   1      38.308  33.963  34.835  1.00  0.00     0.031 C 
ATOM     64  C   UNL A   1      40.199  32.897  36.032  1.00  0.00     0.031 A 
BRANCH  51  65
ATOM     65  C   UNL A   1      44.413  28.395  35.582  1.00  0.00    -0.014 A 
ATOM     66  C   UNL A   1      45.750  28.790  35.399  1.00  0.00     0.010 A 
ATOM     67  C   UNL A   1      44.132  27.294  36.411  1.00  0.00     0.010 A 
ATOM     68  C   UNL A   1      46.789  28.069  35.995  1.00  0.00     0.020 A 
ATOM     69  C   UNL A   1      45.167  26.586  37.030  1.00  0.00     0.020 A 
ATOM     70  C   UNL A   1      46.491  26.968  36.802  1.00  0.00     0.054 A 
BRANCH  70  71
ATOM     71  S   UNL A   1      47.857  26.057  37.573  1.00  0.00     0.124 S 
ATOM     72  O   UNL A   1      48.781  27.135  37.915  1.00  0.00    -0.237 OA
ATOM     73  O   UNL A   1      47.209  25.402  38.707  1.00  0.00    -0.237 OA
ATOM     74  O   UNL A   1      48.314  25.158  36.516  1.00  0.00    -0.744 OA
ENDBRANCH  70  71
ENDBRANCH  51  65
BRANCH  52  75
ATOM     75  C   UNL A   1      36.786  32.959  31.030  1.00  0.00    -0.014 A 
ATOM     76  C   UNL A   1      37.006  33.890  29.999  1.00  0.00     0.010 A 
ATOM     77  C   UNL A   1      35.465  32.663  31.414  1.00  0.00     0.010 A 
ATOM     78  C   UNL A   1      35.928  34.524  29.375  1.00  0.00     0.020 A 
ATOM     79  C   UNL A   1      34.384  33.276  30.775  1.00  0.00     0.020 A 
ATOM     80  C   UNL A   1      34.622  34.213  29.767  1.00  0.00     0.054 A 
BRANCH  80  81
ATOM     81  S   UNL A   1      33.236  35.005  28.907  1.00  0.00     0.124 S 
ATOM     82  O   UNL A   1      32.316  35.283  30.006  1.00  0.00    -0.237 OA
ATOM     83  O   UNL A   1      33.866  36.174  28.297  1.00  0.00    -0.237 OA
ATOM     84  O   UNL A   1      32.793  33.982  27.961  1.00  0.00    -0.744 OA
ENDBRANCH  80  81
ENDBRANCH  52  75
BRANCH  64  85
ATOM     85  C   UNL A   1      39.983  33.875  37.155  1.00  0.00    -0.014 A 
ATOM     86  C   UNL A   1      40.549  35.162  37.117  1.00  0.00     0.010 A 
ATOM     87  C   UNL A   1      39.164  33.517  38.241  1.00  0.00     0.010 A 
ATOM     88  C   UNL A   1      40.326  36.061  38.162  1.00  0.00     0.020 A 
ATOM     89  C   UNL A   1      38.918  34.423  39.276  1.00  0.00     0.020 A 
ATOM     90  C   UNL A   1      39.513  35.686  39.236  1.00  0.00     0.054 A 
BRANCH  90  91
ATOM     91  S   UNL A   1      39.205  36.885  40.562  1.00  0.00     0.124 S 
ATOM     92  O   UNL A   1      38.499  37.948  39.851  1.00  0.00    -0.237 OA
ATOM     93  O   UNL A   1      38.400  36.119  41.509  1.00  0.00    -0.237 OA
ATOM     94  O   UNL A   1      40.545  37.232  41.031  1.00  0.00    -0.744 OA
ENDBRANCH  90  91
ENDBRANCH  64  85
ENDBRANCH  38  39
ENDBRANCH  30  33
ENDBRANCH  28  29
ENDBRANCH  27  28
ENDBRANCH  26  27
ENDBRANCH   1  26
TORSDOF 19
ENDMDL
MODEL 2
REMARK VINA RESULT:     -11.1      6.064     11.637
REMARK SMILES C[C@@H]1[C@H](C(=O)NCCCCCCNC(=O)c2ccc(-c3c4nc(c(-c5ccc(S(=O)(=O)[O-])cc5)c5ccc([nH]5)c(-c5ccc(S(=O)(=O)[O-])cc5)c5nc(c(-c6ccc(S(=O)(=O)[O-])cc6)c6ccc3[nH]6)C=C5)C=C4)cc2)CCN1C(=O)c1c(Cl)cccc1[N+](=O)[O-]
REMARK SMILES IDX 9 1 8 2 7 3 6 4 4 5 5 6 3 8 1 9 2 10 78 11 76 12 77 13 79 14
REMARK SMILES IDX 80 15 81 16 82 17 87 18 83 19 84 20 86 21 85 22 88 23 89 24
REMARK SMILES IDX 90 25 10 26 11 27 12 28 13 29 14 30 15 32 16 33 17 34 75 35
REMARK SMILES IDX 18 36 74 37 19 38 20 39 21 40 68 41 22 42 73 43 67 44 69 45
REMARK SMILES IDX 23 46 72 47 66 48 65 49 24 51 54 52 35 53 53 54 36 55 39 56
REMARK SMILES IDX 52 57 70 58 37 59 38 60 51 62 71 63 40 64 25 65 26 66 34 67
REMARK SMILES IDX 27 68 33 69 28 70 29 71 30 72 31 73 32 74 55 75 56 76 64 77
REMARK SMILES IDX 57 78 63 79 58 80 59 81 60 82 61 83 62 84 41 85 42 86 50 87
REMARK SMILES IDX 43 88 49 89 44 90 45 91 46 92 47 93 48 94
REMARK H PARENT 6 7 13 31 69 50 39 61
REMARK Flexibility Score: inf
ROOT
ATOM      1  C   UNL A   1      32.864  29.632  27.224  1.00  0.00     0.002 C 
ENDROOT
BRANCH   1   2
ATOM      2  C   UNL A   1      32.281  30.097  25.887  1.00  0.00     0.021 C 
BRANCH   2   3
ATOM      3  C   UNL A   1      32.956  29.526  24.640  1.00  0.00     0.116 C 
BRANCH   3   4
ATOM      4  N   UNL A   1      32.064  28.641  23.906  1.00  0.00    -0.356 N 
ATOM      5  C   UNL A   1      32.189  27.350  23.508  1.00  0.00     0.225 C 
ATOM      6  O   UNL A   1      31.274  26.885  22.821  1.00  0.00    -0.275 OA
ATOM      7  H   UNL A   1      31.210  29.058  23.649  1.00  0.00     0.163 HD
BRANCH   5   8
ATOM      8  C   UNL A   1      33.383  26.470  23.851  1.00  0.00     0.102 C 
ATOM      9  C   UNL A   1      32.145  25.867  26.063  1.00  0.00     0.032 C 
ATOM     10  C   UNL A   1      33.405  25.752  25.221  1.00  0.00     0.094 C 
ATOM     11  N   UNL A   1      33.857  24.381  24.916  1.00  0.00    -0.335 N 
ATOM     12  C   UNL A   1      33.712  25.418  22.790  1.00  0.00     0.037 C 
ATOM     13  C   UNL A   1      34.369  24.295  23.560  1.00  0.00     0.121 C 
BRANCH  11  14
ATOM     14  C   UNL A   1      34.179  23.334  25.767  1.00  0.00     0.262 C 
ATOM     15  O   UNL A   1      34.737  23.485  26.851  1.00  0.00    -0.269 OA
BRANCH  14  16
ATOM     16  C   UNL A   1      33.853  21.955  25.397  1.00  0.00     0.136 A 
ATOM     17  C   UNL A   1      34.887  21.050  25.134  1.00  0.00     0.060 A 
ATOM     18  C   UNL A   1      32.527  21.541  25.222  1.00  0.00     0.283 A 
ATOM     19  Cl  UNL A   1      36.554  21.468  25.309  1.00  0.00    -0.083 Cl
ATOM     20  C   UNL A   1      34.589  19.739  24.735  1.00  0.00     0.022 A 
ATOM     21  C   UNL A   1      32.226  20.224  24.837  1.00  0.00     0.086 A 
ATOM     22  C   UNL A   1      33.263  19.326  24.593  1.00  0.00     0.009 A 
BRANCH  18  23
ATOM     23  N   UNL A   1      31.411  22.434  25.501  1.00  0.00     0.063 N 
ATOM     24  O   UNL A   1      30.907  23.010  24.526  1.00  0.00    -0.258 OA
ATOM     25  O   UNL A   1      31.042  22.568  26.670  1.00  0.00    -0.258 OA
ENDBRANCH  18  23
ENDBRANCH  14  16
ENDBRANCH  11  14
ENDBRANCH   5   8
ENDBRANCH   3   4
ENDBRANCH   2   3
ENDBRANCH   1   2
BRANCH   1  26
ATOM     26  C   UNL A   1      34.159  28.821  27.138  1.00  0.00     0.002 C 
BRANCH  26  27
ATOM     27  C   UNL A   1      35.304  29.295  28.037  1.00  0.00     0.021 C 
BRANCH  27  28
ATOM     28  C   UNL A   1      35.332  30.790  28.345  1.00  0.00     0.116 C 
BRANCH  28  29
ATOM     29  N   UNL A   1      35.398  31.065  29.769  1.00  0.00    -0.352 N 
ATOM     30  C   UNL A   1      36.430  30.879  30.654  1.00  0.00     0.251 C 
ATOM     31  H   UNL A   1      34.575  31.442  30.159  1.00  0.00     0.163 HD
ATOM     32  O   UNL A   1      36.230  31.025  31.856  1.00  0.00    -0.269 OA
BRANCH  30  33
ATOM     33  C   UNL A   1      37.775  30.487  30.174  1.00  0.00     0.039 A 
ATOM     34  C   UNL A   1      38.700  30.002  31.102  1.00  0.00     0.014 A 
ATOM     35  C   UNL A   1      38.144  30.633  28.833  1.00  0.00     0.014 A 
ATOM     36  C   UNL A   1      39.977  29.622  30.681  1.00  0.00     0.010 A 
ATOM     37  C   UNL A   1      39.399  30.198  28.403  1.00  0.00     0.010 A 
ATOM     38  C   UNL A   1      40.332  29.698  29.325  1.00  0.00    -0.014 A 
BRANCH  38  39
ATOM     39  C   UNL A   1      41.679  29.272  28.865  1.00  0.00     0.031 A 
ATOM     40  C   UNL A   1      42.811  30.262  28.807  1.00  0.00     0.074 A 
ATOM     41  C   UNL A   1      41.877  27.999  28.468  1.00  0.00     0.049 A 
ATOM     42  N   UNL A   1      44.050  30.077  28.428  1.00  0.00    -0.248 NA
ATOM     43  C   UNL A   1      42.508  31.645  29.211  1.00  0.00     0.031 C 
ATOM     44  C   UNL A   1      40.853  26.951  28.439  1.00  0.00     0.029 A 
ATOM     45  N   UNL A   1      43.009  27.369  28.013  1.00  0.00    -0.354 N 
ATOM     46  C   UNL A   1      44.670  31.317  28.532  1.00  0.00     0.074 A 
ATOM     47  C   UNL A   1      43.659  32.257  28.969  1.00  0.00     0.031 C 
ATOM     48  C   UNL A   1      41.410  25.805  28.015  1.00  0.00     0.029 A 
ATOM     49  C   UNL A   1      42.819  26.041  27.715  1.00  0.00     0.049 A 
ATOM     50  H   UNL A   1      43.874  27.827  27.910  1.00  0.00     0.167 HD
ATOM     51  C   UNL A   1      45.965  31.643  28.306  1.00  0.00     0.031 A 
ATOM     52  C   UNL A   1      43.681  25.114  27.253  1.00  0.00     0.031 A 
ATOM     53  C   UNL A   1      46.973  30.706  27.885  1.00  0.00     0.049 A 
ATOM     54  C   UNL A   1      45.115  25.499  27.012  1.00  0.00     0.074 A 
ATOM     55  C   UNL A   1      48.324  30.929  27.682  1.00  0.00     0.029 A 
ATOM     56  N   UNL A   1      46.741  29.368  27.601  1.00  0.00    -0.354 N 
ATOM     57  N   UNL A   1      45.695  26.663  27.181  1.00  0.00    -0.248 NA
ATOM     58  C   UNL A   1      46.013  24.440  26.530  1.00  0.00     0.031 C 
ATOM     59  C   UNL A   1      48.901  29.734  27.235  1.00  0.00     0.029 A 
ATOM     60  C   UNL A   1      47.919  28.758  27.205  1.00  0.00     0.049 A 
ATOM     61  H   UNL A   1      45.868  28.920  27.670  1.00  0.00     0.167 HD
ATOM     62  C   UNL A   1      47.031  26.472  26.845  1.00  0.00     0.074 A 
ATOM     63  C   UNL A   1      47.176  25.077  26.481  1.00  0.00     0.031 C 
ATOM     64  C   UNL A   1      48.047  27.370  26.841  1.00  0.00     0.031 A 
BRANCH  51  65
ATOM     65  C   UNL A   1      46.364  33.081  28.510  1.00  0.00    -0.014 A 
ATOM     66  C   UNL A   1      46.748  33.553  29.777  1.00  0.00     0.010 A 
ATOM     67  C   UNL A   1      46.386  33.963  27.414  1.00  0.00     0.010 A 
ATOM     68  C   UNL A   1      47.104  34.893  29.956  1.00  0.00     0.020 A 
ATOM     69  C   UNL A   1      46.766  35.299  27.583  1.00  0.00     0.020 A 
ATOM     70  C   UNL A   1      47.104  35.759  28.858  1.00  0.00     0.054 A 
BRANCH  70  71
ATOM     71  S   UNL A   1      47.581  37.490  29.114  1.00  0.00     0.124 S 
ATOM     72  O   UNL A   1      48.748  37.355  29.982  1.00  0.00    -0.237 OA
ATOM     73  O   UNL A   1      47.858  37.953  27.757  1.00  0.00    -0.237 OA
ATOM     74  O   UNL A   1      46.403  38.084  29.743  1.00  0.00    -0.744 OA
ENDBRANCH  70  71
ENDBRANCH  51  65
BRANCH  52  75
ATOM     75  C   UNL A   1      43.215  23.723  27.012  1.00  0.00    -0.014 A 
ATOM     76  C   UNL A   1      43.148  22.800  28.071  1.00  0.00     0.010 A 
ATOM     77  C   UNL A   1      42.823  23.316  25.724  1.00  0.00     0.010 A 
ATOM     78  C   UNL A   1      42.712  21.492  27.844  1.00  0.00     0.020 A 
ATOM     79  C   UNL A   1      42.362  22.015  25.498  1.00  0.00     0.020 A 
ATOM     80  C   UNL A   1      42.321  21.107  26.558  1.00  0.00     0.054 A 
BRANCH  80  81
ATOM     81  S   UNL A   1      41.706  19.421  26.295  1.00  0.00     0.124 S 
ATOM     82  O   UNL A   1      42.497  18.985  25.149  1.00  0.00    -0.237 OA
ATOM     83  O   UNL A   1      42.017  18.768  27.565  1.00  0.00    -0.237 OA
ATOM     84  O   UNL A   1      40.280  19.615  26.038  1.00  0.00    -0.744 OA
ENDBRANCH  80  81
ENDBRANCH  52  75
BRANCH  64  85
ATOM     85  C   UNL A   1      49.409  26.868  26.448  1.00  0.00    -0.014 A 
ATOM     86  C   UNL A   1      50.250  26.242  27.385  1.00  0.00     0.010 A 
ATOM     87  C   UNL A   1      49.834  26.983  25.112  1.00  0.00     0.010 A 
ATOM     88  C   UNL A   1      51.507  25.768  26.998  1.00  0.00     0.020 A 
ATOM     89  C   UNL A   1      51.080  26.489  24.717  1.00  0.00     0.020 A 
ATOM     90  C   UNL A   1      51.915  25.897  25.667  1.00  0.00     0.054 A 
BRANCH  90  91
ATOM     91  S   UNL A   1      53.534  25.239  25.180  1.00  0.00     0.124 S 
ATOM     92  O   UNL A   1      53.321  23.798  25.289  1.00  0.00    -0.237 OA
ATOM     93  O   UNL A   1      53.695  25.750  23.822  1.00  0.00    -0.237 OA
ATOM     94  O   UNL A   1      54.448  25.810  26.167  1.00  0.00    -0.744 OA
ENDBRANCH  90  91
ENDBRANCH  64  85
ENDBRANCH  38  39
ENDBRANCH  30  33
ENDBRANCH  28  29
ENDBRANCH  27  28
ENDBRANCH  26  27
ENDBRANCH   1  26
TORSDOF 19
ENDMDL
MODEL 3
REMARK VINA RESULT:     -10.8      6.191     11.881
REMARK SMILES C[C@@H]1[C@H](C(=O)NCCCCCCNC(=O)c2ccc(-c3c4nc(c(-c5ccc(S(=O)(=O)[O-])cc5)c5ccc([nH]5)c(-c5ccc(S(=O)(=O)[O-])cc5)c5nc(c(-c6ccc(S(=O)(=O)[O-])cc6)c6ccc3[nH]6)C=C5)C=C4)cc2)CCN1C(=O)c1c(Cl)cccc1[N+](=O)[O-]
REMARK SMILES IDX 9 1 8 2 7 3 6 4 4 5 5 6 3 8 1 9 2 10 78 11 76 12 77 13 79 14
REMARK SMILES IDX 80 15 81 16 82 17 87 18 83 19 84 20 86 21 85 22 88 23 89 24
REMARK SMILES IDX 90 25 10 26 11 27 12 28 13 29 14 30 15 32 16 33 17 34 75 35
REMARK SMILES IDX 18 36 74 37 19 38 20 39 21 40 68 41 22 42 73 43 67 44 69 45
REMARK SMILES IDX 23 46 72 47 66 48 65 49 24 51 54 52 35 53 53 54 36 55 39 56
REMARK SMILES IDX 52 57 70 58 37 59 38 60 51 62 71 63 40 64 25 65 26 66 34 67
REMARK SMILES IDX 27 68 33 69 28 70 29 71 30 72 31 73 32 74 55 75 56 76 64 77
REMARK SMILES IDX 57 78 63 79 58 80 59 81 60 82 61 83 62 84 41 85 42 86 50 87
REMARK SMILES IDX 43 88 49 89 44 90 45 91 46 92 47 93 48 94
REMARK H PARENT 6 7 13 31 69 50 39 61
REMARK Flexibility Score: inf
ROOT
ATOM      1  C   UNL A   1      33.092  29.046  27.141  1.00  0.00     0.002 C 
ENDROOT
BRANCH   1   2
ATOM      2  C   UNL A   1      34.126  28.307  26.288  1.00  0.00     0.021 C 
BRANCH   2   3
ATOM      3  C   UNL A   1      33.564  27.533  25.095  1.00  0.00     0.116 C 
BRANCH   3   4
ATOM      4  N   UNL A   1      32.207  27.949  24.777  1.00  0.00    -0.356 N 
ATOM      5  C   UNL A   1      31.069  27.245  24.552  1.00  0.00     0.225 C 
ATOM      6  O   UNL A   1      30.068  27.890  24.224  1.00  0.00    -0.275 OA
ATOM      7  H   UNL A   1      32.093  28.925  24.714  1.00  0.00     0.163 HD
BRANCH   5   8
ATOM      8  C   UNL A   1      30.972  25.730  24.669  1.00  0.00     0.102 C 
ATOM      9  C   UNL A   1      31.985  25.606  22.271  1.00  0.00     0.032 C 
ATOM     10  C   UNL A   1      31.374  24.866  23.451  1.00  0.00     0.094 C 
ATOM     11  N   UNL A   1      32.188  23.774  24.021  1.00  0.00    -0.335 N 
ATOM     12  C   UNL A   1      31.692  25.148  25.887  1.00  0.00     0.037 C 
ATOM     13  C   UNL A   1      32.074  23.746  25.468  1.00  0.00     0.121 C 
BRANCH  11  14
ATOM     14  C   UNL A   1      32.711  22.640  23.418  1.00  0.00     0.262 C 
ATOM     15  O   UNL A   1      32.260  22.146  22.387  1.00  0.00    -0.269 OA
BRANCH  14  16
ATOM     16  C   UNL A   1      33.867  21.959  24.006  1.00  0.00     0.136 A 
ATOM     17  C   UNL A   1      35.103  22.611  24.048  1.00  0.00     0.060 A 
ATOM     18  C   UNL A   1      33.782  20.635  24.454  1.00  0.00     0.283 A 
ATOM     19  Cl  UNL A   1      35.313  24.239  23.507  1.00  0.00    -0.083 Cl
ATOM     20  C   UNL A   1      36.228  21.955  24.566  1.00  0.00     0.022 A 
ATOM     21  C   UNL A   1      34.904  19.980  24.988  1.00  0.00     0.086 A 
ATOM     22  C   UNL A   1      36.127  20.645  25.041  1.00  0.00     0.009 A 
BRANCH  18  23
ATOM     23  N   UNL A   1      32.517  19.913  24.453  1.00  0.00     0.063 N 
ATOM     24  O   UNL A   1      31.703  20.226  25.336  1.00  0.00    -0.258 OA
ATOM     25  O   UNL A   1      32.333  19.047  23.597  1.00  0.00    -0.258 OA
ENDBRANCH  18  23
ENDBRANCH  14  16
ENDBRANCH  11  14
ENDBRANCH   5   8
ENDBRANCH   3   4
ENDBRANCH   2   3
ENDBRANCH   1   2
BRANCH   1  26
ATOM     26  C   UNL A   1      33.216  30.571  27.163  1.00  0.00     0.002 C 
BRANCH  26  27
ATOM     27  C   UNL A   1      34.573  31.124  27.605  1.00  0.00     0.021 C 
BRANCH  27  28
ATOM     28  C   UNL A   1      35.505  30.128  28.291  1.00  0.00     0.116 C 
BRANCH  28  29
ATOM     29  N   UNL A   1      35.530  30.290  29.734  1.00  0.00    -0.352 N 
ATOM     30  C   UNL A   1      36.530  30.014  30.633  1.00  0.00     0.251 C 
ATOM     31  H   UNL A   1      34.702  30.652  30.127  1.00  0.00     0.163 HD
ATOM     32  O   UNL A   1      36.294  30.070  31.836  1.00  0.00    -0.269 OA
BRANCH  30  33
ATOM     33  C   UNL A   1      37.882  29.632  30.164  1.00  0.00     0.039 A 
ATOM     34  C   UNL A   1      38.157  29.698  28.796  1.00  0.00     0.014 A 
ATOM     35  C   UNL A   1      38.860  29.172  31.051  1.00  0.00     0.014 A 
ATOM     36  C   UNL A   1      39.424  29.346  28.322  1.00  0.00     0.010 A 
ATOM     37  C   UNL A   1      40.142  28.877  30.585  1.00  0.00     0.010 A 
ATOM     38  C   UNL A   1      40.434  28.951  29.214  1.00  0.00    -0.014 A 
BRANCH  38  39
ATOM     39  C   UNL A   1      41.791  28.600  28.721  1.00  0.00     0.031 A 
ATOM     40  C   UNL A   1      42.865  29.652  28.638  1.00  0.00     0.074 A 
ATOM     41  C   UNL A   1      42.049  27.342  28.314  1.00  0.00     0.049 A 
ATOM     42  N   UNL A   1      44.103  29.537  28.228  1.00  0.00    -0.248 NA
ATOM     43  C   UNL A   1      42.497  31.015  29.054  1.00  0.00     0.031 C 
ATOM     44  C   UNL A   1      41.085  26.239  28.306  1.00  0.00     0.029 A 
ATOM     45  N   UNL A   1      43.203  26.777  27.829  1.00  0.00    -0.354 N 
ATOM     46  C   UNL A   1      44.655  30.809  28.322  1.00  0.00     0.074 A 
ATOM     47  C   UNL A   1      43.605  31.691  28.786  1.00  0.00     0.031 C 
ATOM     48  C   UNL A   1      41.693  25.127  27.864  1.00  0.00     0.029 A 
ATOM     49  C   UNL A   1      43.079  25.441  27.530  1.00  0.00     0.049 A 
ATOM     50  H   UNL A   1      44.039  27.282  27.706  1.00  0.00     0.167 HD
ATOM     51  C   UNL A   1      45.925  31.206  28.065  1.00  0.00     0.031 A 
ATOM     52  C   UNL A   1      43.980  24.564  27.044  1.00  0.00     0.031 A 
ATOM     53  C   UNL A   1      46.972  30.328  27.616  1.00  0.00     0.049 A 
ATOM     54  C   UNL A   1      45.383  25.028  26.769  1.00  0.00     0.074 A 
ATOM     55  C   UNL A   1      48.303  30.625  27.381  1.00  0.00     0.029 A 
ATOM     56  N   UNL A   1      46.808  28.980  27.333  1.00  0.00    -0.354 N 
ATOM     57  N   UNL A   1      45.902  26.222  26.928  1.00  0.00    -0.248 NA
ATOM     58  C   UNL A   1      46.327  24.022  26.262  1.00  0.00     0.031 C 
ATOM     59  C   UNL A   1      48.935  29.466  26.916  1.00  0.00     0.029 A 
ATOM     60  C   UNL A   1      48.007  28.437  26.906  1.00  0.00     0.049 A 
ATOM     61  H   UNL A   1      45.962  28.484  27.422  1.00  0.00     0.167 HD
ATOM     62  C   UNL A   1      47.238  26.106  26.559  1.00  0.00     0.074 A 
ATOM     63  C   UNL A   1      47.451  24.722  26.186  1.00  0.00     0.031 C 
ATOM     64  C   UNL A   1      48.202  27.059  26.533  1.00  0.00     0.031 A 
BRANCH  51  65
ATOM     65  C   UNL A   1      46.248  32.664  28.264  1.00  0.00    -0.014 A 
ATOM     66  C   UNL A   1      46.075  33.593  27.223  1.00  0.00     0.010 A 
ATOM     67  C   UNL A   1      46.699  33.116  29.518  1.00  0.00     0.010 A 
ATOM     68  C   UNL A   1      46.390  34.941  27.417  1.00  0.00     0.020 A 
ATOM     69  C   UNL A   1      46.992  34.468  29.724  1.00  0.00     0.020 A 
ATOM     70  C   UNL A   1      46.853  35.369  28.665  1.00  0.00     0.054 A 
BRANCH  70  71
ATOM     71  S   UNL A   1      47.244  37.125  28.894  1.00  0.00     0.124 S 
ATOM     72  O   UNL A   1      46.265  37.767  28.021  1.00  0.00    -0.237 OA
ATOM     73  O   UNL A   1      47.031  37.319  30.326  1.00  0.00    -0.237 OA
ATOM     74  O   UNL A   1      48.633  37.231  28.454  1.00  0.00    -0.744 OA
ENDBRANCH  70  71
ENDBRANCH  51  65
BRANCH  52  75
ATOM     75  C   UNL A   1      43.585  23.149  26.810  1.00  0.00    -0.014 A 
ATOM     76  C   UNL A   1      43.816  22.543  25.563  1.00  0.00     0.010 A 
ATOM     77  C   UNL A   1      42.987  22.397  27.836  1.00  0.00     0.010 A 
ATOM     78  C   UNL A   1      43.444  21.214  25.341  1.00  0.00     0.020 A 
ATOM     79  C   UNL A   1      42.635  21.060  27.626  1.00  0.00     0.020 A 
ATOM     80  C   UNL A   1      42.855  20.480  26.376  1.00  0.00     0.054 A 
BRANCH  80  81
ATOM     81  S   UNL A   1      42.429  18.741  26.085  1.00  0.00     0.124 S 
ATOM     82  O   UNL A   1      42.705  18.140  27.385  1.00  0.00    -0.237 OA
ATOM     83  O   UNL A   1      41.019  18.818  25.708  1.00  0.00    -0.237 OA
ATOM     84  O   UNL A   1      43.332  18.345  25.005  1.00  0.00    -0.744 OA
ENDBRANCH  80  81
ENDBRANCH  52  75
BRANCH  64  85
ATOM     85  C   UNL A   1      49.580  26.634  26.105  1.00  0.00    -0.014 A 
ATOM     86  C   UNL A   1      50.034  26.856  24.793  1.00  0.00     0.010 A 
ATOM     87  C   UNL A   1      50.448  26.044  27.042  1.00  0.00     0.010 A 
ATOM     88  C   UNL A   1      51.323  26.468  24.418  1.00  0.00     0.020 A 
ATOM     89  C   UNL A   1      51.746  25.677  26.677  1.00  0.00     0.020 A 
ATOM     90  C   UNL A   1      52.170  25.879  25.361  1.00  0.00     0.054 A 
BRANCH  90  91
ATOM     91  S   UNL A   1      53.852  25.419  24.861  1.00  0.00     0.124 S 
ATOM     92  O   UNL A   1      53.934  25.986  23.517  1.00  0.00    -0.237 OA
ATOM     93  O   UNL A   1      54.679  26.073  25.871  1.00  0.00    -0.237 OA
ATOM     94  O   UNL A   1      53.843  23.959  24.922  1.00  0.00    -0.744 OA
ENDBRANCH  90  91
ENDBRANCH  64  85
ENDBRANCH  38  39
ENDBRANCH  30  33
ENDBRANCH  28  29
ENDBRANCH  27  28
ENDBRANCH  26  27
ENDBRANCH   1  26
TORSDOF 19
ENDMDL
