MODEL 1
REMARK VINA RESULT:      -9.2      0.000      0.000
REMARK SMILES O=C(NCCCCCCNC(=O)c1ccc(-c2c3nc(c(-c4ccc(S(=O)(=O)[O-])cc4)c4ccc([nH]4)c(-c4ccc(S(=O)(=O)[O-])cc4)c4nc(c(-c5ccc(S(=O)(=O)[O-])cc5)c5ccc2[nH]5)C=C4)C=C3)cc1)c1ccc(NC(=O)[C@@H]2CC=CC[C@H]2C(=O)Nc2cccc([N+](=O)[O-])c2)cc1
REMARK SMILES IDX 5 1 4 2 3 3 1 4 2 5 73 7 74 8 99 9 75 10 98 11 76 12 77 13
REMARK SMILES IDX 78 14 79 16 80 17 81 18 85 19 82 20 84 21 83 22 86 23 87 24
REMARK SMILES IDX 88 25 89 27 90 28 97 29 91 30 93 31 92 32 94 33 95 34 96 35
REMARK SMILES IDX 6 36 7 37 8 38 9 39 10 40 11 41 12 43 13 44 14 45 72 46
REMARK SMILES IDX 15 47 71 48 16 49 17 50 18 51 65 52 19 53 70 54 64 55 66 56
REMARK SMILES IDX 20 57 69 58 63 59 62 60 21 62 51 63 32 64 50 65 33 66 36 67
REMARK SMILES IDX 49 68 67 69 34 70 35 71 48 73 68 74 37 75 22 76 23 77 31 78
REMARK SMILES IDX 24 79 30 80 25 81 26 82 27 83 28 84 29 85 52 86 53 87 61 88
REMARK SMILES IDX 54 89 60 90 55 91 56 92 57 93 58 94 59 95 38 96 39 97 47 98
REMARK SMILES IDX 40 99 46 100 41 101 42 102 43 103 44 104 45 105
REMARK H PARENT 3 6 77 15 88 26 10 42 66 61 36 72
REMARK Flexibility Score: inf
ROOT
ATOM      1  C   UNL A   1      36.773  33.372  31.703  1.00  0.00     0.021 C 
ENDROOT
BRANCH   1   2
ATOM      2  C   UNL A   1      37.664  34.019  32.749  1.00  0.00     0.116 C 
BRANCH   2   3
ATOM      3  N   UNL A   1      37.267  33.714  34.118  1.00  0.00    -0.352 N 
ATOM      4  O   UNL A   1      37.084  32.431  35.976  1.00  0.00    -0.269 OA
ATOM      5  C   UNL A   1      37.591  32.613  34.880  1.00  0.00     0.251 C 
ATOM      6  H   UNL A   1      36.692  34.382  34.556  1.00  0.00     0.163 HD
BRANCH   5   7
ATOM      7  C   UNL A   1      38.559  31.631  34.339  1.00  0.00     0.039 A 
ATOM      8  C   UNL A   1      38.101  30.538  33.612  1.00  0.00     0.016 A 
ATOM      9  C   UNL A   1      39.922  31.763  34.603  1.00  0.00     0.016 A 
ATOM     10  C   UNL A   1      38.974  29.514  33.284  1.00  0.00     0.027 A 
ATOM     11  C   UNL A   1      40.808  30.775  34.157  1.00  0.00     0.027 A 
ATOM     12  C   UNL A   1      40.337  29.644  33.475  1.00  0.00     0.041 A 
BRANCH  12  13
ATOM     13  N   UNL A   1      41.286  28.734  32.995  1.00  0.00    -0.326 N 
ATOM     14  C   UNL A   1      42.445  28.214  33.468  1.00  0.00     0.228 C 
ATOM     15  H   UNL A   1      41.058  28.391  32.101  1.00  0.00     0.169 HD
ATOM     16  O   UNL A   1      42.983  27.369  32.735  1.00  0.00    -0.274 OA
BRANCH  14  17
ATOM     17  C   UNL A   1      43.154  28.573  34.774  1.00  0.00     0.095 C 
ATOM     18  C   UNL A   1      44.137  29.758  34.733  1.00  0.00     0.041 C 
ATOM     19  C   UNL A   1      43.551  27.302  35.542  1.00  0.00     0.095 C 
ATOM     20  C   UNL A   1      45.360  29.618  35.589  1.00  0.00    -0.030 C 
ATOM     21  C   UNL A   1      44.654  27.445  36.605  1.00  0.00     0.041 C 
ATOM     22  C   UNL A   1      45.592  28.591  36.413  1.00  0.00    -0.030 C 
BRANCH  19  23
ATOM     23  C   UNL A   1      42.350  26.515  36.117  1.00  0.00     0.228 C 
ATOM     24  O   UNL A   1      41.396  27.148  36.586  1.00  0.00    -0.274 OA
ATOM     25  N   UNL A   1      42.211  25.151  36.028  1.00  0.00    -0.326 N 
ATOM     26  H   UNL A   1      41.331  24.805  36.305  1.00  0.00     0.169 HD
BRANCH  25  27
ATOM     27  C   UNL A   1      43.121  24.176  35.605  1.00  0.00     0.048 A 
ATOM     28  C   UNL A   1      42.971  23.609  34.339  1.00  0.00     0.026 A 
ATOM     29  C   UNL A   1      44.165  23.752  36.420  1.00  0.00     0.111 A 
ATOM     30  C   UNL A   1      43.966  22.770  33.825  1.00  0.00     0.009 A 
ATOM     31  C   UNL A   1      45.196  22.975  35.885  1.00  0.00     0.271 A 
ATOM     32  C   UNL A   1      45.107  22.487  34.580  1.00  0.00     0.086 A 
BRANCH  31  33
ATOM     33  N   UNL A   1      46.405  22.740  36.685  1.00  0.00     0.062 N 
ATOM     34  O   UNL A   1      46.259  22.336  37.847  1.00  0.00    -0.258 OA
ATOM     35  O   UNL A   1      47.503  22.930  36.143  1.00  0.00    -0.258 OA
ENDBRANCH  31  33
ENDBRANCH  25  27
ENDBRANCH  19  23
ENDBRANCH  14  17
ENDBRANCH  12  13
ENDBRANCH   5   7
ENDBRANCH   2   3
ENDBRANCH   1   2
BRANCH   1  36
ATOM     36  C   UNL A   1      37.440  33.134  30.351  1.00  0.00     0.002 C 
BRANCH  36  37
ATOM     37  C   UNL A   1      36.904  33.974  29.189  1.00  0.00     0.002 C 
BRANCH  37  38
ATOM     38  C   UNL A   1      35.780  33.341  28.362  1.00  0.00     0.021 C 
BRANCH  38  39
ATOM     39  C   UNL A   1      34.652  32.696  29.163  1.00  0.00     0.116 C 
BRANCH  39  40
ATOM     40  N   UNL A   1      33.943  31.674  28.414  1.00  0.00    -0.352 N 
ATOM     41  C   UNL A   1      34.397  30.472  27.931  1.00  0.00     0.251 C 
ATOM     42  H   UNL A   1      32.997  31.871  28.226  1.00  0.00     0.163 HD
ATOM     43  O   UNL A   1      33.674  29.796  27.206  1.00  0.00    -0.269 OA
BRANCH  41  44
ATOM     44  C   UNL A   1      35.763  30.008  28.255  1.00  0.00     0.039 A 
ATOM     45  C   UNL A   1      36.732  30.026  27.247  1.00  0.00     0.014 A 
ATOM     46  C   UNL A   1      36.090  29.546  29.534  1.00  0.00     0.014 A 
ATOM     47  C   UNL A   1      38.041  29.634  27.535  1.00  0.00     0.010 A 
ATOM     48  C   UNL A   1      37.410  29.213  29.834  1.00  0.00     0.010 A 
ATOM     49  C   UNL A   1      38.397  29.253  28.838  1.00  0.00    -0.014 A 
BRANCH  49  50
ATOM     50  C   UNL A   1      39.798  28.895  29.176  1.00  0.00     0.031 A 
ATOM     51  C   UNL A   1      40.704  29.905  29.824  1.00  0.00     0.074 A 
ATOM     52  C   UNL A   1      40.273  27.679  28.845  1.00  0.00     0.049 A 
ATOM     53  N   UNL A   1      41.971  29.797  30.133  1.00  0.00    -0.248 NA
ATOM     54  C   UNL A   1      40.115  31.215  30.143  1.00  0.00     0.031 C 
ATOM     55  C   UNL A   1      39.507  26.624  28.175  1.00  0.00     0.029 A 
ATOM     56  N   UNL A   1      41.518  27.129  29.015  1.00  0.00    -0.354 N 
ATOM     57  C   UNL A   1      42.334  31.026  30.671  1.00  0.00     0.074 A 
ATOM     58  C   UNL A   1      41.166  31.879  30.602  1.00  0.00     0.031 C 
ATOM     59  C   UNL A   1      40.297  25.551  28.003  1.00  0.00     0.029 A 
ATOM     60  C   UNL A   1      41.629  25.851  28.518  1.00  0.00     0.049 A 
ATOM     61  H   UNL A   1      42.263  27.603  29.450  1.00  0.00     0.167 HD
ATOM     62  C   UNL A   1      43.526  31.407  31.192  1.00  0.00     0.031 A 
ATOM     63  C   UNL A   1      42.685  25.016  28.474  1.00  0.00     0.031 A 
ATOM     64  C   UNL A   1      44.686  30.558  31.264  1.00  0.00     0.049 A 
ATOM     65  C   UNL A   1      43.996  25.455  29.062  1.00  0.00     0.074 A 
ATOM     66  C   UNL A   1      45.927  30.839  31.808  1.00  0.00     0.029 A 
ATOM     67  N   UNL A   1      44.748  29.262  30.776  1.00  0.00    -0.354 N 
ATOM     68  N   UNL A   1      44.306  26.604  29.612  1.00  0.00    -0.248 NA
ATOM     69  C   UNL A   1      45.096  24.480  29.037  1.00  0.00     0.031 C 
ATOM     70  C   UNL A   1      46.752  29.724  31.615  1.00  0.00     0.029 A 
ATOM     71  C   UNL A   1      46.009  28.733  30.993  1.00  0.00     0.049 A 
ATOM     72  H   UNL A   1      44.004  28.787  30.339  1.00  0.00     0.167 HD
ATOM     73  C   UNL A   1      45.631  26.486  30.016  1.00  0.00     0.074 A 
ATOM     74  C   UNL A   1      46.058  25.147  29.660  1.00  0.00     0.031 C 
ATOM     75  C   UNL A   1      46.421  27.402  30.627  1.00  0.00     0.031 A 
BRANCH  62  76
ATOM     76  C   UNL A   1      43.627  32.814  31.720  1.00  0.00    -0.014 A 
ATOM     77  C   UNL A   1      43.324  33.104  33.063  1.00  0.00     0.010 A 
ATOM     78  C   UNL A   1      44.038  33.856  30.869  1.00  0.00     0.010 A 
ATOM     79  C   UNL A   1      43.378  34.419  33.532  1.00  0.00     0.020 A 
ATOM     80  C   UNL A   1      44.119  35.169  31.342  1.00  0.00     0.020 A 
ATOM     81  C   UNL A   1      43.766  35.445  32.666  1.00  0.00     0.054 A 
BRANCH  81  82
ATOM     82  S   UNL A   1      43.823  37.144  33.298  1.00  0.00     0.124 S 
ATOM     83  O   UNL A   1      42.658  37.175  34.179  1.00  0.00    -0.237 OA
ATOM     84  O   UNL A   1      45.118  37.196  33.969  1.00  0.00    -0.237 OA
ATOM     85  O   UNL A   1      43.715  37.964  32.094  1.00  0.00    -0.744 OA
ENDBRANCH  81  82
ENDBRANCH  62  76
BRANCH  63  86
ATOM     86  C   UNL A   1      42.532  23.674  27.853  1.00  0.00    -0.014 A 
ATOM     87  C   UNL A   1      42.874  23.465  26.506  1.00  0.00     0.010 A 
ATOM     88  C   UNL A   1      42.078  22.588  28.622  1.00  0.00     0.010 A 
ATOM     89  C   UNL A   1      42.758  22.194  25.936  1.00  0.00     0.020 A 
ATOM     90  C   UNL A   1      41.983  21.310  28.063  1.00  0.00     0.020 A 
ATOM     91  C   UNL A   1      42.316  21.123  26.720  1.00  0.00     0.054 A 
BRANCH  91  92
ATOM     92  S   UNL A   1      42.243  19.466  25.984  1.00  0.00     0.124 S 
ATOM     93  O   UNL A   1      43.151  19.598  24.849  1.00  0.00    -0.237 OA
ATOM     94  O   UNL A   1      42.710  18.614  27.076  1.00  0.00    -0.237 OA
ATOM     95  O   UNL A   1      40.830  19.308  25.643  1.00  0.00    -0.744 OA
ENDBRANCH  91  92
ENDBRANCH  63  86
BRANCH  75  96
ATOM     96  C   UNL A   1      47.826  26.983  30.970  1.00  0.00    -0.014 A 
ATOM     97  C   UNL A   1      48.926  27.473  30.246  1.00  0.00     0.010 A 
ATOM     98  C   UNL A   1      48.047  26.129  32.065  1.00  0.00     0.010 A 
ATOM     99  C   UNL A   1      50.224  27.093  30.594  1.00  0.00     0.020 A 
ATOM    100  C   UNL A   1      49.345  25.765  32.430  1.00  0.00     0.020 A 
ATOM    101  C   UNL A   1      50.426  26.238  31.684  1.00  0.00     0.054 A 
BRANCH 101 102
ATOM    102  S   UNL A   1      52.123  25.794  32.145  1.00  0.00     0.124 S 
ATOM    103  O   UNL A   1      51.946  24.453  32.695  1.00  0.00    -0.237 OA
ATOM    104  O   UNL A   1      52.833  25.862  30.871  1.00  0.00    -0.237 OA
ATOM    105  O   UNL A   1      52.497  26.821  33.115  1.00  0.00    -0.744 OA
ENDBRANCH 101 102
ENDBRANCH  75  96
ENDBRANCH  49  50
ENDBRANCH  41  44
ENDBRANCH  39  40
ENDBRANCH  38  39
ENDBRANCH  37  38
ENDBRANCH  36  37
ENDBRANCH   1  36
TORSDOF 21
ENDMDL
MODEL 2
REMARK VINA RESULT:      -8.7      5.626     13.633
REMARK SMILES O=C(NCCCCCCNC(=O)c1ccc(-c2c3nc(c(-c4ccc(S(=O)(=O)[O-])cc4)c4ccc([nH]4)c(-c4ccc(S(=O)(=O)[O-])cc4)c4nc(c(-c5ccc(S(=O)(=O)[O-])cc5)c5ccc2[nH]5)C=C4)C=C3)cc1)c1ccc(NC(=O)[C@@H]2CC=CC[C@H]2C(=O)Nc2cccc([N+](=O)[O-])c2)cc1
REMARK SMILES IDX 5 1 4 2 3 3 1 4 2 5 73 7 74 8 99 9 75 10 98 11 76 12 77 13
REMARK SMILES IDX 78 14 79 16 80 17 81 18 85 19 82 20 84 21 83 22 86 23 87 24
REMARK SMILES IDX 88 25 89 27 90 28 97 29 91 30 93 31 92 32 94 33 95 34 96 35
REMARK SMILES IDX 6 36 7 37 8 38 9 39 10 40 11 41 12 43 13 44 14 45 72 46
REMARK SMILES IDX 15 47 71 48 16 49 17 50 18 51 65 52 19 53 70 54 64 55 66 56
REMARK SMILES IDX 20 57 69 58 63 59 62 60 21 62 51 63 32 64 50 65 33 66 36 67
REMARK SMILES IDX 49 68 67 69 34 70 35 71 48 73 68 74 37 75 22 76 23 77 31 78
REMARK SMILES IDX 24 79 30 80 25 81 26 82 27 83 28 84 29 85 52 86 53 87 61 88
REMARK SMILES IDX 54 89 60 90 55 91 56 92 57 93 58 94 59 95 38 96 39 97 47 98
REMARK SMILES IDX 40 99 46 100 41 101 42 102 43 103 44 104 45 105
REMARK H PARENT 3 6 77 15 88 26 10 42 66 61 36 72
REMARK Flexibility Score: inf
ROOT
ATOM      1  C   UNL A   1      36.312  23.033  25.398  1.00  0.00     0.021 C 
ENDROOT
BRANCH   1   2
ATOM      2  C   UNL A   1      35.779  21.927  26.292  1.00  0.00     0.116 C 
BRANCH   2   3
ATOM      3  N   UNL A   1      35.432  20.711  25.567  1.00  0.00    -0.352 N 
ATOM      4  O   UNL A   1      34.074  19.314  24.413  1.00  0.00    -0.269 OA
ATOM      5  C   UNL A   1      34.277  20.427  24.872  1.00  0.00     0.251 C 
ATOM      6  H   UNL A   1      36.113  20.000  25.574  1.00  0.00     0.163 HD
BRANCH   5   7
ATOM      7  C   UNL A   1      33.264  21.494  24.704  1.00  0.00     0.039 A 
ATOM      8  C   UNL A   1      32.483  21.882  25.787  1.00  0.00     0.016 A 
ATOM      9  C   UNL A   1      33.050  22.074  23.455  1.00  0.00     0.016 A 
ATOM     10  C   UNL A   1      31.401  22.724  25.590  1.00  0.00     0.027 A 
ATOM     11  C   UNL A   1      32.026  23.017  23.299  1.00  0.00     0.027 A 
ATOM     12  C   UNL A   1      31.200  23.363  24.380  1.00  0.00     0.041 A 
BRANCH  12  13
ATOM     13  N   UNL A   1      30.247  24.366  24.171  1.00  0.00    -0.326 N 
ATOM     14  C   UNL A   1      30.201  25.706  24.368  1.00  0.00     0.228 C 
ATOM     15  H   UNL A   1      29.409  24.014  23.791  1.00  0.00     0.169 HD
ATOM     16  O   UNL A   1      29.156  26.260  23.992  1.00  0.00    -0.274 OA
BRANCH  14  17
ATOM     17  C   UNL A   1      31.275  26.582  25.013  1.00  0.00     0.095 C 
ATOM     18  C   UNL A   1      31.595  26.317  26.496  1.00  0.00     0.041 C 
ATOM     19  C   UNL A   1      31.155  28.035  24.525  1.00  0.00     0.095 C 
ATOM     20  C   UNL A   1      31.913  27.528  27.321  1.00  0.00    -0.030 C 
ATOM     21  C   UNL A   1      31.818  29.119  25.393  1.00  0.00     0.041 C 
ATOM     22  C   UNL A   1      32.005  28.770  26.833  1.00  0.00    -0.030 C 
BRANCH  19  23
ATOM     23  C   UNL A   1      31.532  28.232  23.039  1.00  0.00     0.228 C 
ATOM     24  O   UNL A   1      32.584  27.731  22.623  1.00  0.00    -0.274 OA
ATOM     25  N   UNL A   1      30.711  28.821  22.108  1.00  0.00    -0.326 N 
ATOM     26  H   UNL A   1      31.019  28.745  21.176  1.00  0.00     0.169 HD
BRANCH  25  27
ATOM     27  C   UNL A   1      29.505  29.512  22.276  1.00  0.00     0.048 A 
ATOM     28  C   UNL A   1      28.420  28.853  22.855  1.00  0.00     0.026 A 
ATOM     29  C   UNL A   1      29.360  30.834  21.871  1.00  0.00     0.111 A 
ATOM     30  C   UNL A   1      27.268  29.570  23.198  1.00  0.00     0.009 A 
ATOM     31  C   UNL A   1      28.243  31.569  22.277  1.00  0.00     0.271 A 
ATOM     32  C   UNL A   1      27.194  30.942  22.951  1.00  0.00     0.086 A 
BRANCH  31  33
ATOM     33  N   UNL A   1      28.220  33.019  22.050  1.00  0.00     0.062 N 
ATOM     34  O   UNL A   1      28.767  33.745  22.892  1.00  0.00    -0.258 OA
ATOM     35  O   UNL A   1      27.681  33.434  21.013  1.00  0.00    -0.258 OA
ENDBRANCH  31  33
ENDBRANCH  25  27
ENDBRANCH  19  23
ENDBRANCH  14  17
ENDBRANCH  12  13
ENDBRANCH   5   7
ENDBRANCH   2   3
ENDBRANCH   1   2
BRANCH   1  36
ATOM     36  C   UNL A   1      37.152  24.088  26.113  1.00  0.00     0.002 C 
BRANCH  36  37
ATOM     37  C   UNL A   1      38.629  23.736  26.311  1.00  0.00     0.002 C 
BRANCH  37  38
ATOM     38  C   UNL A   1      39.231  24.097  27.673  1.00  0.00     0.021 C 
BRANCH  38  39
ATOM     39  C   UNL A   1      40.609  24.752  27.635  1.00  0.00     0.116 C 
BRANCH  39  40
ATOM     40  N   UNL A   1      40.713  25.787  26.623  1.00  0.00    -0.352 N 
ATOM     41  C   UNL A   1      40.742  27.152  26.768  1.00  0.00     0.251 C 
ATOM     42  H   UNL A   1      40.772  25.463  25.695  1.00  0.00     0.163 HD
ATOM     43  O   UNL A   1      40.706  27.870  25.774  1.00  0.00    -0.269 OA
BRANCH  41  44
ATOM     44  C   UNL A   1      40.784  27.756  28.117  1.00  0.00     0.039 A 
ATOM     45  C   UNL A   1      41.633  28.845  28.334  1.00  0.00     0.014 A 
ATOM     46  C   UNL A   1      40.008  27.252  29.164  1.00  0.00     0.014 A 
ATOM     47  C   UNL A   1      41.662  29.463  29.586  1.00  0.00     0.010 A 
ATOM     48  C   UNL A   1      39.993  27.908  30.395  1.00  0.00     0.010 A 
ATOM     49  C   UNL A   1      40.821  29.018  30.618  1.00  0.00    -0.014 A 
BRANCH  49  50
ATOM     50  C   UNL A   1      40.792  29.705  31.934  1.00  0.00     0.031 A 
ATOM     51  C   UNL A   1      39.685  30.667  32.265  1.00  0.00     0.074 A 
ATOM     52  C   UNL A   1      41.797  29.507  32.809  1.00  0.00     0.049 A 
ATOM     53  N   UNL A   1      39.527  31.406  33.333  1.00  0.00    -0.248 NA
ATOM     54  C   UNL A   1      38.631  30.838  31.251  1.00  0.00     0.031 C 
ATOM     55  C   UNL A   1      42.951  28.632  32.590  1.00  0.00     0.029 A 
ATOM     56  N   UNL A   1      42.016  30.040  34.054  1.00  0.00    -0.354 N 
ATOM     57  C   UNL A   1      38.366  32.138  33.117  1.00  0.00     0.074 A 
ATOM     58  C   UNL A   1      37.886  31.789  31.796  1.00  0.00     0.031 C 
ATOM     59  C   UNL A   1      43.749  28.679  33.670  1.00  0.00     0.029 A 
ATOM     60  C   UNL A   1      43.182  29.610  34.641  1.00  0.00     0.049 A 
ATOM     61  H   UNL A   1      41.397  30.672  34.487  1.00  0.00     0.167 HD
ATOM     62  C   UNL A   1      37.744  33.009  33.948  1.00  0.00     0.031 A 
ATOM     63  C   UNL A   1      43.739  29.933  35.824  1.00  0.00     0.031 A 
ATOM     64  C   UNL A   1      38.218  33.354  35.261  1.00  0.00     0.049 A 
ATOM     65  C   UNL A   1      43.030  30.896  36.734  1.00  0.00     0.074 A 
ATOM     66  C   UNL A   1      37.638  34.196  36.194  1.00  0.00     0.029 A 
ATOM     67  N   UNL A   1      39.388  32.873  35.830  1.00  0.00    -0.354 N 
ATOM     68  N   UNL A   1      41.906  31.541  36.532  1.00  0.00    -0.248 NA
ATOM     69  C   UNL A   1      43.657  31.166  38.035  1.00  0.00     0.031 C 
ATOM     70  C   UNL A   1      38.478  34.254  37.313  1.00  0.00     0.029 A 
ATOM     71  C   UNL A   1      39.556  33.412  37.095  1.00  0.00     0.049 A 
ATOM     72  H   UNL A   1      40.008  32.243  35.398  1.00  0.00     0.167 HD
ATOM     73  C   UNL A   1      41.681  32.278  37.689  1.00  0.00     0.074 A 
ATOM     74  C   UNL A   1      42.778  31.988  38.591  1.00  0.00     0.031 C 
ATOM     75  C   UNL A   1      40.657  33.118  37.978  1.00  0.00     0.031 A 
BRANCH  62  76
ATOM     76  C   UNL A   1      36.478  33.654  33.445  1.00  0.00    -0.014 A 
ATOM     77  C   UNL A   1      35.220  33.088  33.726  1.00  0.00     0.010 A 
ATOM     78  C   UNL A   1      36.544  34.840  32.694  1.00  0.00     0.010 A 
ATOM     79  C   UNL A   1      34.055  33.669  33.218  1.00  0.00     0.020 A 
ATOM     80  C   UNL A   1      35.378  35.439  32.207  1.00  0.00     0.020 A 
ATOM     81  C   UNL A   1      34.142  34.835  32.453  1.00  0.00     0.054 A 
BRANCH  81  82
ATOM     82  S   UNL A   1      32.616  35.567  31.801  1.00  0.00     0.124 S 
ATOM     83  O   UNL A   1      31.603  34.959  32.660  1.00  0.00    -0.237 OA
ATOM     84  O   UNL A   1      32.832  36.997  32.001  1.00  0.00    -0.237 OA
ATOM     85  O   UNL A   1      32.593  35.132  30.407  1.00  0.00    -0.744 OA
ENDBRANCH  81  82
ENDBRANCH  62  76
BRANCH  63  86
ATOM     86  C   UNL A   1      45.039  29.324  36.212  1.00  0.00    -0.014 A 
ATOM     87  C   UNL A   1      46.237  30.048  36.081  1.00  0.00     0.010 A 
ATOM     88  C   UNL A   1      45.078  28.026  36.752  1.00  0.00     0.010 A 
ATOM     89  C   UNL A   1      47.452  29.482  36.477  1.00  0.00     0.020 A 
ATOM     90  C   UNL A   1      46.288  27.466  37.171  1.00  0.00     0.020 A 
ATOM     91  C   UNL A   1      47.469  28.195  37.023  1.00  0.00     0.054 A 
BRANCH  91  92
ATOM     92  S   UNL A   1      49.045  27.506  37.600  1.00  0.00     0.124 S 
ATOM     93  O   UNL A   1      49.999  28.517  37.158  1.00  0.00    -0.237 OA
ATOM     94  O   UNL A   1      48.841  27.413  39.045  1.00  0.00    -0.237 OA
ATOM     95  O   UNL A   1      49.127  26.220  36.908  1.00  0.00    -0.744 OA
ENDBRANCH  91  92
ENDBRANCH  63  86
BRANCH  75  96
ATOM     96  C   UNL A   1      40.661  33.771  39.334  1.00  0.00    -0.014 A 
ATOM     97  C   UNL A   1      41.253  35.031  39.531  1.00  0.00     0.010 A 
ATOM     98  C   UNL A   1      40.018  33.136  40.411  1.00  0.00     0.010 A 
ATOM     99  C   UNL A   1      41.226  35.632  40.791  1.00  0.00     0.020 A 
ATOM    100  C   UNL A   1      39.969  33.746  41.667  1.00  0.00     0.020 A 
ATOM    101  C   UNL A   1      40.585  34.985  41.853  1.00  0.00     0.054 A 
BRANCH 101 102
ATOM    102  S   UNL A   1      40.523  35.806  43.470  1.00  0.00     0.124 S 
ATOM    103  O   UNL A   1      40.893  37.176  43.127  1.00  0.00    -0.237 OA
ATOM    104  O   UNL A   1      39.133  35.613  43.877  1.00  0.00    -0.237 OA
ATOM    105  O   UNL A   1      41.506  35.076  44.266  1.00  0.00    -0.744 OA
ENDBRANCH 101 102
ENDBRANCH  75  96
ENDBRANCH  49  50
ENDBRANCH  41  44
ENDBRANCH  39  40
ENDBRANCH  38  39
ENDBRANCH  37  38
ENDBRANCH  36  37
ENDBRANCH   1  36
TORSDOF 21
ENDMDL
MODEL 3
REMARK VINA RESULT:      -8.6      5.299     12.561
REMARK SMILES O=C(NCCCCCCNC(=O)c1ccc(-c2c3nc(c(-c4ccc(S(=O)(=O)[O-])cc4)c4ccc([nH]4)c(-c4ccc(S(=O)(=O)[O-])cc4)c4nc(c(-c5ccc(S(=O)(=O)[O-])cc5)c5ccc2[nH]5)C=C4)C=C3)cc1)c1ccc(NC(=O)[C@@H]2CC=CC[C@H]2C(=O)Nc2cccc([N+](=O)[O-])c2)cc1
REMARK SMILES IDX 5 1 4 2 3 3 1 4 2 5 73 7 74 8 99 9 75 10 98 11 76 12 77 13
REMARK SMILES IDX 78 14 79 16 80 17 81 18 85 19 82 20 84 21 83 22 86 23 87 24
REMARK SMILES IDX 88 25 89 27 90 28 97 29 91 30 93 31 92 32 94 33 95 34 96 35
REMARK SMILES IDX 6 36 7 37 8 38 9 39 10 40 11 41 12 43 13 44 14 45 72 46
REMARK SMILES IDX 15 47 71 48 16 49 17 50 18 51 65 52 19 53 70 54 64 55 66 56
REMARK SMILES IDX 20 57 69 58 63 59 62 60 21 62 51 63 32 64 50 65 33 66 36 67
REMARK SMILES IDX 49 68 67 69 34 70 35 71 48 73 68 74 37 75 22 76 23 77 31 78
REMARK SMILES IDX 24 79 30 80 25 81 26 82 27 83 28 84 29 85 52 86 53 87 61 88
REMARK SMILES IDX 54 89 60 90 55 91 56 92 57 93 58 94 59 95 38 96 39 97 47 98
REMARK SMILES IDX 40 99 46 100 41 101 42 102 43 103 44 104 45 105
REMARK H PARENT 3 6 77 15 88 26 10 42 66 61 36 72
REMARK Flexibility Score: inf
ROOT
ATOM      1  C   UNL A   1      37.867  23.869  25.812  1.00  0.00     0.021 C 
ENDROOT
BRANCH   1   2
ATOM      2  C   UNL A   1      36.778  23.043  26.474  1.00  0.00     0.116 C 
BRANCH   2   3
ATOM      3  N   UNL A   1      36.570  21.745  25.844  1.00  0.00    -0.352 N 
ATOM      4  O   UNL A   1      35.361  20.089  24.883  1.00  0.00    -0.269 OA
ATOM      5  C   UNL A   1      35.424  21.247  25.265  1.00  0.00     0.251 C 
ATOM      6  H   UNL A   1      37.351  21.146  25.830  1.00  0.00     0.163 HD
BRANCH   5   7
ATOM      7  C   UNL A   1      34.248  22.137  25.129  1.00  0.00     0.039 A 
ATOM      8  C   UNL A   1      33.314  22.210  26.156  1.00  0.00     0.016 A 
ATOM      9  C   UNL A   1      34.041  22.859  23.954  1.00  0.00     0.016 A 
ATOM     10  C   UNL A   1      32.116  22.875  25.952  1.00  0.00     0.027 A 
ATOM     11  C   UNL A   1      32.878  23.625  23.812  1.00  0.00     0.027 A 
ATOM     12  C   UNL A   1      31.908  23.650  24.826  1.00  0.00     0.041 A 
BRANCH  12  13
ATOM     13  N   UNL A   1      30.806  24.494  24.648  1.00  0.00    -0.326 N 
ATOM     14  C   UNL A   1      30.574  25.820  24.806  1.00  0.00     0.228 C 
ATOM     15  H   UNL A   1      30.009  24.009  24.333  1.00  0.00     0.169 HD
ATOM     16  O   UNL A   1      29.438  26.200  24.481  1.00  0.00    -0.274 OA
BRANCH  14  17
ATOM     17  C   UNL A   1      31.543  26.868  25.356  1.00  0.00     0.095 C 
ATOM     18  C   UNL A   1      31.855  26.809  26.862  1.00  0.00     0.041 C 
ATOM     19  C   UNL A   1      31.290  28.236  24.699  1.00  0.00     0.095 C 
ATOM     20  C   UNL A   1      32.034  28.134  27.542  1.00  0.00    -0.030 C 
ATOM     21  C   UNL A   1      31.824  29.474  25.441  1.00  0.00     0.041 C 
ATOM     22  C   UNL A   1      32.014  29.313  26.913  1.00  0.00    -0.030 C 
BRANCH  19  23
ATOM     23  C   UNL A   1      31.678  28.297  23.204  1.00  0.00     0.228 C 
ATOM     24  O   UNL A   1      32.751  27.792  22.849  1.00  0.00    -0.274 OA
ATOM     25  N   UNL A   1      30.849  28.763  22.212  1.00  0.00    -0.326 N 
ATOM     26  H   UNL A   1      31.170  28.605  21.295  1.00  0.00     0.169 HD
BRANCH  25  27
ATOM     27  C   UNL A   1      29.620  29.426  22.301  1.00  0.00     0.048 A 
ATOM     28  C   UNL A   1      28.508  28.734  22.783  1.00  0.00     0.026 A 
ATOM     29  C   UNL A   1      29.478  30.753  21.911  1.00  0.00     0.111 A 
ATOM     30  C   UNL A   1      27.319  29.422  23.050  1.00  0.00     0.009 A 
ATOM     31  C   UNL A   1      28.318  31.458  22.243  1.00  0.00     0.271 A 
ATOM     32  C   UNL A   1      27.234  30.797  22.824  1.00  0.00     0.086 A 
BRANCH  31  33
ATOM     33  N   UNL A   1      28.282  32.912  22.042  1.00  0.00     0.062 N 
ATOM     34  O   UNL A   1      27.688  33.343  21.044  1.00  0.00    -0.258 OA
ATOM     35  O   UNL A   1      28.821  33.627  22.899  1.00  0.00    -0.258 OA
ENDBRANCH  31  33
ENDBRANCH  25  27
ENDBRANCH  19  23
ENDBRANCH  14  17
ENDBRANCH  12  13
ENDBRANCH   5   7
ENDBRANCH   2   3
ENDBRANCH   1   2
BRANCH   1  36
ATOM     36  C   UNL A   1      39.292  23.427  26.131  1.00  0.00     0.002 C 
BRANCH  36  37
ATOM     37  C   UNL A   1      39.464  21.948  26.488  1.00  0.00     0.002 C 
BRANCH  37  38
ATOM     38  C   UNL A   1      40.522  21.629  27.549  1.00  0.00     0.021 C 
BRANCH  38  39
ATOM     39  C   UNL A   1      40.846  20.149  27.737  1.00  0.00     0.116 C 
BRANCH  39  40
ATOM     40  N   UNL A   1      41.503  19.566  26.581  1.00  0.00    -0.352 N 
ATOM     41  C   UNL A   1      42.492  20.084  25.783  1.00  0.00     0.251 C 
ATOM     42  H   UNL A   1      41.194  18.664  26.333  1.00  0.00     0.163 HD
ATOM     43  O   UNL A   1      42.832  19.485  24.768  1.00  0.00    -0.269 OA
BRANCH  41  44
ATOM     44  C   UNL A   1      43.125  21.376  26.127  1.00  0.00     0.039 A 
ATOM     45  C   UNL A   1      42.924  22.466  25.275  1.00  0.00     0.014 A 
ATOM     46  C   UNL A   1      43.920  21.515  27.269  1.00  0.00     0.014 A 
ATOM     47  C   UNL A   1      43.473  23.709  25.597  1.00  0.00     0.010 A 
ATOM     48  C   UNL A   1      44.416  22.770  27.620  1.00  0.00     0.010 A 
ATOM     49  C   UNL A   1      44.199  23.878  26.787  1.00  0.00    -0.014 A 
BRANCH  49  50
ATOM     50  C   UNL A   1      44.734  25.207  27.176  1.00  0.00     0.031 A 
ATOM     51  C   UNL A   1      43.892  26.160  27.977  1.00  0.00     0.074 A 
ATOM     52  C   UNL A   1      45.959  25.580  26.756  1.00  0.00     0.049 A 
ATOM     53  N   UNL A   1      44.164  27.384  28.354  1.00  0.00    -0.248 NA
ATOM     54  C   UNL A   1      42.561  25.684  28.388  1.00  0.00     0.031 C 
ATOM     55  C   UNL A   1      46.858  24.763  25.937  1.00  0.00     0.029 A 
ATOM     56  N   UNL A   1      46.653  26.747  26.949  1.00  0.00    -0.354 N 
ATOM     57  C   UNL A   1      43.036  27.828  29.034  1.00  0.00     0.074 A 
ATOM     58  C   UNL A   1      42.060  26.760  28.976  1.00  0.00     0.031 C 
ATOM     59  C   UNL A   1      47.990  25.451  25.709  1.00  0.00     0.029 A 
ATOM     60  C   UNL A   1      47.883  26.765  26.336  1.00  0.00     0.049 A 
ATOM     61  H   UNL A   1      46.304  27.502  27.476  1.00  0.00     0.167 HD
ATOM     62  C   UNL A   1      42.835  29.010  29.665  1.00  0.00     0.031 A 
ATOM     63  C   UNL A   1      48.819  27.732  26.276  1.00  0.00     0.031 A 
ATOM     64  C   UNL A   1      43.806  30.070  29.725  1.00  0.00     0.049 A 
ATOM     65  C   UNL A   1      48.581  29.033  26.987  1.00  0.00     0.074 A 
ATOM     66  C   UNL A   1      43.712  31.290  30.373  1.00  0.00     0.029 A 
ATOM     67  N   UNL A   1      45.052  30.037  29.116  1.00  0.00    -0.354 N 
ATOM     68  N   UNL A   1      47.527  29.416  27.667  1.00  0.00    -0.248 NA
ATOM     69  C   UNL A   1      49.661  30.028  26.934  1.00  0.00     0.031 C 
ATOM     70  C   UNL A   1      44.887  32.010  30.123  1.00  0.00     0.029 A 
ATOM     71  C   UNL A   1      45.730  31.219  29.359  1.00  0.00     0.049 A 
ATOM     72  H   UNL A   1      45.401  29.283  28.587  1.00  0.00     0.167 HD
ATOM     73  C   UNL A   1      47.824  30.689  28.140  1.00  0.00     0.074 A 
ATOM     74  C   UNL A   1      49.162  31.004  27.680  1.00  0.00     0.031 C 
ATOM     75  C   UNL A   1      47.059  31.521  28.889  1.00  0.00     0.031 A 
BRANCH  62  76
ATOM     76  C   UNL A   1      41.502  29.214  30.336  1.00  0.00    -0.014 A 
ATOM     77  C   UNL A   1      41.313  28.864  31.686  1.00  0.00     0.010 A 
ATOM     78  C   UNL A   1      40.430  29.768  29.615  1.00  0.00     0.010 A 
ATOM     79  C   UNL A   1      40.061  29.015  32.286  1.00  0.00     0.020 A 
ATOM     80  C   UNL A   1      39.183  29.946  30.221  1.00  0.00     0.020 A 
ATOM     81  C   UNL A   1      39.000  29.546  31.547  1.00  0.00     0.054 A 
BRANCH  81  82
ATOM     82  S   UNL A   1      37.383  29.727  32.349  1.00  0.00     0.124 S 
ATOM     83  O   UNL A   1      37.533  31.007  33.037  1.00  0.00    -0.237 OA
ATOM     84  O   UNL A   1      36.461  29.728  31.217  1.00  0.00    -0.237 OA
ATOM     85  O   UNL A   1      37.296  28.558  33.219  1.00  0.00    -0.744 OA
ENDBRANCH  81  82
ENDBRANCH  62  76
BRANCH  63  86
ATOM     86  C   UNL A   1      50.074  27.490  25.516  1.00  0.00    -0.014 A 
ATOM     87  C   UNL A   1      50.129  27.723  24.130  1.00  0.00     0.010 A 
ATOM     88  C   UNL A   1      51.234  27.061  26.185  1.00  0.00     0.010 A 
ATOM     89  C   UNL A   1      51.320  27.525  23.426  1.00  0.00     0.020 A 
ATOM     90  C   UNL A   1      52.433  26.884  25.489  1.00  0.00     0.020 A 
ATOM     91  C   UNL A   1      52.466  27.110  24.111  1.00  0.00     0.054 A 
BRANCH  91  92
ATOM     92  S   UNL A   1      54.022  26.929  23.195  1.00  0.00     0.124 S 
ATOM     93  O   UNL A   1      53.562  26.386  21.921  1.00  0.00    -0.237 OA
ATOM     94  O   UNL A   1      54.528  28.300  23.155  1.00  0.00    -0.237 OA
ATOM     95  O   UNL A   1      54.800  26.012  24.025  1.00  0.00    -0.744 OA
ENDBRANCH  91  92
ENDBRANCH  63  86
BRANCH  75  96
ATOM     96  C   UNL A   1      47.656  32.846  29.277  1.00  0.00    -0.014 A 
ATOM     97  C   UNL A   1      47.505  33.978  28.458  1.00  0.00     0.010 A 
ATOM     98  C   UNL A   1      48.332  32.970  30.504  1.00  0.00     0.010 A 
ATOM     99  C   UNL A   1      48.045  35.207  28.846  1.00  0.00     0.020 A 
ATOM    100  C   UNL A   1      48.854  34.202  30.906  1.00  0.00     0.020 A 
ATOM    101  C   UNL A   1      48.718  35.310  30.068  1.00  0.00     0.054 A 
BRANCH 101 102
ATOM    102  S   UNL A   1      49.372  36.926  30.572  1.00  0.00     0.124 S 
ATOM    103  O   UNL A   1      48.498  37.270  31.690  1.00  0.00    -0.237 OA
ATOM    104  O   UNL A   1      50.755  36.618  30.928  1.00  0.00    -0.237 OA
ATOM    105  O   UNL A   1      49.211  37.752  29.378  1.00  0.00    -0.744 OA
ENDBRANCH 101 102
ENDBRANCH  75  96
ENDBRANCH  49  50
ENDBRANCH  41  44
ENDBRANCH  39  40
ENDBRANCH  38  39
ENDBRANCH  37  38
ENDBRANCH  36  37
ENDBRANCH   1  36
TORSDOF 21
ENDMDL
