MODEL 1
REMARK VINA RESULT:      -9.4      0.000      0.000
REMARK SMILES C[N@H+](Cc1cc(Cl)ccc1[N+](=O)[O-])[C@H]1COC[C@@H]1C(=O)NCCCCCCNC(=O)c1ccc(-c2c3nc(c(-c4ccc(S(=O)(=O)[O-])cc4)c4ccc([nH]4)c(-c4ccc(S(=O)(=O)[O-])cc4)c4nc(c(-c5ccc(S(=O)(=O)[O-])cc5)c5ccc2[nH]5)C=C4)C=C3)cc1
REMARK SMILES IDX 24 1 23 2 22 3 21 4 19 5 20 6 18 8 14 9 15 10 16 11 17 12
REMARK SMILES IDX 2 13 1 14 3 16 4 17 5 18 10 19 6 20 9 21 7 22 8 23 11 24
REMARK SMILES IDX 12 25 13 26 25 27 26 28 27 29 28 30 29 31 30 33 31 34 32 35
REMARK SMILES IDX 90 36 33 37 89 38 34 39 35 40 36 41 83 42 37 43 88 44 82 45
REMARK SMILES IDX 84 46 38 47 87 48 81 49 80 50 39 52 69 53 50 54 68 55 51 56
REMARK SMILES IDX 54 57 67 58 85 59 52 60 53 61 66 63 86 64 55 65 40 66 41 67
REMARK SMILES IDX 49 68 42 69 48 70 43 71 44 72 45 73 46 74 47 75 70 76 71 77
REMARK SMILES IDX 79 78 72 79 78 80 73 81 74 82 75 83 76 84 77 85 56 86 57 87
REMARK SMILES IDX 65 88 58 89 64 90 59 91 60 92 61 93 62 94 63 95
REMARK H PARENT 21 7 2 15 28 32 84 51 54 62
REMARK Flexibility Score: inf
ROOT
ATOM      1  C   UNL A   1      38.315  28.533  29.075  1.00  0.00     0.002 C 
ENDROOT
BRANCH   1   2
ATOM      2  C   UNL A   1      37.842  29.767  28.295  1.00  0.00     0.021 C 
BRANCH   2   3
ATOM      3  C   UNL A   1      36.686  29.519  27.326  1.00  0.00     0.116 C 
BRANCH   3   4
ATOM      4  N   UNL A   1      35.609  30.475  27.515  1.00  0.00    -0.356 N 
ATOM      5  C   UNL A   1      34.295  30.391  27.160  1.00  0.00     0.231 C 
ATOM      6  O   UNL A   1      33.572  31.362  27.385  1.00  0.00    -0.274 OA
ATOM      7  H   UNL A   1      35.866  31.310  27.968  1.00  0.00     0.163 HD
BRANCH   5   8
ATOM      8  C   UNL A   1      33.791  29.131  26.468  1.00  0.00     0.164 C 
ATOM      9  C   UNL A   1      32.994  29.460  25.192  1.00  0.00     0.225 C 
ATOM     10  C   UNL A   1      31.611  29.710  25.835  1.00  0.00     0.226 C 
ATOM     11  O   UNL A   1      31.471  28.800  26.931  1.00  0.00    -0.374 OA
ATOM     12  C   UNL A   1      32.783  28.391  27.332  1.00  0.00     0.180 C 
BRANCH   9  13
ATOM     13  N   UNL A   1      33.081  28.330  24.199  1.00  0.00    -0.328 N 
ATOM     14  C   UNL A   1      33.798  28.810  22.997  1.00  0.00     0.333 C 
ATOM     15  H   UNL A   1      33.582  27.558  24.638  1.00  0.00     0.348 HD
BRANCH  13  16
ATOM     16  C   UNL A   1      31.741  27.822  23.806  1.00  0.00     0.306 C 
BRANCH  16  17
ATOM     17  C   UNL A   1      31.597  26.311  23.920  1.00  0.00     0.085 A 
ATOM     18  C   UNL A   1      31.168  25.767  25.150  1.00  0.00     0.037 A 
ATOM     19  C   UNL A   1      31.813  25.404  22.862  1.00  0.00     0.278 A 
ATOM     20  C   UNL A   1      30.892  24.403  25.289  1.00  0.00     0.042 A 
ATOM     21  C   UNL A   1      31.551  24.028  23.006  1.00  0.00     0.088 A 
ATOM     22  Cl  UNL A   1      30.309  23.804  26.792  1.00  0.00    -0.084 Cl
ATOM     23  C   UNL A   1      31.074  23.533  24.219  1.00  0.00     0.027 A 
BRANCH  19  24
ATOM     24  N   UNL A   1      32.406  25.819  21.594  1.00  0.00     0.063 N 
ATOM     25  O   UNL A   1      31.631  26.159  20.690  1.00  0.00    -0.258 OA
ATOM     26  O   UNL A   1      33.634  25.694  21.477  1.00  0.00    -0.258 OA
ENDBRANCH  19  24
ENDBRANCH  16  17
ENDBRANCH  13  16
ENDBRANCH   9  13
ENDBRANCH   5   8
ENDBRANCH   3   4
ENDBRANCH   2   3
ENDBRANCH   1   2
BRANCH   1  27
ATOM     27  C   UNL A   1      38.089  28.580  30.590  1.00  0.00     0.002 C 
BRANCH  27  28
ATOM     28  C   UNL A   1      36.924  29.456  31.054  1.00  0.00     0.021 C 
BRANCH  28  29
ATOM     29  C   UNL A   1      36.990  29.902  32.511  1.00  0.00     0.116 C 
BRANCH  29  30
ATOM     30  N   UNL A   1      36.961  31.349  32.656  1.00  0.00    -0.352 N 
ATOM     31  C   UNL A   1      37.992  32.247  32.509  1.00  0.00     0.251 C 
ATOM     32  H   UNL A   1      36.088  31.737  32.893  1.00  0.00     0.163 HD
ATOM     33  O   UNL A   1      37.834  33.426  32.811  1.00  0.00    -0.269 OA
BRANCH  31  34
ATOM     34  C   UNL A   1      39.302  31.773  32.012  1.00  0.00     0.039 A 
ATOM     35  C   UNL A   1      40.167  31.117  32.892  1.00  0.00     0.014 A 
ATOM     36  C   UNL A   1      39.659  31.952  30.673  1.00  0.00     0.014 A 
ATOM     37  C   UNL A   1      41.363  30.577  32.411  1.00  0.00     0.010 A 
ATOM     38  C   UNL A   1      40.819  31.360  30.184  1.00  0.00     0.010 A 
ATOM     39  C   UNL A   1      41.682  30.663  31.047  1.00  0.00    -0.014 A 
BRANCH  39  40
ATOM     40  C   UNL A   1      42.904  30.033  30.487  1.00  0.00     0.031 A 
ATOM     41  C   UNL A   1      44.186  30.818  30.418  1.00  0.00     0.074 A 
ATOM     42  C   UNL A   1      42.840  28.797  29.955  1.00  0.00     0.049 A 
ATOM     43  N   UNL A   1      45.317  30.504  29.841  1.00  0.00    -0.248 NA
ATOM     44  C   UNL A   1      44.185  32.143  31.060  1.00  0.00     0.031 C 
ATOM     45  C   UNL A   1      41.651  27.941  29.933  1.00  0.00     0.029 A 
ATOM     46  N   UNL A   1      43.796  28.050  29.309  1.00  0.00    -0.354 N 
ATOM     47  C   UNL A   1      46.151  31.600  30.024  1.00  0.00     0.074 A 
ATOM     48  C   UNL A   1      45.384  32.601  30.733  1.00  0.00     0.031 C 
ATOM     49  C   UNL A   1      41.952  26.785  29.319  1.00  0.00     0.029 A 
ATOM     50  C   UNL A   1      43.338  26.833  28.863  1.00  0.00     0.049 A 
ATOM     51  H   UNL A   1      44.722  28.359  29.179  1.00  0.00     0.167 HD
ATOM     52  C   UNL A   1      47.443  31.755  29.647  1.00  0.00     0.031 A 
ATOM     53  C   UNL A   1      43.957  25.870  28.152  1.00  0.00     0.031 A 
ATOM     54  C   UNL A   1      48.207  30.751  28.957  1.00  0.00     0.049 A 
ATOM     55  C   UNL A   1      45.392  26.065  27.743  1.00  0.00     0.074 A 
ATOM     56  C   UNL A   1      49.537  30.795  28.574  1.00  0.00     0.029 A 
ATOM     57  N   UNL A   1      47.714  29.520  28.553  1.00  0.00    -0.354 N 
ATOM     58  N   UNL A   1      46.176  27.093  27.960  1.00  0.00    -0.248 NA
ATOM     59  C   UNL A   1      46.026  24.967  26.999  1.00  0.00     0.031 C 
ATOM     60  C   UNL A   1      49.836  29.606  27.901  1.00  0.00     0.029 A 
ATOM     61  C   UNL A   1      48.708  28.801  27.912  1.00  0.00     0.049 A 
ATOM     62  H   UNL A   1      46.793  29.204  28.699  1.00  0.00     0.167 HD
ATOM     63  C   UNL A   1      47.407  26.750  27.411  1.00  0.00     0.074 A 
ATOM     64  C   UNL A   1      47.265  25.421  26.855  1.00  0.00     0.031 C 
ATOM     65  C   UNL A   1      48.554  27.472  27.376  1.00  0.00     0.031 A 
BRANCH  52  66
ATOM     66  C   UNL A   1      48.106  33.068  29.966  1.00  0.00    -0.014 A 
ATOM     67  C   UNL A   1      48.800  33.257  31.175  1.00  0.00     0.010 A 
ATOM     68  C   UNL A   1      48.063  34.118  29.030  1.00  0.00     0.010 A 
ATOM     69  C   UNL A   1      49.398  34.486  31.463  1.00  0.00     0.020 A 
ATOM     70  C   UNL A   1      48.685  35.340  29.302  1.00  0.00     0.020 A 
ATOM     71  C   UNL A   1      49.332  35.523  30.527  1.00  0.00     0.054 A 
BRANCH  71  72
ATOM     72  S   UNL A   1      50.128  37.104  30.920  1.00  0.00     0.124 S 
ATOM     73  O   UNL A   1      49.344  37.556  32.066  1.00  0.00    -0.237 OA
ATOM     74  O   UNL A   1      51.502  36.707  31.216  1.00  0.00    -0.237 OA
ATOM     75  O   UNL A   1      49.959  37.889  29.700  1.00  0.00    -0.744 OA
ENDBRANCH  71  72
ENDBRANCH  52  66
BRANCH  53  76
ATOM     76  C   UNL A   1      43.224  24.625  27.794  1.00  0.00    -0.014 A 
ATOM     77  C   UNL A   1      43.097  23.581  28.727  1.00  0.00     0.010 A 
ATOM     78  C   UNL A   1      42.636  24.484  26.524  1.00  0.00     0.010 A 
ATOM     79  C   UNL A   1      42.411  22.411  28.391  1.00  0.00     0.020 A 
ATOM     80  C   UNL A   1      41.927  23.326  26.194  1.00  0.00     0.020 A 
ATOM     81  C   UNL A   1      41.828  22.291  27.127  1.00  0.00     0.054 A 
BRANCH  81  82
ATOM     82  S   UNL A   1      40.894  20.786  26.732  1.00  0.00     0.124 S 
ATOM     83  O   UNL A   1      41.729  20.174  25.704  1.00  0.00    -0.237 OA
ATOM     84  O   UNL A   1      40.858  20.091  28.017  1.00  0.00    -0.237 OA
ATOM     85  O   UNL A   1      39.605  21.296  26.273  1.00  0.00    -0.744 OA
ENDBRANCH  81  82
ENDBRANCH  53  76
BRANCH  65  86
ATOM     86  C   UNL A   1      49.767  26.825  26.764  1.00  0.00    -0.014 A 
ATOM     87  C   UNL A   1      50.088  27.007  25.408  1.00  0.00     0.010 A 
ATOM     88  C   UNL A   1      50.640  26.086  27.585  1.00  0.00     0.010 A 
ATOM     89  C   UNL A   1      51.251  26.443  24.878  1.00  0.00     0.020 A 
ATOM     90  C   UNL A   1      51.816  25.542  27.063  1.00  0.00     0.020 A 
ATOM     91  C   UNL A   1      52.110  25.716  25.710  1.00  0.00     0.054 A 
BRANCH  91  92
ATOM     92  S   UNL A   1      53.646  25.049  25.014  1.00  0.00     0.124 S 
ATOM     93  O   UNL A   1      54.656  25.639  25.889  1.00  0.00    -0.237 OA
ATOM     94  O   UNL A   1      53.462  23.607  25.149  1.00  0.00    -0.237 OA
ATOM     95  O   UNL A   1      53.647  25.544  23.639  1.00  0.00    -0.744 OA
ENDBRANCH  91  92
ENDBRANCH  65  86
ENDBRANCH  39  40
ENDBRANCH  31  34
ENDBRANCH  29  30
ENDBRANCH  28  29
ENDBRANCH  27  28
ENDBRANCH   1  27
TORSDOF 20
ENDMDL
MODEL 2
REMARK VINA RESULT:      -9.1      2.258      3.261
REMARK SMILES C[N@H+](Cc1cc(Cl)ccc1[N+](=O)[O-])[C@H]1COC[C@@H]1C(=O)NCCCCCCNC(=O)c1ccc(-c2c3nc(c(-c4ccc(S(=O)(=O)[O-])cc4)c4ccc([nH]4)c(-c4ccc(S(=O)(=O)[O-])cc4)c4nc(c(-c5ccc(S(=O)(=O)[O-])cc5)c5ccc2[nH]5)C=C4)C=C3)cc1
REMARK SMILES IDX 24 1 23 2 22 3 21 4 19 5 20 6 18 8 14 9 15 10 16 11 17 12
REMARK SMILES IDX 2 13 1 14 3 16 4 17 5 18 10 19 6 20 9 21 7 22 8 23 11 24
REMARK SMILES IDX 12 25 13 26 25 27 26 28 27 29 28 30 29 31 30 33 31 34 32 35
REMARK SMILES IDX 90 36 33 37 89 38 34 39 35 40 36 41 83 42 37 43 88 44 82 45
REMARK SMILES IDX 84 46 38 47 87 48 81 49 80 50 39 52 69 53 50 54 68 55 51 56
REMARK SMILES IDX 54 57 67 58 85 59 52 60 53 61 66 63 86 64 55 65 40 66 41 67
REMARK SMILES IDX 49 68 42 69 48 70 43 71 44 72 45 73 46 74 47 75 70 76 71 77
REMARK SMILES IDX 79 78 72 79 78 80 73 81 74 82 75 83 76 84 77 85 56 86 57 87
REMARK SMILES IDX 65 88 58 89 64 90 59 91 60 92 61 93 62 94 63 95
REMARK H PARENT 21 7 2 15 28 32 84 51 54 62
REMARK Flexibility Score: inf
ROOT
ATOM      1  C   UNL A   1      33.512  30.862  27.072  1.00  0.00     0.002 C 
ENDROOT
BRANCH   1   2
ATOM      2  C   UNL A   1      33.728  29.381  26.731  1.00  0.00     0.021 C 
BRANCH   2   3
ATOM      3  C   UNL A   1      33.763  29.057  25.238  1.00  0.00     0.116 C 
BRANCH   3   4
ATOM      4  N   UNL A   1      32.427  28.982  24.671  1.00  0.00    -0.356 N 
ATOM      5  C   UNL A   1      31.611  27.903  24.500  1.00  0.00     0.231 C 
ATOM      6  O   UNL A   1      30.527  28.081  23.944  1.00  0.00    -0.274 OA
ATOM      7  H   UNL A   1      32.055  29.840  24.364  1.00  0.00     0.163 HD
BRANCH   5   8
ATOM      8  C   UNL A   1      32.087  26.531  24.957  1.00  0.00     0.164 C 
ATOM      9  C   UNL A   1      31.287  25.396  24.292  1.00  0.00     0.225 C 
ATOM     10  C   UNL A   1      30.088  25.351  25.266  1.00  0.00     0.226 C 
ATOM     11  O   UNL A   1      30.585  25.627  26.580  1.00  0.00    -0.374 OA
ATOM     12  C   UNL A   1      31.829  26.321  26.440  1.00  0.00     0.180 C 
BRANCH   9  13
ATOM     13  N   UNL A   1      32.117  24.143  24.186  1.00  0.00    -0.328 N 
ATOM     14  C   UNL A   1      32.493  23.943  22.770  1.00  0.00     0.333 C 
ATOM     15  H   UNL A   1      32.944  24.259  24.770  1.00  0.00     0.348 HD
BRANCH  13  16
ATOM     16  C   UNL A   1      31.391  22.944  24.679  1.00  0.00     0.306 C 
BRANCH  16  17
ATOM     17  C   UNL A   1      32.242  21.683  24.723  1.00  0.00     0.085 A 
ATOM     18  C   UNL A   1      31.934  20.631  23.833  1.00  0.00     0.037 A 
ATOM     19  C   UNL A   1      33.363  21.502  25.560  1.00  0.00     0.278 A 
ATOM     20  C   UNL A   1      32.747  19.499  23.730  1.00  0.00     0.042 A 
ATOM     21  C   UNL A   1      34.174  20.355  25.467  1.00  0.00     0.088 A 
ATOM     22  Cl  UNL A   1      32.360  18.278  22.582  1.00  0.00    -0.084 Cl
ATOM     23  C   UNL A   1      33.871  19.361  24.537  1.00  0.00     0.027 A 
BRANCH  19  24
ATOM     24  N   UNL A   1      33.692  22.441  26.628  1.00  0.00     0.063 N 
ATOM     25  O   UNL A   1      33.450  22.086  27.789  1.00  0.00    -0.258 OA
ATOM     26  O   UNL A   1      34.086  23.567  26.290  1.00  0.00    -0.258 OA
ENDBRANCH  19  24
ENDBRANCH  16  17
ENDBRANCH  13  16
ENDBRANCH   9  13
ENDBRANCH   5   8
ENDBRANCH   3   4
ENDBRANCH   2   3
ENDBRANCH   1   2
BRANCH   1  27
ATOM     27  C   UNL A   1      34.291  31.383  28.285  1.00  0.00     0.002 C 
BRANCH  27  28
ATOM     28  C   UNL A   1      35.523  32.231  27.960  1.00  0.00     0.021 C 
BRANCH  28  29
ATOM     29  C   UNL A   1      36.363  32.638  29.165  1.00  0.00     0.116 C 
BRANCH  29  30
ATOM     30  N   UNL A   1      36.057  31.856  30.353  1.00  0.00    -0.352 N 
ATOM     31  C   UNL A   1      36.799  30.857  30.938  1.00  0.00     0.251 C 
ATOM     32  H   UNL A   1      35.205  32.070  30.797  1.00  0.00     0.163 HD
ATOM     33  O   UNL A   1      36.330  30.194  31.857  1.00  0.00    -0.269 OA
BRANCH  31  34
ATOM     34  C   UNL A   1      38.158  30.570  30.428  1.00  0.00     0.039 A 
ATOM     35  C   UNL A   1      39.263  30.889  31.221  1.00  0.00     0.014 A 
ATOM     36  C   UNL A   1      38.334  29.961  29.183  1.00  0.00     0.014 A 
ATOM     37  C   UNL A   1      40.546  30.533  30.794  1.00  0.00     0.010 A 
ATOM     38  C   UNL A   1      39.604  29.551  28.789  1.00  0.00     0.010 A 
ATOM     39  C   UNL A   1      40.723  29.829  29.592  1.00  0.00    -0.014 A 
BRANCH  39  40
ATOM     40  C   UNL A   1      42.061  29.365  29.146  1.00  0.00     0.031 A 
ATOM     41  C   UNL A   1      43.192  30.350  29.024  1.00  0.00     0.074 A 
ATOM     42  C   UNL A   1      42.235  28.085  28.761  1.00  0.00     0.049 A 
ATOM     43  N   UNL A   1      44.387  30.177  28.521  1.00  0.00    -0.248 NA
ATOM     44  C   UNL A   1      42.934  31.717  29.506  1.00  0.00     0.031 C 
ATOM     45  C   UNL A   1      41.212  27.038  28.804  1.00  0.00     0.029 A 
ATOM     46  N   UNL A   1      43.335  27.451  28.235  1.00  0.00    -0.354 N 
ATOM     47  C   UNL A   1      45.012  31.415  28.599  1.00  0.00     0.074 A 
ATOM     48  C   UNL A   1      44.052  32.338  29.163  1.00  0.00     0.031 C 
ATOM     49  C   UNL A   1      41.735  25.892  28.339  1.00  0.00     0.029 A 
ATOM     50  C   UNL A   1      43.114  26.131  27.921  1.00  0.00     0.049 A 
ATOM     51  H   UNL A   1      44.200  27.901  28.098  1.00  0.00     0.167 HD
ATOM     52  C   UNL A   1      46.276  31.751  28.245  1.00  0.00     0.031 A 
ATOM     53  C   UNL A   1      43.921  25.219  27.347  1.00  0.00     0.031 A 
ATOM     54  C   UNL A   1      47.233  30.826  27.700  1.00  0.00     0.049 A 
ATOM     55  C   UNL A   1      45.321  25.615  26.960  1.00  0.00     0.074 A 
ATOM     56  C   UNL A   1      48.553  31.059  27.354  1.00  0.00     0.029 A 
ATOM     57  N   UNL A   1      46.978  29.491  27.428  1.00  0.00    -0.354 N 
ATOM     58  N   UNL A   1      45.907  26.782  27.078  1.00  0.00    -0.248 NA
ATOM     59  C   UNL A   1      46.169  24.570  26.369  1.00  0.00     0.031 C 
ATOM     60  C   UNL A   1      49.084  29.875  26.834  1.00  0.00     0.029 A 
ATOM     61  C   UNL A   1      48.110  28.891  26.906  1.00  0.00     0.049 A 
ATOM     62  H   UNL A   1      46.118  29.037  27.583  1.00  0.00     0.167 HD
ATOM     63  C   UNL A   1      47.204  26.602  26.610  1.00  0.00     0.074 A 
ATOM     64  C   UNL A   1      47.317  25.215  26.209  1.00  0.00     0.031 C 
ATOM     65  C   UNL A   1      48.212  27.505  26.524  1.00  0.00     0.031 A 
BRANCH  52  66
ATOM     66  C   UNL A   1      46.689  33.187  28.427  1.00  0.00    -0.014 A 
ATOM     67  C   UNL A   1      46.492  34.136  27.407  1.00  0.00     0.010 A 
ATOM     68  C   UNL A   1      47.254  33.602  29.647  1.00  0.00     0.010 A 
ATOM     69  C   UNL A   1      46.894  35.462  27.586  1.00  0.00     0.020 A 
ATOM     70  C   UNL A   1      47.630  34.934  29.841  1.00  0.00     0.020 A 
ATOM     71  C   UNL A   1      47.466  35.851  28.801  1.00  0.00     0.054 A 
BRANCH  71  72
ATOM     72  S   UNL A   1      47.968  37.581  29.012  1.00  0.00     0.124 S 
ATOM     73  O   UNL A   1      49.310  37.576  28.435  1.00  0.00    -0.237 OA
ATOM     74  O   UNL A   1      46.957  38.305  28.244  1.00  0.00    -0.237 OA
ATOM     75  O   UNL A   1      47.911  37.784  30.457  1.00  0.00    -0.744 OA
ENDBRANCH  71  72
ENDBRANCH  52  66
BRANCH  53  76
ATOM     76  C   UNL A   1      43.430  23.833  27.115  1.00  0.00    -0.014 A 
ATOM     77  C   UNL A   1      43.204  22.968  28.200  1.00  0.00     0.010 A 
ATOM     78  C   UNL A   1      43.171  23.377  25.810  1.00  0.00     0.010 A 
ATOM     79  C   UNL A   1      42.744  21.666  27.983  1.00  0.00     0.020 A 
ATOM     80  C   UNL A   1      42.687  22.084  25.591  1.00  0.00     0.020 A 
ATOM     81  C   UNL A   1      42.486  21.233  26.680  1.00  0.00     0.054 A 
BRANCH  81  82
ATOM     82  S   UNL A   1      41.837  19.558  26.427  1.00  0.00     0.124 S 
ATOM     83  O   UNL A   1      40.399  19.796  26.368  1.00  0.00    -0.237 OA
ATOM     84  O   UNL A   1      42.466  19.162  25.168  1.00  0.00    -0.237 OA
ATOM     85  O   UNL A   1      42.305  18.829  27.603  1.00  0.00    -0.744 OA
ENDBRANCH  81  82
ENDBRANCH  53  76
BRANCH  65  86
ATOM     86  C   UNL A   1      49.546  27.016  26.028  1.00  0.00    -0.014 A 
ATOM     87  C   UNL A   1      49.907  27.124  24.675  1.00  0.00     0.010 A 
ATOM     88  C   UNL A   1      50.480  26.512  26.953  1.00  0.00     0.010 A 
ATOM     89  C   UNL A   1      51.174  26.717  24.250  1.00  0.00     0.020 A 
ATOM     90  C   UNL A   1      51.756  26.127  26.535  1.00  0.00     0.020 A 
ATOM     91  C   UNL A   1      52.092  26.223  25.183  1.00  0.00     0.054 A 
BRANCH  91  92
ATOM     92  S   UNL A   1      53.753  25.762  24.618  1.00  0.00     0.124 S 
ATOM     93  O   UNL A   1      54.605  26.530  25.523  1.00  0.00    -0.237 OA
ATOM     94  O   UNL A   1      53.771  24.315  24.817  1.00  0.00    -0.237 OA
ATOM     95  O   UNL A   1      53.776  26.193  23.223  1.00  0.00    -0.744 OA
ENDBRANCH  91  92
ENDBRANCH  65  86
ENDBRANCH  39  40
ENDBRANCH  31  34
ENDBRANCH  29  30
ENDBRANCH  28  29
ENDBRANCH  27  28
ENDBRANCH   1  27
TORSDOF 20
ENDMDL
MODEL 3
REMARK VINA RESULT:      -8.9      2.704      9.185
REMARK SMILES C[N@H+](Cc1cc(Cl)ccc1[N+](=O)[O-])[C@H]1COC[C@@H]1C(=O)NCCCCCCNC(=O)c1ccc(-c2c3nc(c(-c4ccc(S(=O)(=O)[O-])cc4)c4ccc([nH]4)c(-c4ccc(S(=O)(=O)[O-])cc4)c4nc(c(-c5ccc(S(=O)(=O)[O-])cc5)c5ccc2[nH]5)C=C4)C=C3)cc1
REMARK SMILES IDX 24 1 23 2 22 3 21 4 19 5 20 6 18 8 14 9 15 10 16 11 17 12
REMARK SMILES IDX 2 13 1 14 3 16 4 17 5 18 10 19 6 20 9 21 7 22 8 23 11 24
REMARK SMILES IDX 12 25 13 26 25 27 26 28 27 29 28 30 29 31 30 33 31 34 32 35
REMARK SMILES IDX 90 36 33 37 89 38 34 39 35 40 36 41 83 42 37 43 88 44 82 45
REMARK SMILES IDX 84 46 38 47 87 48 81 49 80 50 39 52 69 53 50 54 68 55 51 56
REMARK SMILES IDX 54 57 67 58 85 59 52 60 53 61 66 63 86 64 55 65 40 66 41 67
REMARK SMILES IDX 49 68 42 69 48 70 43 71 44 72 45 73 46 74 47 75 70 76 71 77
REMARK SMILES IDX 79 78 72 79 78 80 73 81 74 82 75 83 76 84 77 85 56 86 57 87
REMARK SMILES IDX 65 88 58 89 64 90 59 91 60 92 61 93 62 94 63 95
REMARK H PARENT 21 7 2 15 28 32 84 51 54 62
REMARK Flexibility Score: inf
ROOT
ATOM      1  C   UNL A   1      39.664  23.626  26.450  1.00  0.00     0.002 C 
ENDROOT
BRANCH   1   2
ATOM      2  C   UNL A   1      38.292  24.287  26.639  1.00  0.00     0.021 C 
BRANCH   2   3
ATOM      3  C   UNL A   1      37.174  23.723  25.763  1.00  0.00     0.116 C 
BRANCH   3   4
ATOM      4  N   UNL A   1      36.321  22.807  26.501  1.00  0.00    -0.356 N 
ATOM      5  C   UNL A   1      34.972  22.623  26.433  1.00  0.00     0.231 C 
ATOM      6  O   UNL A   1      34.460  21.809  27.202  1.00  0.00    -0.274 OA
ATOM      7  H   UNL A   1      36.789  22.230  27.148  1.00  0.00     0.163 HD
BRANCH   5   8
ATOM      8  C   UNL A   1      34.157  23.455  25.451  1.00  0.00     0.164 C 
ATOM      9  C   UNL A   1      32.828  22.769  25.086  1.00  0.00     0.225 C 
ATOM     10  C   UNL A   1      33.339  21.854  23.951  1.00  0.00     0.226 C 
ATOM     11  O   UNL A   1      34.358  22.567  23.243  1.00  0.00    -0.374 OA
ATOM     12  C   UNL A   1      34.866  23.584  24.113  1.00  0.00     0.180 C 
BRANCH   9  13
ATOM     13  N   UNL A   1      31.782  23.788  24.712  1.00  0.00    -0.328 N 
ATOM     14  C   UNL A   1      31.205  23.415  23.402  1.00  0.00     0.333 C 
ATOM     15  H   UNL A   1      31.067  23.791  25.438  1.00  0.00     0.348 HD
BRANCH  13  16
ATOM     16  C   UNL A   1      32.340  25.163  24.634  1.00  0.00     0.306 C 
BRANCH  16  17
ATOM     17  C   UNL A   1      31.462  26.141  23.866  1.00  0.00     0.085 A 
ATOM     18  C   UNL A   1      30.070  26.125  24.101  1.00  0.00     0.037 A 
ATOM     19  C   UNL A   1      31.945  27.111  22.963  1.00  0.00     0.278 A 
ATOM     20  C   UNL A   1      29.222  27.077  23.529  1.00  0.00     0.042 A 
ATOM     21  C   UNL A   1      31.088  28.061  22.373  1.00  0.00     0.088 A 
ATOM     22  Cl  UNL A   1      27.543  27.050  23.902  1.00  0.00    -0.084 Cl
ATOM     23  C   UNL A   1      29.726  28.050  22.673  1.00  0.00     0.027 A 
BRANCH  19  24
ATOM     24  N   UNL A   1      33.334  27.131  22.515  1.00  0.00     0.063 N 
ATOM     25  O   UNL A   1      34.068  28.013  22.980  1.00  0.00    -0.258 OA
ATOM     26  O   UNL A   1      33.651  26.334  21.620  1.00  0.00    -0.258 OA
ENDBRANCH  19  24
ENDBRANCH  16  17
ENDBRANCH  13  16
ENDBRANCH   9  13
ENDBRANCH   5   8
ENDBRANCH   3   4
ENDBRANCH   2   3
ENDBRANCH   1   2
BRANCH   1  27
ATOM     27  C   UNL A   1      39.868  22.300  27.191  1.00  0.00     0.002 C 
BRANCH  27  28
ATOM     28  C   UNL A   1      39.896  21.051  26.308  1.00  0.00     0.021 C 
BRANCH  28  29
ATOM     29  C   UNL A   1      40.514  19.816  26.955  1.00  0.00     0.116 C 
BRANCH  29  30
ATOM     30  N   UNL A   1      41.557  19.216  26.137  1.00  0.00    -0.352 N 
ATOM     31  C   UNL A   1      42.692  19.802  25.629  1.00  0.00     0.251 C 
ATOM     32  H   UNL A   1      41.433  18.265  25.918  1.00  0.00     0.163 HD
ATOM     33  O   UNL A   1      43.401  19.193  24.833  1.00  0.00    -0.269 OA
BRANCH  31  34
ATOM     34  C   UNL A   1      43.036  21.185  26.028  1.00  0.00     0.039 A 
ATOM     35  C   UNL A   1      43.366  21.445  27.361  1.00  0.00     0.014 A 
ATOM     36  C   UNL A   1      43.057  22.212  25.081  1.00  0.00     0.014 A 
ATOM     37  C   UNL A   1      43.789  22.726  27.730  1.00  0.00     0.010 A 
ATOM     38  C   UNL A   1      43.537  23.468  25.437  1.00  0.00     0.010 A 
ATOM     39  C   UNL A   1      43.912  23.738  26.764  1.00  0.00    -0.014 A 
BRANCH  39  40
ATOM     40  C   UNL A   1      44.432  25.086  27.104  1.00  0.00     0.031 A 
ATOM     41  C   UNL A   1      43.492  26.141  27.623  1.00  0.00     0.074 A 
ATOM     42  C   UNL A   1      45.721  25.392  26.858  1.00  0.00     0.049 A 
ATOM     43  N   UNL A   1      43.716  27.411  27.842  1.00  0.00    -0.248 NA
ATOM     44  C   UNL A   1      42.112  25.716  27.906  1.00  0.00     0.031 C 
ATOM     45  C   UNL A   1      46.728  24.468  26.330  1.00  0.00     0.029 A 
ATOM     46  N   UNL A   1      46.402  26.576  27.002  1.00  0.00    -0.354 N 
ATOM     47  C   UNL A   1      42.503  27.942  28.260  1.00  0.00     0.074 A 
ATOM     48  C   UNL A   1      41.537  26.865  28.229  1.00  0.00     0.031 C 
ATOM     49  C   UNL A   1      47.898  25.116  26.207  1.00  0.00     0.029 A 
ATOM     50  C   UNL A   1      47.716  26.509  26.602  1.00  0.00     0.049 A 
ATOM     51  H   UNL A   1      45.988  27.395  27.358  1.00  0.00     0.167 HD
ATOM     52  C   UNL A   1      42.219  29.209  28.647  1.00  0.00     0.031 A 
ATOM     53  C   UNL A   1      48.665  27.464  26.543  1.00  0.00     0.031 A 
ATOM     54  C   UNL A   1      43.186  30.273  28.694  1.00  0.00     0.049 A 
ATOM     55  C   UNL A   1      48.327  28.865  26.976  1.00  0.00     0.074 A 
ATOM     56  C   UNL A   1      43.007  31.579  29.117  1.00  0.00     0.029 A 
ATOM     57  N   UNL A   1      44.513  30.154  28.311  1.00  0.00    -0.354 N 
ATOM     58  N   UNL A   1      47.182  29.339  27.406  1.00  0.00    -0.248 NA
ATOM     59  C   UNL A   1      49.409  29.857  26.923  1.00  0.00     0.031 C 
ATOM     60  C   UNL A   1      44.217  32.261  28.951  1.00  0.00     0.029 A 
ATOM     61  C   UNL A   1      45.162  31.365  28.475  1.00  0.00     0.049 A 
ATOM     62  H   UNL A   1      44.932  29.330  27.972  1.00  0.00     0.167 HD
ATOM     63  C   UNL A   1      47.417  30.675  27.710  1.00  0.00     0.074 A 
ATOM     64  C   UNL A   1      48.812  30.934  27.416  1.00  0.00     0.031 C 
ATOM     65  C   UNL A   1      46.555  31.603  28.192  1.00  0.00     0.031 A 
BRANCH  52  66
ATOM     66  C   UNL A   1      40.798  29.513  29.041  1.00  0.00    -0.014 A 
ATOM     67  C   UNL A   1      40.426  29.621  30.394  1.00  0.00     0.010 A 
ATOM     68  C   UNL A   1      39.827  29.725  28.046  1.00  0.00     0.010 A 
ATOM     69  C   UNL A   1      39.101  29.889  30.744  1.00  0.00     0.020 A 
ATOM     70  C   UNL A   1      38.506  30.023  28.392  1.00  0.00     0.020 A 
ATOM     71  C   UNL A   1      38.147  30.083  29.740  1.00  0.00     0.054 A 
BRANCH  71  72
ATOM     72  S   UNL A   1      36.437  30.442  30.222  1.00  0.00     0.124 S 
ATOM     73  O   UNL A   1      35.690  29.944  29.070  1.00  0.00    -0.237 OA
ATOM     74  O   UNL A   1      36.281  29.671  31.453  1.00  0.00    -0.237 OA
ATOM     75  O   UNL A   1      36.422  31.893  30.394  1.00  0.00    -0.744 OA
ENDBRANCH  71  72
ENDBRANCH  52  66
BRANCH  53  76
ATOM     76  C   UNL A   1      50.033  27.123  26.066  1.00  0.00    -0.014 A 
ATOM     77  C   UNL A   1      51.039  26.773  26.984  1.00  0.00     0.010 A 
ATOM     78  C   UNL A   1      50.332  27.131  24.692  1.00  0.00     0.010 A 
ATOM     79  C   UNL A   1      52.324  26.453  26.538  1.00  0.00     0.020 A 
ATOM     80  C   UNL A   1      51.610  26.788  24.240  1.00  0.00     0.020 A 
ATOM     81  C   UNL A   1      52.601  26.461  25.168  1.00  0.00     0.054 A 
BRANCH  81  82
ATOM     82  S   UNL A   1      54.261  25.990  24.608  1.00  0.00     0.124 S 
ATOM     83  O   UNL A   1      54.292  24.564  24.918  1.00  0.00    -0.237 OA
ATOM     84  O   UNL A   1      54.223  26.329  23.187  1.00  0.00    -0.237 OA
ATOM     85  O   UNL A   1      55.145  26.827  25.416  1.00  0.00    -0.744 OA
ENDBRANCH  81  82
ENDBRANCH  53  76
BRANCH  65  86
ATOM     86  C   UNL A   1      47.100  32.975  28.488  1.00  0.00    -0.014 A 
ATOM     87  C   UNL A   1      47.698  33.272  29.724  1.00  0.00     0.010 A 
ATOM     88  C   UNL A   1      47.080  33.955  27.478  1.00  0.00     0.010 A 
ATOM     89  C   UNL A   1      48.249  34.536  29.953  1.00  0.00     0.020 A 
ATOM     90  C   UNL A   1      47.651  35.211  27.696  1.00  0.00     0.020 A 
ATOM     91  C   UNL A   1      48.224  35.497  28.936  1.00  0.00     0.054 A 
BRANCH  91  92
ATOM     92  S   UNL A   1      49.004  37.107  29.234  1.00  0.00     0.124 S 
ATOM     93  O   UNL A   1      48.166  38.002  28.439  1.00  0.00    -0.237 OA
ATOM     94  O   UNL A   1      48.887  37.259  30.682  1.00  0.00    -0.237 OA
ATOM     95  O   UNL A   1      50.367  36.928  28.741  1.00  0.00    -0.744 OA
ENDBRANCH  91  92
ENDBRANCH  65  86
ENDBRANCH  39  40
ENDBRANCH  31  34
ENDBRANCH  29  30
ENDBRANCH  28  29
ENDBRANCH  27  28
ENDBRANCH   1  27
TORSDOF 20
ENDMDL
