MODEL 1
REMARK VINA RESULT:     -10.4      0.000      0.000
REMARK SMILES O=C(Cc1ccn(C(F)F)c(=O)c1)NCCCCCCNC(=O)c1ccc(-c2c3nc(c(-c4ccc(S(=O)(=O)[O-])cc4)c4ccc([nH]4)c(-c4ccc(S(=O)(=O)[O-])cc4)c4nc(c(-c5ccc(S(=O)(=O)[O-])cc5)c5ccc2[nH]5)C=C4)C=C3)cc1
REMARK SMILES IDX 18 1 17 2 16 3 15 4 14 5 1 6 2 7 3 9 4 10 5 11 13 12 6 13
REMARK SMILES IDX 11 14 7 15 12 16 8 17 9 18 10 19 19 20 20 21 21 22 22 23
REMARK SMILES IDX 23 25 24 26 25 27 83 28 26 29 82 30 27 31 28 32 29 33 76 34
REMARK SMILES IDX 30 35 81 36 75 37 77 38 31 39 80 40 74 41 73 42 32 44 62 45
REMARK SMILES IDX 43 46 61 47 44 48 47 49 60 50 78 51 45 52 46 53 59 55 79 56
REMARK SMILES IDX 48 57 33 58 34 59 42 60 35 61 41 62 36 63 37 64 38 65 39 66
REMARK SMILES IDX 40 67 63 68 64 69 72 70 65 71 71 72 66 73 67 74 68 75 69 76
REMARK SMILES IDX 70 77 49 78 50 79 58 80 51 81 57 82 52 83 53 84 54 85 55 86
REMARK SMILES IDX 56 87
REMARK H PARENT 14 8 21 24 77 43 47 54
REMARK Flexibility Score: inf
ROOT
ATOM      1  C   UNL A   1      32.038  27.855  24.888  1.00  0.00     0.002 C 
ENDROOT
BRANCH   1   2
ATOM      2  C   UNL A   1      33.379  27.340  24.356  1.00  0.00     0.002 C 
BRANCH   2   3
ATOM      3  C   UNL A   1      33.447  27.085  22.842  1.00  0.00     0.021 C 
BRANCH   3   4
ATOM      4  C   UNL A   1      33.316  25.620  22.421  1.00  0.00     0.116 C 
BRANCH   4   5
ATOM      5  N   UNL A   1      33.411  24.737  23.564  1.00  0.00    -0.356 N 
ATOM      6  O   UNL A   1      34.985  23.293  22.709  1.00  0.00    -0.275 OA
ATOM      7  C   UNL A   1      34.239  23.638  23.620  1.00  0.00     0.224 C 
ATOM      8  H   UNL A   1      32.849  24.933  24.349  1.00  0.00     0.163 HD
BRANCH   7   9
ATOM      9  C   UNL A   1      34.126  22.848  24.922  1.00  0.00     0.135 C 
BRANCH   9  10
ATOM     10  C   UNL A   1      33.988  21.370  24.663  1.00  0.00    -0.032 A 
ATOM     11  C   UNL A   1      32.726  20.868  24.154  1.00  0.00     0.022 A 
ATOM     12  C   UNL A   1      34.999  20.507  24.863  1.00  0.00     0.076 A 
ATOM     13  C   UNL A   1      32.536  19.554  23.991  1.00  0.00     0.095 A 
ATOM     14  C   UNL A   1      34.823  19.046  24.622  1.00  0.00     0.255 A 
ATOM     15  N   UNL A   1      33.548  18.650  24.246  1.00  0.00    -0.258 N 
ATOM     16  O   UNL A   1      35.790  18.306  24.768  1.00  0.00    -0.269 OA
BRANCH  15  17
ATOM     17  C   UNL A   1      33.329  17.238  24.064  1.00  0.00     0.451 C 
ATOM     18  F   UNL A   1      32.420  16.772  24.955  1.00  0.00    -0.185 F 
ATOM     19  F   UNL A   1      32.875  16.963  22.818  1.00  0.00    -0.185 F 
ENDBRANCH  15  17
ENDBRANCH   9  10
ENDBRANCH   7   9
ENDBRANCH   4   5
ENDBRANCH   3   4
ENDBRANCH   2   3
ENDBRANCH   1   2
BRANCH   1  20
ATOM     20  C   UNL A   1      32.094  28.550  26.248  1.00  0.00     0.021 C 
BRANCH  20  21
ATOM     21  C   UNL A   1      33.478  29.022  26.682  1.00  0.00     0.116 C 
BRANCH  21  22
ATOM     22  N   UNL A   1      33.474  30.354  27.272  1.00  0.00    -0.352 N 
ATOM     23  C   UNL A   1      34.439  30.950  28.053  1.00  0.00     0.251 C 
ATOM     24  H   UNL A   1      32.676  30.900  27.089  1.00  0.00     0.163 HD
ATOM     25  O   UNL A   1      34.233  32.047  28.564  1.00  0.00    -0.269 OA
BRANCH  23  26
ATOM     26  C   UNL A   1      35.708  30.232  28.308  1.00  0.00     0.039 A 
ATOM     27  C   UNL A   1      35.956  29.651  29.554  1.00  0.00     0.014 A 
ATOM     28  C   UNL A   1      36.686  30.201  27.310  1.00  0.00     0.014 A 
ATOM     29  C   UNL A   1      37.236  29.202  29.859  1.00  0.00     0.010 A 
ATOM     30  C   UNL A   1      37.951  29.679  27.597  1.00  0.00     0.010 A 
ATOM     31  C   UNL A   1      38.254  29.229  28.891  1.00  0.00    -0.014 A 
BRANCH  31  32
ATOM     32  C   UNL A   1      39.631  28.815  29.266  1.00  0.00     0.031 A 
ATOM     33  C   UNL A   1      40.467  29.671  30.183  1.00  0.00     0.074 A 
ATOM     34  C   UNL A   1      40.105  27.627  28.842  1.00  0.00     0.049 A 
ATOM     35  N   UNL A   1      41.671  29.443  30.646  1.00  0.00    -0.248 NA
ATOM     36  C   UNL A   1      39.882  30.942  30.642  1.00  0.00     0.031 C 
ATOM     37  C   UNL A   1      39.378  26.694  27.978  1.00  0.00     0.029 A 
ATOM     38  N   UNL A   1      41.288  26.984  29.104  1.00  0.00    -0.354 N 
ATOM     39  C   UNL A   1      41.989  30.541  31.438  1.00  0.00     0.074 A 
ATOM     40  C   UNL A   1      40.868  31.450  31.371  1.00  0.00     0.031 C 
ATOM     41  C   UNL A   1      40.102  25.574  27.835  1.00  0.00     0.029 A 
ATOM     42  C   UNL A   1      41.371  25.732  28.541  1.00  0.00     0.049 A 
ATOM     43  H   UNL A   1      42.010  27.381  29.644  1.00  0.00     0.167 HD
ATOM     44  C   UNL A   1      43.111  30.763  32.165  1.00  0.00     0.031 A 
ATOM     45  C   UNL A   1      42.354  24.810  28.579  1.00  0.00     0.031 A 
ATOM     46  C   UNL A   1      44.220  29.850  32.243  1.00  0.00     0.049 A 
ATOM     47  C   UNL A   1      43.609  25.104  29.348  1.00  0.00     0.074 A 
ATOM     48  C   UNL A   1      45.394  29.991  32.964  1.00  0.00     0.029 A 
ATOM     49  N   UNL A   1      44.295  28.630  31.590  1.00  0.00    -0.354 N 
ATOM     50  N   UNL A   1      43.895  26.155  30.077  1.00  0.00    -0.248 NA
ATOM     51  C   UNL A   1      44.676  24.095  29.295  1.00  0.00     0.031 C 
ATOM     52  C   UNL A   1      46.201  28.880  32.704  1.00  0.00     0.029 A 
ATOM     53  C   UNL A   1      45.505  28.019  31.872  1.00  0.00     0.049 A 
ATOM     54  H   UNL A   1      43.592  28.253  31.012  1.00  0.00     0.167 HD
ATOM     55  C   UNL A   1      45.174  25.933  30.574  1.00  0.00     0.074 A 
ATOM     56  C   UNL A   1      45.599  24.641  30.079  1.00  0.00     0.031 C 
ATOM     57  C   UNL A   1      45.926  26.737  31.365  1.00  0.00     0.031 A 
BRANCH  44  58
ATOM     58  C   UNL A   1      43.212  32.049  32.944  1.00  0.00    -0.014 A 
ATOM     59  C   UNL A   1      43.861  33.159  32.375  1.00  0.00     0.010 A 
ATOM     60  C   UNL A   1      42.768  32.122  34.276  1.00  0.00     0.010 A 
ATOM     61  C   UNL A   1      44.085  34.314  33.130  1.00  0.00     0.020 A 
ATOM     62  C   UNL A   1      42.971  33.284  35.028  1.00  0.00     0.020 A 
ATOM     63  C   UNL A   1      43.647  34.365  34.455  1.00  0.00     0.054 A 
BRANCH  63  64
ATOM     64  S   UNL A   1      43.953  35.867  35.426  1.00  0.00     0.124 S 
ATOM     65  O   UNL A   1      44.962  35.417  36.381  1.00  0.00    -0.237 OA
ATOM     66  O   UNL A   1      44.418  36.815  34.415  1.00  0.00    -0.237 OA
ATOM     67  O   UNL A   1      42.644  36.175  35.996  1.00  0.00    -0.744 OA
ENDBRANCH  63  64
ENDBRANCH  44  58
BRANCH  45  68
ATOM     68  C   UNL A   1      42.156  23.519  27.869  1.00  0.00    -0.014 A 
ATOM     69  C   UNL A   1      41.529  22.440  28.518  1.00  0.00     0.010 A 
ATOM     70  C   UNL A   1      42.686  23.330  26.580  1.00  0.00     0.010 A 
ATOM     71  C   UNL A   1      41.490  21.178  27.921  1.00  0.00     0.020 A 
ATOM     72  C   UNL A   1      42.624  22.074  25.967  1.00  0.00     0.020 A 
ATOM     73  C   UNL A   1      42.056  20.999  26.656  1.00  0.00     0.054 A 
BRANCH  73  74
ATOM     74  S   UNL A   1      42.057  19.340  25.925  1.00  0.00     0.124 S 
ATOM     75  O   UNL A   1      40.643  19.153  25.609  1.00  0.00    -0.237 OA
ATOM     76  O   UNL A   1      42.943  19.495  24.773  1.00  0.00    -0.237 OA
ATOM     77  O   UNL A   1      42.577  18.495  26.997  1.00  0.00    -0.744 OA
ENDBRANCH  73  74
ENDBRANCH  45  68
BRANCH  57  78
ATOM     78  C   UNL A   1      47.301  26.267  31.752  1.00  0.00    -0.014 A 
ATOM     79  C   UNL A   1      48.370  26.413  30.848  1.00  0.00     0.010 A 
ATOM     80  C   UNL A   1      47.506  25.560  32.949  1.00  0.00     0.010 A 
ATOM     81  C   UNL A   1      49.610  25.827  31.117  1.00  0.00     0.020 A 
ATOM     82  C   UNL A   1      48.751  24.993  33.233  1.00  0.00     0.020 A 
ATOM     83  C   UNL A   1      49.787  25.109  32.303  1.00  0.00     0.054 A 
BRANCH  83  84
ATOM     84  S   UNL A   1      51.390  24.321  32.620  1.00  0.00     0.124 S 
ATOM     85  O   UNL A   1      52.285  25.087  31.757  1.00  0.00    -0.237 OA
ATOM     86  O   UNL A   1      51.572  24.525  34.055  1.00  0.00    -0.237 OA
ATOM     87  O   UNL A   1      51.174  22.932  32.220  1.00  0.00    -0.744 OA
ENDBRANCH  83  84
ENDBRANCH  57  78
ENDBRANCH  31  32
ENDBRANCH  23  26
ENDBRANCH  21  22
ENDBRANCH  20  21
ENDBRANCH   1  20
TORSDOF 18
ENDMDL
MODEL 2
REMARK VINA RESULT:     -10.2      1.833      2.453
REMARK SMILES O=C(Cc1ccn(C(F)F)c(=O)c1)NCCCCCCNC(=O)c1ccc(-c2c3nc(c(-c4ccc(S(=O)(=O)[O-])cc4)c4ccc([nH]4)c(-c4ccc(S(=O)(=O)[O-])cc4)c4nc(c(-c5ccc(S(=O)(=O)[O-])cc5)c5ccc2[nH]5)C=C4)C=C3)cc1
REMARK SMILES IDX 18 1 17 2 16 3 15 4 14 5 1 6 2 7 3 9 4 10 5 11 13 12 6 13
REMARK SMILES IDX 11 14 7 15 12 16 8 17 9 18 10 19 19 20 20 21 21 22 22 23
REMARK SMILES IDX 23 25 24 26 25 27 83 28 26 29 82 30 27 31 28 32 29 33 76 34
REMARK SMILES IDX 30 35 81 36 75 37 77 38 31 39 80 40 74 41 73 42 32 44 62 45
REMARK SMILES IDX 43 46 61 47 44 48 47 49 60 50 78 51 45 52 46 53 59 55 79 56
REMARK SMILES IDX 48 57 33 58 34 59 42 60 35 61 41 62 36 63 37 64 38 65 39 66
REMARK SMILES IDX 40 67 63 68 64 69 72 70 65 71 71 72 66 73 67 74 68 75 69 76
REMARK SMILES IDX 70 77 49 78 50 79 58 80 51 81 57 82 52 83 53 84 54 85 55 86
REMARK SMILES IDX 56 87
REMARK H PARENT 14 8 21 24 77 43 47 54
REMARK Flexibility Score: inf
ROOT
ATOM      1  C   UNL A   1      32.832  27.764  24.854  1.00  0.00     0.002 C 
ENDROOT
BRANCH   1   2
ATOM      2  C   UNL A   1      31.372  27.300  24.883  1.00  0.00     0.002 C 
BRANCH   2   3
ATOM      3  C   UNL A   1      30.943  26.514  26.132  1.00  0.00     0.021 C 
BRANCH   3   4
ATOM      4  C   UNL A   1      30.085  25.277  25.861  1.00  0.00     0.116 C 
BRANCH   4   5
ATOM      5  N   UNL A   1      30.860  24.233  25.225  1.00  0.00    -0.356 N 
ATOM      6  O   UNL A   1      30.149  24.593  23.067  1.00  0.00    -0.275 OA
ATOM      7  C   UNL A   1      30.831  23.969  23.873  1.00  0.00     0.224 C 
ATOM      8  H   UNL A   1      31.442  23.677  25.792  1.00  0.00     0.163 HD
BRANCH   7   9
ATOM      9  C   UNL A   1      31.710  22.793  23.456  1.00  0.00     0.135 C 
BRANCH   9  10
ATOM     10  C   UNL A   1      33.062  22.850  24.119  1.00  0.00    -0.032 A 
ATOM     11  C   UNL A   1      34.047  23.785  23.611  1.00  0.00     0.022 A 
ATOM     12  C   UNL A   1      33.377  22.084  25.178  1.00  0.00     0.076 A 
ATOM     13  C   UNL A   1      35.285  23.808  24.118  1.00  0.00     0.095 A 
ATOM     14  C   UNL A   1      34.732  22.144  25.797  1.00  0.00     0.255 A 
ATOM     15  N   UNL A   1      35.640  22.985  25.170  1.00  0.00    -0.258 N 
ATOM     16  O   UNL A   1      34.955  21.465  26.793  1.00  0.00    -0.269 OA
BRANCH  15  17
ATOM     17  C   UNL A   1      36.976  23.022  25.706  1.00  0.00     0.451 C 
ATOM     18  F   UNL A   1      37.691  21.948  25.292  1.00  0.00    -0.185 F 
ATOM     19  F   UNL A   1      37.635  24.140  25.320  1.00  0.00    -0.185 F 
ENDBRANCH  15  17
ENDBRANCH   9  10
ENDBRANCH   7   9
ENDBRANCH   4   5
ENDBRANCH   3   4
ENDBRANCH   2   3
ENDBRANCH   1   2
BRANCH   1  20
ATOM     20  C   UNL A   1      33.102  29.120  25.505  1.00  0.00     0.021 C 
BRANCH  20  21
ATOM     21  C   UNL A   1      33.627  29.064  26.936  1.00  0.00     0.116 C 
BRANCH  21  22
ATOM     22  N   UNL A   1      33.632  30.360  27.600  1.00  0.00    -0.352 N 
ATOM     23  C   UNL A   1      34.633  30.938  28.348  1.00  0.00     0.251 C 
ATOM     24  H   UNL A   1      32.810  30.892  27.502  1.00  0.00     0.163 HD
ATOM     25  O   UNL A   1      34.435  31.999  28.934  1.00  0.00    -0.269 OA
BRANCH  23  26
ATOM     26  C   UNL A   1      35.933  30.243  28.477  1.00  0.00     0.039 A 
ATOM     27  C   UNL A   1      36.255  29.553  29.648  1.00  0.00     0.014 A 
ATOM     28  C   UNL A   1      36.864  30.342  27.440  1.00  0.00     0.014 A 
ATOM     29  C   UNL A   1      37.561  29.120  29.852  1.00  0.00     0.010 A 
ATOM     30  C   UNL A   1      38.156  29.838  27.620  1.00  0.00     0.010 A 
ATOM     31  C   UNL A   1      38.532  29.276  28.849  1.00  0.00    -0.014 A 
BRANCH  31  32
ATOM     32  C   UNL A   1      39.936  28.875  29.123  1.00  0.00     0.031 A 
ATOM     33  C   UNL A   1      40.846  29.765  29.931  1.00  0.00     0.074 A 
ATOM     34  C   UNL A   1      40.375  27.670  28.707  1.00  0.00     0.049 A 
ATOM     35  N   UNL A   1      42.084  29.553  30.300  1.00  0.00    -0.248 NA
ATOM     36  C   UNL A   1      40.299  31.054  30.388  1.00  0.00     0.031 C 
ATOM     37  C   UNL A   1      39.579  26.705  27.946  1.00  0.00     0.029 A 
ATOM     38  N   UNL A   1      41.577  27.036  28.893  1.00  0.00    -0.354 N 
ATOM     39  C   UNL A   1      42.467  30.681  31.017  1.00  0.00     0.074 A 
ATOM     40  C   UNL A   1      41.342  31.589  31.010  1.00  0.00     0.031 C 
ATOM     41  C   UNL A   1      40.290  25.579  27.786  1.00  0.00     0.029 A 
ATOM     42  C   UNL A   1      41.614  25.763  28.375  1.00  0.00     0.049 A 
ATOM     43  H   UNL A   1      42.341  27.453  29.355  1.00  0.00     0.167 HD
ATOM     44  C   UNL A   1      43.645  30.930  31.637  1.00  0.00     0.031 A 
ATOM     45  C   UNL A   1      42.598  24.841  28.367  1.00  0.00     0.031 A 
ATOM     46  C   UNL A   1      44.759  30.019  31.658  1.00  0.00     0.049 A 
ATOM     47  C   UNL A   1      43.913  25.163  29.015  1.00  0.00     0.074 A 
ATOM     48  C   UNL A   1      45.989  30.187  32.270  1.00  0.00     0.029 A 
ATOM     49  N   UNL A   1      44.780  28.774  31.049  1.00  0.00    -0.354 N 
ATOM     50  N   UNL A   1      44.258  26.241  29.675  1.00  0.00    -0.248 NA
ATOM     51  C   UNL A   1      44.974  24.151  28.912  1.00  0.00     0.031 C 
ATOM     52  C   UNL A   1      46.773  29.065  31.988  1.00  0.00     0.029 A 
ATOM     53  C   UNL A   1      46.011  28.173  31.252  1.00  0.00     0.049 A 
ATOM     54  H   UNL A   1      44.031  28.376  30.548  1.00  0.00     0.167 HD
ATOM     55  C   UNL A   1      45.575  26.038  30.070  1.00  0.00     0.074 A 
ATOM     56  C   UNL A   1      45.959  24.726  29.592  1.00  0.00     0.031 C 
ATOM     57  C   UNL A   1      46.390  26.871  30.762  1.00  0.00     0.031 A 
BRANCH  44  58
ATOM     58  C   UNL A   1      43.810  32.245  32.354  1.00  0.00    -0.014 A 
ATOM     59  C   UNL A   1      43.410  32.362  33.698  1.00  0.00     0.010 A 
ATOM     60  C   UNL A   1      44.253  33.390  31.669  1.00  0.00     0.010 A 
ATOM     61  C   UNL A   1      43.427  33.604  34.339  1.00  0.00     0.020 A 
ATOM     62  C   UNL A   1      44.293  34.631  32.314  1.00  0.00     0.020 A 
ATOM     63  C   UNL A   1      43.860  34.732  33.638  1.00  0.00     0.054 A 
BRANCH  63  64
ATOM     64  S   UNL A   1      43.868  36.340  34.481  1.00  0.00     0.124 S 
ATOM     65  O   UNL A   1      45.297  36.614  34.605  1.00  0.00    -0.237 OA
ATOM     66  O   UNL A   1      43.139  37.196  33.548  1.00  0.00    -0.237 OA
ATOM     67  O   UNL A   1      43.171  36.069  35.735  1.00  0.00    -0.744 OA
ENDBRANCH  63  64
ENDBRANCH  44  58
BRANCH  45  68
ATOM     68  C   UNL A   1      42.344  23.523  27.727  1.00  0.00    -0.014 A 
ATOM     69  C   UNL A   1      41.820  22.457  28.482  1.00  0.00     0.010 A 
ATOM     70  C   UNL A   1      42.720  23.299  26.391  1.00  0.00     0.010 A 
ATOM     71  C   UNL A   1      41.736  21.175  27.935  1.00  0.00     0.020 A 
ATOM     72  C   UNL A   1      42.611  22.021  25.831  1.00  0.00     0.020 A 
ATOM     73  C   UNL A   1      42.151  20.962  26.617  1.00  0.00     0.054 A 
BRANCH  73  74
ATOM     74  S   UNL A   1      42.098  19.279  25.945  1.00  0.00     0.124 S 
ATOM     75  O   UNL A   1      42.603  18.494  27.069  1.00  0.00    -0.237 OA
ATOM     76  O   UNL A   1      40.680  19.098  25.639  1.00  0.00    -0.237 OA
ATOM     77  O   UNL A   1      42.979  19.349  24.782  1.00  0.00    -0.744 OA
ENDBRANCH  73  74
ENDBRANCH  45  68
BRANCH  57  78
ATOM     78  C   UNL A   1      47.794  26.414  31.050  1.00  0.00    -0.014 A 
ATOM     79  C   UNL A   1      48.120  25.916  32.325  1.00  0.00     0.010 A 
ATOM     80  C   UNL A   1      48.817  26.607  30.105  1.00  0.00     0.010 A 
ATOM     81  C   UNL A   1      49.449  25.653  32.664  1.00  0.00     0.020 A 
ATOM     82  C   UNL A   1      50.145  26.322  30.432  1.00  0.00     0.020 A 
ATOM     83  C   UNL A   1      50.455  25.872  31.718  1.00  0.00     0.054 A 
BRANCH  83  84
ATOM     84  S   UNL A   1      52.181  25.564  32.186  1.00  0.00     0.124 S 
ATOM     85  O   UNL A   1      52.306  26.333  33.421  1.00  0.00    -0.237 OA
ATOM     86  O   UNL A   1      52.219  24.112  32.341  1.00  0.00    -0.237 OA
ATOM     87  O   UNL A   1      52.940  26.080  31.049  1.00  0.00    -0.744 OA
ENDBRANCH  83  84
ENDBRANCH  57  78
ENDBRANCH  31  32
ENDBRANCH  23  26
ENDBRANCH  21  22
ENDBRANCH  20  21
ENDBRANCH   1  20
TORSDOF 18
ENDMDL
MODEL 3
REMARK VINA RESULT:     -10.1      4.262     10.315
REMARK SMILES O=C(Cc1ccn(C(F)F)c(=O)c1)NCCCCCCNC(=O)c1ccc(-c2c3nc(c(-c4ccc(S(=O)(=O)[O-])cc4)c4ccc([nH]4)c(-c4ccc(S(=O)(=O)[O-])cc4)c4nc(c(-c5ccc(S(=O)(=O)[O-])cc5)c5ccc2[nH]5)C=C4)C=C3)cc1
REMARK SMILES IDX 18 1 17 2 16 3 15 4 14 5 1 6 2 7 3 9 4 10 5 11 13 12 6 13
REMARK SMILES IDX 11 14 7 15 12 16 8 17 9 18 10 19 19 20 20 21 21 22 22 23
REMARK SMILES IDX 23 25 24 26 25 27 83 28 26 29 82 30 27 31 28 32 29 33 76 34
REMARK SMILES IDX 30 35 81 36 75 37 77 38 31 39 80 40 74 41 73 42 32 44 62 45
REMARK SMILES IDX 43 46 61 47 44 48 47 49 60 50 78 51 45 52 46 53 59 55 79 56
REMARK SMILES IDX 48 57 33 58 34 59 42 60 35 61 41 62 36 63 37 64 38 65 39 66
REMARK SMILES IDX 40 67 63 68 64 69 72 70 65 71 71 72 66 73 67 74 68 75 69 76
REMARK SMILES IDX 70 77 49 78 50 79 58 80 51 81 57 82 52 83 53 84 54 85 55 86
REMARK SMILES IDX 56 87
REMARK H PARENT 14 8 21 24 77 43 47 54
REMARK Flexibility Score: inf
ROOT
ATOM      1  C   UNL A   1      43.260  22.928  28.388  1.00  0.00     0.002 C 
ENDROOT
BRANCH   1   2
ATOM      2  C   UNL A   1      42.664  21.977  27.346  1.00  0.00     0.002 C 
BRANCH   2   3
ATOM      3  C   UNL A   1      41.450  22.509  26.570  1.00  0.00     0.021 C 
BRANCH   3   4
ATOM      4  C   UNL A   1      40.087  22.156  27.169  1.00  0.00     0.116 C 
BRANCH   4   5
ATOM      5  N   UNL A   1      39.224  21.545  26.181  1.00  0.00    -0.356 N 
ATOM      6  O   UNL A   1      37.824  23.339  25.841  1.00  0.00    -0.275 OA
ATOM      7  C   UNL A   1      38.155  22.184  25.593  1.00  0.00     0.224 C 
ATOM      8  H   UNL A   1      39.411  20.616  25.914  1.00  0.00     0.163 HD
BRANCH   7   9
ATOM      9  C   UNL A   1      37.380  21.310  24.610  1.00  0.00     0.135 C 
BRANCH   9  10
ATOM     10  C   UNL A   1      36.002  21.860  24.347  1.00  0.00    -0.032 A 
ATOM     11  C   UNL A   1      34.877  21.287  25.060  1.00  0.00     0.022 A 
ATOM     12  C   UNL A   1      35.784  22.876  23.495  1.00  0.00     0.076 A 
ATOM     13  C   UNL A   1      33.630  21.691  24.794  1.00  0.00     0.095 A 
ATOM     14  C   UNL A   1      34.406  23.382  23.236  1.00  0.00     0.255 A 
ATOM     15  N   UNL A   1      33.385  22.696  23.878  1.00  0.00    -0.258 N 
ATOM     16  O   UNL A   1      34.263  24.346  22.491  1.00  0.00    -0.269 OA
BRANCH  15  17
ATOM     17  C   UNL A   1      32.037  23.120  23.604  1.00  0.00     0.451 C 
ATOM     18  F   UNL A   1      31.412  22.240  22.784  1.00  0.00    -0.185 F 
ATOM     19  F   UNL A   1      31.308  23.227  24.740  1.00  0.00    -0.185 F 
ENDBRANCH  15  17
ENDBRANCH   9  10
ENDBRANCH   7   9
ENDBRANCH   4   5
ENDBRANCH   3   4
ENDBRANCH   2   3
ENDBRANCH   1   2
BRANCH   1  20
ATOM     20  C   UNL A   1      44.692  23.389  28.114  1.00  0.00     0.021 C 
BRANCH  20  21
ATOM     21  C   UNL A   1      44.826  24.801  27.554  1.00  0.00     0.116 C 
BRANCH  21  22
ATOM     22  N   UNL A   1      44.206  24.965  26.246  1.00  0.00    -0.352 N 
ATOM     23  C   UNL A   1      43.114  25.731  25.903  1.00  0.00     0.251 C 
ATOM     24  H   UNL A   1      44.622  24.460  25.511  1.00  0.00     0.163 HD
ATOM     25  O   UNL A   1      42.649  25.675  24.768  1.00  0.00    -0.269 OA
BRANCH  23  26
ATOM     26  C   UNL A   1      42.480  26.587  26.930  1.00  0.00     0.039 A 
ATOM     27  C   UNL A   1      42.884  27.914  27.095  1.00  0.00     0.014 A 
ATOM     28  C   UNL A   1      41.518  26.033  27.779  1.00  0.00     0.014 A 
ATOM     29  C   UNL A   1      42.463  28.625  28.214  1.00  0.00     0.010 A 
ATOM     30  C   UNL A   1      41.039  26.779  28.861  1.00  0.00     0.010 A 
ATOM     31  C   UNL A   1      41.552  28.059  29.121  1.00  0.00    -0.014 A 
BRANCH  31  32
ATOM     32  C   UNL A   1      41.178  28.811  30.347  1.00  0.00     0.031 A 
ATOM     33  C   UNL A   1      42.025  28.723  31.590  1.00  0.00     0.074 A 
ATOM     34  C   UNL A   1      40.113  29.637  30.319  1.00  0.00     0.049 A 
ATOM     35  N   UNL A   1      41.870  29.342  32.734  1.00  0.00    -0.248 NA
ATOM     36  C   UNL A   1      43.196  27.831  31.548  1.00  0.00     0.031 C 
ATOM     37  C   UNL A   1      39.234  29.834  29.164  1.00  0.00     0.029 A 
ATOM     38  N   UNL A   1      39.609  30.488  31.270  1.00  0.00    -0.354 N 
ATOM     39  C   UNL A   1      42.912  28.908  33.547  1.00  0.00     0.074 A 
ATOM     40  C   UNL A   1      43.676  27.951  32.780  1.00  0.00     0.031 C 
ATOM     41  C   UNL A   1      38.342  30.793  29.451  1.00  0.00     0.029 A 
ATOM     42  C   UNL A   1      38.540  31.234  30.829  1.00  0.00     0.049 A 
ATOM     43  H   UNL A   1      39.978  30.560  32.180  1.00  0.00     0.167 HD
ATOM     44  C   UNL A   1      43.210  29.284  34.813  1.00  0.00     0.031 A 
ATOM     45  C   UNL A   1      37.796  32.166  31.458  1.00  0.00     0.031 A 
ATOM     46  C   UNL A   1      42.457  30.249  35.570  1.00  0.00     0.049 A 
ATOM     47  C   UNL A   1      38.114  32.526  32.880  1.00  0.00     0.074 A 
ATOM     48  C   UNL A   1      42.693  30.697  36.859  1.00  0.00     0.029 A 
ATOM     49  N   UNL A   1      41.332  30.919  35.113  1.00  0.00    -0.354 N 
ATOM     50  N   UNL A   1      39.094  32.092  33.635  1.00  0.00    -0.248 NA
ATOM     51  C   UNL A   1      37.225  33.493  33.539  1.00  0.00     0.031 C 
ATOM     52  C   UNL A   1      41.681  31.599  37.200  1.00  0.00     0.029 A 
ATOM     53  C   UNL A   1      40.850  31.758  36.103  1.00  0.00     0.049 A 
ATOM     54  H   UNL A   1      40.936  30.813  34.218  1.00  0.00     0.167 HD
ATOM     55  C   UNL A   1      38.943  32.735  34.857  1.00  0.00     0.074 A 
ATOM     56  C   UNL A   1      37.789  33.602  34.737  1.00  0.00     0.031 C 
ATOM     57  C   UNL A   1      39.693  32.609  35.978  1.00  0.00     0.031 A 
BRANCH  44  58
ATOM     58  C   UNL A   1      44.405  28.656  35.482  1.00  0.00    -0.014 A 
ATOM     59  C   UNL A   1      44.251  27.456  36.200  1.00  0.00     0.010 A 
ATOM     60  C   UNL A   1      45.651  29.308  35.494  1.00  0.00     0.010 A 
ATOM     61  C   UNL A   1      45.314  26.930  36.939  1.00  0.00     0.020 A 
ATOM     62  C   UNL A   1      46.723  28.772  36.214  1.00  0.00     0.020 A 
ATOM     63  C   UNL A   1      46.541  27.597  36.949  1.00  0.00     0.054 A 
BRANCH  63  64
ATOM     64  S   UNL A   1      47.910  26.907  37.920  1.00  0.00     0.124 S 
ATOM     65  O   UNL A   1      48.695  26.219  36.899  1.00  0.00    -0.237 OA
ATOM     66  O   UNL A   1      48.529  28.098  38.497  1.00  0.00    -0.237 OA
ATOM     67  O   UNL A   1      47.238  26.039  38.884  1.00  0.00    -0.744 OA
ENDBRANCH  63  64
ENDBRANCH  44  58
BRANCH  45  68
ATOM     68  C   UNL A   1      36.687  32.822  30.715  1.00  0.00    -0.014 A 
ATOM     69  C   UNL A   1      36.966  33.805  29.747  1.00  0.00     0.010 A 
ATOM     70  C   UNL A   1      35.350  32.542  31.044  1.00  0.00     0.010 A 
ATOM     71  C   UNL A   1      35.932  34.542  29.168  1.00  0.00     0.020 A 
ATOM     72  C   UNL A   1      34.309  33.260  30.445  1.00  0.00     0.020 A 
ATOM     73  C   UNL A   1      34.610  34.278  29.535  1.00  0.00     0.054 A 
BRANCH  73  74
ATOM     74  S   UNL A   1      33.284  35.290  28.823  1.00  0.00     0.124 S 
ATOM     75  O   UNL A   1      32.575  34.315  27.999  1.00  0.00    -0.237 OA
ATOM     76  O   UNL A   1      32.564  35.757  30.005  1.00  0.00    -0.237 OA
ATOM     77  O   UNL A   1      34.005  36.326  28.088  1.00  0.00    -0.744 OA
ENDBRANCH  73  74
ENDBRANCH  45  68
BRANCH  57  78
ATOM     78  C   UNL A   1      39.303  33.414  37.189  1.00  0.00    -0.014 A 
ATOM     79  C   UNL A   1      39.828  34.707  37.367  1.00  0.00     0.010 A 
ATOM     80  C   UNL A   1      38.530  32.838  38.212  1.00  0.00     0.010 A 
ATOM     81  C   UNL A   1      39.619  35.397  38.564  1.00  0.00     0.020 A 
ATOM     82  C   UNL A   1      38.298  33.535  39.400  1.00  0.00     0.020 A 
ATOM     83  C   UNL A   1      38.866  34.800  39.578  1.00  0.00     0.054 A 
BRANCH  83  84
ATOM     84  S   UNL A   1      38.636  35.692  41.141  1.00  0.00     0.124 S 
ATOM     85  O   UNL A   1      38.532  37.077  40.691  1.00  0.00    -0.237 OA
ATOM     86  O   UNL A   1      37.405  35.107  41.668  1.00  0.00    -0.237 OA
ATOM     87  O   UNL A   1      39.842  35.369  41.900  1.00  0.00    -0.744 OA
ENDBRANCH  83  84
ENDBRANCH  57  78
ENDBRANCH  31  32
ENDBRANCH  23  26
ENDBRANCH  21  22
ENDBRANCH  20  21
ENDBRANCH   1  20
TORSDOF 18
ENDMDL
