MODEL 1
REMARK VINA RESULT:     -12.6      0.000      0.000
REMARK SMILES COc1cccc(-c2c(C(=O)NCCCCCCNC(=O)c3ccc(-c4c5nc(c(-c6ccc(S(=O)(=O)[O-])cc6)c6ccc([nH]6)c(-c6ccc(S(=O)(=O)[O-])cc6)c6nc(c(-c7ccc(S(=O)(=O)[O-])cc7)c7ccc4[nH]7)C=C6)C=C5)cc3)nnn2-c2ccc(OC(F)(F)F)cc2)c1
REMARK SMILES IDX 15 1 14 2 13 3 12 4 10 5 11 6 9 8 8 9 84 10 82 11 83 12 7 13
REMARK SMILES IDX 3 14 4 15 96 16 5 17 6 18 2 19 1 20 85 21 86 22 95 23 87 24
REMARK SMILES IDX 94 25 88 26 89 27 90 28 91 29 92 30 93 31 16 32 17 33 18 34
REMARK SMILES IDX 19 35 20 36 21 38 22 39 23 40 81 41 24 42 80 43 25 44 26 45
REMARK SMILES IDX 27 46 74 47 28 48 79 49 73 50 75 51 29 52 78 53 72 54 71 55
REMARK SMILES IDX 30 57 60 58 41 59 59 60 42 61 45 62 58 63 76 64 43 65 44 66
REMARK SMILES IDX 57 68 77 69 46 70 31 71 32 72 40 73 33 74 39 75 34 76 35 77
REMARK SMILES IDX 36 78 37 79 38 80 61 81 62 82 70 83 63 84 69 85 64 86 65 87
REMARK SMILES IDX 66 88 67 89 68 90 47 91 48 92 56 93 49 94 55 95 50 96 51 97
REMARK SMILES IDX 52 98 53 99 54 100
REMARK H PARENT 12 7 19 37 75 56 45 67
REMARK Flexibility Score: inf
ROOT
ATOM      1  C   UNL A   1      36.636  21.496  24.523  1.00  0.00     0.002 C 
ENDROOT
BRANCH   1   2
ATOM      2  C   UNL A   1      36.208  22.775  23.815  1.00  0.00     0.021 C 
BRANCH   2   3
ATOM      3  C   UNL A   1      35.051  23.552  24.412  1.00  0.00     0.116 C 
BRANCH   3   4
ATOM      4  N   UNL A   1      34.205  22.885  25.358  1.00  0.00    -0.351 N 
ATOM      5  C   UNL A   1      32.837  22.984  25.520  1.00  0.00     0.274 C 
ATOM      6  O   UNL A   1      32.359  22.232  26.376  1.00  0.00    -0.267 OA
ATOM      7  H   UNL A   1      34.662  22.272  25.977  1.00  0.00     0.163 HD
BRANCH   5   8
ATOM      8  C   UNL A   1      31.967  23.921  24.779  1.00  0.00     0.178 A 
ATOM      9  C   UNL A   1      31.690  25.293  24.837  1.00  0.00     0.108 A 
ATOM     10  N   UNL A   1      30.770  25.488  23.804  1.00  0.00    -0.212 N 
ATOM     11  N   UNL A   1      31.190  23.379  23.766  1.00  0.00    -0.124 NA
ATOM     12  N   UNL A   1      30.405  24.314  23.264  1.00  0.00    -0.061 NA
BRANCH   9  13
ATOM     13  C   UNL A   1      32.020  26.379  25.768  1.00  0.00     0.006 A 
ATOM     14  C   UNL A   1      33.635  28.048  26.525  1.00  0.00     0.119 A 
ATOM     15  C   UNL A   1      32.685  28.518  27.434  1.00  0.00     0.046 A 
ATOM     16  C   UNL A   1      33.305  26.972  25.704  1.00  0.00     0.056 A 
ATOM     17  C   UNL A   1      31.422  27.926  27.523  1.00  0.00     0.005 A 
ATOM     18  C   UNL A   1      31.088  26.855  26.694  1.00  0.00     0.011 A 
BRANCH  14  19
ATOM     19  O   UNL A   1      34.827  28.715  26.552  1.00  0.00    -0.497 OA
ATOM     20  C   UNL A   1      35.120  29.520  27.692  1.00  0.00     0.278 C 
ENDBRANCH  14  19
ENDBRANCH   9  13
BRANCH  10  21
ATOM     21  C   UNL A   1      30.229  26.710  23.337  1.00  0.00     0.067 A 
ATOM     22  C   UNL A   1      28.892  27.022  23.588  1.00  0.00     0.032 A 
ATOM     23  C   UNL A   1      31.051  27.629  22.675  1.00  0.00     0.032 A 
ATOM     24  C   UNL A   1      28.415  28.293  23.248  1.00  0.00     0.049 A 
ATOM     25  C   UNL A   1      30.558  28.883  22.314  1.00  0.00     0.049 A 
ATOM     26  C   UNL A   1      29.244  29.233  22.619  1.00  0.00     0.129 A 
BRANCH  26  27
ATOM     27  O   UNL A   1      28.656  30.438  22.360  1.00  0.00    -0.406 OA
BRANCH  27  28
ATOM     28  C   UNL A   1      28.626  31.389  23.411  1.00  0.00     0.573 C 
ATOM     29  F   UNL A   1      29.592  31.151  24.325  1.00  0.00    -0.132 F 
ATOM     30  F   UNL A   1      28.771  32.645  22.930  1.00  0.00    -0.132 F 
ATOM     31  F   UNL A   1      27.430  31.321  24.033  1.00  0.00    -0.132 F 
ENDBRANCH  27  28
ENDBRANCH  26  27
ENDBRANCH  10  21
ENDBRANCH   5   8
ENDBRANCH   3   4
ENDBRANCH   2   3
ENDBRANCH   1   2
BRANCH   1  32
ATOM     32  C   UNL A   1      38.047  21.438  25.129  1.00  0.00     0.002 C 
BRANCH  32  33
ATOM     33  C   UNL A   1      38.597  22.676  25.853  1.00  0.00     0.021 C 
BRANCH  33  34
ATOM     34  C   UNL A   1      39.723  22.410  26.835  1.00  0.00     0.116 C 
BRANCH  34  35
ATOM     35  N   UNL A   1      41.025  22.196  26.203  1.00  0.00    -0.352 N 
ATOM     36  C   UNL A   1      41.928  23.146  25.738  1.00  0.00     0.251 C 
ATOM     37  H   UNL A   1      41.297  21.256  26.090  1.00  0.00     0.163 HD
ATOM     38  O   UNL A   1      42.786  22.847  24.926  1.00  0.00    -0.269 OA
BRANCH  36  39
ATOM     39  C   UNL A   1      41.826  24.527  26.257  1.00  0.00     0.039 A 
ATOM     40  C   UNL A   1      41.002  25.500  25.683  1.00  0.00     0.014 A 
ATOM     41  C   UNL A   1      42.585  24.829  27.378  1.00  0.00     0.014 A 
ATOM     42  C   UNL A   1      40.918  26.750  26.300  1.00  0.00     0.010 A 
ATOM     43  C   UNL A   1      42.289  25.930  28.122  1.00  0.00     0.010 A 
ATOM     44  C   UNL A   1      41.565  26.948  27.530  1.00  0.00    -0.014 A 
BRANCH  44  45
ATOM     45  C   UNL A   1      41.480  28.190  28.282  1.00  0.00     0.031 A 
ATOM     46  C   UNL A   1      42.578  29.144  27.997  1.00  0.00     0.074 A 
ATOM     47  C   UNL A   1      40.366  28.545  28.963  1.00  0.00     0.049 A 
ATOM     48  N   UNL A   1      43.551  29.471  28.777  1.00  0.00    -0.248 NA
ATOM     49  C   UNL A   1      42.707  29.668  26.627  1.00  0.00     0.031 C 
ATOM     50  C   UNL A   1      39.073  27.845  29.044  1.00  0.00     0.029 A 
ATOM     51  N   UNL A   1      40.110  29.694  29.638  1.00  0.00    -0.354 N 
ATOM     52  C   UNL A   1      44.282  30.428  28.086  1.00  0.00     0.074 A 
ATOM     53  C   UNL A   1      43.855  30.343  26.713  1.00  0.00     0.031 C 
ATOM     54  C   UNL A   1      38.122  28.690  29.503  1.00  0.00     0.029 A 
ATOM     55  C   UNL A   1      38.766  29.920  29.924  1.00  0.00     0.049 A 
ATOM     56  H   UNL A   1      40.819  30.322  29.905  1.00  0.00     0.167 HD
ATOM     57  C   UNL A   1      44.981  31.396  28.744  1.00  0.00     0.031 A 
ATOM     58  C   UNL A   1      38.224  31.049  30.446  1.00  0.00     0.031 A 
ATOM     59  C   UNL A   1      45.084  31.103  30.153  1.00  0.00     0.049 A 
ATOM     60  C   UNL A   1      39.334  31.782  31.104  1.00  0.00     0.074 A 
ATOM     61  C   UNL A   1      45.620  30.068  30.893  1.00  0.00     0.029 A 
ATOM     62  N   UNL A   1      44.194  31.746  30.986  1.00  0.00    -0.354 N 
ATOM     63  N   UNL A   1      39.984  31.317  32.135  1.00  0.00    -0.248 NA
ATOM     64  C   UNL A   1      40.041  32.785  30.323  1.00  0.00     0.031 C 
ATOM     65  C   UNL A   1      44.681  29.846  31.943  1.00  0.00     0.029 A 
ATOM     66  C   UNL A   1      43.674  30.810  31.842  1.00  0.00     0.049 A 
ATOM     67  H   UNL A   1      43.972  32.705  30.969  1.00  0.00     0.167 HD
ATOM     68  C   UNL A   1      41.314  31.626  31.887  1.00  0.00     0.074 A 
ATOM     69  C   UNL A   1      41.276  32.609  30.802  1.00  0.00     0.031 C 
ATOM     70  C   UNL A   1      42.327  30.853  32.380  1.00  0.00     0.031 A 
BRANCH  57  71
ATOM     71  C   UNL A   1      45.196  32.790  28.207  1.00  0.00    -0.014 A 
ATOM     72  C   UNL A   1      46.498  33.329  28.232  1.00  0.00     0.010 A 
ATOM     73  C   UNL A   1      44.140  33.685  27.936  1.00  0.00     0.010 A 
ATOM     74  C   UNL A   1      46.719  34.703  28.073  1.00  0.00     0.020 A 
ATOM     75  C   UNL A   1      44.354  35.048  27.733  1.00  0.00     0.020 A 
ATOM     76  C   UNL A   1      45.641  35.555  27.840  1.00  0.00     0.054 A 
BRANCH  76  77
ATOM     77  S   UNL A   1      45.923  37.339  27.748  1.00  0.00     0.124 S 
ATOM     78  O   UNL A   1      45.873  37.721  29.156  1.00  0.00    -0.237 OA
ATOM     79  O   UNL A   1      47.237  37.410  27.116  1.00  0.00    -0.237 OA
ATOM     80  O   UNL A   1      44.813  37.818  26.928  1.00  0.00    -0.744 OA
ENDBRANCH  76  77
ENDBRANCH  57  71
BRANCH  58  81
ATOM     81  C   UNL A   1      36.921  31.686  30.114  1.00  0.00    -0.014 A 
ATOM     82  C   UNL A   1      35.937  31.898  31.099  1.00  0.00     0.010 A 
ATOM     83  C   UNL A   1      36.763  32.355  28.881  1.00  0.00     0.010 A 
ATOM     84  C   UNL A   1      34.873  32.796  30.883  1.00  0.00     0.020 A 
ATOM     85  C   UNL A   1      35.706  33.247  28.659  1.00  0.00     0.020 A 
ATOM     86  C   UNL A   1      34.778  33.483  29.670  1.00  0.00     0.054 A 
BRANCH  86  87
ATOM     87  S   UNL A   1      33.519  34.783  29.463  1.00  0.00     0.124 S 
ATOM     88  O   UNL A   1      34.312  35.910  28.981  1.00  0.00    -0.237 OA
ATOM     89  O   UNL A   1      32.606  34.189  28.490  1.00  0.00    -0.237 OA
ATOM     90  O   UNL A   1      32.967  34.940  30.808  1.00  0.00    -0.744 OA
ENDBRANCH  86  87
ENDBRANCH  58  81
BRANCH  70  91
ATOM     91  C   UNL A   1      41.998  29.804  33.421  1.00  0.00    -0.014 A 
ATOM     92  C   UNL A   1      41.641  28.473  33.120  1.00  0.00     0.010 A 
ATOM     93  C   UNL A   1      42.240  30.142  34.764  1.00  0.00     0.010 A 
ATOM     94  C   UNL A   1      41.521  27.513  34.140  1.00  0.00     0.020 A 
ATOM     95  C   UNL A   1      42.138  29.189  35.780  1.00  0.00     0.020 A 
ATOM     96  C   UNL A   1      41.775  27.881  35.466  1.00  0.00     0.054 A 
BRANCH  96  97
ATOM     97  S   UNL A   1      41.682  26.629  36.780  1.00  0.00     0.124 S 
ATOM     98  O   UNL A   1      41.647  25.380  36.026  1.00  0.00    -0.237 OA
ATOM     99  O   UNL A   1      42.903  26.869  37.546  1.00  0.00    -0.237 OA
ATOM    100  O   UNL A   1      40.444  26.958  37.487  1.00  0.00    -0.744 OA
ENDBRANCH  96  97
ENDBRANCH  70  91
ENDBRANCH  44  45
ENDBRANCH  36  39
ENDBRANCH  34  35
ENDBRANCH  33  34
ENDBRANCH  32  33
ENDBRANCH   1  32
TORSDOF 21
ENDMDL
MODEL 2
REMARK VINA RESULT:     -11.4      1.834      2.479
REMARK SMILES COc1cccc(-c2c(C(=O)NCCCCCCNC(=O)c3ccc(-c4c5nc(c(-c6ccc(S(=O)(=O)[O-])cc6)c6ccc([nH]6)c(-c6ccc(S(=O)(=O)[O-])cc6)c6nc(c(-c7ccc(S(=O)(=O)[O-])cc7)c7ccc4[nH]7)C=C6)C=C5)cc3)nnn2-c2ccc(OC(F)(F)F)cc2)c1
REMARK SMILES IDX 15 1 14 2 13 3 12 4 10 5 11 6 9 8 8 9 84 10 82 11 83 12 7 13
REMARK SMILES IDX 3 14 4 15 96 16 5 17 6 18 2 19 1 20 85 21 86 22 95 23 87 24
REMARK SMILES IDX 94 25 88 26 89 27 90 28 91 29 92 30 93 31 16 32 17 33 18 34
REMARK SMILES IDX 19 35 20 36 21 38 22 39 23 40 81 41 24 42 80 43 25 44 26 45
REMARK SMILES IDX 27 46 74 47 28 48 79 49 73 50 75 51 29 52 78 53 72 54 71 55
REMARK SMILES IDX 30 57 60 58 41 59 59 60 42 61 45 62 58 63 76 64 43 65 44 66
REMARK SMILES IDX 57 68 77 69 46 70 31 71 32 72 40 73 33 74 39 75 34 76 35 77
REMARK SMILES IDX 36 78 37 79 38 80 61 81 62 82 70 83 63 84 69 85 64 86 65 87
REMARK SMILES IDX 66 88 67 89 68 90 47 91 48 92 56 93 49 94 55 95 50 96 51 97
REMARK SMILES IDX 52 98 53 99 54 100
REMARK H PARENT 12 7 19 37 75 56 45 67
REMARK Flexibility Score: inf
ROOT
ATOM      1  C   UNL A   1      34.715  22.822  25.288  1.00  0.00     0.002 C 
ENDROOT
BRANCH   1   2
ATOM      2  C   UNL A   1      34.298  22.283  26.650  1.00  0.00     0.021 C 
BRANCH   2   3
ATOM      3  C   UNL A   1      33.035  22.848  27.270  1.00  0.00     0.116 C 
BRANCH   3   4
ATOM      4  N   UNL A   1      31.804  22.145  27.054  1.00  0.00    -0.351 N 
ATOM      5  C   UNL A   1      30.629  22.604  26.495  1.00  0.00     0.274 C 
ATOM      6  O   UNL A   1      29.744  21.750  26.369  1.00  0.00    -0.267 OA
ATOM      7  H   UNL A   1      31.797  21.205  27.346  1.00  0.00     0.163 HD
BRANCH   5   8
ATOM      8  C   UNL A   1      30.378  24.004  26.091  1.00  0.00     0.178 A 
ATOM      9  C   UNL A   1      30.720  24.810  24.999  1.00  0.00     0.108 A 
ATOM     10  N   UNL A   1      30.110  26.034  25.288  1.00  0.00    -0.212 N 
ATOM     11  N   UNL A   1      29.634  24.778  26.969  1.00  0.00    -0.124 NA
ATOM     12  N   UNL A   1      29.574  26.018  26.518  1.00  0.00    -0.061 NA
BRANCH   9  13
ATOM     13  C   UNL A   1      31.619  24.669  23.847  1.00  0.00     0.006 A 
ATOM     14  C   UNL A   1      33.346  25.651  22.426  1.00  0.00     0.119 A 
ATOM     15  C   UNL A   1      33.428  24.441  21.733  1.00  0.00     0.046 A 
ATOM     16  C   UNL A   1      32.433  25.766  23.472  1.00  0.00     0.056 A 
ATOM     17  C   UNL A   1      32.613  23.359  22.078  1.00  0.00     0.005 A 
ATOM     18  C   UNL A   1      31.705  23.471  23.132  1.00  0.00     0.011 A 
BRANCH  14  19
ATOM     19  O   UNL A   1      34.195  26.622  21.976  1.00  0.00    -0.497 OA
ATOM     20  C   UNL A   1      33.761  27.978  22.046  1.00  0.00     0.278 C 
ENDBRANCH  14  19
ENDBRANCH   9  13
BRANCH  10  21
ATOM     21  C   UNL A   1      30.037  27.187  24.470  1.00  0.00     0.067 A 
ATOM     22  C   UNL A   1      29.033  27.297  23.507  1.00  0.00     0.032 A 
ATOM     23  C   UNL A   1      30.937  28.240  24.668  1.00  0.00     0.032 A 
ATOM     24  C   UNL A   1      28.888  28.501  22.810  1.00  0.00     0.049 A 
ATOM     25  C   UNL A   1      30.802  29.427  23.947  1.00  0.00     0.049 A 
ATOM     26  C   UNL A   1      29.763  29.574  23.030  1.00  0.00     0.129 A 
BRANCH  26  27
ATOM     27  O   UNL A   1      29.497  30.696  22.297  1.00  0.00    -0.406 OA
BRANCH  27  28
ATOM     28  C   UNL A   1      28.712  31.705  22.910  1.00  0.00     0.573 C 
ATOM     29  F   UNL A   1      29.234  32.092  24.093  1.00  0.00    -0.132 F 
ATOM     30  F   UNL A   1      28.597  32.783  22.101  1.00  0.00    -0.132 F 
ATOM     31  F   UNL A   1      27.470  31.223  23.133  1.00  0.00    -0.132 F 
ENDBRANCH  27  28
ENDBRANCH  26  27
ENDBRANCH  10  21
ENDBRANCH   5   8
ENDBRANCH   3   4
ENDBRANCH   2   3
ENDBRANCH   1   2
BRANCH   1  32
ATOM     32  C   UNL A   1      35.669  21.975  24.431  1.00  0.00     0.002 C 
BRANCH  32  33
ATOM     33  C   UNL A   1      37.165  22.321  24.421  1.00  0.00     0.021 C 
BRANCH  33  34
ATOM     34  C   UNL A   1      37.757  22.693  25.767  1.00  0.00     0.116 C 
BRANCH  34  35
ATOM     35  N   UNL A   1      38.882  21.850  26.175  1.00  0.00    -0.352 N 
ATOM     36  C   UNL A   1      40.149  22.240  26.593  1.00  0.00     0.251 C 
ATOM     37  H   UNL A   1      38.720  20.878  26.149  1.00  0.00     0.163 HD
ATOM     38  O   UNL A   1      41.085  21.461  26.556  1.00  0.00    -0.269 OA
BRANCH  36  39
ATOM     39  C   UNL A   1      40.334  23.621  27.088  1.00  0.00     0.039 A 
ATOM     40  C   UNL A   1      39.503  24.683  26.717  1.00  0.00     0.014 A 
ATOM     41  C   UNL A   1      41.378  23.830  27.976  1.00  0.00     0.014 A 
ATOM     42  C   UNL A   1      39.714  25.932  27.305  1.00  0.00     0.010 A 
ATOM     43  C   UNL A   1      41.401  24.954  28.744  1.00  0.00     0.010 A 
ATOM     44  C   UNL A   1      40.668  26.050  28.329  1.00  0.00    -0.014 A 
BRANCH  44  45
ATOM     45  C   UNL A   1      40.911  27.289  29.049  1.00  0.00     0.031 A 
ATOM     46  C   UNL A   1      42.083  28.052  28.558  1.00  0.00     0.074 A 
ATOM     47  C   UNL A   1      39.999  27.822  29.896  1.00  0.00     0.049 A 
ATOM     48  N   UNL A   1      43.214  28.217  29.156  1.00  0.00    -0.248 NA
ATOM     49  C   UNL A   1      42.062  28.547  27.172  1.00  0.00     0.031 C 
ATOM     50  C   UNL A   1      38.643  27.342  30.210  1.00  0.00     0.029 A 
ATOM     51  N   UNL A   1      40.048  28.998  30.571  1.00  0.00    -0.354 N 
ATOM     52  C   UNL A   1      43.962  29.041  28.326  1.00  0.00     0.074 A 
ATOM     53  C   UNL A   1      43.301  29.026  27.047  1.00  0.00     0.031 C 
ATOM     54  C   UNL A   1      37.932  28.331  30.797  1.00  0.00     0.029 A 
ATOM     55  C   UNL A   1      38.825  29.440  31.070  1.00  0.00     0.049 A 
ATOM     56  H   UNL A   1      40.884  29.502  30.698  1.00  0.00     0.167 HD
ATOM     57  C   UNL A   1      44.908  29.883  28.831  1.00  0.00     0.031 A 
ATOM     58  C   UNL A   1      38.568  30.643  31.642  1.00  0.00     0.031 A 
ATOM     59  C   UNL A   1      45.199  29.579  30.211  1.00  0.00     0.049 A 
ATOM     60  C   UNL A   1      39.876  31.186  32.085  1.00  0.00     0.074 A 
ATOM     61  C   UNL A   1      45.678  28.471  30.880  1.00  0.00     0.029 A 
ATOM     62  N   UNL A   1      44.577  30.359  31.161  1.00  0.00    -0.354 N 
ATOM     63  N   UNL A   1      40.607  30.622  33.007  1.00  0.00    -0.248 NA
ATOM     64  C   UNL A   1      40.593  32.060  31.169  1.00  0.00     0.031 C 
ATOM     65  C   UNL A   1      44.907  28.406  32.078  1.00  0.00     0.029 A 
ATOM     66  C   UNL A   1      44.065  29.521  32.119  1.00  0.00     0.049 A 
ATOM     67  H   UNL A   1      44.512  31.341  31.154  1.00  0.00     0.167 HD
ATOM     68  C   UNL A   1      41.909  30.711  32.532  1.00  0.00     0.074 A 
ATOM     69  C   UNL A   1      41.846  31.685  31.441  1.00  0.00     0.031 C 
ATOM     70  C   UNL A   1      42.853  29.783  32.871  1.00  0.00     0.031 A 
BRANCH  57  71
ATOM     71  C   UNL A   1      45.249  31.223  28.226  1.00  0.00    -0.014 A 
ATOM     72  C   UNL A   1      44.206  32.141  27.986  1.00  0.00     0.010 A 
ATOM     73  C   UNL A   1      46.498  31.508  27.637  1.00  0.00     0.010 A 
ATOM     74  C   UNL A   1      44.385  33.240  27.137  1.00  0.00     0.020 A 
ATOM     75  C   UNL A   1      46.700  32.624  26.825  1.00  0.00     0.020 A 
ATOM     76  C   UNL A   1      45.630  33.465  26.550  1.00  0.00     0.054 A 
BRANCH  76  77
ATOM     77  S   UNL A   1      45.822  34.820  25.368  1.00  0.00     0.124 S 
ATOM     78  O   UNL A   1      45.377  35.966  26.154  1.00  0.00    -0.237 OA
ATOM     79  O   UNL A   1      47.250  34.767  25.071  1.00  0.00    -0.237 OA
ATOM     80  O   UNL A   1      44.944  34.437  24.265  1.00  0.00    -0.744 OA
ENDBRANCH  76  77
ENDBRANCH  57  71
BRANCH  58  81
ATOM     81  C   UNL A   1      37.346  31.484  31.513  1.00  0.00    -0.014 A 
ATOM     82  C   UNL A   1      36.389  31.547  32.544  1.00  0.00     0.010 A 
ATOM     83  C   UNL A   1      37.271  32.455  30.493  1.00  0.00     0.010 A 
ATOM     84  C   UNL A   1      35.434  32.582  32.587  1.00  0.00     0.020 A 
ATOM     85  C   UNL A   1      36.322  33.486  30.528  1.00  0.00     0.020 A 
ATOM     86  C   UNL A   1      35.423  33.560  31.590  1.00  0.00     0.054 A 
BRANCH  86  87
ATOM     87  S   UNL A   1      34.320  35.000  31.747  1.00  0.00     0.124 S 
ATOM     88  O   UNL A   1      35.064  35.862  32.661  1.00  0.00    -0.237 OA
ATOM     89  O   UNL A   1      34.218  35.476  30.370  1.00  0.00    -0.237 OA
ATOM     90  O   UNL A   1      33.090  34.430  32.293  1.00  0.00    -0.744 OA
ENDBRANCH  86  87
ENDBRANCH  58  81
BRANCH  70  91
ATOM     91  C   UNL A   1      42.540  28.803  33.983  1.00  0.00    -0.014 A 
ATOM     92  C   UNL A   1      41.917  27.554  33.785  1.00  0.00     0.010 A 
ATOM     93  C   UNL A   1      43.069  29.091  35.253  1.00  0.00     0.010 A 
ATOM     94  C   UNL A   1      41.819  26.625  34.836  1.00  0.00     0.020 A 
ATOM     95  C   UNL A   1      42.988  28.166  36.297  1.00  0.00     0.020 A 
ATOM     96  C   UNL A   1      42.360  26.940  36.087  1.00  0.00     0.054 A 
BRANCH  96  97
ATOM     97  S   UNL A   1      42.291  25.719  37.430  1.00  0.00     0.124 S 
ATOM     98  O   UNL A   1      42.664  24.481  36.754  1.00  0.00    -0.237 OA
ATOM     99  O   UNL A   1      43.266  26.233  38.389  1.00  0.00    -0.237 OA
ATOM    100  O   UNL A   1      40.900  25.779  37.883  1.00  0.00    -0.744 OA
ENDBRANCH  96  97
ENDBRANCH  70  91
ENDBRANCH  44  45
ENDBRANCH  36  39
ENDBRANCH  34  35
ENDBRANCH  33  34
ENDBRANCH  32  33
ENDBRANCH   1  32
TORSDOF 21
ENDMDL
MODEL 3
REMARK VINA RESULT:     -11.3      3.563      7.908
REMARK SMILES COc1cccc(-c2c(C(=O)NCCCCCCNC(=O)c3ccc(-c4c5nc(c(-c6ccc(S(=O)(=O)[O-])cc6)c6ccc([nH]6)c(-c6ccc(S(=O)(=O)[O-])cc6)c6nc(c(-c7ccc(S(=O)(=O)[O-])cc7)c7ccc4[nH]7)C=C6)C=C5)cc3)nnn2-c2ccc(OC(F)(F)F)cc2)c1
REMARK SMILES IDX 15 1 14 2 13 3 12 4 10 5 11 6 9 8 8 9 84 10 82 11 83 12 7 13
REMARK SMILES IDX 3 14 4 15 96 16 5 17 6 18 2 19 1 20 85 21 86 22 95 23 87 24
REMARK SMILES IDX 94 25 88 26 89 27 90 28 91 29 92 30 93 31 16 32 17 33 18 34
REMARK SMILES IDX 19 35 20 36 21 38 22 39 23 40 81 41 24 42 80 43 25 44 26 45
REMARK SMILES IDX 27 46 74 47 28 48 79 49 73 50 75 51 29 52 78 53 72 54 71 55
REMARK SMILES IDX 30 57 60 58 41 59 59 60 42 61 45 62 58 63 76 64 43 65 44 66
REMARK SMILES IDX 57 68 77 69 46 70 31 71 32 72 40 73 33 74 39 75 34 76 35 77
REMARK SMILES IDX 36 78 37 79 38 80 61 81 62 82 70 83 63 84 69 85 64 86 65 87
REMARK SMILES IDX 66 88 67 89 68 90 47 91 48 92 56 93 49 94 55 95 50 96 51 97
REMARK SMILES IDX 52 98 53 99 54 100
REMARK H PARENT 12 7 19 37 75 56 45 67
REMARK Flexibility Score: inf
ROOT
ATOM      1  C   UNL A   1      34.854  22.004  25.071  1.00  0.00     0.002 C 
ENDROOT
BRANCH   1   2
ATOM      2  C   UNL A   1      34.923  22.741  26.402  1.00  0.00     0.021 C 
BRANCH   2   3
ATOM      3  C   UNL A   1      33.623  22.949  27.155  1.00  0.00     0.116 C 
BRANCH   3   4
ATOM      4  N   UNL A   1      32.505  22.119  26.816  1.00  0.00    -0.351 N 
ATOM      5  C   UNL A   1      31.310  22.471  26.223  1.00  0.00     0.274 C 
ATOM      6  O   UNL A   1      30.549  21.528  25.983  1.00  0.00    -0.267 OA
ATOM      7  H   UNL A   1      32.605  21.165  27.037  1.00  0.00     0.163 HD
BRANCH   5   8
ATOM      8  C   UNL A   1      30.902  23.857  25.909  1.00  0.00     0.178 A 
ATOM      9  C   UNL A   1      31.082  24.738  24.835  1.00  0.00     0.108 A 
ATOM     10  N   UNL A   1      30.388  25.885  25.229  1.00  0.00    -0.212 N 
ATOM     11  N   UNL A   1      30.162  24.520  26.877  1.00  0.00    -0.124 NA
ATOM     12  N   UNL A   1      29.954  25.767  26.494  1.00  0.00    -0.061 NA
BRANCH   9  13
ATOM     13  C   UNL A   1      31.896  24.731  23.613  1.00  0.00     0.006 A 
ATOM     14  C   UNL A   1      33.320  25.963  22.059  1.00  0.00     0.119 A 
ATOM     15  C   UNL A   1      33.542  24.775  21.360  1.00  0.00     0.046 A 
ATOM     16  C   UNL A   1      32.488  25.941  23.175  1.00  0.00     0.056 A 
ATOM     17  C   UNL A   1      32.945  23.579  21.769  1.00  0.00     0.005 A 
ATOM     18  C   UNL A   1      32.119  23.554  22.893  1.00  0.00     0.011 A 
BRANCH  14  19
ATOM     19  O   UNL A   1      33.960  27.054  21.542  1.00  0.00    -0.497 OA
ATOM     20  C   UNL A   1      33.964  28.256  22.309  1.00  0.00     0.278 C 
ENDBRANCH  14  19
ENDBRANCH   9  13
BRANCH  10  21
ATOM     21  C   UNL A   1      30.146  27.059  24.476  1.00  0.00     0.067 A 
ATOM     22  C   UNL A   1      29.137  27.075  23.513  1.00  0.00     0.032 A 
ATOM     23  C   UNL A   1      30.881  28.221  24.740  1.00  0.00     0.032 A 
ATOM     24  C   UNL A   1      28.816  28.283  22.884  1.00  0.00     0.049 A 
ATOM     25  C   UNL A   1      30.573  29.413  24.087  1.00  0.00     0.049 A 
ATOM     26  C   UNL A   1      29.523  29.459  23.171  1.00  0.00     0.129 A 
BRANCH  26  27
ATOM     27  O   UNL A   1      29.095  30.569  22.500  1.00  0.00    -0.406 OA
BRANCH  27  28
ATOM     28  C   UNL A   1      28.335  31.518  23.227  1.00  0.00     0.573 C 
ATOM     29  F   UNL A   1      29.126  32.363  23.922  1.00  0.00    -0.132 F 
ATOM     30  F   UNL A   1      27.539  32.234  22.400  1.00  0.00    -0.132 F 
ATOM     31  F   UNL A   1      27.538  30.868  24.103  1.00  0.00    -0.132 F 
ENDBRANCH  27  28
ENDBRANCH  26  27
ENDBRANCH  10  21
ENDBRANCH   5   8
ENDBRANCH   3   4
ENDBRANCH   2   3
ENDBRANCH   1   2
BRANCH   1  32
ATOM     32  C   UNL A   1      36.170  21.722  24.327  1.00  0.00     0.002 C 
BRANCH  32  33
ATOM     33  C   UNL A   1      37.021  20.518  24.754  1.00  0.00     0.021 C 
BRANCH  33  34
ATOM     34  C   UNL A   1      38.299  20.855  25.499  1.00  0.00     0.116 C 
BRANCH  34  35
ATOM     35  N   UNL A   1      39.195  19.713  25.690  1.00  0.00    -0.352 N 
ATOM     36  C   UNL A   1      40.561  19.718  25.945  1.00  0.00     0.251 C 
ATOM     37  H   UNL A   1      38.774  18.824  25.627  1.00  0.00     0.163 HD
ATOM     38  O   UNL A   1      41.240  18.730  25.728  1.00  0.00    -0.269 OA
BRANCH  36  39
ATOM     39  C   UNL A   1      41.171  20.949  26.494  1.00  0.00     0.039 A 
ATOM     40  C   UNL A   1      41.960  21.815  25.731  1.00  0.00     0.014 A 
ATOM     41  C   UNL A   1      40.908  21.234  27.825  1.00  0.00     0.014 A 
ATOM     42  C   UNL A   1      42.421  22.993  26.324  1.00  0.00     0.010 A 
ATOM     43  C   UNL A   1      41.116  22.492  28.304  1.00  0.00     0.010 A 
ATOM     44  C   UNL A   1      41.981  23.322  27.616  1.00  0.00    -0.014 A 
BRANCH  44  45
ATOM     45  C   UNL A   1      42.350  24.557  28.290  1.00  0.00     0.031 A 
ATOM     46  C   UNL A   1      41.363  25.651  28.129  1.00  0.00     0.074 A 
ATOM     47  C   UNL A   1      43.354  24.611  29.196  1.00  0.00     0.049 A 
ATOM     48  N   UNL A   1      41.498  26.728  27.432  1.00  0.00    -0.248 NA
ATOM     49  C   UNL A   1      40.006  25.448  28.663  1.00  0.00     0.031 C 
ATOM     50  C   UNL A   1      44.194  23.516  29.708  1.00  0.00     0.029 A 
ATOM     51  N   UNL A   1      43.760  25.659  29.957  1.00  0.00    -0.354 N 
ATOM     52  C   UNL A   1      40.332  27.456  27.636  1.00  0.00     0.074 A 
ATOM     53  C   UNL A   1      39.381  26.536  28.206  1.00  0.00     0.031 C 
ATOM     54  C   UNL A   1      44.811  23.904  30.847  1.00  0.00     0.029 A 
ATOM     55  C   UNL A   1      44.565  25.320  31.041  1.00  0.00     0.049 A 
ATOM     56  H   UNL A   1      43.503  26.589  29.760  1.00  0.00     0.167 HD
ATOM     57  C   UNL A   1      40.329  28.817  27.574  1.00  0.00     0.031 A 
ATOM     58  C   UNL A   1      44.976  26.145  32.038  1.00  0.00     0.031 A 
ATOM     59  C   UNL A   1      41.555  29.320  27.002  1.00  0.00     0.049 A 
ATOM     60  C   UNL A   1      44.842  27.529  31.520  1.00  0.00     0.074 A 
ATOM     61  C   UNL A   1      42.197  29.162  25.791  1.00  0.00     0.029 A 
ATOM     62  N   UNL A   1      42.512  29.766  27.886  1.00  0.00    -0.354 N 
ATOM     63  N   UNL A   1      45.537  27.985  30.515  1.00  0.00    -0.248 NA
ATOM     64  C   UNL A   1      43.601  28.236  31.791  1.00  0.00     0.031 C 
ATOM     65  C   UNL A   1      43.579  29.050  26.122  1.00  0.00     0.029 A 
ATOM     66  C   UNL A   1      43.716  29.233  27.501  1.00  0.00     0.049 A 
ATOM     67  H   UNL A   1      42.360  30.360  28.656  1.00  0.00     0.167 HD
ATOM     68  C   UNL A   1      44.636  28.731  29.768  1.00  0.00     0.074 A 
ATOM     69  C   UNL A   1      43.484  28.923  30.650  1.00  0.00     0.031 C 
ATOM     70  C   UNL A   1      44.783  28.877  28.417  1.00  0.00     0.031 A 
BRANCH  57  71
ATOM     71  C   UNL A   1      39.424  29.694  28.403  1.00  0.00    -0.014 A 
ATOM     72  C   UNL A   1      39.840  30.058  29.700  1.00  0.00     0.010 A 
ATOM     73  C   UNL A   1      38.076  29.946  28.072  1.00  0.00     0.010 A 
ATOM     74  C   UNL A   1      38.935  30.572  30.637  1.00  0.00     0.020 A 
ATOM     75  C   UNL A   1      37.177  30.498  28.984  1.00  0.00     0.020 A 
ATOM     76  C   UNL A   1      37.604  30.774  30.275  1.00  0.00     0.054 A 
BRANCH  76  77
ATOM     77  S   UNL A   1      36.419  31.330  31.523  1.00  0.00     0.124 S 
ATOM     78  O   UNL A   1      36.132  30.090  32.236  1.00  0.00    -0.237 OA
ATOM     79  O   UNL A   1      37.194  32.324  32.260  1.00  0.00    -0.237 OA
ATOM     80  O   UNL A   1      35.316  31.867  30.730  1.00  0.00    -0.744 OA
ENDBRANCH  76  77
ENDBRANCH  57  71
BRANCH  58  81
ATOM     81  C   UNL A   1      45.134  25.835  33.485  1.00  0.00    -0.014 A 
ATOM     82  C   UNL A   1      44.032  25.466  34.280  1.00  0.00     0.010 A 
ATOM     83  C   UNL A   1      46.423  25.616  34.017  1.00  0.00     0.010 A 
ATOM     84  C   UNL A   1      44.212  24.842  35.529  1.00  0.00     0.020 A 
ATOM     85  C   UNL A   1      46.610  24.998  35.260  1.00  0.00     0.020 A 
ATOM     86  C   UNL A   1      45.503  24.590  36.001  1.00  0.00     0.054 A 
BRANCH  86  87
ATOM     87  S   UNL A   1      45.737  23.613  37.520  1.00  0.00     0.124 S 
ATOM     88  O   UNL A   1      47.118  23.920  37.877  1.00  0.00    -0.237 OA
ATOM     89  O   UNL A   1      44.716  24.160  38.411  1.00  0.00    -0.237 OA
ATOM     90  O   UNL A   1      45.498  22.239  37.081  1.00  0.00    -0.744 OA
ENDBRANCH  86  87
ENDBRANCH  58  81
BRANCH  70  91
ATOM     91  C   UNL A   1      46.084  28.440  27.778  1.00  0.00    -0.014 A 
ATOM     92  C   UNL A   1      47.190  29.290  27.569  1.00  0.00     0.010 A 
ATOM     93  C   UNL A   1      46.249  27.063  27.548  1.00  0.00     0.010 A 
ATOM     94  C   UNL A   1      48.422  28.773  27.133  1.00  0.00     0.020 A 
ATOM     95  C   UNL A   1      47.475  26.540  27.130  1.00  0.00     0.020 A 
ATOM     96  C   UNL A   1      48.555  27.396  26.919  1.00  0.00     0.054 A 
BRANCH  96  97
ATOM     97  S   UNL A   1      50.162  26.716  26.415  1.00  0.00     0.124 S 
ATOM     98  O   UNL A   1      50.570  25.957  27.593  1.00  0.00    -0.237 OA
ATOM     99  O   UNL A   1      49.824  25.920  25.238  1.00  0.00    -0.237 OA
ATOM    100  O   UNL A   1      50.971  27.903  26.136  1.00  0.00    -0.744 OA
ENDBRANCH  96  97
ENDBRANCH  70  91
ENDBRANCH  44  45
ENDBRANCH  36  39
ENDBRANCH  34  35
ENDBRANCH  33  34
ENDBRANCH  32  33
ENDBRANCH   1  32
TORSDOF 21
ENDMDL
