MODEL 1
REMARK VINA RESULT:      -8.6      0.000      0.000
REMARK SMILES CCC1(C(=O)NCCCCCCNC(=O)c2ccc(-c3c4nc(c(-c5ccc(S(=O)(=O)[O-])cc5)c5ccc([nH]5)c(-c5ccc(S(=O)(=O)[O-])cc5)c5nc(c(-c6ccc(S(=O)(=O)[O-])cc6)c6ccc3[nH]6)C=C5)C=C4)cc2)CCN(C(=O)C[C@H]2CSCC[NH2+]2)CC1
REMARK SMILES IDX 10 1 9 2 8 3 7 4 6 5 4 6 5 7 3 9 76 10 89 11 77 12 88 13
REMARK SMILES IDX 78 14 79 15 80 16 2 17 1 18 81 19 82 20 83 21 87 22 84 23
REMARK SMILES IDX 86 24 85 27 11 28 12 29 13 30 14 31 15 33 16 34 17 35 75 36
REMARK SMILES IDX 18 37 74 38 19 39 20 40 21 41 68 42 22 43 73 44 67 45 69 46
REMARK SMILES IDX 23 47 72 48 66 49 65 50 24 52 54 53 35 54 53 55 36 56 39 57
REMARK SMILES IDX 52 58 70 59 37 60 38 61 51 63 71 64 40 65 25 66 26 67 34 68
REMARK SMILES IDX 27 69 33 70 28 71 29 72 30 73 31 74 32 75 55 76 56 77 64 78
REMARK SMILES IDX 57 79 63 80 58 81 59 82 60 83 61 84 62 85 41 86 42 87 50 88
REMARK SMILES IDX 43 89 49 90 44 91 45 92 46 93 47 94 48 95
REMARK H PARENT 6 8 87 25 87 26 13 32 69 51 39 62
REMARK Flexibility Score: inf
ROOT
ATOM      1  C   UNL A   1      33.928  34.681  30.382  1.00  0.00     0.002 C 
ENDROOT
BRANCH   1   2
ATOM      2  C   UNL A   1      34.420  33.941  31.633  1.00  0.00     0.002 C 
BRANCH   2   3
ATOM      3  C   UNL A   1      35.695  34.503  32.273  1.00  0.00     0.021 C 
BRANCH   3   4
ATOM      4  C   UNL A   1      36.986  33.875  31.757  1.00  0.00     0.116 C 
BRANCH   4   5
ATOM      5  N   UNL A   1      38.168  34.423  32.393  1.00  0.00    -0.356 N 
ATOM      6  C   UNL A   1      38.987  33.946  33.368  1.00  0.00     0.226 C 
ATOM      7  O   UNL A   1      39.963  34.660  33.625  1.00  0.00    -0.274 OA
ATOM      8  H   UNL A   1      38.426  35.310  32.053  1.00  0.00     0.163 HD
BRANCH   6   9
ATOM      9  C   UNL A   1      38.752  32.587  34.104  1.00  0.00     0.052 C 
ATOM     10  C   UNL A   1      38.242  31.535  33.083  1.00  0.00     0.038 C 
ATOM     11  C   UNL A   1      40.065  32.184  34.828  1.00  0.00     0.038 C 
ATOM     12  C   UNL A   1      38.618  30.080  33.350  1.00  0.00     0.120 C 
ATOM     13  C   UNL A   1      40.230  30.686  35.087  1.00  0.00     0.120 C 
ATOM     14  N   UNL A   1      39.963  29.909  33.889  1.00  0.00    -0.342 N 
ATOM     15  C   UNL A   1      40.728  28.845  33.415  1.00  0.00     0.228 C 
ATOM     16  O   UNL A   1      40.300  28.098  32.529  1.00  0.00    -0.275 OA
BRANCH   9  17
ATOM     17  C   UNL A   1      37.632  32.878  35.164  1.00  0.00     0.013 C 
ATOM     18  C   UNL A   1      37.933  33.864  36.279  1.00  0.00     0.005 C 
ENDBRANCH   9  17
BRANCH  15  19
ATOM     19  C   UNL A   1      42.094  28.546  34.024  1.00  0.00     0.166 C 
BRANCH  19  20
ATOM     20  C   UNL A   1      42.244  27.313  34.941  1.00  0.00     0.201 C 
ATOM     21  C   UNL A   1      42.636  27.746  36.372  1.00  0.00     0.135 C 
ATOM     22  N   UNL A   1      41.054  26.442  34.968  1.00  0.00    -0.342 N 
ATOM     23  S   UNL A   1      43.104  26.318  37.415  1.00  0.00    -0.150 SA
ATOM     24  C   UNL A   1      41.368  25.154  35.601  1.00  0.00     0.271 C 
ATOM     25  H   UNL A   1      40.739  26.276  34.013  1.00  0.00     0.346 HD
ATOM     26  H   UNL A   1      40.323  26.903  35.508  1.00  0.00     0.346 HD
ATOM     27  C   UNL A   1      41.645  25.281  37.098  1.00  0.00     0.131 C 
ENDBRANCH  19  20
ENDBRANCH  15  19
ENDBRANCH   6   9
ENDBRANCH   4   5
ENDBRANCH   3   4
ENDBRANCH   2   3
ENDBRANCH   1   2
BRANCH   1  28
ATOM     28  C   UNL A   1      33.902  33.852  29.095  1.00  0.00     0.021 C 
BRANCH  28  29
ATOM     29  C   UNL A   1      34.723  32.568  29.144  1.00  0.00     0.116 C 
BRANCH  29  30
ATOM     30  N   UNL A   1      34.047  31.459  28.489  1.00  0.00    -0.352 N 
ATOM     31  C   UNL A   1      34.568  30.287  27.996  1.00  0.00     0.251 C 
ATOM     32  H   UNL A   1      33.074  31.563  28.384  1.00  0.00     0.163 HD
ATOM     33  O   UNL A   1      33.874  29.555  27.299  1.00  0.00    -0.269 OA
BRANCH  31  34
ATOM     34  C   UNL A   1      35.970  29.923  28.295  1.00  0.00     0.039 A 
ATOM     35  C   UNL A   1      36.935  30.064  27.294  1.00  0.00     0.014 A 
ATOM     36  C   UNL A   1      36.330  29.436  29.554  1.00  0.00     0.014 A 
ATOM     37  C   UNL A   1      38.272  29.770  27.576  1.00  0.00     0.010 A 
ATOM     38  C   UNL A   1      37.671  29.219  29.855  1.00  0.00     0.010 A 
ATOM     39  C   UNL A   1      38.656  29.376  28.868  1.00  0.00    -0.014 A 
BRANCH  39  40
ATOM     40  C   UNL A   1      40.078  29.110  29.207  1.00  0.00     0.031 A 
ATOM     41  C   UNL A   1      40.700  27.785  28.857  1.00  0.00     0.074 A 
ATOM     42  C   UNL A   1      40.788  30.034  29.884  1.00  0.00     0.049 A 
ATOM     43  N   UNL A   1      41.899  27.339  29.132  1.00  0.00    -0.248 NA
ATOM     44  C   UNL A   1      39.857  26.825  28.125  1.00  0.00     0.031 C 
ATOM     45  C   UNL A   1      40.289  31.344  30.308  1.00  0.00     0.029 A 
ATOM     46  N   UNL A   1      42.082  30.010  30.343  1.00  0.00    -0.354 N 
ATOM     47  C   UNL A   1      41.948  26.046  28.624  1.00  0.00     0.074 A 
ATOM     48  C   UNL A   1      40.642  25.759  28.072  1.00  0.00     0.031 C 
ATOM     49  C   UNL A   1      41.271  32.006  30.941  1.00  0.00     0.029 A 
ATOM     50  C   UNL A   1      42.453  31.153  31.011  1.00  0.00     0.049 A 
ATOM     51  H   UNL A   1      42.687  29.245  30.207  1.00  0.00     0.167 HD
ATOM     52  C   UNL A   1      42.990  25.180  28.600  1.00  0.00     0.031 A 
ATOM     53  C   UNL A   1      43.611  31.477  31.621  1.00  0.00     0.031 A 
ATOM     54  C   UNL A   1      44.289  25.472  29.147  1.00  0.00     0.049 A 
ATOM     55  C   UNL A   1      44.747  30.489  31.605  1.00  0.00     0.074 A 
ATOM     56  C   UNL A   1      45.425  24.683  29.132  1.00  0.00     0.029 A 
ATOM     57  N   UNL A   1      44.625  26.643  29.811  1.00  0.00    -0.354 N 
ATOM     58  N   UNL A   1      44.792  29.293  31.065  1.00  0.00    -0.248 NA
ATOM     59  C   UNL A   1      45.991  30.897  32.270  1.00  0.00     0.031 C 
ATOM     60  C   UNL A   1      46.430  25.350  29.838  1.00  0.00     0.029 A 
ATOM     61  C   UNL A   1      45.943  26.586  30.231  1.00  0.00     0.049 A 
ATOM     62  H   UNL A   1      44.016  27.403  29.961  1.00  0.00     0.167 HD
ATOM     63  C   UNL A   1      46.080  28.823  31.295  1.00  0.00     0.074 A 
ATOM     64  C   UNL A   1      46.785  29.866  32.013  1.00  0.00     0.031 C 
ATOM     65  C   UNL A   1      46.632  27.636  30.941  1.00  0.00     0.031 A 
BRANCH  52  66
ATOM     66  C   UNL A   1      42.763  23.830  27.970  1.00  0.00    -0.014 A 
ATOM     67  C   UNL A   1      43.060  23.600  26.614  1.00  0.00     0.010 A 
ATOM     68  C   UNL A   1      42.285  22.765  28.753  1.00  0.00     0.010 A 
ATOM     69  C   UNL A   1      42.839  22.343  26.042  1.00  0.00     0.020 A 
ATOM     70  C   UNL A   1      42.094  21.496  28.194  1.00  0.00     0.020 A 
ATOM     71  C   UNL A   1      42.356  21.300  26.837  1.00  0.00     0.054 A 
BRANCH  71  72
ATOM     72  S   UNL A   1      42.101  19.675  26.073  1.00  0.00     0.124 S 
ATOM     73  O   UNL A   1      43.016  19.730  24.935  1.00  0.00    -0.237 OA
ATOM     74  O   UNL A   1      42.482  18.756  27.142  1.00  0.00    -0.237 OA
ATOM     75  O   UNL A   1      40.681  19.672  25.727  1.00  0.00    -0.744 OA
ENDBRANCH  71  72
ENDBRANCH  52  66
BRANCH  53  76
ATOM     76  C   UNL A   1      43.758  32.800  32.287  1.00  0.00    -0.014 A 
ATOM     77  C   UNL A   1      43.448  32.953  33.650  1.00  0.00     0.010 A 
ATOM     78  C   UNL A   1      44.217  33.917  31.564  1.00  0.00     0.010 A 
ATOM     79  C   UNL A   1      43.571  34.199  34.271  1.00  0.00     0.020 A 
ATOM     80  C   UNL A   1      44.373  35.158  32.189  1.00  0.00     0.020 A 
ATOM     81  C   UNL A   1      44.037  35.294  33.537  1.00  0.00     0.054 A 
BRANCH  81  82
ATOM     82  S   UNL A   1      44.229  36.891  34.377  1.00  0.00     0.124 S 
ATOM     83  O   UNL A   1      45.523  36.735  35.034  1.00  0.00    -0.237 OA
ATOM     84  O   UNL A   1      44.194  37.836  33.264  1.00  0.00    -0.237 OA
ATOM     85  O   UNL A   1      43.076  36.949  35.271  1.00  0.00    -0.744 OA
ENDBRANCH  81  82
ENDBRANCH  53  76
BRANCH  65  86
ATOM     86  C   UNL A   1      48.084  27.412  31.277  1.00  0.00    -0.014 A 
ATOM     87  C   UNL A   1      49.113  27.859  30.430  1.00  0.00     0.010 A 
ATOM     88  C   UNL A   1      48.421  26.800  32.500  1.00  0.00     0.010 A 
ATOM     89  C   UNL A   1      50.452  27.670  30.785  1.00  0.00     0.020 A 
ATOM     90  C   UNL A   1      49.758  26.638  32.872  1.00  0.00     0.020 A 
ATOM     91  C   UNL A   1      50.765  27.064  32.005  1.00  0.00     0.054 A 
BRANCH  91  92
ATOM     92  S   UNL A   1      52.509  26.877  32.465  1.00  0.00     0.124 S 
ATOM     93  O   UNL A   1      53.065  28.173  32.087  1.00  0.00    -0.237 OA
ATOM     94  O   UNL A   1      52.435  26.619  33.901  1.00  0.00    -0.237 OA
ATOM     95  O   UNL A   1      52.963  25.746  31.658  1.00  0.00    -0.744 OA
ENDBRANCH  91  92
ENDBRANCH  65  86
ENDBRANCH  39  40
ENDBRANCH  31  34
ENDBRANCH  29  30
ENDBRANCH  28  29
ENDBRANCH   1  28
TORSDOF 19
ENDMDL
MODEL 2
REMARK VINA RESULT:      -8.5      4.883     11.656
REMARK SMILES CCC1(C(=O)NCCCCCCNC(=O)c2ccc(-c3c4nc(c(-c5ccc(S(=O)(=O)[O-])cc5)c5ccc([nH]5)c(-c5ccc(S(=O)(=O)[O-])cc5)c5nc(c(-c6ccc(S(=O)(=O)[O-])cc6)c6ccc3[nH]6)C=C5)C=C4)cc2)CCN(C(=O)C[C@H]2CSCC[NH2+]2)CC1
REMARK SMILES IDX 10 1 9 2 8 3 7 4 6 5 4 6 5 7 3 9 76 10 89 11 77 12 88 13
REMARK SMILES IDX 78 14 79 15 80 16 2 17 1 18 81 19 82 20 83 21 87 22 84 23
REMARK SMILES IDX 86 24 85 27 11 28 12 29 13 30 14 31 15 33 16 34 17 35 75 36
REMARK SMILES IDX 18 37 74 38 19 39 20 40 21 41 68 42 22 43 73 44 67 45 69 46
REMARK SMILES IDX 23 47 72 48 66 49 65 50 24 52 54 53 35 54 53 55 36 56 39 57
REMARK SMILES IDX 52 58 70 59 37 60 38 61 51 63 71 64 40 65 25 66 26 67 34 68
REMARK SMILES IDX 27 69 33 70 28 71 29 72 30 73 31 74 32 75 55 76 56 77 64 78
REMARK SMILES IDX 57 79 63 80 58 81 59 82 60 83 61 84 62 85 41 86 42 87 50 88
REMARK SMILES IDX 43 89 49 90 44 91 45 92 46 93 47 94 48 95
REMARK H PARENT 6 8 87 25 87 26 13 32 69 51 39 62
REMARK Flexibility Score: inf
ROOT
ATOM      1  C   UNL A   1      31.546  28.082  26.339  1.00  0.00     0.002 C 
ENDROOT
BRANCH   1   2
ATOM      2  C   UNL A   1      31.271  26.573  26.332  1.00  0.00     0.002 C 
BRANCH   2   3
ATOM      3  C   UNL A   1      32.508  25.676  26.453  1.00  0.00     0.021 C 
BRANCH   3   4
ATOM      4  C   UNL A   1      32.215  24.183  26.346  1.00  0.00     0.116 C 
BRANCH   4   5
ATOM      5  N   UNL A   1      33.281  23.449  25.694  1.00  0.00    -0.356 N 
ATOM      6  C   UNL A   1      33.557  23.206  24.385  1.00  0.00     0.226 C 
ATOM      7  O   UNL A   1      34.609  22.590  24.178  1.00  0.00    -0.274 OA
ATOM      8  H   UNL A   1      33.928  23.050  26.319  1.00  0.00     0.163 HD
BRANCH   6   9
ATOM      9  C   UNL A   1      32.646  23.685  23.208  1.00  0.00     0.052 C 
ATOM     10  C   UNL A   1      31.186  23.822  23.717  1.00  0.00     0.038 C 
ATOM     11  C   UNL A   1      33.239  24.995  22.624  1.00  0.00     0.038 C 
ATOM     12  C   UNL A   1      30.322  24.887  23.046  1.00  0.00     0.120 C 
ATOM     13  C   UNL A   1      32.236  25.901  21.911  1.00  0.00     0.120 C 
ATOM     14  N   UNL A   1      31.046  26.110  22.717  1.00  0.00    -0.342 N 
ATOM     15  C   UNL A   1      30.403  27.329  22.930  1.00  0.00     0.228 C 
ATOM     16  O   UNL A   1      29.275  27.375  23.429  1.00  0.00    -0.275 OA
BRANCH   9  17
ATOM     17  C   UNL A   1      32.723  22.543  22.133  1.00  0.00     0.013 C 
ATOM     18  C   UNL A   1      31.942  21.265  22.384  1.00  0.00     0.005 C 
ENDBRANCH   9  17
BRANCH  15  19
ATOM     19  C   UNL A   1      31.063  28.634  22.496  1.00  0.00     0.166 C 
BRANCH  19  20
ATOM     20  C   UNL A   1      30.234  29.936  22.543  1.00  0.00     0.201 C 
ATOM     21  C   UNL A   1      29.085  29.883  21.510  1.00  0.00     0.135 C 
ATOM     22  N   UNL A   1      29.715  30.264  23.884  1.00  0.00    -0.342 N 
ATOM     23  S   UNL A   1      28.256  31.504  21.327  1.00  0.00    -0.150 SA
ATOM     24  C   UNL A   1      29.208  31.642  23.921  1.00  0.00     0.271 C 
ATOM     25  H   UNL A   1      30.465  30.165  24.567  1.00  0.00     0.346 HD
ATOM     26  H   UNL A   1      28.949  29.627  24.104  1.00  0.00     0.346 HD
ATOM     27  C   UNL A   1      27.943  31.832  23.087  1.00  0.00     0.131 C 
ENDBRANCH  19  20
ENDBRANCH  15  19
ENDBRANCH   6   9
ENDBRANCH   4   5
ENDBRANCH   3   4
ENDBRANCH   2   3
ENDBRANCH   1   2
BRANCH   1  28
ATOM     28  C   UNL A   1      32.687  28.540  27.251  1.00  0.00     0.021 C 
BRANCH  28  29
ATOM     29  C   UNL A   1      33.766  29.366  26.560  1.00  0.00     0.116 C 
BRANCH  29  30
ATOM     30  N   UNL A   1      33.635  30.788  26.844  1.00  0.00    -0.352 N 
ATOM     31  C   UNL A   1      34.363  31.577  27.700  1.00  0.00     0.251 C 
ATOM     32  H   UNL A   1      32.920  31.251  26.350  1.00  0.00     0.163 HD
ATOM     33  O   UNL A   1      33.982  32.714  27.957  1.00  0.00    -0.269 OA
BRANCH  31  34
ATOM     34  C   UNL A   1      35.595  31.046  28.323  1.00  0.00     0.039 A 
ATOM     35  C   UNL A   1      36.814  31.673  28.057  1.00  0.00     0.014 A 
ATOM     36  C   UNL A   1      35.549  29.926  29.159  1.00  0.00     0.014 A 
ATOM     37  C   UNL A   1      37.980  31.212  28.676  1.00  0.00     0.010 A 
ATOM     38  C   UNL A   1      36.694  29.518  29.834  1.00  0.00     0.010 A 
ATOM     39  C   UNL A   1      37.924  30.151  29.595  1.00  0.00    -0.014 A 
BRANCH  39  40
ATOM     40  C   UNL A   1      39.139  29.677  30.306  1.00  0.00     0.031 A 
ATOM     41  C   UNL A   1      39.586  30.362  31.570  1.00  0.00     0.074 A 
ATOM     42  C   UNL A   1      39.873  28.675  29.783  1.00  0.00     0.049 A 
ATOM     43  N   UNL A   1      40.655  30.143  32.293  1.00  0.00    -0.248 NA
ATOM     44  C   UNL A   1      38.735  31.454  32.074  1.00  0.00     0.031 C 
ATOM     45  C   UNL A   1      39.562  27.952  28.548  1.00  0.00     0.029 A 
ATOM     46  N   UNL A   1      41.039  28.096  30.221  1.00  0.00    -0.354 N 
ATOM     47  C   UNL A   1      40.613  31.076  33.322  1.00  0.00     0.074 A 
ATOM     48  C   UNL A   1      39.444  31.898  33.100  1.00  0.00     0.031 C 
ATOM     49  C   UNL A   1      40.497  27.010  28.342  1.00  0.00     0.029 A 
ATOM     50  C   UNL A   1      41.499  27.093  29.400  1.00  0.00     0.049 A 
ATOM     51  H   UNL A   1      41.502  28.373  31.044  1.00  0.00     0.167 HD
ATOM     52  C   UNL A   1      41.460  31.225  34.370  1.00  0.00     0.031 A 
ATOM     53  C   UNL A   1      42.608  26.331  29.482  1.00  0.00     0.031 A 
ATOM     54  C   UNL A   1      42.620  30.401  34.588  1.00  0.00     0.049 A 
ATOM     55  C   UNL A   1      43.549  26.532  30.640  1.00  0.00     0.074 A 
ATOM     56  C   UNL A   1      43.515  30.439  35.642  1.00  0.00     0.029 A 
ATOM     57  N   UNL A   1      43.049  29.394  33.735  1.00  0.00    -0.354 N 
ATOM     58  N   UNL A   1      43.459  27.381  31.638  1.00  0.00    -0.248 NA
ATOM     59  C   UNL A   1      44.734  25.666  30.691  1.00  0.00     0.031 C 
ATOM     60  C   UNL A   1      44.517  29.496  35.399  1.00  0.00     0.029 A 
ATOM     61  C   UNL A   1      44.209  28.821  34.228  1.00  0.00     0.049 A 
ATOM     62  H   UNL A   1      42.594  29.126  32.904  1.00  0.00     0.167 HD
ATOM     63  C   UNL A   1      44.557  27.125  32.452  1.00  0.00     0.074 A 
ATOM     64  C   UNL A   1      45.289  26.036  31.837  1.00  0.00     0.031 C 
ATOM     65  C   UNL A   1      44.924  27.733  33.607  1.00  0.00     0.031 A 
BRANCH  52  66
ATOM     66  C   UNL A   1      41.167  32.328  35.354  1.00  0.00    -0.014 A 
ATOM     67  C   UNL A   1      40.374  32.097  36.493  1.00  0.00     0.010 A 
ATOM     68  C   UNL A   1      41.725  33.605  35.160  1.00  0.00     0.010 A 
ATOM     69  C   UNL A   1      40.107  33.131  37.394  1.00  0.00     0.020 A 
ATOM     70  C   UNL A   1      41.488  34.634  36.077  1.00  0.00     0.020 A 
ATOM     71  C   UNL A   1      40.665  34.394  37.179  1.00  0.00     0.054 A 
BRANCH  71  72
ATOM     72  S   UNL A   1      40.319  35.711  38.378  1.00  0.00     0.124 S 
ATOM     73  O   UNL A   1      39.861  36.794  37.510  1.00  0.00    -0.237 OA
ATOM     74  O   UNL A   1      39.294  35.110  39.226  1.00  0.00    -0.237 OA
ATOM     75  O   UNL A   1      41.608  35.938  39.027  1.00  0.00    -0.744 OA
ENDBRANCH  71  72
ENDBRANCH  52  66
BRANCH  53  76
ATOM     76  C   UNL A   1      42.883  25.300  28.444  1.00  0.00    -0.014 A 
ATOM     77  C   UNL A   1      42.393  23.990  28.591  1.00  0.00     0.010 A 
ATOM     78  C   UNL A   1      43.631  25.622  27.296  1.00  0.00     0.010 A 
ATOM     79  C   UNL A   1      42.663  23.018  27.623  1.00  0.00     0.020 A 
ATOM     80  C   UNL A   1      43.876  24.662  26.310  1.00  0.00     0.020 A 
ATOM     81  C   UNL A   1      43.401  23.361  26.487  1.00  0.00     0.054 A 
BRANCH  81  82
ATOM     82  S   UNL A   1      43.703  22.092  25.225  1.00  0.00     0.124 S 
ATOM     83  O   UNL A   1      42.688  21.095  25.549  1.00  0.00    -0.237 OA
ATOM     84  O   UNL A   1      43.492  22.830  23.982  1.00  0.00    -0.237 OA
ATOM     85  O   UNL A   1      45.083  21.684  25.472  1.00  0.00    -0.744 OA
ENDBRANCH  81  82
ENDBRANCH  53  76
BRANCH  65  86
ATOM     86  C   UNL A   1      46.146  27.208  34.315  1.00  0.00    -0.014 A 
ATOM     87  C   UNL A   1      47.420  27.757  34.090  1.00  0.00     0.010 A 
ATOM     88  C   UNL A   1      46.001  26.187  35.274  1.00  0.00     0.010 A 
ATOM     89  C   UNL A   1      48.531  27.275  34.787  1.00  0.00     0.020 A 
ATOM     90  C   UNL A   1      47.103  25.725  35.996  1.00  0.00     0.020 A 
ATOM     91  C   UNL A   1      48.365  26.264  35.738  1.00  0.00     0.054 A 
BRANCH  91  92
ATOM     92  S   UNL A   1      49.814  25.691  36.667  1.00  0.00     0.124 S 
ATOM     93  O   UNL A   1      50.225  26.903  37.368  1.00  0.00    -0.237 OA
ATOM     94  O   UNL A   1      49.256  24.635  37.509  1.00  0.00    -0.237 OA
ATOM     95  O   UNL A   1      50.733  25.231  35.628  1.00  0.00    -0.744 OA
ENDBRANCH  91  92
ENDBRANCH  65  86
ENDBRANCH  39  40
ENDBRANCH  31  34
ENDBRANCH  29  30
ENDBRANCH  28  29
ENDBRANCH   1  28
TORSDOF 19
ENDMDL
MODEL 3
REMARK VINA RESULT:      -8.3      4.621     11.310
REMARK SMILES CCC1(C(=O)NCCCCCCNC(=O)c2ccc(-c3c4nc(c(-c5ccc(S(=O)(=O)[O-])cc5)c5ccc([nH]5)c(-c5ccc(S(=O)(=O)[O-])cc5)c5nc(c(-c6ccc(S(=O)(=O)[O-])cc6)c6ccc3[nH]6)C=C5)C=C4)cc2)CCN(C(=O)C[C@H]2CSCC[NH2+]2)CC1
REMARK SMILES IDX 10 1 9 2 8 3 7 4 6 5 4 6 5 7 3 9 76 10 89 11 77 12 88 13
REMARK SMILES IDX 78 14 79 15 80 16 2 17 1 18 81 19 82 20 83 21 87 22 84 23
REMARK SMILES IDX 86 24 85 27 11 28 12 29 13 30 14 31 15 33 16 34 17 35 75 36
REMARK SMILES IDX 18 37 74 38 19 39 20 40 21 41 68 42 22 43 73 44 67 45 69 46
REMARK SMILES IDX 23 47 72 48 66 49 65 50 24 52 54 53 35 54 53 55 36 56 39 57
REMARK SMILES IDX 52 58 70 59 37 60 38 61 51 63 71 64 40 65 25 66 26 67 34 68
REMARK SMILES IDX 27 69 33 70 28 71 29 72 30 73 31 74 32 75 55 76 56 77 64 78
REMARK SMILES IDX 57 79 63 80 58 81 59 82 60 83 61 84 62 85 41 86 42 87 50 88
REMARK SMILES IDX 43 89 49 90 44 91 45 92 46 93 47 94 48 95
REMARK H PARENT 6 8 87 25 87 26 13 32 69 51 39 62
REMARK Flexibility Score: inf
ROOT
ATOM      1  C   UNL A   1      33.895  29.960  27.426  1.00  0.00     0.002 C 
ENDROOT
BRANCH   1   2
ATOM      2  C   UNL A   1      33.134  28.686  27.036  1.00  0.00     0.002 C 
BRANCH   2   3
ATOM      3  C   UNL A   1      33.735  27.887  25.874  1.00  0.00     0.021 C 
BRANCH   3   4
ATOM      4  C   UNL A   1      33.448  28.473  24.495  1.00  0.00     0.116 C 
BRANCH   4   5
ATOM      5  N   UNL A   1      32.304  29.361  24.491  1.00  0.00    -0.356 N 
ATOM      6  C   UNL A   1      31.022  29.201  24.066  1.00  0.00     0.226 C 
ATOM      7  O   UNL A   1      30.275  30.162  24.283  1.00  0.00    -0.274 OA
ATOM      8  H   UNL A   1      32.490  30.251  24.868  1.00  0.00     0.163 HD
BRANCH   6   9
ATOM      9  C   UNL A   1      30.498  27.899  23.377  1.00  0.00     0.052 C 
ATOM     10  C   UNL A   1      31.289  27.663  22.062  1.00  0.00     0.038 C 
ATOM     11  C   UNL A   1      30.594  26.729  24.393  1.00  0.00     0.038 C 
ATOM     12  C   UNL A   1      31.484  26.212  21.629  1.00  0.00     0.120 C 
ATOM     13  C   UNL A   1      30.698  25.336  23.772  1.00  0.00     0.120 C 
ATOM     14  N   UNL A   1      31.716  25.293  22.737  1.00  0.00    -0.342 N 
ATOM     15  C   UNL A   1      32.672  24.292  22.569  1.00  0.00     0.228 C 
ATOM     16  O   UNL A   1      33.338  24.217  21.532  1.00  0.00    -0.275 OA
BRANCH   9  17
ATOM     17  C   UNL A   1      28.992  28.185  23.040  1.00  0.00     0.013 C 
ATOM     18  C   UNL A   1      27.930  27.323  23.700  1.00  0.00     0.005 C 
ENDBRANCH   9  17
BRANCH  15  19
ATOM     19  C   UNL A   1      32.875  23.232  23.646  1.00  0.00     0.166 C 
BRANCH  19  20
ATOM     20  C   UNL A   1      34.305  22.965  24.164  1.00  0.00     0.201 C 
ATOM     21  C   UNL A   1      34.379  21.591  24.867  1.00  0.00     0.135 C 
ATOM     22  N   UNL A   1      35.346  23.076  23.125  1.00  0.00    -0.342 N 
ATOM     23  S   UNL A   1      35.967  21.357  25.745  1.00  0.00    -0.150 SA
ATOM     24  C   UNL A   1      36.683  23.115  23.732  1.00  0.00     0.271 C 
ATOM     25  H   UNL A   1      35.196  23.930  22.590  1.00  0.00     0.346 HD
ATOM     26  H   UNL A   1      35.287  22.261  22.515  1.00  0.00     0.346 HD
ATOM     27  C   UNL A   1      37.082  21.789  24.375  1.00  0.00     0.131 C 
ENDBRANCH  19  20
ENDBRANCH  15  19
ENDBRANCH   6   9
ENDBRANCH   4   5
ENDBRANCH   3   4
ENDBRANCH   2   3
ENDBRANCH   1   2
BRANCH   1  28
ATOM     28  C   UNL A   1      33.033  31.210  27.617  1.00  0.00     0.021 C 
BRANCH  28  29
ATOM     29  C   UNL A   1      33.660  32.503  27.107  1.00  0.00     0.116 C 
BRANCH  29  30
ATOM     30  N   UNL A   1      33.093  33.679  27.751  1.00  0.00    -0.352 N 
ATOM     31  C   UNL A   1      33.414  34.254  28.956  1.00  0.00     0.251 C 
ATOM     32  H   UNL A   1      32.375  34.128  27.249  1.00  0.00     0.163 HD
ATOM     33  O   UNL A   1      32.696  35.128  29.429  1.00  0.00    -0.269 OA
BRANCH  31  34
ATOM     34  C   UNL A   1      34.619  33.804  29.688  1.00  0.00     0.039 A 
ATOM     35  C   UNL A   1      34.480  32.853  30.703  1.00  0.00     0.014 A 
ATOM     36  C   UNL A   1      35.879  34.323  29.380  1.00  0.00     0.014 A 
ATOM     37  C   UNL A   1      35.614  32.382  31.370  1.00  0.00     0.010 A 
ATOM     38  C   UNL A   1      37.013  33.797  29.991  1.00  0.00     0.010 A 
ATOM     39  C   UNL A   1      36.894  32.826  30.998  1.00  0.00    -0.014 A 
BRANCH  39  40
ATOM     40  C   UNL A   1      38.118  32.301  31.654  1.00  0.00     0.031 A 
ATOM     41  C   UNL A   1      38.562  32.862  32.978  1.00  0.00     0.074 A 
ATOM     42  C   UNL A   1      38.863  31.366  31.030  1.00  0.00     0.049 A 
ATOM     43  N   UNL A   1      39.637  32.587  33.672  1.00  0.00    -0.248 NA
ATOM     44  C   UNL A   1      37.699  33.886  33.592  1.00  0.00     0.031 C 
ATOM     45  C   UNL A   1      38.556  30.766  29.730  1.00  0.00     0.029 A 
ATOM     46  N   UNL A   1      40.038  30.762  31.404  1.00  0.00    -0.354 N 
ATOM     47  C   UNL A   1      39.588  33.411  34.789  1.00  0.00     0.074 A 
ATOM     48  C   UNL A   1      38.407  34.235  34.655  1.00  0.00     0.031 C 
ATOM     49  C   UNL A   1      39.502  29.863  29.427  1.00  0.00     0.029 A 
ATOM     50  C   UNL A   1      40.508  29.853  30.485  1.00  0.00     0.049 A 
ATOM     51  H   UNL A   1      40.501  30.963  32.249  1.00  0.00     0.167 HD
ATOM     52  C   UNL A   1      40.437  33.466  35.844  1.00  0.00     0.031 A 
ATOM     53  C   UNL A   1      41.628  29.103  30.487  1.00  0.00     0.031 A 
ATOM     54  C   UNL A   1      41.609  32.640  35.974  1.00  0.00     0.049 A 
ATOM     55  C   UNL A   1      42.571  29.200  31.656  1.00  0.00     0.074 A 
ATOM     56  C   UNL A   1      42.509  32.585  37.024  1.00  0.00     0.029 A 
ATOM     57  N   UNL A   1      42.048  31.730  35.024  1.00  0.00    -0.354 N 
ATOM     58  N   UNL A   1      42.475  29.943  32.733  1.00  0.00    -0.248 NA
ATOM     59  C   UNL A   1      43.768  28.349  31.615  1.00  0.00     0.031 C 
ATOM     60  C   UNL A   1      43.523  31.686  36.683  1.00  0.00     0.029 A 
ATOM     61  C   UNL A   1      43.218  31.127  35.452  1.00  0.00     0.049 A 
ATOM     62  H   UNL A   1      41.593  31.541  34.171  1.00  0.00     0.167 HD
ATOM     63  C   UNL A   1      43.580  29.622  33.514  1.00  0.00     0.074 A 
ATOM     64  C   UNL A   1      44.324  28.610  32.790  1.00  0.00     0.031 C 
ATOM     65  C   UNL A   1      43.945  30.117  34.723  1.00  0.00     0.031 A 
BRANCH  52  66
ATOM     66  C   UNL A   1      40.135  34.461  36.934  1.00  0.00    -0.014 A 
ATOM     67  C   UNL A   1      40.558  35.800  36.837  1.00  0.00     0.010 A 
ATOM     68  C   UNL A   1      39.381  34.064  38.054  1.00  0.00     0.010 A 
ATOM     69  C   UNL A   1      40.274  36.710  37.860  1.00  0.00     0.020 A 
ATOM     70  C   UNL A   1      39.065  34.980  39.063  1.00  0.00     0.020 A 
ATOM     71  C   UNL A   1      39.530  36.293  38.966  1.00  0.00     0.054 A 
BRANCH  71  72
ATOM     72  S   UNL A   1      39.158  37.502  40.267  1.00  0.00     0.124 S 
ATOM     73  O   UNL A   1      38.609  36.651  41.320  1.00  0.00    -0.237 OA
ATOM     74  O   UNL A   1      40.469  38.082  40.548  1.00  0.00    -0.237 OA
ATOM     75  O   UNL A   1      38.200  38.408  39.636  1.00  0.00    -0.744 OA
ENDBRANCH  71  72
ENDBRANCH  52  66
BRANCH  53  76
ATOM     76  C   UNL A   1      41.911  28.184  29.349  1.00  0.00    -0.014 A 
ATOM     77  C   UNL A   1      41.418  26.867  29.355  1.00  0.00     0.010 A 
ATOM     78  C   UNL A   1      42.670  28.623  28.248  1.00  0.00     0.010 A 
ATOM     79  C   UNL A   1      41.697  26.000  28.293  1.00  0.00     0.020 A 
ATOM     80  C   UNL A   1      42.924  27.769  27.171  1.00  0.00     0.020 A 
ATOM     81  C   UNL A   1      42.446  26.458  27.206  1.00  0.00     0.054 A 
BRANCH  81  82
ATOM     82  S   UNL A   1      42.758  25.327  25.822  1.00  0.00     0.124 S 
ATOM     83  O   UNL A   1      42.593  26.205  24.669  1.00  0.00    -0.237 OA
ATOM     84  O   UNL A   1      44.123  24.878  26.086  1.00  0.00    -0.237 OA
ATOM     85  O   UNL A   1      41.731  24.300  25.980  1.00  0.00    -0.744 OA
ENDBRANCH  81  82
ENDBRANCH  53  76
BRANCH  65  86
ATOM     86  C   UNL A   1      45.177  29.541  35.371  1.00  0.00    -0.014 A 
ATOM     87  C   UNL A   1      46.438  30.143  35.219  1.00  0.00     0.010 A 
ATOM     88  C   UNL A   1      45.054  28.410  36.201  1.00  0.00     0.010 A 
ATOM     89  C   UNL A   1      47.559  29.607  35.861  1.00  0.00     0.020 A 
ATOM     90  C   UNL A   1      46.166  27.891  36.869  1.00  0.00     0.020 A 
ATOM     91  C   UNL A   1      47.414  28.486  36.684  1.00  0.00     0.054 A 
BRANCH  91  92
ATOM     92  S   UNL A   1      48.874  27.842  37.546  1.00  0.00     0.124 S 
ATOM     93  O   UNL A   1      48.273  26.992  38.570  1.00  0.00    -0.237 OA
ATOM     94  O   UNL A   1      49.587  27.138  36.483  1.00  0.00    -0.237 OA
ATOM     95  O   UNL A   1      49.541  29.042  38.046  1.00  0.00    -0.744 OA
ENDBRANCH  91  92
ENDBRANCH  65  86
ENDBRANCH  39  40
ENDBRANCH  31  34
ENDBRANCH  29  30
ENDBRANCH  28  29
ENDBRANCH   1  28
TORSDOF 19
ENDMDL
