MODEL 1
REMARK VINA RESULT:     -10.0      0.000      0.000
REMARK SMILES Cc1cc(Br)cc([N+](=O)[O-])c1OCCC(=O)NCCCCCCNC(=O)c1ccc(-c2c3nc(c(-c4ccc(S(=O)(=O)[O-])cc4)c4ccc([nH]4)c(-c4ccc(S(=O)(=O)[O-])cc4)c4nc(c(-c5ccc(S(=O)(=O)[O-])cc5)c5ccc2[nH]5)C=C4)C=C3)cc1
REMARK SMILES IDX 20 1 19 2 18 3 17 4 15 5 16 6 14 8 13 9 12 10 11 11 1 12
REMARK SMILES IDX 2 13 3 14 4 15 7 16 5 17 6 18 8 19 9 20 10 21 21 22 22 23
REMARK SMILES IDX 23 24 24 25 25 26 26 28 27 29 28 30 86 31 29 32 85 33 30 34
REMARK SMILES IDX 31 35 32 36 79 37 33 38 84 39 78 40 80 41 34 42 83 43 77 44
REMARK SMILES IDX 76 45 35 47 65 48 46 49 64 50 47 51 50 52 63 53 81 54 48 55
REMARK SMILES IDX 49 56 62 58 82 59 51 60 36 61 37 62 45 63 38 64 44 65 39 66
REMARK SMILES IDX 40 67 41 68 42 69 43 70 66 71 67 72 75 73 68 74 74 75 69 76
REMARK SMILES IDX 70 77 71 78 72 79 73 80 52 81 53 82 61 83 54 84 60 85 55 86
REMARK SMILES IDX 56 87 57 88 58 89 59 90
REMARK H PARENT 17 7 24 27 80 46 50 57
REMARK Flexibility Score: inf
ROOT
ATOM      1  C   UNL A   1      34.222  24.686  26.042  1.00  0.00     0.002 C 
ENDROOT
BRANCH   1   2
ATOM      2  C   UNL A   1      33.208  25.837  26.110  1.00  0.00     0.021 C 
BRANCH   2   3
ATOM      3  C   UNL A   1      33.619  27.063  25.299  1.00  0.00     0.116 C 
BRANCH   3   4
ATOM      4  N   UNL A   1      32.947  28.276  25.737  1.00  0.00    -0.356 N 
ATOM      5  C   UNL A   1      32.247  29.187  25.003  1.00  0.00     0.223 C 
ATOM      6  O   UNL A   1      31.670  30.103  25.593  1.00  0.00    -0.275 OA
ATOM      7  H   UNL A   1      33.008  28.466  26.700  1.00  0.00     0.163 HD
BRANCH   5   8
ATOM      8  C   UNL A   1      32.151  29.040  23.505  1.00  0.00     0.141 C 
BRANCH   8   9
ATOM      9  C   UNL A   1      30.827  28.435  23.058  1.00  0.00     0.240 C 
BRANCH   9  10
ATOM     10  O   UNL A   1      30.968  27.197  22.381  1.00  0.00    -0.486 OA
BRANCH  10  11
ATOM     11  C   UNL A   1      31.177  25.947  22.866  1.00  0.00     0.200 A 
ATOM     12  C   UNL A   1      29.380  25.774  24.775  1.00  0.00     0.049 C 
ATOM     13  C   UNL A   1      30.472  25.265  23.877  1.00  0.00    -0.001 A 
ATOM     14  C   UNL A   1      30.798  23.908  24.146  1.00  0.00     0.023 A 
ATOM     15  C   UNL A   1      31.835  23.250  23.499  1.00  0.00     0.025 A 
ATOM     16  C   UNL A   1      32.265  25.257  22.244  1.00  0.00     0.312 A 
ATOM     17  Br  UNL A   1      32.184  21.435  23.876  1.00  0.00    -0.051 Br
ATOM     18  C   UNL A   1      32.595  23.925  22.567  1.00  0.00     0.105 A 
BRANCH  16  19
ATOM     19  N   UNL A   1      33.067  25.869  21.159  1.00  0.00     0.066 N 
ATOM     20  O   UNL A   1      32.839  25.474  20.003  1.00  0.00    -0.258 OA
ATOM     21  O   UNL A   1      33.920  26.721  21.435  1.00  0.00    -0.258 OA
ENDBRANCH  16  19
ENDBRANCH  10  11
ENDBRANCH   9  10
ENDBRANCH   8   9
ENDBRANCH   5   8
ENDBRANCH   3   4
ENDBRANCH   2   3
ENDBRANCH   1   2
BRANCH   1  22
ATOM     22  C   UNL A   1      35.033  24.622  24.743  1.00  0.00     0.002 C 
BRANCH  22  23
ATOM     23  C   UNL A   1      36.242  23.675  24.759  1.00  0.00     0.021 C 
BRANCH  23  24
ATOM     24  C   UNL A   1      36.628  23.122  26.131  1.00  0.00     0.116 C 
BRANCH  24  25
ATOM     25  N   UNL A   1      37.855  22.343  26.096  1.00  0.00    -0.352 N 
ATOM     26  C   UNL A   1      39.151  22.734  26.357  1.00  0.00     0.251 C 
ATOM     27  H   UNL A   1      37.744  21.396  25.849  1.00  0.00     0.163 HD
ATOM     28  O   UNL A   1      40.078  21.973  26.113  1.00  0.00    -0.269 OA
BRANCH  26  29
ATOM     29  C   UNL A   1      39.428  24.087  26.897  1.00  0.00     0.039 A 
ATOM     30  C   UNL A   1      39.038  24.378  28.208  1.00  0.00     0.014 A 
ATOM     31  C   UNL A   1      40.057  25.066  26.124  1.00  0.00     0.014 A 
ATOM     32  C   UNL A   1      39.352  25.620  28.769  1.00  0.00     0.010 A 
ATOM     33  C   UNL A   1      40.421  26.284  26.703  1.00  0.00     0.010 A 
ATOM     34  C   UNL A   1      40.083  26.570  28.035  1.00  0.00    -0.014 A 
BRANCH  34  35
ATOM     35  C   UNL A   1      40.536  27.840  28.664  1.00  0.00     0.031 A 
ATOM     36  C   UNL A   1      41.919  27.964  29.243  1.00  0.00     0.074 A 
ATOM     37  C   UNL A   1      39.675  28.874  28.766  1.00  0.00     0.049 A 
ATOM     38  N   UNL A   1      42.469  28.984  29.851  1.00  0.00    -0.248 NA
ATOM     39  C   UNL A   1      42.791  26.784  29.141  1.00  0.00     0.031 C 
ATOM     40  C   UNL A   1      38.292  28.875  28.282  1.00  0.00     0.029 A 
ATOM     41  N   UNL A   1      39.833  30.123  29.315  1.00  0.00    -0.354 N 
ATOM     42  C   UNL A   1      43.745  28.569  30.214  1.00  0.00     0.074 A 
ATOM     43  C   UNL A   1      43.872  27.189  29.793  1.00  0.00     0.031 C 
ATOM     44  C   UNL A   1      37.737  30.070  28.537  1.00  0.00     0.029 A 
ATOM     45  C   UNL A   1      38.708  30.910  29.234  1.00  0.00     0.049 A 
ATOM     46  H   UNL A   1      40.673  30.426  29.730  1.00  0.00     0.167 HD
ATOM     47  C   UNL A   1      44.727  29.274  30.828  1.00  0.00     0.031 A 
ATOM     48  C   UNL A   1      38.475  32.162  29.671  1.00  0.00     0.031 A 
ATOM     49  C   UNL A   1      44.602  30.644  31.249  1.00  0.00     0.049 A 
ATOM     50  C   UNL A   1      39.576  32.921  30.361  1.00  0.00     0.074 A 
ATOM     51  C   UNL A   1      45.561  31.456  31.833  1.00  0.00     0.029 A 
ATOM     52  N   UNL A   1      43.449  31.406  31.141  1.00  0.00    -0.354 N 
ATOM     53  N   UNL A   1      40.799  32.531  30.631  1.00  0.00    -0.248 NA
ATOM     54  C   UNL A   1      39.269  34.292  30.794  1.00  0.00     0.031 C 
ATOM     55  C   UNL A   1      44.972  32.692  32.122  1.00  0.00     0.029 A 
ATOM     56  C   UNL A   1      43.664  32.670  31.667  1.00  0.00     0.049 A 
ATOM     57  H   UNL A   1      42.602  31.095  30.748  1.00  0.00     0.167 HD
ATOM     58  C   UNL A   1      41.415  33.619  31.241  1.00  0.00     0.074 A 
ATOM     59  C   UNL A   1      40.435  34.684  31.289  1.00  0.00     0.031 C 
ATOM     60  C   UNL A   1      42.682  33.724  31.713  1.00  0.00     0.031 A 
BRANCH  47  61
ATOM     61  C   UNL A   1      46.030  28.562  31.092  1.00  0.00    -0.014 A 
ATOM     62  C   UNL A   1      46.220  27.809  32.264  1.00  0.00     0.010 A 
ATOM     63  C   UNL A   1      47.063  28.617  30.138  1.00  0.00     0.010 A 
ATOM     64  C   UNL A   1      47.437  27.163  32.500  1.00  0.00     0.020 A 
ATOM     65  C   UNL A   1      48.272  27.950  30.359  1.00  0.00     0.020 A 
ATOM     66  C   UNL A   1      48.457  27.243  31.548  1.00  0.00     0.054 A 
BRANCH  66  67
ATOM     67  S   UNL A   1      50.023  26.389  31.877  1.00  0.00     0.124 S 
ATOM     68  O   UNL A   1      49.745  25.729  33.150  1.00  0.00    -0.237 OA
ATOM     69  O   UNL A   1      50.154  25.501  30.725  1.00  0.00    -0.237 OA
ATOM     70  O   UNL A   1      51.003  27.471  31.938  1.00  0.00    -0.744 OA
ENDBRANCH  66  67
ENDBRANCH  47  61
BRANCH  48  71
ATOM     71  C   UNL A   1      37.143  32.787  29.450  1.00  0.00    -0.014 A 
ATOM     72  C   UNL A   1      36.170  32.769  30.465  1.00  0.00     0.010 A 
ATOM     73  C   UNL A   1      36.848  33.423  28.230  1.00  0.00     0.010 A 
ATOM     74  C   UNL A   1      34.921  33.364  30.259  1.00  0.00     0.020 A 
ATOM     75  C   UNL A   1      35.611  34.041  28.031  1.00  0.00     0.020 A 
ATOM     76  C   UNL A   1      34.651  33.999  29.044  1.00  0.00     0.054 A 
BRANCH  76  77
ATOM     77  S   UNL A   1      33.047  34.820  28.822  1.00  0.00     0.124 S 
ATOM     78  O   UNL A   1      32.474  34.735  30.161  1.00  0.00    -0.237 OA
ATOM     79  O   UNL A   1      33.435  36.158  28.382  1.00  0.00    -0.237 OA
ATOM     80  O   UNL A   1      32.386  34.006  27.803  1.00  0.00    -0.744 OA
ENDBRANCH  76  77
ENDBRANCH  48  71
BRANCH  60  81
ATOM     81  C   UNL A   1      43.100  35.049  32.295  1.00  0.00    -0.014 A 
ATOM     82  C   UNL A   1      43.872  35.961  31.554  1.00  0.00     0.010 A 
ATOM     83  C   UNL A   1      42.663  35.409  33.583  1.00  0.00     0.010 A 
ATOM     84  C   UNL A   1      44.221  37.199  32.102  1.00  0.00     0.020 A 
ATOM     85  C   UNL A   1      42.988  36.655  34.124  1.00  0.00     0.020 A 
ATOM     86  C   UNL A   1      43.777  37.539  33.384  1.00  0.00     0.054 A 
BRANCH  86  87
ATOM     87  S   UNL A   1      44.202  39.171  34.054  1.00  0.00     0.124 S 
ATOM     88  O   UNL A   1      44.495  38.858  35.451  1.00  0.00    -0.237 OA
ATOM     89  O   UNL A   1      45.353  39.561  33.243  1.00  0.00    -0.237 OA
ATOM     90  O   UNL A   1      42.994  39.962  33.832  1.00  0.00    -0.744 OA
ENDBRANCH  86  87
ENDBRANCH  60  81
ENDBRANCH  34  35
ENDBRANCH  26  29
ENDBRANCH  24  25
ENDBRANCH  23  24
ENDBRANCH  22  23
ENDBRANCH   1  22
TORSDOF 20
ENDMDL
MODEL 2
REMARK VINA RESULT:      -9.1      4.295      9.648
REMARK SMILES Cc1cc(Br)cc([N+](=O)[O-])c1OCCC(=O)NCCCCCCNC(=O)c1ccc(-c2c3nc(c(-c4ccc(S(=O)(=O)[O-])cc4)c4ccc([nH]4)c(-c4ccc(S(=O)(=O)[O-])cc4)c4nc(c(-c5ccc(S(=O)(=O)[O-])cc5)c5ccc2[nH]5)C=C4)C=C3)cc1
REMARK SMILES IDX 20 1 19 2 18 3 17 4 15 5 16 6 14 8 13 9 12 10 11 11 1 12
REMARK SMILES IDX 2 13 3 14 4 15 7 16 5 17 6 18 8 19 9 20 10 21 21 22 22 23
REMARK SMILES IDX 23 24 24 25 25 26 26 28 27 29 28 30 86 31 29 32 85 33 30 34
REMARK SMILES IDX 31 35 32 36 79 37 33 38 84 39 78 40 80 41 34 42 83 43 77 44
REMARK SMILES IDX 76 45 35 47 65 48 46 49 64 50 47 51 50 52 63 53 81 54 48 55
REMARK SMILES IDX 49 56 62 58 82 59 51 60 36 61 37 62 45 63 38 64 44 65 39 66
REMARK SMILES IDX 40 67 41 68 42 69 43 70 66 71 67 72 75 73 68 74 74 75 69 76
REMARK SMILES IDX 70 77 71 78 72 79 73 80 52 81 53 82 61 83 54 84 60 85 55 86
REMARK SMILES IDX 56 87 57 88 58 89 59 90
REMARK H PARENT 17 7 24 27 80 46 50 57
REMARK Flexibility Score: inf
ROOT
ATOM      1  C   UNL A   1      34.437  31.422  27.629  1.00  0.00     0.002 C 
ENDROOT
BRANCH   1   2
ATOM      2  C   UNL A   1      35.222  30.116  27.817  1.00  0.00     0.021 C 
BRANCH   2   3
ATOM      3  C   UNL A   1      34.745  28.981  26.914  1.00  0.00     0.116 C 
BRANCH   3   4
ATOM      4  N   UNL A   1      33.543  29.323  26.171  1.00  0.00    -0.356 N 
ATOM      5  C   UNL A   1      32.415  28.586  25.968  1.00  0.00     0.223 C 
ATOM      6  O   UNL A   1      31.465  29.108  25.381  1.00  0.00    -0.275 OA
ATOM      7  H   UNL A   1      33.546  30.215  25.755  1.00  0.00     0.163 HD
BRANCH   5   8
ATOM      8  C   UNL A   1      32.327  27.175  26.495  1.00  0.00     0.141 C 
BRANCH   8   9
ATOM      9  C   UNL A   1      32.967  26.158  25.559  1.00  0.00     0.240 C 
BRANCH   9  10
ATOM     10  O   UNL A   1      32.028  25.326  24.898  1.00  0.00    -0.486 OA
BRANCH  10  11
ATOM     11  C   UNL A   1      32.123  24.030  24.507  1.00  0.00     0.200 A 
ATOM     12  C   UNL A   1      32.966  24.249  22.028  1.00  0.00     0.049 C 
ATOM     13  C   UNL A   1      32.579  23.511  23.279  1.00  0.00    -0.001 A 
ATOM     14  C   UNL A   1      32.699  22.103  23.130  1.00  0.00     0.023 A 
ATOM     15  C   UNL A   1      32.317  21.215  24.125  1.00  0.00     0.025 A 
ATOM     16  C   UNL A   1      31.700  23.090  25.499  1.00  0.00     0.312 A 
ATOM     17  Br  UNL A   1      32.545  19.359  23.874  1.00  0.00    -0.051 Br
ATOM     18  C   UNL A   1      31.787  21.698  25.303  1.00  0.00     0.105 A 
BRANCH  16  19
ATOM     19  N   UNL A   1      31.217  23.520  26.833  1.00  0.00     0.066 N 
ATOM     20  O   UNL A   1      32.003  23.380  27.784  1.00  0.00    -0.258 OA
ATOM     21  O   UNL A   1      30.075  23.979  26.951  1.00  0.00    -0.258 OA
ENDBRANCH  16  19
ENDBRANCH  10  11
ENDBRANCH   9  10
ENDBRANCH   8   9
ENDBRANCH   5   8
ENDBRANCH   3   4
ENDBRANCH   2   3
ENDBRANCH   1   2
BRANCH   1  22
ATOM     22  C   UNL A   1      34.420  32.343  28.855  1.00  0.00     0.002 C 
BRANCH  22  23
ATOM     23  C   UNL A   1      35.603  33.312  28.976  1.00  0.00     0.021 C 
BRANCH  23  24
ATOM     24  C   UNL A   1      36.597  33.004  30.096  1.00  0.00     0.116 C 
BRANCH  24  25
ATOM     25  N   UNL A   1      36.215  31.841  30.879  1.00  0.00    -0.352 N 
ATOM     26  C   UNL A   1      36.860  30.631  31.027  1.00  0.00     0.251 C 
ATOM     27  H   UNL A   1      35.371  31.930  31.379  1.00  0.00     0.163 HD
ATOM     28  O   UNL A   1      36.299  29.708  31.600  1.00  0.00    -0.269 OA
BRANCH  26  29
ATOM     29  C   UNL A   1      38.218  30.435  30.462  1.00  0.00     0.039 A 
ATOM     30  C   UNL A   1      39.299  30.320  31.340  1.00  0.00     0.014 A 
ATOM     31  C   UNL A   1      38.430  30.373  29.082  1.00  0.00     0.014 A 
ATOM     32  C   UNL A   1      40.579  30.060  30.839  1.00  0.00     0.010 A 
ATOM     33  C   UNL A   1      39.697  30.057  28.587  1.00  0.00     0.010 A 
ATOM     34  C   UNL A   1      40.782  29.885  29.460  1.00  0.00    -0.014 A 
BRANCH  34  35
ATOM     35  C   UNL A   1      42.112  29.481  28.928  1.00  0.00     0.031 A 
ATOM     36  C   UNL A   1      42.366  28.066  28.481  1.00  0.00     0.074 A 
ATOM     37  C   UNL A   1      43.117  30.379  28.899  1.00  0.00     0.049 A 
ATOM     38  N   UNL A   1      43.468  27.533  28.018  1.00  0.00    -0.248 NA
ATOM     39  C   UNL A   1      41.241  27.125  28.583  1.00  0.00     0.031 C 
ATOM     40  C   UNL A   1      43.019  31.773  29.339  1.00  0.00     0.029 A 
ATOM     41  N   UNL A   1      44.422  30.254  28.487  1.00  0.00    -0.354 N 
ATOM     42  C   UNL A   1      43.176  26.195  27.784  1.00  0.00     0.074 A 
ATOM     43  C   UNL A   1      41.803  25.988  28.195  1.00  0.00     0.031 C 
ATOM     44  C   UNL A   1      44.203  32.378  29.155  1.00  0.00     0.029 A 
ATOM     45  C   UNL A   1      45.156  31.409  28.619  1.00  0.00     0.049 A 
ATOM     46  H   UNL A   1      44.796  29.416  28.133  1.00  0.00     0.167 HD
ATOM     47  C   UNL A   1      43.971  25.228  27.262  1.00  0.00     0.031 A 
ATOM     48  C   UNL A   1      46.450  31.667  28.345  1.00  0.00     0.031 A 
ATOM     49  C   UNL A   1      45.337  25.432  26.856  1.00  0.00     0.049 A 
ATOM     50  C   UNL A   1      47.317  30.576  27.779  1.00  0.00     0.074 A 
ATOM     51  C   UNL A   1      46.204  24.525  26.270  1.00  0.00     0.029 A 
ATOM     52  N   UNL A   1      46.039  26.618  26.999  1.00  0.00    -0.354 N 
ATOM     53  N   UNL A   1      46.999  29.334  27.499  1.00  0.00    -0.248 NA
ATOM     54  C   UNL A   1      48.713  30.924  27.479  1.00  0.00     0.031 C 
ATOM     55  C   UNL A   1      47.445  25.149  26.103  1.00  0.00     0.029 A 
ATOM     56  C   UNL A   1      47.335  26.461  26.534  1.00  0.00     0.049 A 
ATOM     57  H   UNL A   1      45.672  27.450  27.376  1.00  0.00     0.167 HD
ATOM     58  C   UNL A   1      48.149  28.761  26.966  1.00  0.00     0.074 A 
ATOM     59  C   UNL A   1      49.164  29.794  26.951  1.00  0.00     0.031 C 
ATOM     60  C   UNL A   1      48.341  27.494  26.524  1.00  0.00     0.031 A 
BRANCH  47  61
ATOM     61  C   UNL A   1      43.378  23.851  27.110  1.00  0.00    -0.014 A 
ATOM     62  C   UNL A   1      42.962  23.376  25.854  1.00  0.00     0.010 A 
ATOM     63  C   UNL A   1      43.270  23.007  28.231  1.00  0.00     0.010 A 
ATOM     64  C   UNL A   1      42.404  22.100  25.730  1.00  0.00     0.020 A 
ATOM     65  C   UNL A   1      42.737  21.721  28.106  1.00  0.00     0.020 A 
ATOM     66  C   UNL A   1      42.290  21.283  26.858  1.00  0.00     0.054 A 
BRANCH  66  67
ATOM     67  S   UNL A   1      41.569  19.630  26.666  1.00  0.00     0.124 S 
ATOM     68  O   UNL A   1      40.140  19.911  26.766  1.00  0.00    -0.237 OA
ATOM     69  O   UNL A   1      42.038  19.226  25.342  1.00  0.00    -0.237 OA
ATOM     70  O   UNL A   1      42.135  18.873  27.780  1.00  0.00    -0.744 OA
ENDBRANCH  66  67
ENDBRANCH  47  61
BRANCH  48  71
ATOM     71  C   UNL A   1      47.001  33.028  28.588  1.00  0.00    -0.014 A 
ATOM     72  C   UNL A   1      46.936  34.012  27.587  1.00  0.00     0.010 A 
ATOM     73  C   UNL A   1      47.575  33.352  29.832  1.00  0.00     0.010 A 
ATOM     74  C   UNL A   1      47.446  35.293  27.820  1.00  0.00     0.020 A 
ATOM     75  C   UNL A   1      48.062  34.638  30.076  1.00  0.00     0.020 A 
ATOM     76  C   UNL A   1      48.003  35.599  29.064  1.00  0.00     0.054 A 
BRANCH  76  77
ATOM     77  S   UNL A   1      48.602  37.286  29.366  1.00  0.00     0.124 S 
ATOM     78  O   UNL A   1      47.366  37.997  29.676  1.00  0.00    -0.237 OA
ATOM     79  O   UNL A   1      49.523  37.099  30.485  1.00  0.00    -0.237 OA
ATOM     80  O   UNL A   1      49.239  37.653  28.102  1.00  0.00    -0.744 OA
ENDBRANCH  76  77
ENDBRANCH  48  71
BRANCH  60  81
ATOM     81  C   UNL A   1      49.691  27.154  25.951  1.00  0.00    -0.014 A 
ATOM     82  C   UNL A   1      49.955  27.285  24.576  1.00  0.00     0.010 A 
ATOM     83  C   UNL A   1      50.729  26.753  26.812  1.00  0.00     0.010 A 
ATOM     84  C   UNL A   1      51.226  26.995  24.070  1.00  0.00     0.020 A 
ATOM     85  C   UNL A   1      52.007  26.487  26.314  1.00  0.00     0.020 A 
ATOM     86  C   UNL A   1      52.245  26.598  24.943  1.00  0.00     0.054 A 
BRANCH  86  87
ATOM     87  S   UNL A   1      53.898  26.275  24.270  1.00  0.00     0.124 S 
ATOM     88  O   UNL A   1      54.120  24.885  24.663  1.00  0.00    -0.237 OA
ATOM     89  O   UNL A   1      53.712  26.500  22.838  1.00  0.00    -0.237 OA
ATOM     90  O   UNL A   1      54.745  27.256  24.943  1.00  0.00    -0.744 OA
ENDBRANCH  86  87
ENDBRANCH  60  81
ENDBRANCH  34  35
ENDBRANCH  26  29
ENDBRANCH  24  25
ENDBRANCH  23  24
ENDBRANCH  22  23
ENDBRANCH   1  22
TORSDOF 20
ENDMDL
MODEL 3
REMARK VINA RESULT:      -9.0      4.850     12.027
REMARK SMILES Cc1cc(Br)cc([N+](=O)[O-])c1OCCC(=O)NCCCCCCNC(=O)c1ccc(-c2c3nc(c(-c4ccc(S(=O)(=O)[O-])cc4)c4ccc([nH]4)c(-c4ccc(S(=O)(=O)[O-])cc4)c4nc(c(-c5ccc(S(=O)(=O)[O-])cc5)c5ccc2[nH]5)C=C4)C=C3)cc1
REMARK SMILES IDX 20 1 19 2 18 3 17 4 15 5 16 6 14 8 13 9 12 10 11 11 1 12
REMARK SMILES IDX 2 13 3 14 4 15 7 16 5 17 6 18 8 19 9 20 10 21 21 22 22 23
REMARK SMILES IDX 23 24 24 25 25 26 26 28 27 29 28 30 86 31 29 32 85 33 30 34
REMARK SMILES IDX 31 35 32 36 79 37 33 38 84 39 78 40 80 41 34 42 83 43 77 44
REMARK SMILES IDX 76 45 35 47 65 48 46 49 64 50 47 51 50 52 63 53 81 54 48 55
REMARK SMILES IDX 49 56 62 58 82 59 51 60 36 61 37 62 45 63 38 64 44 65 39 66
REMARK SMILES IDX 40 67 41 68 42 69 43 70 66 71 67 72 75 73 68 74 74 75 69 76
REMARK SMILES IDX 70 77 71 78 72 79 73 80 52 81 53 82 61 83 54 84 60 85 55 86
REMARK SMILES IDX 56 87 57 88 58 89 59 90
REMARK H PARENT 17 7 24 27 80 46 50 57
REMARK Flexibility Score: inf
ROOT
ATOM      1  C   UNL A   1      34.369  34.580  31.787  1.00  0.00     0.002 C 
ENDROOT
BRANCH   1   2
ATOM      2  C   UNL A   1      34.164  33.349  32.682  1.00  0.00     0.021 C 
BRANCH   2   3
ATOM      3  C   UNL A   1      35.404  32.963  33.484  1.00  0.00     0.116 C 
BRANCH   3   4
ATOM      4  N   UNL A   1      36.614  33.596  32.985  1.00  0.00    -0.356 N 
ATOM      5  C   UNL A   1      37.892  33.124  32.971  1.00  0.00     0.223 C 
ATOM      6  O   UNL A   1      38.763  33.791  32.408  1.00  0.00    -0.275 OA
ATOM      7  H   UNL A   1      36.491  34.496  32.604  1.00  0.00     0.163 HD
BRANCH   5   8
ATOM      8  C   UNL A   1      38.213  31.789  33.596  1.00  0.00     0.141 C 
BRANCH   8   9
ATOM      9  C   UNL A   1      38.641  31.911  35.052  1.00  0.00     0.240 C 
BRANCH   9  10
ATOM     10  O   UNL A   1      38.039  33.002  35.731  1.00  0.00    -0.486 OA
BRANCH  10  11
ATOM     11  C   UNL A   1      38.559  33.868  36.638  1.00  0.00     0.200 A 
ATOM     12  C   UNL A   1      39.975  35.484  35.126  1.00  0.00     0.049 C 
ATOM     13  C   UNL A   1      39.368  34.999  36.412  1.00  0.00    -0.001 A 
ATOM     14  C   UNL A   1      39.705  35.833  37.512  1.00  0.00     0.023 A 
ATOM     15  C   UNL A   1      39.327  35.535  38.814  1.00  0.00     0.025 A 
ATOM     16  C   UNL A   1      38.217  33.565  37.993  1.00  0.00     0.312 A 
ATOM     17  Br  UNL A   1      39.775  36.711  40.220  1.00  0.00    -0.051 Br
ATOM     18  C   UNL A   1      38.608  34.386  39.070  1.00  0.00     0.105 A 
BRANCH  16  19
ATOM     19  N   UNL A   1      37.359  32.410  38.349  1.00  0.00     0.066 N 
ATOM     20  O   UNL A   1      37.892  31.288  38.318  1.00  0.00    -0.258 OA
ATOM     21  O   UNL A   1      36.173  32.597  38.644  1.00  0.00    -0.258 OA
ENDBRANCH  16  19
ENDBRANCH  10  11
ENDBRANCH   9  10
ENDBRANCH   8   9
ENDBRANCH   5   8
ENDBRANCH   3   4
ENDBRANCH   2   3
ENDBRANCH   1   2
BRANCH   1  22
ATOM     22  C   UNL A   1      34.412  34.281  30.284  1.00  0.00     0.002 C 
BRANCH  22  23
ATOM     23  C   UNL A   1      34.392  32.795  29.901  1.00  0.00     0.021 C 
BRANCH  23  24
ATOM     24  C   UNL A   1      34.504  32.498  28.405  1.00  0.00     0.116 C 
BRANCH  24  25
ATOM     25  N   UNL A   1      33.912  31.221  28.042  1.00  0.00    -0.352 N 
ATOM     26  C   UNL A   1      34.509  29.986  27.895  1.00  0.00     0.251 C 
ATOM     27  H   UNL A   1      32.942  31.239  27.877  1.00  0.00     0.163 HD
ATOM     28  O   UNL A   1      33.873  29.055  27.420  1.00  0.00    -0.269 OA
BRANCH  26  29
ATOM     29  C   UNL A   1      35.929  29.794  28.277  1.00  0.00     0.039 A 
ATOM     30  C   UNL A   1      36.231  29.496  29.610  1.00  0.00     0.014 A 
ATOM     31  C   UNL A   1      36.958  29.912  27.339  1.00  0.00     0.014 A 
ATOM     32  C   UNL A   1      37.553  29.236  29.983  1.00  0.00     0.010 A 
ATOM     33  C   UNL A   1      38.269  29.596  27.701  1.00  0.00     0.010 A 
ATOM     34  C   UNL A   1      38.580  29.243  29.023  1.00  0.00    -0.014 A 
BRANCH  34  35
ATOM     35  C   UNL A   1      39.967  28.841  29.383  1.00  0.00     0.031 A 
ATOM     36  C   UNL A   1      40.886  29.796  30.096  1.00  0.00     0.074 A 
ATOM     37  C   UNL A   1      40.423  27.627  29.014  1.00  0.00     0.049 A 
ATOM     38  N   UNL A   1      42.131  29.623  30.462  1.00  0.00    -0.248 NA
ATOM     39  C   UNL A   1      40.341  31.121  30.427  1.00  0.00     0.031 C 
ATOM     40  C   UNL A   1      39.651  26.619  28.283  1.00  0.00     0.029 A 
ATOM     41  N   UNL A   1      41.649  27.035  29.197  1.00  0.00    -0.354 N 
ATOM     42  C   UNL A   1      42.523  30.817  31.054  1.00  0.00     0.074 A 
ATOM     43  C   UNL A   1      41.395  31.721  30.963  1.00  0.00     0.031 C 
ATOM     44  C   UNL A   1      40.412  25.528  28.100  1.00  0.00     0.029 A 
ATOM     45  C   UNL A   1      41.737  25.770  28.665  1.00  0.00     0.049 A 
ATOM     46  H   UNL A   1      42.394  27.475  29.665  1.00  0.00     0.167 HD
ATOM     47  C   UNL A   1      43.708  31.131  31.635  1.00  0.00     0.031 A 
ATOM     48  C   UNL A   1      42.764  24.899  28.628  1.00  0.00     0.031 A 
ATOM     49  C   UNL A   1      44.830  30.235  31.724  1.00  0.00     0.049 A 
ATOM     50  C   UNL A   1      44.074  25.273  29.267  1.00  0.00     0.074 A 
ATOM     51  C   UNL A   1      46.053  30.448  32.339  1.00  0.00     0.029 A 
ATOM     52  N   UNL A   1      44.875  28.961  31.179  1.00  0.00    -0.354 N 
ATOM     53  N   UNL A   1      44.400  26.383  29.885  1.00  0.00    -0.248 NA
ATOM     54  C   UNL A   1      45.149  24.272  29.216  1.00  0.00     0.031 C 
ATOM     55  C   UNL A   1      46.854  29.321  32.123  1.00  0.00     0.029 A 
ATOM     56  C   UNL A   1      46.111  28.384  31.423  1.00  0.00     0.049 A 
ATOM     57  H   UNL A   1      44.138  28.530  30.691  1.00  0.00     0.167 HD
ATOM     58  C   UNL A   1      45.709  26.203  30.319  1.00  0.00     0.074 A 
ATOM     59  C   UNL A   1      46.109  24.875  29.904  1.00  0.00     0.031 C 
ATOM     60  C   UNL A   1      46.503  27.062  31.005  1.00  0.00     0.031 A 
BRANCH  47  61
ATOM     61  C   UNL A   1      43.851  32.516  32.213  1.00  0.00    -0.014 A 
ATOM     62  C   UNL A   1      44.566  33.516  31.531  1.00  0.00     0.010 A 
ATOM     63  C   UNL A   1      43.232  32.831  33.437  1.00  0.00     0.010 A 
ATOM     64  C   UNL A   1      44.700  34.793  32.084  1.00  0.00     0.020 A 
ATOM     65  C   UNL A   1      43.341  34.114  33.980  1.00  0.00     0.020 A 
ATOM     66  C   UNL A   1      44.092  35.081  33.309  1.00  0.00     0.054 A 
BRANCH  66  67
ATOM     67  S   UNL A   1      44.276  36.748  34.000  1.00  0.00     0.124 S 
ATOM     68  O   UNL A   1      42.915  37.269  33.895  1.00  0.00    -0.237 OA
ATOM     69  O   UNL A   1      44.744  36.484  35.358  1.00  0.00    -0.237 OA
ATOM     70  O   UNL A   1      45.254  37.383  33.120  1.00  0.00    -0.744 OA
ENDBRANCH  66  67
ENDBRANCH  47  61
BRANCH  48  71
ATOM     71  C   UNL A   1      42.587  23.573  27.975  1.00  0.00    -0.014 A 
ATOM     72  C   UNL A   1      42.939  23.391  26.626  1.00  0.00     0.010 A 
ATOM     73  C   UNL A   1      42.085  22.481  28.705  1.00  0.00     0.010 A 
ATOM     74  C   UNL A   1      42.781  22.143  26.016  1.00  0.00     0.020 A 
ATOM     75  C   UNL A   1      41.950  21.226  28.106  1.00  0.00     0.020 A 
ATOM     76  C   UNL A   1      42.290  21.067  26.761  1.00  0.00     0.054 A 
BRANCH  76  77
ATOM     77  S   UNL A   1      42.152  19.441  25.966  1.00  0.00     0.124 S 
ATOM     78  O   UNL A   1      42.662  18.551  27.003  1.00  0.00    -0.237 OA
ATOM     79  O   UNL A   1      40.720  19.342  25.695  1.00  0.00    -0.237 OA
ATOM     80  O   UNL A   1      42.995  19.569  24.778  1.00  0.00    -0.744 OA
ENDBRANCH  76  77
ENDBRANCH  48  71
BRANCH  60  81
ATOM     81  C   UNL A   1      47.880  26.583  31.385  1.00  0.00    -0.014 A 
ATOM     82  C   UNL A   1      48.098  25.846  32.562  1.00  0.00     0.010 A 
ATOM     83  C   UNL A   1      48.961  26.827  30.518  1.00  0.00     0.010 A 
ATOM     84  C   UNL A   1      49.379  25.384  32.878  1.00  0.00     0.020 A 
ATOM     85  C   UNL A   1      50.238  26.345  30.819  1.00  0.00     0.020 A 
ATOM     86  C   UNL A   1      50.442  25.636  32.004  1.00  0.00     0.054 A 
BRANCH  86  87
ATOM     87  S   UNL A   1      52.085  24.984  32.412  1.00  0.00     0.124 S 
ATOM     88  O   UNL A   1      52.943  25.726  31.492  1.00  0.00    -0.237 OA
ATOM     89  O   UNL A   1      52.228  25.335  33.824  1.00  0.00    -0.237 OA
ATOM     90  O   UNL A   1      51.968  23.554  32.141  1.00  0.00    -0.744 OA
ENDBRANCH  86  87
ENDBRANCH  60  81
ENDBRANCH  34  35
ENDBRANCH  26  29
ENDBRANCH  24  25
ENDBRANCH  23  24
ENDBRANCH  22  23
ENDBRANCH   1  22
TORSDOF 20
ENDMDL
