MODEL 1
REMARK VINA RESULT:      -9.3      0.000      0.000
REMARK SMILES CCC([NH3+])(CC)C(=O)N(CCC(=O)NCCCCCCNC(=O)c1ccc(-c2c3nc(c(-c4ccc(S(=O)(=O)[O-])cc4)c4ccc([nH]4)c(-c4ccc(S(=O)(=O)[O-])cc4)c4nc(c(-c5ccc(S(=O)(=O)[O-])cc5)c5ccc2[nH]5)C=C4)C=C3)cc1)C(C)C
REMARK SMILES IDX 16 1 15 2 14 3 12 4 13 5 11 7 10 8 9 9 7 10 8 11 3 12 2 13
REMARK SMILES IDX 1 14 4 15 5 19 6 20 84 21 85 22 86 23 17 24 18 25 19 26
REMARK SMILES IDX 20 27 21 28 22 29 23 31 24 32 25 33 83 34 26 35 82 36 27 37
REMARK SMILES IDX 28 38 29 39 76 40 30 41 81 42 75 43 77 44 31 45 80 46 74 47
REMARK SMILES IDX 73 48 32 50 62 51 43 52 61 53 44 54 47 55 60 56 78 57 45 58
REMARK SMILES IDX 46 59 59 61 79 62 48 63 33 64 34 65 42 66 35 67 41 68 36 69
REMARK SMILES IDX 37 70 38 71 39 72 40 73 63 74 64 75 72 76 65 77 71 78 66 79
REMARK SMILES IDX 67 80 68 81 69 82 70 83 49 84 50 85 58 86 51 87 57 88 52 89
REMARK SMILES IDX 53 90 54 91 55 92 56 93
REMARK H PARENT 14 6 4 16 4 17 4 18 21 30 77 49 47 60
REMARK Flexibility Score: inf
ROOT
ATOM      1  C   UNL A   1      38.295  23.714  25.987  1.00  0.00     0.021 C 
ENDROOT
BRANCH   1   2
ATOM      2  C   UNL A   1      37.484  22.489  25.521  1.00  0.00     0.116 C 
BRANCH   2   3
ATOM      3  N   UNL A   1      36.806  22.775  24.246  1.00  0.00    -0.356 N 
ATOM      4  C   UNL A   1      35.756  23.558  23.870  1.00  0.00     0.221 C 
ATOM      5  O   UNL A   1      35.417  23.513  22.684  1.00  0.00    -0.275 OA
ATOM      6  H   UNL A   1      37.205  22.288  23.489  1.00  0.00     0.163 HD
BRANCH   4   7
ATOM      7  C   UNL A   1      35.010  24.466  24.832  1.00  0.00     0.121 C 
BRANCH   7   8
ATOM      8  C   UNL A   1      33.635  23.876  25.234  1.00  0.00     0.130 C 
BRANCH   8   9
ATOM      9  N   UNL A   1      32.554  24.887  25.286  1.00  0.00    -0.334 N 
BRANCH   9  10
ATOM     10  C   UNL A   1      32.625  26.277  25.376  1.00  0.00     0.284 C 
ATOM     11  O   UNL A   1      32.907  26.782  26.472  1.00  0.00    -0.268 OA
BRANCH  10  12
ATOM     12  C   UNL A   1      32.370  27.245  24.176  1.00  0.00     0.173 C 
BRANCH  12  13
ATOM     13  C   UNL A   1      30.899  27.799  24.263  1.00  0.00     0.075 C 
ATOM     14  C   UNL A   1      29.921  27.432  23.140  1.00  0.00     0.011 C 
ENDBRANCH  12  13
BRANCH  12  15
ATOM     15  N   UNL A   1      32.502  26.505  22.897  1.00  0.00    -0.345 N 
ATOM     16  H   UNL A   1      31.677  25.923  22.755  1.00  0.00     0.345 HD
ATOM     17  H   UNL A   1      33.333  25.915  22.930  1.00  0.00     0.345 HD
ATOM     18  H   UNL A   1      32.586  27.169  22.127  1.00  0.00     0.345 HD
ENDBRANCH  12  15
BRANCH  12  19
ATOM     19  C   UNL A   1      33.329  28.465  24.169  1.00  0.00     0.075 C 
ATOM     20  C   UNL A   1      34.004  28.745  22.829  1.00  0.00     0.011 C 
ENDBRANCH  12  19
ENDBRANCH  10  12
ENDBRANCH   9  10
BRANCH   9  21
ATOM     21  C   UNL A   1      31.205  24.319  25.332  1.00  0.00     0.079 C 
ATOM     22  C   UNL A   1      30.840  23.681  23.993  1.00  0.00     0.031 C 
ATOM     23  C   UNL A   1      30.930  23.408  26.526  1.00  0.00     0.031 C 
ENDBRANCH   9  21
ENDBRANCH   8   9
ENDBRANCH   7   8
ENDBRANCH   4   7
ENDBRANCH   2   3
ENDBRANCH   1   2
BRANCH   1  24
ATOM     24  C   UNL A   1      39.359  23.519  27.075  1.00  0.00     0.002 C 
BRANCH  24  25
ATOM     25  C   UNL A   1      40.333  22.335  27.041  1.00  0.00     0.002 C 
BRANCH  25  26
ATOM     26  C   UNL A   1      41.744  22.456  26.432  1.00  0.00     0.021 C 
BRANCH  26  27
ATOM     27  C   UNL A   1      42.623  23.645  26.822  1.00  0.00     0.116 C 
BRANCH  27  28
ATOM     28  N   UNL A   1      42.660  24.666  25.794  1.00  0.00    -0.352 N 
ATOM     29  C   UNL A   1      42.238  25.973  25.781  1.00  0.00     0.251 C 
ATOM     30  H   UNL A   1      43.062  24.367  24.946  1.00  0.00     0.163 HD
ATOM     31  O   UNL A   1      42.182  26.545  24.693  1.00  0.00    -0.269 OA
BRANCH  29  32
ATOM     32  C   UNL A   1      41.844  26.718  27.007  1.00  0.00     0.039 A 
ATOM     33  C   UNL A   1      42.619  27.828  27.367  1.00  0.00     0.014 A 
ATOM     34  C   UNL A   1      40.834  26.291  27.874  1.00  0.00     0.014 A 
ATOM     35  C   UNL A   1      42.370  28.517  28.561  1.00  0.00     0.010 A 
ATOM     36  C   UNL A   1      40.551  27.013  29.047  1.00  0.00     0.010 A 
ATOM     37  C   UNL A   1      41.321  28.129  29.411  1.00  0.00    -0.014 A 
BRANCH  37  38
ATOM     38  C   UNL A   1      41.036  28.912  30.650  1.00  0.00     0.031 A 
ATOM     39  C   UNL A   1      41.886  28.770  31.888  1.00  0.00     0.074 A 
ATOM     40  C   UNL A   1      39.999  29.775  30.663  1.00  0.00     0.049 A 
ATOM     41  N   UNL A   1      41.827  29.444  33.011  1.00  0.00    -0.248 NA
ATOM     42  C   UNL A   1      42.923  27.727  31.872  1.00  0.00     0.031 C 
ATOM     43  C   UNL A   1      39.068  29.989  29.553  1.00  0.00     0.029 A 
ATOM     44  N   UNL A   1      39.563  30.643  31.634  1.00  0.00    -0.354 N 
ATOM     45  C   UNL A   1      42.807  28.904  33.838  1.00  0.00     0.074 A 
ATOM     46  C   UNL A   1      43.419  27.819  33.098  1.00  0.00     0.031 C 
ATOM     47  C   UNL A   1      38.202  30.959  29.888  1.00  0.00     0.029 A 
ATOM     48  C   UNL A   1      38.495  31.416  31.243  1.00  0.00     0.049 A 
ATOM     49  H   UNL A   1      39.976  30.706  32.526  1.00  0.00     0.167 HD
ATOM     50  C   UNL A   1      43.175  29.278  35.090  1.00  0.00     0.031 A 
ATOM     51  C   UNL A   1      37.831  32.396  31.888  1.00  0.00     0.031 A 
ATOM     52  C   UNL A   1      42.572  30.358  35.830  1.00  0.00     0.049 A 
ATOM     53  C   UNL A   1      38.265  32.804  33.268  1.00  0.00     0.074 A 
ATOM     54  C   UNL A   1      42.924  30.853  37.076  1.00  0.00     0.029 A 
ATOM     55  N   UNL A   1      41.484  31.105  35.403  1.00  0.00    -0.354 N 
ATOM     56  N   UNL A   1      39.248  32.333  33.997  1.00  0.00    -0.248 NA
ATOM     57  C   UNL A   1      37.508  33.892  33.903  1.00  0.00     0.031 C 
ATOM     58  C   UNL A   1      42.020  31.865  37.423  1.00  0.00     0.029 A 
ATOM     59  C   UNL A   1      41.137  32.038  36.369  1.00  0.00     0.049 A 
ATOM     60  H   UNL A   1      41.026  30.991  34.539  1.00  0.00     0.167 HD
ATOM     61  C   UNL A   1      39.243  33.084  35.168  1.00  0.00     0.074 A 
ATOM     62  C   UNL A   1      38.171  34.051  35.040  1.00  0.00     0.031 C 
ATOM     63  C   UNL A   1      40.057  32.983  36.248  1.00  0.00     0.031 A 
BRANCH  50  64
ATOM     64  C   UNL A   1      44.280  28.495  35.754  1.00  0.00    -0.014 A 
ATOM     65  C   UNL A   1      44.017  27.288  36.427  1.00  0.00     0.010 A 
ATOM     66  C   UNL A   1      45.608  28.953  35.672  1.00  0.00     0.010 A 
ATOM     67  C   UNL A   1      45.051  26.584  37.052  1.00  0.00     0.020 A 
ATOM     68  C   UNL A   1      46.649  28.239  36.272  1.00  0.00     0.020 A 
ATOM     69  C   UNL A   1      46.361  27.068  36.977  1.00  0.00     0.054 A 
BRANCH  69  70
ATOM     70  S   UNL A   1      47.685  26.137  37.795  1.00  0.00     0.124 S 
ATOM     71  O   UNL A   1      48.874  26.643  37.112  1.00  0.00    -0.237 OA
ATOM     72  O   UNL A   1      47.547  26.537  39.193  1.00  0.00    -0.237 OA
ATOM     73  O   UNL A   1      47.353  24.742  37.515  1.00  0.00    -0.744 OA
ENDBRANCH  69  70
ENDBRANCH  50  64
BRANCH  51  74
ATOM     74  C   UNL A   1      36.708  33.096  31.208  1.00  0.00    -0.014 A 
ATOM     75  C   UNL A   1      36.912  33.722  29.966  1.00  0.00     0.010 A 
ATOM     76  C   UNL A   1      35.428  33.124  31.787  1.00  0.00     0.010 A 
ATOM     77  C   UNL A   1      35.856  34.371  29.318  1.00  0.00     0.020 A 
ATOM     78  C   UNL A   1      34.363  33.748  31.132  1.00  0.00     0.020 A 
ATOM     79  C   UNL A   1      34.587  34.376  29.904  1.00  0.00     0.054 A 
BRANCH  79  80
ATOM     80  S   UNL A   1      33.215  35.160  29.012  1.00  0.00     0.124 S 
ATOM     81  O   UNL A   1      32.834  34.118  28.063  1.00  0.00    -0.237 OA
ATOM     82  O   UNL A   1      32.255  35.428  30.078  1.00  0.00    -0.237 OA
ATOM     83  O   UNL A   1      33.828  36.350  28.424  1.00  0.00    -0.744 OA
ENDBRANCH  79  80
ENDBRANCH  51  74
BRANCH  63  84
ATOM     84  C   UNL A   1      39.828  33.964  37.370  1.00  0.00    -0.014 A 
ATOM     85  C   UNL A   1      40.221  35.310  37.255  1.00  0.00     0.010 A 
ATOM     86  C   UNL A   1      39.216  33.531  38.560  1.00  0.00     0.010 A 
ATOM     87  C   UNL A   1      40.060  36.189  38.331  1.00  0.00     0.020 A 
ATOM     88  C   UNL A   1      39.029  34.412  39.628  1.00  0.00     0.020 A 
ATOM     89  C   UNL A   1      39.476  35.731  39.515  1.00  0.00     0.054 A 
BRANCH  89  90
ATOM     90  S   UNL A   1      39.284  36.884  40.904  1.00  0.00     0.124 S 
ATOM     91  O   UNL A   1      38.474  36.104  41.835  1.00  0.00    -0.237 OA
ATOM     92  O   UNL A   1      40.664  37.122  41.320  1.00  0.00    -0.237 OA
ATOM     93  O   UNL A   1      38.613  38.036  40.306  1.00  0.00    -0.744 OA
ENDBRANCH  89  90
ENDBRANCH  63  84
ENDBRANCH  37  38
ENDBRANCH  29  32
ENDBRANCH  27  28
ENDBRANCH  26  27
ENDBRANCH  25  26
ENDBRANCH  24  25
ENDBRANCH   1  24
TORSDOF 24
ENDMDL
MODEL 2
REMARK VINA RESULT:      -8.9      1.144      8.435
REMARK SMILES CCC([NH3+])(CC)C(=O)N(CCC(=O)NCCCCCCNC(=O)c1ccc(-c2c3nc(c(-c4ccc(S(=O)(=O)[O-])cc4)c4ccc([nH]4)c(-c4ccc(S(=O)(=O)[O-])cc4)c4nc(c(-c5ccc(S(=O)(=O)[O-])cc5)c5ccc2[nH]5)C=C4)C=C3)cc1)C(C)C
REMARK SMILES IDX 16 1 15 2 14 3 12 4 13 5 11 7 10 8 9 9 7 10 8 11 3 12 2 13
REMARK SMILES IDX 1 14 4 15 5 19 6 20 84 21 85 22 86 23 17 24 18 25 19 26
REMARK SMILES IDX 20 27 21 28 22 29 23 31 24 32 25 33 83 34 26 35 82 36 27 37
REMARK SMILES IDX 28 38 29 39 76 40 30 41 81 42 75 43 77 44 31 45 80 46 74 47
REMARK SMILES IDX 73 48 32 50 62 51 43 52 61 53 44 54 47 55 60 56 78 57 45 58
REMARK SMILES IDX 46 59 59 61 79 62 48 63 33 64 34 65 42 66 35 67 41 68 36 69
REMARK SMILES IDX 37 70 38 71 39 72 40 73 63 74 64 75 72 76 65 77 71 78 66 79
REMARK SMILES IDX 67 80 68 81 69 82 70 83 49 84 50 85 58 86 51 87 57 88 52 89
REMARK SMILES IDX 53 90 54 91 55 92 56 93
REMARK H PARENT 14 6 4 16 4 17 4 18 21 30 77 49 47 60
REMARK Flexibility Score: inf
ROOT
ATOM      1  C   UNL A   1      34.913  22.842  24.667  1.00  0.00     0.021 C 
ENDROOT
BRANCH   1   2
ATOM      2  C   UNL A   1      35.454  24.075  23.918  1.00  0.00     0.116 C 
BRANCH   2   3
ATOM      3  N   UNL A   1      34.466  24.558  22.941  1.00  0.00    -0.356 N 
ATOM      4  C   UNL A   1      33.733  25.698  22.798  1.00  0.00     0.221 C 
ATOM      5  O   UNL A   1      32.937  25.741  21.854  1.00  0.00    -0.275 OA
ATOM      6  H   UNL A   1      34.295  23.906  22.222  1.00  0.00     0.163 HD
BRANCH   4   7
ATOM      7  C   UNL A   1      33.860  26.890  23.730  1.00  0.00     0.121 C 
BRANCH   7   8
ATOM      8  C   UNL A   1      32.685  27.885  23.558  1.00  0.00     0.130 C 
BRANCH   8   9
ATOM      9  N   UNL A   1      31.717  27.852  24.678  1.00  0.00    -0.334 N 
BRANCH   9  10
ATOM     10  C   UNL A   1      31.509  26.883  25.660  1.00  0.00     0.284 C 
ATOM     11  O   UNL A   1      31.962  27.089  26.794  1.00  0.00    -0.268 OA
BRANCH  10  12
ATOM     12  C   UNL A   1      30.735  25.547  25.419  1.00  0.00     0.173 C 
BRANCH  12  13
ATOM     13  C   UNL A   1      30.148  25.547  23.959  1.00  0.00     0.075 C 
ATOM     14  C   UNL A   1      30.175  24.232  23.169  1.00  0.00     0.011 C 
ENDBRANCH  12  13
BRANCH  12  15
ATOM     15  N   UNL A   1      29.598  25.446  26.367  1.00  0.00    -0.345 N 
ATOM     16  H   UNL A   1      28.860  24.877  25.952  1.00  0.00     0.345 HD
ATOM     17  H   UNL A   1      29.237  26.379  26.565  1.00  0.00     0.345 HD
ATOM     18  H   UNL A   1      29.914  25.013  27.233  1.00  0.00     0.345 HD
ENDBRANCH  12  15
BRANCH  12  19
ATOM     19  C   UNL A   1      31.636  24.292  25.559  1.00  0.00     0.075 C 
ATOM     20  C   UNL A   1      31.704  23.701  26.965  1.00  0.00     0.011 C 
ENDBRANCH  12  19
ENDBRANCH  10  12
ENDBRANCH   9  10
BRANCH   9  21
ATOM     21  C   UNL A   1      30.782  28.978  24.695  1.00  0.00     0.079 C 
ATOM     22  C   UNL A   1      31.449  30.226  25.271  1.00  0.00     0.031 C 
ATOM     23  C   UNL A   1      30.062  29.239  23.374  1.00  0.00     0.031 C 
ENDBRANCH   9  21
ENDBRANCH   8   9
ENDBRANCH   7   8
ENDBRANCH   4   7
ENDBRANCH   2   3
ENDBRANCH   1   2
BRANCH   1  24
ATOM     24  C   UNL A   1      35.891  21.998  25.495  1.00  0.00     0.002 C 
BRANCH  24  25
ATOM     25  C   UNL A   1      37.389  22.323  25.542  1.00  0.00     0.002 C 
BRANCH  25  26
ATOM     26  C   UNL A   1      37.924  23.622  26.176  1.00  0.00     0.021 C 
BRANCH  26  27
ATOM     27  C   UNL A   1      39.312  23.621  26.817  1.00  0.00     0.116 C 
BRANCH  27  28
ATOM     28  N   UNL A   1      40.295  24.315  26.008  1.00  0.00    -0.352 N 
ATOM     29  C   UNL A   1      40.828  25.578  26.092  1.00  0.00     0.251 C 
ATOM     30  H   UNL A   1      40.646  23.781  25.258  1.00  0.00     0.163 HD
ATOM     31  O   UNL A   1      41.478  25.989  25.131  1.00  0.00    -0.269 OA
BRANCH  29  32
ATOM     32  C   UNL A   1      40.653  26.464  27.275  1.00  0.00     0.039 A 
ATOM     33  C   UNL A   1      41.394  27.653  27.308  1.00  0.00     0.014 A 
ATOM     34  C   UNL A   1      39.896  26.109  28.395  1.00  0.00     0.014 A 
ATOM     35  C   UNL A   1      41.357  28.486  28.433  1.00  0.00     0.010 A 
ATOM     36  C   UNL A   1      39.820  26.971  29.503  1.00  0.00     0.010 A 
ATOM     37  C   UNL A   1      40.556  28.165  29.541  1.00  0.00    -0.014 A 
BRANCH  37  38
ATOM     38  C   UNL A   1      40.486  29.096  30.706  1.00  0.00     0.031 A 
ATOM     39  C   UNL A   1      39.435  30.175  30.795  1.00  0.00     0.074 A 
ATOM     40  C   UNL A   1      41.379  28.967  31.710  1.00  0.00     0.049 A 
ATOM     41  N   UNL A   1      39.183  31.002  31.781  1.00  0.00    -0.248 NA
ATOM     42  C   UNL A   1      38.567  30.361  29.623  1.00  0.00     0.031 C 
ATOM     43  C   UNL A   1      42.475  27.997  31.744  1.00  0.00     0.029 A 
ATOM     44  N   UNL A   1      41.498  29.643  32.901  1.00  0.00    -0.354 N 
ATOM     45  C   UNL A   1      38.138  31.812  31.347  1.00  0.00     0.074 A 
ATOM     46  C   UNL A   1      37.831  31.400  29.992  1.00  0.00     0.031 C 
ATOM     47  C   UNL A   1      43.124  28.107  32.914  1.00  0.00     0.029 A 
ATOM     48  C   UNL A   1      42.512  29.173  33.702  1.00  0.00     0.049 A 
ATOM     49  H   UNL A   1      40.913  30.392  33.156  1.00  0.00     0.167 HD
ATOM     50  C   UNL A   1      37.486  32.799  32.012  1.00  0.00     0.031 A 
ATOM     51  C   UNL A   1      42.902  29.540  34.938  1.00  0.00     0.031 A 
ATOM     52  C   UNL A   1      37.785  33.212  33.361  1.00  0.00     0.049 A 
ATOM     53  C   UNL A   1      42.155  30.625  35.662  1.00  0.00     0.074 A 
ATOM     54  C   UNL A   1      37.132  34.155  34.139  1.00  0.00     0.029 A 
ATOM     55  N   UNL A   1      38.828  32.720  34.130  1.00  0.00    -0.354 N 
ATOM     56  N   UNL A   1      41.118  31.320  35.262  1.00  0.00    -0.248 NA
ATOM     57  C   UNL A   1      42.624  30.960  37.014  1.00  0.00     0.031 C 
ATOM     58  C   UNL A   1      37.810  34.268  35.359  1.00  0.00     0.029 A 
ATOM     59  C   UNL A   1      38.853  33.356  35.363  1.00  0.00     0.049 A 
ATOM     60  H   UNL A   1      39.459  32.020  33.844  1.00  0.00     0.167 HD
ATOM     61  C   UNL A   1      40.794  32.159  36.324  1.00  0.00     0.074 A 
ATOM     62  C   UNL A   1      41.735  31.869  37.388  1.00  0.00     0.031 C 
ATOM     63  C   UNL A   1      39.804  33.082  36.410  1.00  0.00     0.031 A 
BRANCH  50  64
ATOM     64  C   UNL A   1      36.383  33.521  31.278  1.00  0.00    -0.014 A 
ATOM     65  C   UNL A   1      35.172  33.847  31.917  1.00  0.00     0.010 A 
ATOM     66  C   UNL A   1      36.573  33.912  29.940  1.00  0.00     0.010 A 
ATOM     67  C   UNL A   1      34.154  34.501  31.217  1.00  0.00     0.020 A 
ATOM     68  C   UNL A   1      35.567  34.590  29.244  1.00  0.00     0.020 A 
ATOM     69  C   UNL A   1      34.354  34.861  29.881  1.00  0.00     0.054 A 
BRANCH  69  70
ATOM     70  S   UNL A   1      33.018  35.709  28.994  1.00  0.00     0.124 S 
ATOM     71  O   UNL A   1      32.368  34.600  28.300  1.00  0.00    -0.237 OA
ATOM     72  O   UNL A   1      32.244  36.313  30.076  1.00  0.00    -0.237 OA
ATOM     73  O   UNL A   1      33.721  36.656  28.131  1.00  0.00    -0.744 OA
ENDBRANCH  69  70
ENDBRANCH  50  64
BRANCH  51  74
ATOM     74  C   UNL A   1      44.036  28.833  35.594  1.00  0.00    -0.014 A 
ATOM     75  C   UNL A   1      45.347  29.326  35.469  1.00  0.00     0.010 A 
ATOM     76  C   UNL A   1      43.809  27.677  36.361  1.00  0.00     0.010 A 
ATOM     77  C   UNL A   1      46.412  28.671  36.093  1.00  0.00     0.020 A 
ATOM     78  C   UNL A   1      44.868  27.034  37.009  1.00  0.00     0.020 A 
ATOM     79  C   UNL A   1      46.165  27.532  36.863  1.00  0.00     0.054 A 
BRANCH  79  80
ATOM     80  S   UNL A   1      47.552  26.739  37.724  1.00  0.00     0.124 S 
ATOM     81  O   UNL A   1      47.163  25.333  37.698  1.00  0.00    -0.237 OA
ATOM     82  O   UNL A   1      48.693  27.098  36.886  1.00  0.00    -0.237 OA
ATOM     83  O   UNL A   1      47.537  27.370  39.043  1.00  0.00    -0.744 OA
ENDBRANCH  79  80
ENDBRANCH  51  74
BRANCH  63  84
ATOM     84  C   UNL A   1      39.677  33.830  37.713  1.00  0.00    -0.014 A 
ATOM     85  C   UNL A   1      40.464  34.964  37.983  1.00  0.00     0.010 A 
ATOM     86  C   UNL A   1      38.762  33.386  38.684  1.00  0.00     0.010 A 
ATOM     87  C   UNL A   1      40.379  35.605  39.223  1.00  0.00     0.020 A 
ATOM     88  C   UNL A   1      38.654  34.040  39.914  1.00  0.00     0.020 A 
ATOM     89  C   UNL A   1      39.483  35.131  40.185  1.00  0.00     0.054 A 
BRANCH  89  90
ATOM     90  S   UNL A   1      39.394  35.971  41.792  1.00  0.00     0.124 S 
ATOM     91  O   UNL A   1      38.092  35.536  42.289  1.00  0.00    -0.237 OA
ATOM     92  O   UNL A   1      40.550  35.431  42.504  1.00  0.00    -0.237 OA
ATOM     93  O   UNL A   1      39.489  37.387  41.447  1.00  0.00    -0.744 OA
ENDBRANCH  89  90
ENDBRANCH  63  84
ENDBRANCH  37  38
ENDBRANCH  29  32
ENDBRANCH  27  28
ENDBRANCH  26  27
ENDBRANCH  25  26
ENDBRANCH  24  25
ENDBRANCH   1  24
TORSDOF 24
ENDMDL
MODEL 3
REMARK VINA RESULT:      -8.8      2.900      4.231
REMARK SMILES CCC([NH3+])(CC)C(=O)N(CCC(=O)NCCCCCCNC(=O)c1ccc(-c2c3nc(c(-c4ccc(S(=O)(=O)[O-])cc4)c4ccc([nH]4)c(-c4ccc(S(=O)(=O)[O-])cc4)c4nc(c(-c5ccc(S(=O)(=O)[O-])cc5)c5ccc2[nH]5)C=C4)C=C3)cc1)C(C)C
REMARK SMILES IDX 16 1 15 2 14 3 12 4 13 5 11 7 10 8 9 9 7 10 8 11 3 12 2 13
REMARK SMILES IDX 1 14 4 15 5 19 6 20 84 21 85 22 86 23 17 24 18 25 19 26
REMARK SMILES IDX 20 27 21 28 22 29 23 31 24 32 25 33 83 34 26 35 82 36 27 37
REMARK SMILES IDX 28 38 29 39 76 40 30 41 81 42 75 43 77 44 31 45 80 46 74 47
REMARK SMILES IDX 73 48 32 50 62 51 43 52 61 53 44 54 47 55 60 56 78 57 45 58
REMARK SMILES IDX 46 59 59 61 79 62 48 63 33 64 34 65 42 66 35 67 41 68 36 69
REMARK SMILES IDX 37 70 38 71 39 72 40 73 63 74 64 75 72 76 65 77 71 78 66 79
REMARK SMILES IDX 67 80 68 81 69 82 70 83 49 84 50 85 58 86 51 87 57 88 52 89
REMARK SMILES IDX 53 90 54 91 55 92 56 93
REMARK H PARENT 14 6 4 16 4 17 4 18 21 30 77 49 47 60
REMARK Flexibility Score: inf
ROOT
ATOM      1  C   UNL A   1      38.829  22.695  26.073  1.00  0.00     0.021 C 
ENDROOT
BRANCH   1   2
ATOM      2  C   UNL A   1      37.969  21.564  25.476  1.00  0.00     0.116 C 
BRANCH   2   3
ATOM      3  N   UNL A   1      37.319  22.012  24.235  1.00  0.00    -0.356 N 
ATOM      4  C   UNL A   1      36.430  22.995  23.916  1.00  0.00     0.221 C 
ATOM      5  O   UNL A   1      36.049  23.051  22.742  1.00  0.00    -0.275 OA
ATOM      6  H   UNL A   1      37.589  21.479  23.452  1.00  0.00     0.163 HD
BRANCH   4   7
ATOM      7  C   UNL A   1      35.907  24.003  24.925  1.00  0.00     0.121 C 
BRANCH   7   8
ATOM      8  C   UNL A   1      34.889  23.366  25.903  1.00  0.00     0.130 C 
BRANCH   8   9
ATOM      9  N   UNL A   1      33.501  23.367  25.390  1.00  0.00    -0.334 N 
BRANCH   9  10
ATOM     10  C   UNL A   1      32.906  24.152  24.402  1.00  0.00     0.284 C 
ATOM     11  O   UNL A   1      32.735  23.656  23.279  1.00  0.00    -0.268 OA
BRANCH  10  12
ATOM     12  C   UNL A   1      32.438  25.627  24.622  1.00  0.00     0.173 C 
BRANCH  12  13
ATOM     13  C   UNL A   1      33.528  26.606  24.047  1.00  0.00     0.075 C 
ATOM     14  C   UNL A   1      33.320  27.170  22.636  1.00  0.00     0.011 C 
ENDBRANCH  12  13
BRANCH  12  15
ATOM     15  N   UNL A   1      32.302  25.900  26.074  1.00  0.00    -0.345 N 
ATOM     16  H   UNL A   1      32.998  26.590  26.356  1.00  0.00     0.345 HD
ATOM     17  H   UNL A   1      32.448  25.037  26.597  1.00  0.00     0.345 HD
ATOM     18  H   UNL A   1      31.368  26.261  26.267  1.00  0.00     0.345 HD
ENDBRANCH  12  15
BRANCH  12  19
ATOM     19  C   UNL A   1      31.099  25.949  23.909  1.00  0.00     0.075 C 
ATOM     20  C   UNL A   1      29.928  26.250  24.841  1.00  0.00     0.011 C 
ENDBRANCH  12  19
ENDBRANCH  10  12
ENDBRANCH   9  10
BRANCH   9  21
ATOM     21  C   UNL A   1      32.600  22.453  26.095  1.00  0.00     0.079 C 
ATOM     22  C   UNL A   1      32.816  22.540  27.605  1.00  0.00     0.031 C 
ATOM     23  C   UNL A   1      31.131  22.558  25.693  1.00  0.00     0.031 C 
ENDBRANCH   9  21
ENDBRANCH   8   9
ENDBRANCH   7   8
ENDBRANCH   4   7
ENDBRANCH   2   3
ENDBRANCH   1   2
BRANCH   1  24
ATOM     24  C   UNL A   1      40.149  22.328  26.764  1.00  0.00     0.002 C 
BRANCH  24  25
ATOM     25  C   UNL A   1      40.529  20.868  27.041  1.00  0.00     0.002 C 
BRANCH  25  26
ATOM     26  C   UNL A   1      41.255  20.000  25.995  1.00  0.00     0.021 C 
BRANCH  26  27
ATOM     27  C   UNL A   1      42.741  19.694  26.184  1.00  0.00     0.116 C 
BRANCH  27  28
ATOM     28  N   UNL A   1      43.560  20.255  25.127  1.00  0.00    -0.352 N 
ATOM     29  C   UNL A   1      43.932  21.545  24.840  1.00  0.00     0.251 C 
ATOM     30  H   UNL A   1      43.915  19.585  24.498  1.00  0.00     0.163 HD
ATOM     31  O   UNL A   1      44.446  21.760  23.742  1.00  0.00    -0.269 OA
BRANCH  29  32
ATOM     32  C   UNL A   1      43.740  22.682  25.780  1.00  0.00     0.039 A 
ATOM     33  C   UNL A   1      43.806  22.407  27.152  1.00  0.00     0.014 A 
ATOM     34  C   UNL A   1      43.370  23.966  25.366  1.00  0.00     0.014 A 
ATOM     35  C   UNL A   1      43.535  23.406  28.095  1.00  0.00     0.010 A 
ATOM     36  C   UNL A   1      43.148  24.980  26.314  1.00  0.00     0.010 A 
ATOM     37  C   UNL A   1      43.218  24.712  27.689  1.00  0.00    -0.014 A 
BRANCH  37  38
ATOM     38  C   UNL A   1      42.989  25.776  28.712  1.00  0.00     0.031 A 
ATOM     39  C   UNL A   1      44.040  26.129  29.734  1.00  0.00     0.074 A 
ATOM     40  C   UNL A   1      41.817  26.444  28.720  1.00  0.00     0.049 A 
ATOM     41  N   UNL A   1      44.033  27.089  30.628  1.00  0.00    -0.248 NA
ATOM     42  C   UNL A   1      45.247  25.289  29.770  1.00  0.00     0.031 C 
ATOM     43  C   UNL A   1      40.693  26.185  27.818  1.00  0.00     0.029 A 
ATOM     44  N   UNL A   1      41.381  27.488  29.501  1.00  0.00    -0.354 N 
ATOM     45  C   UNL A   1      45.222  26.964  31.339  1.00  0.00     0.074 A 
ATOM     46  C   UNL A   1      45.909  25.809  30.795  1.00  0.00     0.031 C 
ATOM     47  C   UNL A   1      39.718  27.074  28.064  1.00  0.00     0.029 A 
ATOM     48  C   UNL A   1      40.132  27.948  29.158  1.00  0.00     0.049 A 
ATOM     49  H   UNL A   1      41.913  27.870  30.235  1.00  0.00     0.167 HD
ATOM     50  C   UNL A   1      45.707  27.739  32.342  1.00  0.00     0.031 A 
ATOM     51  C   UNL A   1      39.401  28.967  29.651  1.00  0.00     0.031 A 
ATOM     52  C   UNL A   1      45.031  28.891  32.885  1.00  0.00     0.049 A 
ATOM     53  C   UNL A   1      39.964  29.822  30.751  1.00  0.00     0.074 A 
ATOM     54  C   UNL A   1      45.476  29.776  33.854  1.00  0.00     0.029 A 
ATOM     55  N   UNL A   1      43.761  29.313  32.519  1.00  0.00    -0.354 N 
ATOM     56  N   UNL A   1      41.127  29.735  31.351  1.00  0.00    -0.248 NA
ATOM     57  C   UNL A   1      39.120  30.927  31.226  1.00  0.00     0.031 C 
ATOM     58  C   UNL A   1      44.458  30.703  34.109  1.00  0.00     0.029 A 
ATOM     59  C   UNL A   1      43.398  30.429  33.260  1.00  0.00     0.049 A 
ATOM     60  H   UNL A   1      43.200  28.884  31.834  1.00  0.00     0.167 HD
ATOM     61  C   UNL A   1      41.164  30.788  32.259  1.00  0.00     0.074 A 
ATOM     62  C   UNL A   1      39.914  31.508  32.113  1.00  0.00     0.031 C 
ATOM     63  C   UNL A   1      42.146  31.130  33.129  1.00  0.00     0.031 A 
BRANCH  50  64
ATOM     64  C   UNL A   1      47.040  27.355  32.936  1.00  0.00    -0.014 A 
ATOM     65  C   UNL A   1      48.243  27.882  32.431  1.00  0.00     0.010 A 
ATOM     66  C   UNL A   1      47.089  26.483  34.038  1.00  0.00     0.010 A 
ATOM     67  C   UNL A   1      49.471  27.503  32.983  1.00  0.00     0.020 A 
ATOM     68  C   UNL A   1      48.312  26.120  34.610  1.00  0.00     0.020 A 
ATOM     69  C   UNL A   1      49.498  26.616  34.064  1.00  0.00     0.054 A 
BRANCH  69  70
ATOM     70  S   UNL A   1      51.103  26.138  34.762  1.00  0.00     0.124 S 
ATOM     71  O   UNL A   1      51.481  25.017  33.904  1.00  0.00    -0.237 OA
ATOM     72  O   UNL A   1      51.901  27.350  34.598  1.00  0.00    -0.237 OA
ATOM     73  O   UNL A   1      50.789  25.785  36.145  1.00  0.00    -0.744 OA
ENDBRANCH  69  70
ENDBRANCH  50  64
BRANCH  51  74
ATOM     74  C   UNL A   1      38.065  29.266  29.067  1.00  0.00    -0.014 A 
ATOM     75  C   UNL A   1      37.949  29.641  27.716  1.00  0.00     0.010 A 
ATOM     76  C   UNL A   1      36.902  29.158  29.850  1.00  0.00     0.010 A 
ATOM     77  C   UNL A   1      36.695  29.910  27.161  1.00  0.00     0.020 A 
ATOM     78  C   UNL A   1      35.644  29.401  29.292  1.00  0.00     0.020 A 
ATOM     79  C   UNL A   1      35.550  29.784  27.952  1.00  0.00     0.054 A 
BRANCH  79  80
ATOM     80  S   UNL A   1      33.926  30.068  27.192  1.00  0.00     0.124 S 
ATOM     81  O   UNL A   1      33.697  31.479  27.483  1.00  0.00    -0.237 OA
ATOM     82  O   UNL A   1      34.171  29.741  25.790  1.00  0.00    -0.237 OA
ATOM     83  O   UNL A   1      33.053  29.131  27.897  1.00  0.00    -0.744 OA
ENDBRANCH  79  80
ENDBRANCH  51  74
BRANCH  63  84
ATOM     84  C   UNL A   1      41.913  32.354  33.978  1.00  0.00    -0.014 A 
ATOM     85  C   UNL A   1      41.277  32.263  35.230  1.00  0.00     0.010 A 
ATOM     86  C   UNL A   1      42.330  33.613  33.512  1.00  0.00     0.010 A 
ATOM     87  C   UNL A   1      41.011  33.418  35.973  1.00  0.00     0.020 A 
ATOM     88  C   UNL A   1      42.091  34.767  34.264  1.00  0.00     0.020 A 
ATOM     89  C   UNL A   1      41.409  34.664  35.479  1.00  0.00     0.054 A 
BRANCH  89  90
ATOM     90  S   UNL A   1      41.046  36.152  36.453  1.00  0.00     0.124 S 
ATOM     91  O   UNL A   1      40.894  35.603  37.798  1.00  0.00    -0.237 OA
ATOM     92  O   UNL A   1      42.234  36.975  36.242  1.00  0.00    -0.237 OA
ATOM     93  O   UNL A   1      39.822  36.670  35.848  1.00  0.00    -0.744 OA
ENDBRANCH  89  90
ENDBRANCH  63  84
ENDBRANCH  37  38
ENDBRANCH  29  32
ENDBRANCH  27  28
ENDBRANCH  26  27
ENDBRANCH  25  26
ENDBRANCH  24  25
ENDBRANCH   1  24
TORSDOF 24
ENDMDL
