MODEL 1
REMARK VINA RESULT:     -12.9      0.000      0.000
REMARK SMILES Cc1ccc(S(=O)(=O)Nc2ccccn2)cc1C(=O)NCCCCCCNC(=O)c1ccc(-c2c3nc(c(-c4ccc(S(=O)(=O)[O-])cc4)c4ccc([nH]4)c(-c4ccc(S(=O)(=O)[O-])cc4)c4nc(c(-c5ccc(S(=O)(=O)[O-])cc5)c5ccc2[nH]5)C=C4)C=C3)cc1
REMARK SMILES IDX 23 1 22 2 21 3 20 4 18 5 19 6 17 8 1 9 2 10 3 11 4 12 16 13
REMARK SMILES IDX 5 14 6 15 7 16 8 17 9 18 10 20 11 21 15 22 12 23 14 24 13 25
REMARK SMILES IDX 24 26 25 27 26 28 27 29 28 30 29 32 30 33 31 34 89 35 32 36
REMARK SMILES IDX 88 37 33 38 34 39 35 40 82 41 36 42 87 43 81 44 83 45 37 46
REMARK SMILES IDX 86 47 80 48 79 49 38 51 68 52 49 53 67 54 50 55 53 56 66 57
REMARK SMILES IDX 84 58 51 59 52 60 65 62 85 63 54 64 39 65 40 66 48 67 41 68
REMARK SMILES IDX 47 69 42 70 43 71 44 72 45 73 46 74 69 75 70 76 78 77 71 78
REMARK SMILES IDX 77 79 72 80 73 81 74 82 75 83 76 84 55 85 56 86 64 87 57 88
REMARK SMILES IDX 63 89 58 90 59 91 60 92 61 93 62 94
REMARK H PARENT 20 7 9 19 27 31 83 50 53 61
REMARK Flexibility Score: inf
ROOT
ATOM      1  C   UNL A   1      31.585  27.950  26.047  1.00  0.00     0.002 C 
ENDROOT
BRANCH   1   2
ATOM      2  C   UNL A   1      30.936  27.185  24.884  1.00  0.00     0.021 C 
BRANCH   2   3
ATOM      3  C   UNL A   1      30.915  27.911  23.533  1.00  0.00     0.116 C 
BRANCH   3   4
ATOM      4  N   UNL A   1      32.250  28.091  23.014  1.00  0.00    -0.352 N 
ATOM      5  C   UNL A   1      33.215  27.289  22.485  1.00  0.00     0.251 C 
ATOM      6  O   UNL A   1      34.164  27.917  21.997  1.00  0.00    -0.269 OA
ATOM      7  H   UNL A   1      32.535  29.034  23.052  1.00  0.00     0.163 HD
BRANCH   5   8
ATOM      8  C   UNL A   1      33.270  25.781  22.409  1.00  0.00     0.044 A 
ATOM      9  C   UNL A   1      32.618  25.327  19.939  1.00  0.00     0.045 C 
ATOM     10  C   UNL A   1      32.996  24.916  21.328  1.00  0.00    -0.038 A 
ATOM     11  C   UNL A   1      32.973  23.516  21.544  1.00  0.00     0.005 A 
ATOM     12  C   UNL A   1      33.015  22.978  22.824  1.00  0.00     0.022 A 
ATOM     13  C   UNL A   1      33.414  25.185  23.693  1.00  0.00     0.036 A 
ATOM     14  C   UNL A   1      33.168  23.828  23.911  1.00  0.00     0.088 A 
BRANCH  14  15
ATOM     15  S   UNL A   1      32.788  23.139  25.511  1.00  0.00     0.263 S 
ATOM     16  O   UNL A   1      32.855  24.240  26.451  1.00  0.00    -0.201 OA
ATOM     17  O   UNL A   1      31.559  22.388  25.346  1.00  0.00    -0.201 OA
BRANCH  15  18
ATOM     18  N   UNL A   1      33.939  22.031  25.934  1.00  0.00    -0.263 N 
ATOM     19  H   UNL A   1      33.630  21.178  26.317  1.00  0.00     0.182 HD
BRANCH  18  20
ATOM     20  C   UNL A   1      35.321  22.212  25.790  1.00  0.00     0.139 A 
ATOM     21  C   UNL A   1      36.036  23.361  26.077  1.00  0.00     0.048 A 
ATOM     22  N   UNL A   1      35.860  21.092  25.268  1.00  0.00    -0.239 NA
ATOM     23  C   UNL A   1      37.380  23.394  25.708  1.00  0.00     0.005 A 
ATOM     24  C   UNL A   1      37.164  21.155  24.927  1.00  0.00     0.113 A 
ATOM     25  C   UNL A   1      37.955  22.275  25.111  1.00  0.00     0.020 A 
ENDBRANCH  18  20
ENDBRANCH  15  18
ENDBRANCH  14  15
ENDBRANCH   5   8
ENDBRANCH   3   4
ENDBRANCH   2   3
ENDBRANCH   1   2
BRANCH   1  26
ATOM     26  C   UNL A   1      33.009  27.535  26.443  1.00  0.00     0.002 C 
BRANCH  26  27
ATOM     27  C   UNL A   1      34.088  28.614  26.322  1.00  0.00     0.021 C 
BRANCH  27  28
ATOM     28  C   UNL A   1      34.258  29.461  27.575  1.00  0.00     0.116 C 
BRANCH  28  29
ATOM     29  N   UNL A   1      35.024  30.676  27.350  1.00  0.00    -0.352 N 
ATOM     30  C   UNL A   1      36.152  30.974  28.097  1.00  0.00     0.251 C 
ATOM     31  H   UNL A   1      34.732  31.303  26.650  1.00  0.00     0.163 HD
ATOM     32  O   UNL A   1      36.360  32.045  28.654  1.00  0.00    -0.269 OA
BRANCH  30  33
ATOM     33  C   UNL A   1      37.146  29.886  28.155  1.00  0.00     0.039 A 
ATOM     34  C   UNL A   1      37.330  29.206  29.362  1.00  0.00     0.014 A 
ATOM     35  C   UNL A   1      38.045  29.748  27.098  1.00  0.00     0.014 A 
ATOM     36  C   UNL A   1      38.498  28.471  29.556  1.00  0.00     0.010 A 
ATOM     37  C   UNL A   1      39.237  29.087  27.324  1.00  0.00     0.010 A 
ATOM     38  C   UNL A   1      39.481  28.478  28.563  1.00  0.00    -0.014 A 
BRANCH  38  39
ATOM     39  C   UNL A   1      40.817  27.918  28.743  1.00  0.00     0.031 A 
ATOM     40  C   UNL A   1      41.088  26.510  28.367  1.00  0.00     0.074 A 
ATOM     41  C   UNL A   1      41.830  28.685  29.203  1.00  0.00     0.049 A 
ATOM     42  N   UNL A   1      42.077  25.810  28.816  1.00  0.00    -0.248 NA
ATOM     43  C   UNL A   1      40.210  25.759  27.475  1.00  0.00     0.031 C 
ATOM     44  C   UNL A   1      43.256  28.364  29.174  1.00  0.00     0.029 A 
ATOM     45  N   UNL A   1      41.759  29.815  30.018  1.00  0.00    -0.354 N 
ATOM     46  C   UNL A   1      42.134  24.650  28.076  1.00  0.00     0.074 A 
ATOM     47  C   UNL A   1      40.912  24.635  27.306  1.00  0.00     0.031 C 
ATOM     48  C   UNL A   1      43.865  29.045  30.156  1.00  0.00     0.029 A 
ATOM     49  C   UNL A   1      42.825  29.703  30.929  1.00  0.00     0.049 A 
ATOM     50  H   UNL A   1      41.097  30.543  29.966  1.00  0.00     0.167 HD
ATOM     51  C   UNL A   1      43.261  23.883  28.097  1.00  0.00     0.031 A 
ATOM     52  C   UNL A   1      42.656  29.606  32.281  1.00  0.00     0.031 A 
ATOM     53  C   UNL A   1      44.254  24.372  29.051  1.00  0.00     0.049 A 
ATOM     54  C   UNL A   1      43.256  28.346  32.884  1.00  0.00     0.074 A 
ATOM     55  C   UNL A   1      45.457  25.051  28.947  1.00  0.00     0.029 A 
ATOM     56  N   UNL A   1      43.923  24.390  30.395  1.00  0.00    -0.354 N 
ATOM     57  N   UNL A   1      43.855  27.410  32.201  1.00  0.00    -0.248 NA
ATOM     58  C   UNL A   1      43.126  27.995  34.301  1.00  0.00     0.031 C 
ATOM     59  C   UNL A   1      45.842  25.479  30.251  1.00  0.00     0.029 A 
ATOM     60  C   UNL A   1      44.874  25.055  31.141  1.00  0.00     0.049 A 
ATOM     61  H   UNL A   1      43.110  23.980  30.771  1.00  0.00     0.167 HD
ATOM     62  C   UNL A   1      44.131  26.350  33.022  1.00  0.00     0.074 A 
ATOM     63  C   UNL A   1      43.672  26.767  34.333  1.00  0.00     0.031 C 
ATOM     64  C   UNL A   1      44.667  25.182  32.572  1.00  0.00     0.031 A 
BRANCH  51  65
ATOM     65  C   UNL A   1      43.545  22.806  27.075  1.00  0.00    -0.014 A 
ATOM     66  C   UNL A   1      42.683  21.694  26.973  1.00  0.00     0.010 A 
ATOM     67  C   UNL A   1      44.664  22.803  26.221  1.00  0.00     0.010 A 
ATOM     68  C   UNL A   1      42.982  20.591  26.158  1.00  0.00     0.020 A 
ATOM     69  C   UNL A   1      44.998  21.691  25.432  1.00  0.00     0.020 A 
ATOM     70  C   UNL A   1      44.161  20.582  25.417  1.00  0.00     0.054 A 
BRANCH  70  71
ATOM     71  S   UNL A   1      44.592  19.105  24.461  1.00  0.00     0.124 S 
ATOM     72  O   UNL A   1      43.605  18.131  24.922  1.00  0.00    -0.237 OA
ATOM     73  O   UNL A   1      44.430  19.565  23.086  1.00  0.00    -0.237 OA
ATOM     74  O   UNL A   1      45.968  18.822  24.864  1.00  0.00    -0.744 OA
ENDBRANCH  70  71
ENDBRANCH  51  65
BRANCH  52  75
ATOM     75  C   UNL A   1      41.431  30.289  32.787  1.00  0.00    -0.014 A 
ATOM     76  C   UNL A   1      40.293  29.491  33.038  1.00  0.00     0.010 A 
ATOM     77  C   UNL A   1      41.519  31.555  33.391  1.00  0.00     0.010 A 
ATOM     78  C   UNL A   1      39.362  29.865  34.010  1.00  0.00     0.020 A 
ATOM     79  C   UNL A   1      40.576  31.938  34.354  1.00  0.00     0.020 A 
ATOM     80  C   UNL A   1      39.553  31.055  34.711  1.00  0.00     0.054 A 
BRANCH  80  81
ATOM     81  S   UNL A   1      38.552  31.350  36.202  1.00  0.00     0.124 S 
ATOM     82  O   UNL A   1      39.482  32.061  37.070  1.00  0.00    -0.237 OA
ATOM     83  O   UNL A   1      37.439  32.146  35.679  1.00  0.00    -0.237 OA
ATOM     84  O   UNL A   1      38.188  30.004  36.631  1.00  0.00    -0.744 OA
ENDBRANCH  80  81
ENDBRANCH  52  75
BRANCH  64  85
ATOM     85  C   UNL A   1      45.003  24.027  33.470  1.00  0.00    -0.014 A 
ATOM     86  C   UNL A   1      46.265  23.897  34.072  1.00  0.00     0.010 A 
ATOM     87  C   UNL A   1      44.087  22.966  33.630  1.00  0.00     0.010 A 
ATOM     88  C   UNL A   1      46.579  22.774  34.849  1.00  0.00     0.020 A 
ATOM     89  C   UNL A   1      44.397  21.834  34.388  1.00  0.00     0.020 A 
ATOM     90  C   UNL A   1      45.638  21.754  35.011  1.00  0.00     0.054 A 
BRANCH  90  91
ATOM     91  S   UNL A   1      46.072  20.293  35.991  1.00  0.00     0.124 S 
ATOM     92  O   UNL A   1      45.186  19.265  35.449  1.00  0.00    -0.237 OA
ATOM     93  O   UNL A   1      47.488  20.130  35.676  1.00  0.00    -0.237 OA
ATOM     94  O   UNL A   1      45.779  20.698  37.363  1.00  0.00    -0.744 OA
ENDBRANCH  90  91
ENDBRANCH  64  85
ENDBRANCH  38  39
ENDBRANCH  30  33
ENDBRANCH  28  29
ENDBRANCH  27  28
ENDBRANCH  26  27
ENDBRANCH   1  26
TORSDOF 19
ENDMDL
MODEL 2
REMARK VINA RESULT:     -12.8      4.776     11.142
REMARK SMILES Cc1ccc(S(=O)(=O)Nc2ccccn2)cc1C(=O)NCCCCCCNC(=O)c1ccc(-c2c3nc(c(-c4ccc(S(=O)(=O)[O-])cc4)c4ccc([nH]4)c(-c4ccc(S(=O)(=O)[O-])cc4)c4nc(c(-c5ccc(S(=O)(=O)[O-])cc5)c5ccc2[nH]5)C=C4)C=C3)cc1
REMARK SMILES IDX 23 1 22 2 21 3 20 4 18 5 19 6 17 8 1 9 2 10 3 11 4 12 16 13
REMARK SMILES IDX 5 14 6 15 7 16 8 17 9 18 10 20 11 21 15 22 12 23 14 24 13 25
REMARK SMILES IDX 24 26 25 27 26 28 27 29 28 30 29 32 30 33 31 34 89 35 32 36
REMARK SMILES IDX 88 37 33 38 34 39 35 40 82 41 36 42 87 43 81 44 83 45 37 46
REMARK SMILES IDX 86 47 80 48 79 49 38 51 68 52 49 53 67 54 50 55 53 56 66 57
REMARK SMILES IDX 84 58 51 59 52 60 65 62 85 63 54 64 39 65 40 66 48 67 41 68
REMARK SMILES IDX 47 69 42 70 43 71 44 72 45 73 46 74 69 75 70 76 78 77 71 78
REMARK SMILES IDX 77 79 72 80 73 81 74 82 75 83 76 84 55 85 56 86 64 87 57 88
REMARK SMILES IDX 63 89 58 90 59 91 60 92 61 93 62 94
REMARK H PARENT 20 7 9 19 27 31 83 50 53 61
REMARK Flexibility Score: inf
ROOT
ATOM      1  C   UNL A   1      34.958  21.993  25.802  1.00  0.00     0.002 C 
ENDROOT
BRANCH   1   2
ATOM      2  C   UNL A   1      34.222  21.837  27.141  1.00  0.00     0.021 C 
BRANCH   2   3
ATOM      3  C   UNL A   1      33.229  22.951  27.494  1.00  0.00     0.116 C 
BRANCH   3   4
ATOM      4  N   UNL A   1      31.882  22.591  27.123  1.00  0.00    -0.352 N 
ATOM      5  C   UNL A   1      31.209  22.367  25.960  1.00  0.00     0.251 C 
ATOM      6  O   UNL A   1      30.077  21.896  26.129  1.00  0.00    -0.269 OA
ATOM      7  H   UNL A   1      31.301  22.478  27.911  1.00  0.00     0.163 HD
BRANCH   5   8
ATOM      8  C   UNL A   1      31.656  22.602  24.536  1.00  0.00     0.044 A 
ATOM      9  C   UNL A   1      32.433  20.238  23.802  1.00  0.00     0.045 C 
ATOM     10  C   UNL A   1      32.206  21.703  23.597  1.00  0.00    -0.038 A 
ATOM     11  C   UNL A   1      32.690  22.197  22.360  1.00  0.00     0.005 A 
ATOM     12  C   UNL A   1      32.823  23.559  22.123  1.00  0.00     0.022 A 
ATOM     13  C   UNL A   1      31.711  23.987  24.214  1.00  0.00     0.036 A 
ATOM     14  C   UNL A   1      32.392  24.459  23.089  1.00  0.00     0.088 A 
BRANCH  14  15
ATOM     15  S   UNL A   1      32.972  26.136  22.918  1.00  0.00     0.263 S 
ATOM     16  O   UNL A   1      33.968  26.114  21.867  1.00  0.00    -0.201 OA
ATOM     17  O   UNL A   1      31.787  26.962  22.791  1.00  0.00    -0.201 OA
BRANCH  15  18
ATOM     18  N   UNL A   1      33.709  26.621  24.317  1.00  0.00    -0.263 N 
ATOM     19  H   UNL A   1      34.522  26.138  24.593  1.00  0.00     0.182 HD
BRANCH  18  20
ATOM     20  C   UNL A   1      33.266  27.664  25.140  1.00  0.00     0.139 A 
ATOM     21  C   UNL A   1      33.245  29.011  24.824  1.00  0.00     0.048 A 
ATOM     22  N   UNL A   1      32.902  27.158  26.335  1.00  0.00    -0.239 NA
ATOM     23  C   UNL A   1      32.922  29.907  25.842  1.00  0.00     0.005 A 
ATOM     24  C   UNL A   1      32.590  28.052  27.297  1.00  0.00     0.113 A 
ATOM     25  C   UNL A   1      32.599  29.422  27.106  1.00  0.00     0.020 A 
ENDBRANCH  18  20
ENDBRANCH  15  18
ENDBRANCH  14  15
ENDBRANCH   5   8
ENDBRANCH   3   4
ENDBRANCH   2   3
ENDBRANCH   1   2
BRANCH   1  26
ATOM     26  C   UNL A   1      36.375  21.410  25.715  1.00  0.00     0.002 C 
BRANCH  26  27
ATOM     27  C   UNL A   1      37.413  22.258  24.977  1.00  0.00     0.021 C 
BRANCH  27  28
ATOM     28  C   UNL A   1      37.974  23.406  25.805  1.00  0.00     0.116 C 
BRANCH  28  29
ATOM     29  N   UNL A   1      39.049  23.002  26.697  1.00  0.00    -0.352 N 
ATOM     30  C   UNL A   1      40.140  23.821  26.939  1.00  0.00     0.251 C 
ATOM     31  H   UNL A   1      38.999  22.124  27.140  1.00  0.00     0.163 HD
ATOM     32  O   UNL A   1      41.310  23.466  26.866  1.00  0.00    -0.269 OA
BRANCH  30  33
ATOM     33  C   UNL A   1      39.790  25.197  27.339  1.00  0.00     0.039 A 
ATOM     34  C   UNL A   1      40.319  26.264  26.610  1.00  0.00     0.014 A 
ATOM     35  C   UNL A   1      39.167  25.395  28.570  1.00  0.00     0.014 A 
ATOM     36  C   UNL A   1      40.334  27.535  27.181  1.00  0.00     0.010 A 
ATOM     37  C   UNL A   1      39.258  26.638  29.167  1.00  0.00     0.010 A 
ATOM     38  C   UNL A   1      39.871  27.701  28.489  1.00  0.00    -0.014 A 
BRANCH  38  39
ATOM     39  C   UNL A   1      40.028  28.935  29.254  1.00  0.00     0.031 A 
ATOM     40  C   UNL A   1      39.008  30.006  29.150  1.00  0.00     0.074 A 
ATOM     41  C   UNL A   1      41.071  29.094  30.099  1.00  0.00     0.049 A 
ATOM     42  N   UNL A   1      39.215  31.244  29.457  1.00  0.00    -0.248 NA
ATOM     43  C   UNL A   1      37.667  29.757  28.634  1.00  0.00     0.031 C 
ATOM     44  C   UNL A   1      41.217  30.126  31.124  1.00  0.00     0.029 A 
ATOM     45  N   UNL A   1      42.330  28.498  30.042  1.00  0.00    -0.354 N 
ATOM     46  C   UNL A   1      37.994  31.881  29.455  1.00  0.00     0.074 A 
ATOM     47  C   UNL A   1      37.076  30.932  28.869  1.00  0.00     0.031 C 
ATOM     48  C   UNL A   1      42.526  30.306  31.359  1.00  0.00     0.029 A 
ATOM     49  C   UNL A   1      43.250  29.504  30.389  1.00  0.00     0.049 A 
ATOM     50  H   UNL A   1      42.534  27.564  29.805  1.00  0.00     0.167 HD
ATOM     51  C   UNL A   1      37.858  33.095  30.060  1.00  0.00     0.031 A 
ATOM     52  C   UNL A   1      44.225  29.960  29.547  1.00  0.00     0.031 A 
ATOM     53  C   UNL A   1      39.131  33.626  30.544  1.00  0.00     0.049 A 
ATOM     54  C   UNL A   1      44.144  31.452  29.268  1.00  0.00     0.074 A 
ATOM     55  C   UNL A   1      39.724  33.758  31.789  1.00  0.00     0.029 A 
ATOM     56  N   UNL A   1      40.123  33.902  29.619  1.00  0.00    -0.354 N 
ATOM     57  N   UNL A   1      43.226  32.247  29.747  1.00  0.00    -0.248 NA
ATOM     58  C   UNL A   1      45.037  32.143  28.334  1.00  0.00     0.031 C 
ATOM     59  C   UNL A   1      41.090  34.117  31.596  1.00  0.00     0.029 A 
ATOM     60  C   UNL A   1      41.319  34.205  30.236  1.00  0.00     0.049 A 
ATOM     61  H   UNL A   1      39.991  33.885  28.643  1.00  0.00     0.167 HD
ATOM     62  C   UNL A   1      43.350  33.485  29.176  1.00  0.00     0.074 A 
ATOM     63  C   UNL A   1      44.509  33.380  28.310  1.00  0.00     0.031 C 
ATOM     64  C   UNL A   1      42.472  34.500  29.405  1.00  0.00     0.031 A 
BRANCH  51  65
ATOM     65  C   UNL A   1      36.516  33.698  30.408  1.00  0.00    -0.014 A 
ATOM     66  C   UNL A   1      35.605  34.017  29.379  1.00  0.00     0.010 A 
ATOM     67  C   UNL A   1      36.109  34.018  31.717  1.00  0.00     0.010 A 
ATOM     68  C   UNL A   1      34.417  34.721  29.627  1.00  0.00     0.020 A 
ATOM     69  C   UNL A   1      34.945  34.759  31.977  1.00  0.00     0.020 A 
ATOM     70  C   UNL A   1      34.111  35.120  30.926  1.00  0.00     0.054 A 
BRANCH  70  71
ATOM     71  S   UNL A   1      32.634  36.128  31.217  1.00  0.00     0.124 S 
ATOM     72  O   UNL A   1      33.190  37.334  31.828  1.00  0.00    -0.237 OA
ATOM     73  O   UNL A   1      32.098  36.292  29.870  1.00  0.00    -0.237 OA
ATOM     74  O   UNL A   1      31.825  35.304  32.113  1.00  0.00    -0.744 OA
ENDBRANCH  70  71
ENDBRANCH  51  65
BRANCH  52  75
ATOM     75  C   UNL A   1      44.707  28.940  28.572  1.00  0.00    -0.014 A 
ATOM     76  C   UNL A   1      44.047  28.863  27.326  1.00  0.00     0.010 A 
ATOM     77  C   UNL A   1      45.994  28.391  28.694  1.00  0.00     0.010 A 
ATOM     78  C   UNL A   1      44.727  28.420  26.188  1.00  0.00     0.020 A 
ATOM     79  C   UNL A   1      46.670  27.930  27.556  1.00  0.00     0.020 A 
ATOM     80  C   UNL A   1      46.058  28.024  26.303  1.00  0.00     0.054 A 
BRANCH  80  81
ATOM     81  S   UNL A   1      47.027  27.799  24.779  1.00  0.00     0.124 S 
ATOM     82  O   UNL A   1      46.511  26.538  24.261  1.00  0.00    -0.237 OA
ATOM     83  O   UNL A   1      46.676  28.993  24.006  1.00  0.00    -0.237 OA
ATOM     84  O   UNL A   1      48.404  27.770  25.260  1.00  0.00    -0.744 OA
ENDBRANCH  80  81
ENDBRANCH  52  75
BRANCH  64  85
ATOM     85  C   UNL A   1      42.618  35.869  28.809  1.00  0.00    -0.014 A 
ATOM     86  C   UNL A   1      43.044  36.970  29.571  1.00  0.00     0.010 A 
ATOM     87  C   UNL A   1      42.205  36.112  27.482  1.00  0.00     0.010 A 
ATOM     88  C   UNL A   1      43.105  38.253  29.011  1.00  0.00     0.020 A 
ATOM     89  C   UNL A   1      42.245  37.390  26.920  1.00  0.00     0.020 A 
ATOM     90  C   UNL A   1      42.715  38.453  27.685  1.00  0.00     0.054 A 
BRANCH  90  91
ATOM     91  S   UNL A   1      42.768  40.123  26.985  1.00  0.00     0.124 S 
ATOM     92  O   UNL A   1      41.365  40.390  26.676  1.00  0.00    -0.237 OA
ATOM     93  O   UNL A   1      43.322  40.895  28.094  1.00  0.00    -0.237 OA
ATOM     94  O   UNL A   1      43.640  39.984  25.822  1.00  0.00    -0.744 OA
ENDBRANCH  90  91
ENDBRANCH  64  85
ENDBRANCH  38  39
ENDBRANCH  30  33
ENDBRANCH  28  29
ENDBRANCH  27  28
ENDBRANCH  26  27
ENDBRANCH   1  26
TORSDOF 19
ENDMDL
MODEL 3
REMARK VINA RESULT:     -12.5      4.824     11.393
REMARK SMILES Cc1ccc(S(=O)(=O)Nc2ccccn2)cc1C(=O)NCCCCCCNC(=O)c1ccc(-c2c3nc(c(-c4ccc(S(=O)(=O)[O-])cc4)c4ccc([nH]4)c(-c4ccc(S(=O)(=O)[O-])cc4)c4nc(c(-c5ccc(S(=O)(=O)[O-])cc5)c5ccc2[nH]5)C=C4)C=C3)cc1
REMARK SMILES IDX 23 1 22 2 21 3 20 4 18 5 19 6 17 8 1 9 2 10 3 11 4 12 16 13
REMARK SMILES IDX 5 14 6 15 7 16 8 17 9 18 10 20 11 21 15 22 12 23 14 24 13 25
REMARK SMILES IDX 24 26 25 27 26 28 27 29 28 30 29 32 30 33 31 34 89 35 32 36
REMARK SMILES IDX 88 37 33 38 34 39 35 40 82 41 36 42 87 43 81 44 83 45 37 46
REMARK SMILES IDX 86 47 80 48 79 49 38 51 68 52 49 53 67 54 50 55 53 56 66 57
REMARK SMILES IDX 84 58 51 59 52 60 65 62 85 63 54 64 39 65 40 66 48 67 41 68
REMARK SMILES IDX 47 69 42 70 43 71 44 72 45 73 46 74 69 75 70 76 78 77 71 78
REMARK SMILES IDX 77 79 72 80 73 81 74 82 75 83 76 84 55 85 56 86 64 87 57 88
REMARK SMILES IDX 63 89 58 90 59 91 60 92 61 93 62 94
REMARK H PARENT 20 7 9 19 27 31 83 50 53 61
REMARK Flexibility Score: inf
ROOT
ATOM      1  C   UNL A   1      35.501  22.094  25.039  1.00  0.00     0.002 C 
ENDROOT
BRANCH   1   2
ATOM      2  C   UNL A   1      34.470  21.667  23.984  1.00  0.00     0.021 C 
BRANCH   2   3
ATOM      3  C   UNL A   1      33.112  21.201  24.525  1.00  0.00     0.116 C 
BRANCH   3   4
ATOM      4  N   UNL A   1      32.028  21.950  23.936  1.00  0.00    -0.352 N 
ATOM      5  C   UNL A   1      31.670  23.262  23.854  1.00  0.00     0.251 C 
ATOM      6  O   UNL A   1      30.727  23.467  23.079  1.00  0.00    -0.269 OA
ATOM      7  H   UNL A   1      31.383  21.363  23.477  1.00  0.00     0.163 HD
BRANCH   5   8
ATOM      8  C   UNL A   1      32.263  24.461  24.557  1.00  0.00     0.044 A 
ATOM      9  C   UNL A   1      31.790  23.929  27.052  1.00  0.00     0.045 C 
ATOM     10  C   UNL A   1      32.306  24.777  25.932  1.00  0.00    -0.038 A 
ATOM     11  C   UNL A   1      32.791  26.044  26.340  1.00  0.00     0.005 A 
ATOM     12  C   UNL A   1      33.038  27.058  25.423  1.00  0.00     0.022 A 
ATOM     13  C   UNL A   1      32.626  25.490  23.645  1.00  0.00     0.036 A 
ATOM     14  C   UNL A   1      32.887  26.795  24.068  1.00  0.00     0.088 A 
BRANCH  14  15
ATOM     15  S   UNL A   1      32.798  28.216  22.994  1.00  0.00     0.263 S 
ATOM     16  O   UNL A   1      32.622  29.365  23.859  1.00  0.00    -0.201 OA
ATOM     17  O   UNL A   1      33.945  28.128  22.112  1.00  0.00    -0.201 OA
BRANCH  15  18
ATOM     18  N   UNL A   1      31.470  28.100  22.017  1.00  0.00    -0.263 N 
ATOM     19  H   UNL A   1      31.576  27.627  21.160  1.00  0.00     0.182 HD
BRANCH  18  20
ATOM     20  C   UNL A   1      30.205  28.625  22.313  1.00  0.00     0.139 A 
ATOM     21  C   UNL A   1      29.245  28.051  23.127  1.00  0.00     0.048 A 
ATOM     22  N   UNL A   1      30.034  29.775  21.631  1.00  0.00    -0.239 NA
ATOM     23  C   UNL A   1      27.986  28.651  23.161  1.00  0.00     0.005 A 
ATOM     24  C   UNL A   1      28.807  30.333  21.689  1.00  0.00     0.113 A 
ATOM     25  C   UNL A   1      27.757  29.807  22.420  1.00  0.00     0.020 A 
ENDBRANCH  18  20
ENDBRANCH  15  18
ENDBRANCH  14  15
ENDBRANCH   5   8
ENDBRANCH   3   4
ENDBRANCH   2   3
ENDBRANCH   1   2
BRANCH   1  26
ATOM     26  C   UNL A   1      35.453  23.556  25.506  1.00  0.00     0.002 C 
BRANCH  26  27
ATOM     27  C   UNL A   1      36.678  24.064  26.269  1.00  0.00     0.021 C 
BRANCH  27  28
ATOM     28  C   UNL A   1      38.001  23.518  25.750  1.00  0.00     0.116 C 
BRANCH  28  29
ATOM     29  N   UNL A   1      38.881  23.040  26.804  1.00  0.00    -0.352 N 
ATOM     30  C   UNL A   1      39.962  23.786  27.242  1.00  0.00     0.251 C 
ATOM     31  H   UNL A   1      38.703  22.164  27.215  1.00  0.00     0.163 HD
ATOM     32  O   UNL A   1      41.104  23.360  27.363  1.00  0.00    -0.269 OA
BRANCH  30  33
ATOM     33  C   UNL A   1      39.634  25.178  27.603  1.00  0.00     0.039 A 
ATOM     34  C   UNL A   1      40.187  26.217  26.850  1.00  0.00     0.014 A 
ATOM     35  C   UNL A   1      39.005  25.420  28.824  1.00  0.00     0.014 A 
ATOM     36  C   UNL A   1      40.220  27.502  27.388  1.00  0.00     0.010 A 
ATOM     37  C   UNL A   1      39.113  26.677  29.388  1.00  0.00     0.010 A 
ATOM     38  C   UNL A   1      39.750  27.710  28.687  1.00  0.00    -0.014 A 
BRANCH  38  39
ATOM     39  C   UNL A   1      39.923  28.961  29.420  1.00  0.00     0.031 A 
ATOM     40  C   UNL A   1      38.888  30.020  29.335  1.00  0.00     0.074 A 
ATOM     41  C   UNL A   1      40.996  29.149  30.221  1.00  0.00     0.049 A 
ATOM     42  N   UNL A   1      39.093  31.266  29.608  1.00  0.00    -0.248 NA
ATOM     43  C   UNL A   1      37.530  29.747  28.876  1.00  0.00     0.031 C 
ATOM     44  C   UNL A   1      41.170  30.203  31.219  1.00  0.00     0.029 A 
ATOM     45  N   UNL A   1      42.258  28.564  30.127  1.00  0.00    -0.354 N 
ATOM     46  C   UNL A   1      37.866  31.890  29.641  1.00  0.00     0.074 A 
ATOM     47  C   UNL A   1      36.936  30.920  29.110  1.00  0.00     0.031 C 
ATOM     48  C   UNL A   1      42.485  30.401  31.399  1.00  0.00     0.029 A 
ATOM     49  C   UNL A   1      43.180  29.586  30.418  1.00  0.00     0.049 A 
ATOM     50  H   UNL A   1      42.463  27.627  29.902  1.00  0.00     0.167 HD
ATOM     51  C   UNL A   1      37.740  33.115  30.226  1.00  0.00     0.031 A 
ATOM     52  C   UNL A   1      44.116  30.035  29.530  1.00  0.00     0.031 A 
ATOM     53  C   UNL A   1      39.025  33.669  30.650  1.00  0.00     0.049 A 
ATOM     54  C   UNL A   1      44.008  31.521  29.225  1.00  0.00     0.074 A 
ATOM     55  C   UNL A   1      39.664  33.833  31.868  1.00  0.00     0.029 A 
ATOM     56  N   UNL A   1      39.977  33.936  29.681  1.00  0.00    -0.354 N 
ATOM     57  N   UNL A   1      43.101  32.315  29.723  1.00  0.00    -0.248 NA
ATOM     58  C   UNL A   1      44.857  32.201  28.242  1.00  0.00     0.031 C 
ATOM     59  C   UNL A   1      41.017  34.201  31.615  1.00  0.00     0.029 A 
ATOM     60  C   UNL A   1      41.193  34.263  30.245  1.00  0.00     0.049 A 
ATOM     61  H   UNL A   1      39.808  33.897  28.712  1.00  0.00     0.167 HD
ATOM     62  C   UNL A   1      43.190  33.543  29.122  1.00  0.00     0.074 A 
ATOM     63  C   UNL A   1      44.315  33.431  28.214  1.00  0.00     0.031 C 
ATOM     64  C   UNL A   1      42.309  34.553  29.365  1.00  0.00     0.031 A 
BRANCH  51  65
ATOM     65  C   UNL A   1      36.405  33.712  30.614  1.00  0.00    -0.014 A 
ATOM     66  C   UNL A   1      35.481  34.066  29.610  1.00  0.00     0.010 A 
ATOM     67  C   UNL A   1      36.021  33.991  31.938  1.00  0.00     0.010 A 
ATOM     68  C   UNL A   1      34.299  34.765  29.898  1.00  0.00     0.020 A 
ATOM     69  C   UNL A   1      34.864  34.727  32.240  1.00  0.00     0.020 A 
ATOM     70  C   UNL A   1      34.015  35.124  31.213  1.00  0.00     0.054 A 
BRANCH  70  71
ATOM     71  S   UNL A   1      32.547  36.128  31.559  1.00  0.00     0.124 S 
ATOM     72  O   UNL A   1      31.744  35.237  32.394  1.00  0.00    -0.237 OA
ATOM     73  O   UNL A   1      33.113  37.288  32.237  1.00  0.00    -0.237 OA
ATOM     74  O   UNL A   1      31.990  36.392  30.233  1.00  0.00    -0.744 OA
ENDBRANCH  70  71
ENDBRANCH  51  65
BRANCH  52  75
ATOM     75  C   UNL A   1      44.572  29.000  28.558  1.00  0.00    -0.014 A 
ATOM     76  C   UNL A   1      44.091  29.091  27.233  1.00  0.00     0.010 A 
ATOM     77  C   UNL A   1      45.730  28.247  28.810  1.00  0.00     0.010 A 
ATOM     78  C   UNL A   1      44.851  28.602  26.166  1.00  0.00     0.020 A 
ATOM     79  C   UNL A   1      46.483  27.741  27.742  1.00  0.00     0.020 A 
ATOM     80  C   UNL A   1      46.077  27.993  26.428  1.00  0.00     0.054 A 
BRANCH  80  81
ATOM     81  S   UNL A   1      47.207  27.691  25.034  1.00  0.00     0.124 S 
ATOM     82  O   UNL A   1      48.351  28.531  25.369  1.00  0.00    -0.237 OA
ATOM     83  O   UNL A   1      47.434  26.247  25.123  1.00  0.00    -0.237 OA
ATOM     84  O   UNL A   1      46.428  28.115  23.875  1.00  0.00    -0.744 OA
ENDBRANCH  80  81
ENDBRANCH  52  75
BRANCH  64  85
ATOM     85  C   UNL A   1      42.418  35.911  28.736  1.00  0.00    -0.014 A 
ATOM     86  C   UNL A   1      41.925  36.175  27.447  1.00  0.00     0.010 A 
ATOM     87  C   UNL A   1      43.141  36.936  29.384  1.00  0.00     0.010 A 
ATOM     88  C   UNL A   1      42.102  37.432  26.852  1.00  0.00     0.020 A 
ATOM     89  C   UNL A   1      43.338  38.186  28.792  1.00  0.00     0.020 A 
ATOM     90  C   UNL A   1      42.798  38.433  27.534  1.00  0.00     0.054 A 
BRANCH  90  91
ATOM     91  S   UNL A   1      43.046  40.041  26.738  1.00  0.00     0.124 S 
ATOM     92  O   UNL A   1      43.223  40.942  27.875  1.00  0.00    -0.237 OA
ATOM     93  O   UNL A   1      44.245  39.799  25.939  1.00  0.00    -0.237 OA
ATOM     94  O   UNL A   1      41.817  40.244  25.976  1.00  0.00    -0.744 OA
ENDBRANCH  90  91
ENDBRANCH  64  85
ENDBRANCH  38  39
ENDBRANCH  30  33
ENDBRANCH  28  29
ENDBRANCH  27  28
ENDBRANCH  26  27
ENDBRANCH   1  26
TORSDOF 19
ENDMDL
