MODEL 1
REMARK VINA RESULT:     -11.1      0.000      0.000
REMARK SMILES C[C@@H](C(=O)NCCCCCCNC(=O)c1ccc(-c2c3nc(c(-c4ccc(S(=O)(=O)[O-])cc4)c4ccc([nH]4)c(-c4ccc(S(=O)(=O)[O-])cc4)c4nc(c(-c5ccc(S(=O)(=O)[O-])cc5)c5ccc2[nH]5)C=C4)C=C3)cc1)c1ccccc1-c1ccn(C(F)F)c(=O)c1
REMARK SMILES IDX 8 1 7 2 6 3 5 4 3 5 4 6 2 8 1 9 75 10 76 11 80 12 77 13
REMARK SMILES IDX 79 14 78 15 81 16 82 17 90 18 83 19 88 20 84 21 89 22 85 23
REMARK SMILES IDX 86 24 87 25 9 26 10 27 11 28 12 29 13 30 14 32 15 33 16 34
REMARK SMILES IDX 74 35 17 36 73 37 18 38 19 39 20 40 67 41 21 42 72 43 66 44
REMARK SMILES IDX 68 45 22 46 71 47 65 48 64 49 23 51 53 52 34 53 52 54 35 55
REMARK SMILES IDX 38 56 51 57 69 58 36 59 37 60 50 62 70 63 39 64 24 65 25 66
REMARK SMILES IDX 33 67 26 68 32 69 27 70 28 71 29 72 30 73 31 74 54 75 55 76
REMARK SMILES IDX 63 77 56 78 62 79 57 80 58 81 59 82 60 83 61 84 40 85 41 86
REMARK SMILES IDX 49 87 42 88 48 89 43 90 44 91 45 92 46 93 47 94
REMARK H PARENT 5 7 12 31 68 50 38 61
REMARK Flexibility Score: inf
ROOT
ATOM      1  C   UNL A   1      33.347  24.997  26.066  1.00  0.00     0.002 C 
ENDROOT
BRANCH   1   2
ATOM      2  C   UNL A   1      34.543  24.973  25.098  1.00  0.00     0.021 C 
BRANCH   2   3
ATOM      3  C   UNL A   1      35.786  24.300  25.691  1.00  0.00     0.116 C 
BRANCH   3   4
ATOM      4  N   UNL A   1      36.097  23.130  24.893  1.00  0.00    -0.356 N 
ATOM      5  C   UNL A   1      35.625  21.861  25.089  1.00  0.00     0.227 C 
ATOM      6  O   UNL A   1      36.396  20.921  24.886  1.00  0.00    -0.274 OA
ATOM      7  H   UNL A   1      36.709  23.262  24.133  1.00  0.00     0.163 HD
BRANCH   5   8
ATOM      8  C   UNL A   1      34.161  21.679  25.492  1.00  0.00     0.106 C 
ATOM      9  C   UNL A   1      34.153  21.349  26.995  1.00  0.00     0.023 C 
BRANCH   8  10
ATOM     10  C   UNL A   1      33.444  20.658  24.587  1.00  0.00    -0.028 A 
ATOM     11  C   UNL A   1      33.488  19.283  24.905  1.00  0.00     0.005 A 
ATOM     12  C   UNL A   1      32.708  21.040  23.431  1.00  0.00    -0.014 A 
ATOM     13  C   UNL A   1      32.882  18.318  24.099  1.00  0.00     0.000 A 
ATOM     14  C   UNL A   1      32.129  20.047  22.613  1.00  0.00     0.009 A 
ATOM     15  C   UNL A   1      32.217  18.698  22.943  1.00  0.00     0.001 A 
BRANCH  12  16
ATOM     16  C   UNL A   1      32.456  22.442  23.018  1.00  0.00    -0.011 A 
ATOM     17  C   UNL A   1      33.302  23.179  22.098  1.00  0.00     0.027 A 
ATOM     18  C   UNL A   1      31.343  23.037  23.483  1.00  0.00     0.080 A 
ATOM     19  C   UNL A   1      33.086  24.478  21.863  1.00  0.00     0.095 A 
ATOM     20  C   UNL A   1      31.020  24.448  23.126  1.00  0.00     0.255 A 
ATOM     21  N   UNL A   1      31.992  25.125  22.406  1.00  0.00    -0.258 N 
ATOM     22  O   UNL A   1      29.948  24.916  23.496  1.00  0.00    -0.269 OA
BRANCH  21  23
ATOM     23  C   UNL A   1      31.770  26.524  22.150  1.00  0.00     0.451 C 
ATOM     24  F   UNL A   1      31.153  27.117  23.200  1.00  0.00    -0.185 F 
ATOM     25  F   UNL A   1      32.934  27.180  21.921  1.00  0.00    -0.185 F 
ENDBRANCH  21  23
ENDBRANCH  12  16
ENDBRANCH   8  10
ENDBRANCH   5   8
ENDBRANCH   3   4
ENDBRANCH   2   3
ENDBRANCH   1   2
BRANCH   1  26
ATOM     26  C   UNL A   1      32.515  26.282  26.014  1.00  0.00     0.002 C 
BRANCH  26  27
ATOM     27  C   UNL A   1      33.286  27.515  25.541  1.00  0.00     0.021 C 
BRANCH  27  28
ATOM     28  C   UNL A   1      34.128  28.173  26.627  1.00  0.00     0.116 C 
BRANCH  28  29
ATOM     29  N   UNL A   1      33.827  29.590  26.762  1.00  0.00    -0.352 N 
ATOM     30  C   UNL A   1      34.527  30.542  27.466  1.00  0.00     0.251 C 
ATOM     31  H   UNL A   1      33.023  29.908  26.291  1.00  0.00     0.163 HD
ATOM     32  O   UNL A   1      34.055  31.654  27.657  1.00  0.00    -0.269 OA
BRANCH  30  33
ATOM     33  C   UNL A   1      35.854  30.181  28.006  1.00  0.00     0.039 A 
ATOM     34  C   UNL A   1      35.961  29.738  29.326  1.00  0.00     0.014 A 
ATOM     35  C   UNL A   1      36.979  30.243  27.179  1.00  0.00     0.014 A 
ATOM     36  C   UNL A   1      37.199  29.300  29.804  1.00  0.00     0.010 A 
ATOM     37  C   UNL A   1      38.191  29.743  27.636  1.00  0.00     0.010 A 
ATOM     38  C   UNL A   1      38.315  29.273  28.955  1.00  0.00    -0.014 A 
BRANCH  38  39
ATOM     39  C   UNL A   1      39.643  28.791  29.409  1.00  0.00     0.031 A 
ATOM     40  C   UNL A   1      40.557  29.735  30.139  1.00  0.00     0.074 A 
ATOM     41  C   UNL A   1      40.070  27.560  29.069  1.00  0.00     0.049 A 
ATOM     42  N   UNL A   1      41.813  29.583  30.468  1.00  0.00    -0.248 NA
ATOM     43  C   UNL A   1      39.987  31.040  30.517  1.00  0.00     0.031 C 
ATOM     44  C   UNL A   1      39.288  26.562  28.337  1.00  0.00     0.029 A 
ATOM     45  N   UNL A   1      41.283  26.951  29.271  1.00  0.00    -0.354 N 
ATOM     46  C   UNL A   1      42.195  30.784  31.052  1.00  0.00     0.074 A 
ATOM     47  C   UNL A   1      41.050  31.666  30.997  1.00  0.00     0.031 C 
ATOM     48  C   UNL A   1      40.041  25.465  28.154  1.00  0.00     0.029 A 
ATOM     49  C   UNL A   1      41.370  25.699  28.712  1.00  0.00     0.049 A 
ATOM     50  H   UNL A   1      42.021  27.371  29.770  1.00  0.00     0.167 HD
ATOM     51  C   UNL A   1      43.390  31.120  31.595  1.00  0.00     0.031 A 
ATOM     52  C   UNL A   1      42.407  24.842  28.636  1.00  0.00     0.031 A 
ATOM     53  C   UNL A   1      44.519  30.232  31.658  1.00  0.00     0.049 A 
ATOM     54  C   UNL A   1      43.725  25.225  29.251  1.00  0.00     0.074 A 
ATOM     55  C   UNL A   1      45.756  30.452  32.237  1.00  0.00     0.029 A 
ATOM     56  N   UNL A   1      44.548  28.953  31.122  1.00  0.00    -0.354 N 
ATOM     57  N   UNL A   1      44.057  26.346  29.845  1.00  0.00    -0.248 NA
ATOM     58  C   UNL A   1      44.802  24.228  29.198  1.00  0.00     0.031 C 
ATOM     59  C   UNL A   1      46.548  29.323  32.011  1.00  0.00     0.029 A 
ATOM     60  C   UNL A   1      45.786  28.376  31.343  1.00  0.00     0.049 A 
ATOM     61  H   UNL A   1      43.797  28.519  30.654  1.00  0.00     0.167 HD
ATOM     62  C   UNL A   1      45.372  26.178  30.266  1.00  0.00     0.074 A 
ATOM     63  C   UNL A   1      45.774  24.847  29.857  1.00  0.00     0.031 C 
ATOM     64  C   UNL A   1      46.167  27.045  30.939  1.00  0.00     0.031 A 
BRANCH  51  65
ATOM     65  C   UNL A   1      43.531  32.520  32.133  1.00  0.00    -0.014 A 
ATOM     66  C   UNL A   1      43.326  32.804  33.496  1.00  0.00     0.010 A 
ATOM     67  C   UNL A   1      43.862  33.571  31.258  1.00  0.00     0.010 A 
ATOM     68  C   UNL A   1      43.375  34.122  33.959  1.00  0.00     0.020 A 
ATOM     69  C   UNL A   1      43.945  34.886  31.724  1.00  0.00     0.020 A 
ATOM     70  C   UNL A   1      43.672  35.155  33.067  1.00  0.00     0.054 A 
BRANCH  70  71
ATOM     71  S   UNL A   1      43.700  36.860  33.685  1.00  0.00     0.124 S 
ATOM     72  O   UNL A   1      43.668  37.629  32.443  1.00  0.00    -0.237 OA
ATOM     73  O   UNL A   1      42.487  36.929  34.496  1.00  0.00    -0.237 OA
ATOM     74  O   UNL A   1      44.952  36.937  34.433  1.00  0.00    -0.744 OA
ENDBRANCH  70  71
ENDBRANCH  51  65
BRANCH  52  75
ATOM     75  C   UNL A   1      42.219  23.530  27.959  1.00  0.00    -0.014 A 
ATOM     76  C   UNL A   1      42.540  23.379  26.599  1.00  0.00     0.010 A 
ATOM     77  C   UNL A   1      41.785  22.409  28.690  1.00  0.00     0.010 A 
ATOM     78  C   UNL A   1      42.436  22.129  25.982  1.00  0.00     0.020 A 
ATOM     79  C   UNL A   1      41.703  21.152  28.082  1.00  0.00     0.020 A 
ATOM     80  C   UNL A   1      42.028  21.021  26.731  1.00  0.00     0.054 A 
BRANCH  80  81
ATOM     81  S   UNL A   1      41.995  19.391  25.934  1.00  0.00     0.124 S 
ATOM     82  O   UNL A   1      42.899  19.586  24.805  1.00  0.00    -0.237 OA
ATOM     83  O   UNL A   1      42.487  18.513  26.994  1.00  0.00    -0.237 OA
ATOM     84  O   UNL A   1      40.588  19.208  25.588  1.00  0.00    -0.744 OA
ENDBRANCH  80  81
ENDBRANCH  52  75
BRANCH  64  85
ATOM     85  C   UNL A   1      47.543  26.578  31.332  1.00  0.00    -0.014 A 
ATOM     86  C   UNL A   1      47.804  26.066  32.614  1.00  0.00     0.010 A 
ATOM     87  C   UNL A   1      48.559  26.549  30.359  1.00  0.00     0.010 A 
ATOM     88  C   UNL A   1      49.062  25.536  32.917  1.00  0.00     0.020 A 
ATOM     89  C   UNL A   1      49.809  25.999  30.651  1.00  0.00     0.020 A 
ATOM     90  C   UNL A   1      50.054  25.499  31.932  1.00  0.00     0.054 A 
BRANCH  90  91
ATOM     91  S   UNL A   1      51.646  24.722  32.321  1.00  0.00     0.124 S 
ATOM     92  O   UNL A   1      51.421  23.341  31.902  1.00  0.00    -0.237 OA
ATOM     93  O   UNL A   1      52.584  25.483  31.499  1.00  0.00    -0.237 OA
ATOM     94  O   UNL A   1      51.786  24.920  33.762  1.00  0.00    -0.744 OA
ENDBRANCH  90  91
ENDBRANCH  64  85
ENDBRANCH  38  39
ENDBRANCH  30  33
ENDBRANCH  28  29
ENDBRANCH  27  28
ENDBRANCH  26  27
ENDBRANCH   1  26
TORSDOF 19
ENDMDL
MODEL 2
REMARK VINA RESULT:     -10.6      1.756      2.321
REMARK SMILES C[C@@H](C(=O)NCCCCCCNC(=O)c1ccc(-c2c3nc(c(-c4ccc(S(=O)(=O)[O-])cc4)c4ccc([nH]4)c(-c4ccc(S(=O)(=O)[O-])cc4)c4nc(c(-c5ccc(S(=O)(=O)[O-])cc5)c5ccc2[nH]5)C=C4)C=C3)cc1)c1ccccc1-c1ccn(C(F)F)c(=O)c1
REMARK SMILES IDX 8 1 7 2 6 3 5 4 3 5 4 6 2 8 1 9 75 10 76 11 80 12 77 13
REMARK SMILES IDX 79 14 78 15 81 16 82 17 90 18 83 19 88 20 84 21 89 22 85 23
REMARK SMILES IDX 86 24 87 25 9 26 10 27 11 28 12 29 13 30 14 32 15 33 16 34
REMARK SMILES IDX 74 35 17 36 73 37 18 38 19 39 20 40 67 41 21 42 72 43 66 44
REMARK SMILES IDX 68 45 22 46 71 47 65 48 64 49 23 51 53 52 34 53 52 54 35 55
REMARK SMILES IDX 38 56 51 57 69 58 36 59 37 60 50 62 70 63 39 64 24 65 25 66
REMARK SMILES IDX 33 67 26 68 32 69 27 70 28 71 29 72 30 73 31 74 54 75 55 76
REMARK SMILES IDX 63 77 56 78 62 79 57 80 58 81 59 82 60 83 61 84 40 85 41 86
REMARK SMILES IDX 49 87 42 88 48 89 43 90 44 91 45 92 46 93 47 94
REMARK H PARENT 5 7 12 31 68 50 38 61
REMARK Flexibility Score: inf
ROOT
ATOM      1  C   UNL A   1      33.447  25.304  26.129  1.00  0.00     0.002 C 
ENDROOT
BRANCH   1   2
ATOM      2  C   UNL A   1      34.614  25.043  25.161  1.00  0.00     0.021 C 
BRANCH   2   3
ATOM      3  C   UNL A   1      35.794  24.318  25.818  1.00  0.00     0.116 C 
BRANCH   3   4
ATOM      4  N   UNL A   1      36.116  23.151  25.020  1.00  0.00    -0.356 N 
ATOM      5  C   UNL A   1      35.643  21.881  25.206  1.00  0.00     0.227 C 
ATOM      6  O   UNL A   1      36.417  20.943  25.009  1.00  0.00    -0.274 OA
ATOM      7  H   UNL A   1      36.737  23.286  24.268  1.00  0.00     0.163 HD
BRANCH   5   8
ATOM      8  C   UNL A   1      34.174  21.696  25.590  1.00  0.00     0.106 C 
ATOM      9  C   UNL A   1      34.150  21.320  27.082  1.00  0.00     0.023 C 
BRANCH   8  10
ATOM     10  C   UNL A   1      33.458  20.709  24.647  1.00  0.00    -0.028 A 
ATOM     11  C   UNL A   1      33.585  19.319  24.857  1.00  0.00     0.005 A 
ATOM     12  C   UNL A   1      32.643  21.137  23.563  1.00  0.00    -0.014 A 
ATOM     13  C   UNL A   1      32.983  18.386  24.011  1.00  0.00     0.000 A 
ATOM     14  C   UNL A   1      32.069  20.179  22.702  1.00  0.00     0.009 A 
ATOM     15  C   UNL A   1      32.239  18.815  22.923  1.00  0.00     0.001 A 
BRANCH  12  16
ATOM     16  C   UNL A   1      32.303  22.551  23.271  1.00  0.00    -0.011 A 
ATOM     17  C   UNL A   1      31.155  23.239  23.831  1.00  0.00     0.027 A 
ATOM     18  C   UNL A   1      33.147  23.245  22.487  1.00  0.00     0.080 A 
ATOM     19  C   UNL A   1      30.839  24.477  23.432  1.00  0.00     0.095 A 
ATOM     20  C   UNL A   1      32.874  24.668  22.135  1.00  0.00     0.255 A 
ATOM     21  N   UNL A   1      31.653  25.169  22.556  1.00  0.00    -0.258 N 
ATOM     22  O   UNL A   1      33.720  25.286  21.496  1.00  0.00    -0.269 OA
BRANCH  21  23
ATOM     23  C   UNL A   1      31.302  26.498  22.130  1.00  0.00     0.451 C 
ATOM     24  F   UNL A   1      31.152  26.552  20.785  1.00  0.00    -0.185 F 
ATOM     25  F   UNL A   1      30.144  26.915  22.698  1.00  0.00    -0.185 F 
ENDBRANCH  21  23
ENDBRANCH  12  16
ENDBRANCH   8  10
ENDBRANCH   5   8
ENDBRANCH   3   4
ENDBRANCH   2   3
ENDBRANCH   1   2
BRANCH   1  26
ATOM     26  C   UNL A   1      32.545  26.477  25.735  1.00  0.00     0.002 C 
BRANCH  26  27
ATOM     27  C   UNL A   1      33.294  27.775  25.433  1.00  0.00     0.021 C 
BRANCH  27  28
ATOM     28  C   UNL A   1      34.082  28.325  26.615  1.00  0.00     0.116 C 
BRANCH  28  29
ATOM     29  N   UNL A   1      33.943  29.768  26.735  1.00  0.00    -0.352 N 
ATOM     30  C   UNL A   1      34.724  30.637  27.460  1.00  0.00     0.251 C 
ATOM     31  H   UNL A   1      33.198  30.173  26.235  1.00  0.00     0.163 HD
ATOM     32  O   UNL A   1      34.379  31.798  27.631  1.00  0.00    -0.269 OA
BRANCH  30  33
ATOM     33  C   UNL A   1      35.982  30.129  28.046  1.00  0.00     0.039 A 
ATOM     34  C   UNL A   1      37.182  30.298  27.350  1.00  0.00     0.014 A 
ATOM     35  C   UNL A   1      35.967  29.526  29.306  1.00  0.00     0.014 A 
ATOM     36  C   UNL A   1      38.383  29.910  27.948  1.00  0.00     0.010 A 
ATOM     37  C   UNL A   1      37.168  29.206  29.926  1.00  0.00     0.010 A 
ATOM     38  C   UNL A   1      38.387  29.387  29.250  1.00  0.00    -0.014 A 
BRANCH  38  39
ATOM     39  C   UNL A   1      39.639  28.986  29.937  1.00  0.00     0.031 A 
ATOM     40  C   UNL A   1      40.140  29.809  31.092  1.00  0.00     0.074 A 
ATOM     41  C   UNL A   1      40.379  27.968  29.458  1.00  0.00     0.049 A 
ATOM     42  N   UNL A   1      41.287  29.747  31.716  1.00  0.00    -0.248 NA
ATOM     43  C   UNL A   1      39.241  30.867  31.583  1.00  0.00     0.031 C 
ATOM     44  C   UNL A   1      40.016  27.113  28.326  1.00  0.00     0.029 A 
ATOM     45  N   UNL A   1      41.609  27.500  29.848  1.00  0.00    -0.354 N 
ATOM     46  C   UNL A   1      41.264  30.780  32.645  1.00  0.00     0.074 A 
ATOM     47  C   UNL A   1      40.007  31.477  32.472  1.00  0.00     0.031 C 
ATOM     48  C   UNL A   1      41.000  26.224  28.116  1.00  0.00     0.029 A 
ATOM     49  C   UNL A   1      42.082  26.475  29.065  1.00  0.00     0.049 A 
ATOM     50  H   UNL A   1      42.105  27.863  30.617  1.00  0.00     0.167 HD
ATOM     51  C   UNL A   1      42.200  31.115  33.564  1.00  0.00     0.031 A 
ATOM     52  C   UNL A   1      43.262  25.824  29.089  1.00  0.00     0.031 A 
ATOM     53  C   UNL A   1      43.440  30.408  33.737  1.00  0.00     0.049 A 
ATOM     54  C   UNL A   1      44.288  26.201  30.122  1.00  0.00     0.074 A 
ATOM     55  C   UNL A   1      44.433  30.628  34.675  1.00  0.00     0.029 A 
ATOM     56  N   UNL A   1      43.858  29.343  32.952  1.00  0.00    -0.354 N 
ATOM     57  N   UNL A   1      44.232  27.149  31.026  1.00  0.00    -0.248 NA
ATOM     58  C   UNL A   1      45.529  25.416  30.147  1.00  0.00     0.031 C 
ATOM     59  C   UNL A   1      45.471  29.726  34.429  1.00  0.00     0.029 A 
ATOM     60  C   UNL A   1      45.101  28.904  33.375  1.00  0.00     0.049 A 
ATOM     61  H   UNL A   1      43.346  28.956  32.205  1.00  0.00     0.167 HD
ATOM     62  C   UNL A   1      45.416  27.054  31.750  1.00  0.00     0.074 A 
ATOM     63  C   UNL A   1      46.168  25.957  31.177  1.00  0.00     0.031 C 
ATOM     64  C   UNL A   1      45.833  27.803  32.800  1.00  0.00     0.031 A 
BRANCH  51  65
ATOM     65  C   UNL A   1      41.919  32.317  34.426  1.00  0.00    -0.014 A 
ATOM     66  C   UNL A   1      41.159  32.210  35.606  1.00  0.00     0.010 A 
ATOM     67  C   UNL A   1      42.411  33.578  34.043  1.00  0.00     0.010 A 
ATOM     68  C   UNL A   1      40.834  33.351  36.345  1.00  0.00     0.020 A 
ATOM     69  C   UNL A   1      42.117  34.717  34.798  1.00  0.00     0.020 A 
ATOM     70  C   UNL A   1      41.305  34.599  35.928  1.00  0.00     0.054 A 
BRANCH  70  71
ATOM     71  S   UNL A   1      40.846  36.068  36.886  1.00  0.00     0.124 S 
ATOM     72  O   UNL A   1      40.452  35.480  38.165  1.00  0.00    -0.237 OA
ATOM     73  O   UNL A   1      42.085  36.841  36.907  1.00  0.00    -0.237 OA
ATOM     74  O   UNL A   1      39.758  36.661  36.113  1.00  0.00    -0.744 OA
ENDBRANCH  70  71
ENDBRANCH  51  65
BRANCH  52  75
ATOM     75  C   UNL A   1      43.514  24.738  28.105  1.00  0.00    -0.014 A 
ATOM     76  C   UNL A   1      44.271  24.988  26.948  1.00  0.00     0.010 A 
ATOM     77  C   UNL A   1      43.056  23.431  28.355  1.00  0.00     0.010 A 
ATOM     78  C   UNL A   1      44.572  23.950  26.061  1.00  0.00     0.020 A 
ATOM     79  C   UNL A   1      43.376  22.385  27.484  1.00  0.00     0.020 A 
ATOM     80  C   UNL A   1      44.131  22.653  26.340  1.00  0.00     0.054 A 
BRANCH  80  81
ATOM     81  S   UNL A   1      44.619  21.305  25.227  1.00  0.00     0.124 S 
ATOM     82  O   UNL A   1      44.374  21.891  23.913  1.00  0.00    -0.237 OA
ATOM     83  O   UNL A   1      46.023  21.101  25.577  1.00  0.00    -0.237 OA
ATOM     84  O   UNL A   1      43.727  20.211  25.605  1.00  0.00    -0.744 OA
ENDBRANCH  80  81
ENDBRANCH  52  75
BRANCH  64  85
ATOM     85  C   UNL A   1      47.142  27.440  33.447  1.00  0.00    -0.014 A 
ATOM     86  C   UNL A   1      47.214  26.471  34.462  1.00  0.00     0.010 A 
ATOM     87  C   UNL A   1      48.331  28.001  32.946  1.00  0.00     0.010 A 
ATOM     88  C   UNL A   1      48.456  26.072  34.967  1.00  0.00     0.020 A 
ATOM     89  C   UNL A   1      49.574  27.588  33.431  1.00  0.00     0.020 A 
ATOM     90  C   UNL A   1      49.628  26.627  34.443  1.00  0.00     0.054 A 
BRANCH  90  91
ATOM     91  S   UNL A   1      51.228  26.026  35.049  1.00  0.00     0.124 S 
ATOM     92  O   UNL A   1      51.492  24.905  34.152  1.00  0.00    -0.237 OA
ATOM     93  O   UNL A   1      52.095  27.189  34.873  1.00  0.00    -0.237 OA
ATOM     94  O   UNL A   1      50.959  25.662  36.438  1.00  0.00    -0.744 OA
ENDBRANCH  90  91
ENDBRANCH  64  85
ENDBRANCH  38  39
ENDBRANCH  30  33
ENDBRANCH  28  29
ENDBRANCH  27  28
ENDBRANCH  26  27
ENDBRANCH   1  26
TORSDOF 19
ENDMDL
MODEL 3
REMARK VINA RESULT:     -10.5      4.426      9.590
REMARK SMILES C[C@@H](C(=O)NCCCCCCNC(=O)c1ccc(-c2c3nc(c(-c4ccc(S(=O)(=O)[O-])cc4)c4ccc([nH]4)c(-c4ccc(S(=O)(=O)[O-])cc4)c4nc(c(-c5ccc(S(=O)(=O)[O-])cc5)c5ccc2[nH]5)C=C4)C=C3)cc1)c1ccccc1-c1ccn(C(F)F)c(=O)c1
REMARK SMILES IDX 8 1 7 2 6 3 5 4 3 5 4 6 2 8 1 9 75 10 76 11 80 12 77 13
REMARK SMILES IDX 79 14 78 15 81 16 82 17 90 18 83 19 88 20 84 21 89 22 85 23
REMARK SMILES IDX 86 24 87 25 9 26 10 27 11 28 12 29 13 30 14 32 15 33 16 34
REMARK SMILES IDX 74 35 17 36 73 37 18 38 19 39 20 40 67 41 21 42 72 43 66 44
REMARK SMILES IDX 68 45 22 46 71 47 65 48 64 49 23 51 53 52 34 53 52 54 35 55
REMARK SMILES IDX 38 56 51 57 69 58 36 59 37 60 50 62 70 63 39 64 24 65 25 66
REMARK SMILES IDX 33 67 26 68 32 69 27 70 28 71 29 72 30 73 31 74 54 75 55 76
REMARK SMILES IDX 63 77 56 78 62 79 57 80 58 81 59 82 60 83 61 84 40 85 41 86
REMARK SMILES IDX 49 87 42 88 48 89 43 90 44 91 45 92 46 93 47 94
REMARK H PARENT 5 7 12 31 68 50 38 61
REMARK Flexibility Score: inf
ROOT
ATOM      1  C   UNL A   1      33.241  30.214  26.353  1.00  0.00     0.002 C 
ENDROOT
BRANCH   1   2
ATOM      2  C   UNL A   1      33.404  28.687  26.452  1.00  0.00     0.021 C 
BRANCH   2   3
ATOM      3  C   UNL A   1      32.235  27.999  27.167  1.00  0.00     0.116 C 
BRANCH   3   4
ATOM      4  N   UNL A   1      32.389  26.564  27.018  1.00  0.00    -0.356 N 
ATOM      5  C   UNL A   1      31.431  25.682  26.601  1.00  0.00     0.227 C 
ATOM      6  O   UNL A   1      31.393  24.574  27.141  1.00  0.00    -0.274 OA
ATOM      7  H   UNL A   1      33.271  26.188  27.237  1.00  0.00     0.163 HD
BRANCH   5   8
ATOM      8  C   UNL A   1      30.503  26.095  25.458  1.00  0.00     0.106 C 
ATOM      9  C   UNL A   1      29.156  25.392  25.704  1.00  0.00     0.023 C 
BRANCH   8  10
ATOM     10  C   UNL A   1      31.143  25.831  24.080  1.00  0.00    -0.028 A 
ATOM     11  C   UNL A   1      31.900  24.659  23.869  1.00  0.00     0.005 A 
ATOM     12  C   UNL A   1      30.992  26.721  22.980  1.00  0.00    -0.014 A 
ATOM     13  C   UNL A   1      32.526  24.393  22.650  1.00  0.00     0.000 A 
ATOM     14  C   UNL A   1      31.657  26.450  21.767  1.00  0.00     0.009 A 
ATOM     15  C   UNL A   1      32.419  25.297  21.604  1.00  0.00     0.001 A 
BRANCH  12  16
ATOM     16  C   UNL A   1      30.135  27.933  22.988  1.00  0.00    -0.011 A 
ATOM     17  C   UNL A   1      30.640  29.282  22.823  1.00  0.00     0.027 A 
ATOM     18  C   UNL A   1      28.806  27.753  23.097  1.00  0.00     0.080 A 
ATOM     19  C   UNL A   1      29.828  30.337  22.960  1.00  0.00     0.095 A 
ATOM     20  C   UNL A   1      27.874  28.916  23.125  1.00  0.00     0.255 A 
ATOM     21  N   UNL A   1      28.471  30.166  23.161  1.00  0.00    -0.258 N 
ATOM     22  O   UNL A   1      26.667  28.700  23.130  1.00  0.00    -0.269 OA
BRANCH  21  23
ATOM     23  C   UNL A   1      27.608  31.308  23.312  1.00  0.00     0.451 C 
ATOM     24  F   UNL A   1      27.084  31.357  24.561  1.00  0.00    -0.185 F 
ATOM     25  F   UNL A   1      28.270  32.469  23.089  1.00  0.00    -0.185 F 
ENDBRANCH  21  23
ENDBRANCH  12  16
ENDBRANCH   8  10
ENDBRANCH   5   8
ENDBRANCH   3   4
ENDBRANCH   2   3
ENDBRANCH   1   2
BRANCH   1  26
ATOM     26  C   UNL A   1      31.788  30.697  26.331  1.00  0.00     0.002 C 
BRANCH  26  27
ATOM     27  C   UNL A   1      31.602  32.156  26.749  1.00  0.00     0.021 C 
BRANCH  27  28
ATOM     28  C   UNL A   1      32.857  32.801  27.322  1.00  0.00     0.116 C 
BRANCH  28  29
ATOM     29  N   UNL A   1      32.609  34.160  27.778  1.00  0.00    -0.352 N 
ATOM     30  C   UNL A   1      33.219  34.832  28.812  1.00  0.00     0.251 C 
ATOM     31  H   UNL A   1      31.918  34.662  27.287  1.00  0.00     0.163 HD
ATOM     32  O   UNL A   1      32.777  35.899  29.214  1.00  0.00    -0.269 OA
BRANCH  30  33
ATOM     33  C   UNL A   1      34.409  34.222  29.440  1.00  0.00     0.039 A 
ATOM     34  C   UNL A   1      35.678  34.517  28.936  1.00  0.00     0.014 A 
ATOM     35  C   UNL A   1      34.258  33.396  30.557  1.00  0.00     0.014 A 
ATOM     36  C   UNL A   1      36.808  34.022  29.591  1.00  0.00     0.010 A 
ATOM     37  C   UNL A   1      35.385  32.964  31.245  1.00  0.00     0.010 A 
ATOM     38  C   UNL A   1      36.670  33.267  30.765  1.00  0.00    -0.014 A 
BRANCH  38  39
ATOM     39  C   UNL A   1      37.842  32.744  31.511  1.00  0.00     0.031 A 
ATOM     40  C   UNL A   1      38.601  31.571  30.958  1.00  0.00     0.074 A 
ATOM     41  C   UNL A   1      38.148  33.239  32.725  1.00  0.00     0.049 A 
ATOM     42  N   UNL A   1      39.534  30.848  31.520  1.00  0.00    -0.248 NA
ATOM     43  C   UNL A   1      38.233  31.131  29.601  1.00  0.00     0.031 C 
ATOM     44  C   UNL A   1      37.468  34.356  33.383  1.00  0.00     0.029 A 
ATOM     45  N   UNL A   1      39.096  32.842  33.635  1.00  0.00    -0.354 N 
ATOM     46  C   UNL A   1      39.835  29.847  30.606  1.00  0.00     0.074 A 
ATOM     47  C   UNL A   1      38.957  30.031  29.471  1.00  0.00     0.031 C 
ATOM     48  C   UNL A   1      38.023  34.556  34.590  1.00  0.00     0.029 A 
ATOM     49  C   UNL A   1      39.063  33.555  34.810  1.00  0.00     0.049 A 
ATOM     50  H   UNL A   1      39.739  32.117  33.463  1.00  0.00     0.167 HD
ATOM     51  C   UNL A   1      40.765  28.866  30.699  1.00  0.00     0.031 A 
ATOM     52  C   UNL A   1      39.772  33.406  35.947  1.00  0.00     0.031 A 
ATOM     53  C   UNL A   1      41.642  28.698  31.825  1.00  0.00     0.049 A 
ATOM     54  C   UNL A   1      40.807  32.319  36.031  1.00  0.00     0.074 A 
ATOM     55  C   UNL A   1      42.657  27.774  31.996  1.00  0.00     0.029 A 
ATOM     56  N   UNL A   1      41.608  29.474  32.975  1.00  0.00    -0.354 N 
ATOM     57  N   UNL A   1      41.114  31.408  35.138  1.00  0.00    -0.248 NA
ATOM     58  C   UNL A   1      41.597  32.243  37.267  1.00  0.00     0.031 C 
ATOM     59  C   UNL A   1      43.206  27.961  33.268  1.00  0.00     0.029 A 
ATOM     60  C   UNL A   1      42.573  29.040  33.866  1.00  0.00     0.049 A 
ATOM     61  H   UNL A   1      40.987  30.223  33.133  1.00  0.00     0.167 HD
ATOM     62  C   UNL A   1      42.157  30.672  35.691  1.00  0.00     0.074 A 
ATOM     63  C   UNL A   1      42.425  31.242  36.995  1.00  0.00     0.031 C 
ATOM     64  C   UNL A   1      42.835  29.626  35.158  1.00  0.00     0.031 A 
BRANCH  51  65
ATOM     65  C   UNL A   1      40.849  27.888  29.556  1.00  0.00    -0.014 A 
ATOM     66  C   UNL A   1      39.933  26.827  29.433  1.00  0.00     0.010 A 
ATOM     67  C   UNL A   1      41.869  28.025  28.597  1.00  0.00     0.010 A 
ATOM     68  C   UNL A   1      40.080  25.880  28.416  1.00  0.00     0.020 A 
ATOM     69  C   UNL A   1      41.999  27.099  27.558  1.00  0.00     0.020 A 
ATOM     70  C   UNL A   1      41.121  26.015  27.493  1.00  0.00     0.054 A 
BRANCH  70  71
ATOM     71  S   UNL A   1      41.310  24.757  26.201  1.00  0.00     0.124 S 
ATOM     72  O   UNL A   1      42.420  23.961  26.719  1.00  0.00    -0.237 OA
ATOM     73  O   UNL A   1      40.009  24.094  26.203  1.00  0.00    -0.237 OA
ATOM     74  O   UNL A   1      41.608  25.534  25.001  1.00  0.00    -0.744 OA
ENDBRANCH  70  71
ENDBRANCH  51  65
BRANCH  52  75
ATOM     75  C   UNL A   1      39.525  34.333  37.084  1.00  0.00    -0.014 A 
ATOM     76  C   UNL A   1      38.819  33.895  38.218  1.00  0.00     0.010 A 
ATOM     77  C   UNL A   1      40.056  35.635  37.068  1.00  0.00     0.010 A 
ATOM     78  C   UNL A   1      38.653  34.741  39.319  1.00  0.00     0.020 A 
ATOM     79  C   UNL A   1      39.913  36.476  38.177  1.00  0.00     0.020 A 
ATOM     80  C   UNL A   1      39.211  36.023  39.295  1.00  0.00     0.054 A 
BRANCH  80  81
ATOM     81  S   UNL A   1      39.067  37.066  40.773  1.00  0.00     0.124 S 
ATOM     82  O   UNL A   1      38.472  38.283  40.231  1.00  0.00    -0.237 OA
ATOM     83  O   UNL A   1      38.200  36.268  41.638  1.00  0.00    -0.237 OA
ATOM     84  O   UNL A   1      40.447  37.193  41.236  1.00  0.00    -0.744 OA
ENDBRANCH  80  81
ENDBRANCH  52  75
BRANCH  64  85
ATOM     85  C   UNL A   1      43.975  29.048  35.952  1.00  0.00    -0.014 A 
ATOM     86  C   UNL A   1      43.795  27.935  36.789  1.00  0.00     0.010 A 
ATOM     87  C   UNL A   1      45.271  29.565  35.764  1.00  0.00     0.010 A 
ATOM     88  C   UNL A   1      44.893  27.350  37.429  1.00  0.00     0.020 A 
ATOM     89  C   UNL A   1      46.373  28.969  36.381  1.00  0.00     0.020 A 
ATOM     90  C   UNL A   1      46.175  27.866  37.215  1.00  0.00     0.054 A 
BRANCH  90  91
ATOM     91  S   UNL A   1      47.593  27.033  37.981  1.00  0.00     0.124 S 
ATOM     92  O   UNL A   1      47.413  27.361  39.391  1.00  0.00    -0.237 OA
ATOM     93  O   UNL A   1      47.370  25.632  37.629  1.00  0.00    -0.237 OA
ATOM     94  O   UNL A   1      48.749  27.653  37.339  1.00  0.00    -0.744 OA
ENDBRANCH  90  91
ENDBRANCH  64  85
ENDBRANCH  38  39
ENDBRANCH  30  33
ENDBRANCH  28  29
ENDBRANCH  27  28
ENDBRANCH  26  27
ENDBRANCH   1  26
TORSDOF 19
ENDMDL
