MODEL 1
REMARK VINA RESULT:     -10.7      0.000      0.000
REMARK SMILES C[C@H](C(=O)NCCCCCCNC(=O)c1ccc(-c2c3nc(c(-c4ccc(S(=O)(=O)[O-])cc4)c4ccc([nH]4)c(-c4ccc(S(=O)(=O)[O-])cc4)c4nc(c(-c5ccc(S(=O)(=O)[O-])cc5)c5ccc2[nH]5)C=C4)C=C3)cc1)c1ccc2ncccc2c1
REMARK SMILES IDX 9 1 8 2 7 3 6 4 5 5 3 6 4 7 2 9 1 10 75 11 76 12 84 13 77 14
REMARK SMILES IDX 83 15 78 16 82 17 79 18 81 19 80 20 10 21 11 22 12 23 13 24
REMARK SMILES IDX 14 26 15 27 16 28 74 29 17 30 73 31 18 32 19 33 20 34 67 35
REMARK SMILES IDX 21 36 72 37 66 38 68 39 22 40 71 41 65 42 64 43 23 45 53 46
REMARK SMILES IDX 34 47 52 48 35 49 38 50 51 51 69 52 36 53 37 54 50 56 70 57
REMARK SMILES IDX 39 58 24 59 25 60 33 61 26 62 32 63 27 64 28 65 29 66 30 67
REMARK SMILES IDX 31 68 54 69 55 70 63 71 56 72 62 73 57 74 58 75 59 76 60 77
REMARK SMILES IDX 61 78 40 79 41 80 49 81 42 82 48 83 43 84 44 85 45 86 46 87
REMARK SMILES IDX 47 88
REMARK H PARENT 5 8 12 25 68 44 38 55
REMARK Flexibility Score: inf
ROOT
ATOM      1  C   UNL A   1      32.074  28.606  25.141  1.00  0.00     0.002 C 
ENDROOT
BRANCH   1   2
ATOM      2  C   UNL A   1      31.593  27.640  24.055  1.00  0.00     0.002 C 
BRANCH   2   3
ATOM      3  C   UNL A   1      30.095  27.317  24.071  1.00  0.00     0.021 C 
BRANCH   3   4
ATOM      4  C   UNL A   1      29.740  25.954  24.661  1.00  0.00     0.116 C 
BRANCH   4   5
ATOM      5  N   UNL A   1      30.169  24.860  23.811  1.00  0.00    -0.356 N 
ATOM      6  C   UNL A   1      30.965  23.788  24.076  1.00  0.00     0.227 C 
ATOM      7  O   UNL A   1      31.128  22.967  23.168  1.00  0.00    -0.274 OA
ATOM      8  H   UNL A   1      29.830  24.900  22.888  1.00  0.00     0.163 HD
BRANCH   6   9
ATOM      9  C   UNL A   1      31.648  23.593  25.433  1.00  0.00     0.105 C 
ATOM     10  C   UNL A   1      30.687  22.974  26.454  1.00  0.00     0.023 C 
BRANCH   9  11
ATOM     11  C   UNL A   1      33.023  22.933  25.414  1.00  0.00    -0.035 A 
ATOM     12  C   UNL A   1      33.217  21.566  25.188  1.00  0.00     0.007 A 
ATOM     13  C   UNL A   1      34.169  23.725  25.605  1.00  0.00     0.015 A 
ATOM     14  C   UNL A   1      34.501  21.006  25.218  1.00  0.00     0.029 A 
ATOM     15  C   UNL A   1      35.458  23.162  25.618  1.00  0.00     0.000 A 
ATOM     16  C   UNL A   1      35.631  21.777  25.435  1.00  0.00     0.070 A 
ATOM     17  C   UNL A   1      36.604  23.945  25.814  1.00  0.00     0.012 A 
ATOM     18  N   UNL A   1      36.841  21.192  25.456  1.00  0.00    -0.256 NA
ATOM     19  C   UNL A   1      37.857  23.345  25.838  1.00  0.00     0.021 A 
ATOM     20  C   UNL A   1      37.921  21.975  25.663  1.00  0.00     0.112 A 
ENDBRANCH   9  11
ENDBRANCH   6   9
ENDBRANCH   4   5
ENDBRANCH   3   4
ENDBRANCH   2   3
ENDBRANCH   1   2
BRANCH   1  21
ATOM     21  C   UNL A   1      32.310  27.983  26.518  1.00  0.00     0.021 C 
BRANCH  21  22
ATOM     22  C   UNL A   1      33.560  28.468  27.243  1.00  0.00     0.116 C 
BRANCH  22  23
ATOM     23  N   UNL A   1      33.513  29.889  27.551  1.00  0.00    -0.352 N 
ATOM     24  C   UNL A   1      34.474  30.676  28.135  1.00  0.00     0.251 C 
ATOM     25  H   UNL A   1      32.677  30.348  27.308  1.00  0.00     0.163 HD
ATOM     26  O   UNL A   1      34.212  31.829  28.468  1.00  0.00    -0.269 OA
BRANCH  24  27
ATOM     27  C   UNL A   1      35.819  30.119  28.388  1.00  0.00     0.039 A 
ATOM     28  C   UNL A   1      36.761  30.116  27.356  1.00  0.00     0.014 A 
ATOM     29  C   UNL A   1      36.156  29.620  29.650  1.00  0.00     0.014 A 
ATOM     30  C   UNL A   1      38.062  29.677  27.606  1.00  0.00     0.010 A 
ATOM     31  C   UNL A   1      37.470  29.246  29.915  1.00  0.00     0.010 A 
ATOM     32  C   UNL A   1      38.437  29.271  28.897  1.00  0.00    -0.014 A 
BRANCH  32  33
ATOM     33  C   UNL A   1      39.832  28.874  29.217  1.00  0.00     0.031 A 
ATOM     34  C   UNL A   1      40.788  29.882  29.790  1.00  0.00     0.074 A 
ATOM     35  C   UNL A   1      40.266  27.639  28.896  1.00  0.00     0.049 A 
ATOM     36  N   UNL A   1      42.070  29.766  30.023  1.00  0.00    -0.248 NA
ATOM     37  C   UNL A   1      40.234  31.207  30.113  1.00  0.00     0.031 C 
ATOM     38  C   UNL A   1      39.450  26.585  28.292  1.00  0.00     0.029 A 
ATOM     39  N   UNL A   1      41.512  27.072  29.010  1.00  0.00    -0.354 N 
ATOM     40  C   UNL A   1      42.483  31.008  30.490  1.00  0.00     0.074 A 
ATOM     41  C   UNL A   1      41.323  31.874  30.468  1.00  0.00     0.031 C 
ATOM     42  C   UNL A   1      40.216  25.499  28.089  1.00  0.00     0.029 A 
ATOM     43  C   UNL A   1      41.582  25.794  28.510  1.00  0.00     0.049 A 
ATOM     44  H   UNL A   1      42.282  27.537  29.411  1.00  0.00     0.167 HD
ATOM     45  C   UNL A   1      43.712  31.390  30.912  1.00  0.00     0.031 A 
ATOM     46  C   UNL A   1      42.631  24.956  28.381  1.00  0.00     0.031 A 
ATOM     47  C   UNL A   1      44.859  30.523  30.940  1.00  0.00     0.049 A 
ATOM     48  C   UNL A   1      43.986  25.393  28.860  1.00  0.00     0.074 A 
ATOM     49  C   UNL A   1      46.130  30.793  31.415  1.00  0.00     0.029 A 
ATOM     50  N   UNL A   1      44.877  29.219  30.465  1.00  0.00    -0.354 N 
ATOM     51  N   UNL A   1      44.341  26.546  29.376  1.00  0.00    -0.248 NA
ATOM     52  C   UNL A   1      45.078  24.417  28.756  1.00  0.00     0.031 C 
ATOM     53  C   UNL A   1      46.932  29.671  31.178  1.00  0.00     0.029 A 
ATOM     54  C   UNL A   1      46.144  28.681  30.611  1.00  0.00     0.049 A 
ATOM     55  H   UNL A   1      44.103  28.747  30.082  1.00  0.00     0.167 HD
ATOM     56  C   UNL A   1      45.693  26.426  29.677  1.00  0.00     0.074 A 
ATOM     57  C   UNL A   1      46.090  25.086  29.295  1.00  0.00     0.031 C 
ATOM     58  C   UNL A   1      46.526  27.344  30.226  1.00  0.00     0.031 A 
BRANCH  45  59
ATOM     59  C   UNL A   1      43.876  32.822  31.351  1.00  0.00    -0.014 A 
ATOM     60  C   UNL A   1      44.117  33.850  30.420  1.00  0.00     0.010 A 
ATOM     61  C   UNL A   1      43.792  33.145  32.717  1.00  0.00     0.010 A 
ATOM     62  C   UNL A   1      44.338  35.160  30.853  1.00  0.00     0.020 A 
ATOM     63  C   UNL A   1      43.980  34.460  33.152  1.00  0.00     0.020 A 
ATOM     64  C   UNL A   1      44.280  35.454  32.218  1.00  0.00     0.054 A 
BRANCH  64  65
ATOM     65  S   UNL A   1      44.594  37.157  32.757  1.00  0.00     0.124 S 
ATOM     66  O   UNL A   1      45.104  37.769  31.531  1.00  0.00    -0.237 OA
ATOM     67  O   UNL A   1      43.272  37.610  33.181  1.00  0.00    -0.237 OA
ATOM     68  O   UNL A   1      45.572  37.006  33.831  1.00  0.00    -0.744 OA
ENDBRANCH  64  65
ENDBRANCH  45  59
BRANCH  46  69
ATOM     69  C   UNL A   1      42.420  23.616  27.769  1.00  0.00    -0.014 A 
ATOM     70  C   UNL A   1      42.764  23.382  26.427  1.00  0.00     0.010 A 
ATOM     71  C   UNL A   1      41.936  22.549  28.548  1.00  0.00     0.010 A 
ATOM     72  C   UNL A   1      42.631  22.104  25.875  1.00  0.00     0.020 A 
ATOM     73  C   UNL A   1      41.825  21.265  28.007  1.00  0.00     0.020 A 
ATOM     74  C   UNL A   1      42.170  21.051  26.672  1.00  0.00     0.054 A 
BRANCH  74  75
ATOM     75  S   UNL A   1      42.098  19.382  25.962  1.00  0.00     0.124 S 
ATOM     76  O   UNL A   1      42.634  18.567  27.047  1.00  0.00    -0.237 OA
ATOM     77  O   UNL A   1      40.673  19.217  25.689  1.00  0.00    -0.237 OA
ATOM     78  O   UNL A   1      42.944  19.480  24.773  1.00  0.00    -0.744 OA
ENDBRANCH  74  75
ENDBRANCH  46  69
BRANCH  58  79
ATOM     79  C   UNL A   1      47.952  26.934  30.479  1.00  0.00    -0.014 A 
ATOM     80  C   UNL A   1      48.970  27.221  29.552  1.00  0.00     0.010 A 
ATOM     81  C   UNL A   1      48.291  26.337  31.708  1.00  0.00     0.010 A 
ATOM     82  C   UNL A   1      50.300  26.911  29.848  1.00  0.00     0.020 A 
ATOM     83  C   UNL A   1      49.623  26.047  32.017  1.00  0.00     0.020 A 
ATOM     84  C   UNL A   1      50.619  26.332  31.080  1.00  0.00     0.054 A 
BRANCH  84  85
ATOM     85  S   UNL A   1      52.362  26.016  31.473  1.00  0.00     0.124 S 
ATOM     86  O   UNL A   1      52.991  26.107  30.158  1.00  0.00    -0.237 OA
ATOM     87  O   UNL A   1      52.683  27.097  32.401  1.00  0.00    -0.237 OA
ATOM     88  O   UNL A   1      52.347  24.680  32.065  1.00  0.00    -0.744 OA
ENDBRANCH  84  85
ENDBRANCH  58  79
ENDBRANCH  32  33
ENDBRANCH  24  27
ENDBRANCH  22  23
ENDBRANCH  21  22
ENDBRANCH   1  21
TORSDOF 17
ENDMDL
MODEL 2
REMARK VINA RESULT:     -10.7      4.612     10.525
REMARK SMILES C[C@H](C(=O)NCCCCCCNC(=O)c1ccc(-c2c3nc(c(-c4ccc(S(=O)(=O)[O-])cc4)c4ccc([nH]4)c(-c4ccc(S(=O)(=O)[O-])cc4)c4nc(c(-c5ccc(S(=O)(=O)[O-])cc5)c5ccc2[nH]5)C=C4)C=C3)cc1)c1ccc2ncccc2c1
REMARK SMILES IDX 9 1 8 2 7 3 6 4 5 5 3 6 4 7 2 9 1 10 75 11 76 12 84 13 77 14
REMARK SMILES IDX 83 15 78 16 82 17 79 18 81 19 80 20 10 21 11 22 12 23 13 24
REMARK SMILES IDX 14 26 15 27 16 28 74 29 17 30 73 31 18 32 19 33 20 34 67 35
REMARK SMILES IDX 21 36 72 37 66 38 68 39 22 40 71 41 65 42 64 43 23 45 53 46
REMARK SMILES IDX 34 47 52 48 35 49 38 50 51 51 69 52 36 53 37 54 50 56 70 57
REMARK SMILES IDX 39 58 24 59 25 60 33 61 26 62 32 63 27 64 28 65 29 66 30 67
REMARK SMILES IDX 31 68 54 69 55 70 63 71 56 72 62 73 57 74 58 75 59 76 60 77
REMARK SMILES IDX 61 78 40 79 41 80 49 81 42 82 48 83 43 84 44 85 45 86 46 87
REMARK SMILES IDX 47 88
REMARK H PARENT 5 8 12 25 68 44 38 55
REMARK Flexibility Score: inf
ROOT
ATOM      1  C   UNL A   1      37.095  23.312  24.471  1.00  0.00     0.002 C 
ENDROOT
BRANCH   1   2
ATOM      2  C   UNL A   1      35.591  23.599  24.471  1.00  0.00     0.002 C 
BRANCH   2   3
ATOM      3  C   UNL A   1      34.759  22.780  25.465  1.00  0.00     0.021 C 
BRANCH   3   4
ATOM      4  C   UNL A   1      34.093  23.599  26.568  1.00  0.00     0.116 C 
BRANCH   4   5
ATOM      5  N   UNL A   1      32.675  23.791  26.327  1.00  0.00    -0.356 N 
ATOM      6  C   UNL A   1      32.020  24.702  25.555  1.00  0.00     0.227 C 
ATOM      7  O   UNL A   1      30.790  24.605  25.488  1.00  0.00    -0.274 OA
ATOM      8  H   UNL A   1      32.089  23.158  26.800  1.00  0.00     0.163 HD
BRANCH   6   9
ATOM      9  C   UNL A   1      32.755  25.814  24.803  1.00  0.00     0.105 C 
ATOM     10  C   UNL A   1      32.376  25.825  23.318  1.00  0.00     0.023 C 
BRANCH   9  11
ATOM     11  C   UNL A   1      32.737  27.198  25.445  1.00  0.00    -0.035 A 
ATOM     12  C   UNL A   1      31.607  28.024  25.461  1.00  0.00     0.007 A 
ATOM     13  C   UNL A   1      33.895  27.676  26.082  1.00  0.00     0.015 A 
ATOM     14  C   UNL A   1      31.657  29.301  26.033  1.00  0.00     0.029 A 
ATOM     15  C   UNL A   1      33.936  28.954  26.671  1.00  0.00     0.000 A 
ATOM     16  C   UNL A   1      32.804  29.789  26.636  1.00  0.00     0.070 A 
ATOM     17  C   UNL A   1      35.089  29.439  27.303  1.00  0.00     0.012 A 
ATOM     18  N   UNL A   1      32.800  31.023  27.171  1.00  0.00    -0.256 NA
ATOM     19  C   UNL A   1      35.092  30.714  27.855  1.00  0.00     0.021 A 
ATOM     20  C   UNL A   1      33.934  31.463  27.757  1.00  0.00     0.112 A 
ENDBRANCH   9  11
ENDBRANCH   6   9
ENDBRANCH   4   5
ENDBRANCH   3   4
ENDBRANCH   2   3
ENDBRANCH   1   2
BRANCH   1  21
ATOM     21  C   UNL A   1      37.680  22.876  25.816  1.00  0.00     0.021 C 
BRANCH  21  22
ATOM     22  C   UNL A   1      38.576  23.906  26.496  1.00  0.00     0.116 C 
BRANCH  22  23
ATOM     23  N   UNL A   1      39.967  23.796  26.086  1.00  0.00    -0.352 N 
ATOM     24  C   UNL A   1      41.022  24.622  26.386  1.00  0.00     0.251 C 
ATOM     25  H   UNL A   1      40.181  23.024  25.513  1.00  0.00     0.163 HD
ATOM     26  O   UNL A   1      42.105  24.471  25.828  1.00  0.00    -0.269 OA
BRANCH  24  27
ATOM     27  C   UNL A   1      40.837  25.713  27.366  1.00  0.00     0.039 A 
ATOM     28  C   UNL A   1      39.861  25.581  28.357  1.00  0.00     0.014 A 
ATOM     29  C   UNL A   1      41.643  26.854  27.318  1.00  0.00     0.014 A 
ATOM     30  C   UNL A   1      39.738  26.562  29.344  1.00  0.00     0.010 A 
ATOM     31  C   UNL A   1      41.564  27.797  28.340  1.00  0.00     0.010 A 
ATOM     32  C   UNL A   1      40.612  27.660  29.363  1.00  0.00    -0.014 A 
BRANCH  32  33
ATOM     33  C   UNL A   1      40.561  28.680  30.442  1.00  0.00     0.031 A 
ATOM     34  C   UNL A   1      41.441  28.538  31.652  1.00  0.00     0.074 A 
ATOM     35  C   UNL A   1      39.653  29.673  30.382  1.00  0.00     0.049 A 
ATOM     36  N   UNL A   1      41.458  29.251  32.750  1.00  0.00    -0.248 NA
ATOM     37  C   UNL A   1      42.407  27.427  31.640  1.00  0.00     0.031 C 
ATOM     38  C   UNL A   1      38.709  29.893  29.284  1.00  0.00     0.029 A 
ATOM     39  N   UNL A   1      39.357  30.669  31.279  1.00  0.00    -0.354 N 
ATOM     40  C   UNL A   1      42.412  28.658  33.569  1.00  0.00     0.074 A 
ATOM     41  C   UNL A   1      42.920  27.504  32.859  1.00  0.00     0.031 C 
ATOM     42  C   UNL A   1      37.940  30.956  29.572  1.00  0.00     0.029 A 
ATOM     43  C   UNL A   1      38.308  31.468  30.888  1.00  0.00     0.049 A 
ATOM     44  H   UNL A   1      39.848  30.800  32.122  1.00  0.00     0.167 HD
ATOM     45  C   UNL A   1      42.835  29.046  34.796  1.00  0.00     0.031 A 
ATOM     46  C   UNL A   1      37.692  32.485  31.525  1.00  0.00     0.031 A 
ATOM     47  C   UNL A   1      42.332  30.199  35.493  1.00  0.00     0.049 A 
ATOM     48  C   UNL A   1      38.179  32.907  32.882  1.00  0.00     0.074 A 
ATOM     49  C   UNL A   1      42.745  30.717  36.708  1.00  0.00     0.029 A 
ATOM     50  N   UNL A   1      41.299  31.009  35.043  1.00  0.00    -0.354 N 
ATOM     51  N   UNL A   1      39.138  32.385  33.609  1.00  0.00    -0.248 NA
ATOM     52  C   UNL A   1      37.514  34.062  33.501  1.00  0.00     0.031 C 
ATOM     53  C   UNL A   1      41.926  31.808  37.018  1.00  0.00     0.029 A 
ATOM     54  C   UNL A   1      41.042  32.006  35.967  1.00  0.00     0.049 A 
ATOM     55  H   UNL A   1      40.820  30.891  34.191  1.00  0.00     0.167 HD
ATOM     56  C   UNL A   1      39.207  33.160  34.760  1.00  0.00     0.074 A 
ATOM     57  C   UNL A   1      38.198  34.192  34.631  1.00  0.00     0.031 C 
ATOM     58  C   UNL A   1      40.035  33.029  35.826  1.00  0.00     0.031 A 
BRANCH  45  59
ATOM     59  C   UNL A   1      43.879  28.192  35.468  1.00  0.00    -0.014 A 
ATOM     60  C   UNL A   1      43.519  27.132  36.320  1.00  0.00     0.010 A 
ATOM     61  C   UNL A   1      45.243  28.456  35.245  1.00  0.00     0.010 A 
ATOM     62  C   UNL A   1      44.500  26.397  36.990  1.00  0.00     0.020 A 
ATOM     63  C   UNL A   1      46.228  27.703  35.888  1.00  0.00     0.020 A 
ATOM     64  C   UNL A   1      45.850  26.696  36.778  1.00  0.00     0.054 A 
BRANCH  64  65
ATOM     65  S   UNL A   1      47.104  25.743  37.678  1.00  0.00     0.124 S 
ATOM     66  O   UNL A   1      46.882  26.181  39.054  1.00  0.00    -0.237 OA
ATOM     67  O   UNL A   1      46.728  24.362  37.390  1.00  0.00    -0.237 OA
ATOM     68  O   UNL A   1      48.365  26.180  37.081  1.00  0.00    -0.744 OA
ENDBRANCH  64  65
ENDBRANCH  45  59
BRANCH  46  69
ATOM     69  C   UNL A   1      36.545  33.166  30.867  1.00  0.00    -0.014 A 
ATOM     70  C   UNL A   1      35.297  33.247  31.508  1.00  0.00     0.010 A 
ATOM     71  C   UNL A   1      36.716  33.797  29.620  1.00  0.00     0.010 A 
ATOM     72  C   UNL A   1      34.242  33.949  30.917  1.00  0.00     0.020 A 
ATOM     73  C   UNL A   1      35.671  34.521  29.038  1.00  0.00     0.020 A 
ATOM     74  C   UNL A   1      34.438  34.589  29.690  1.00  0.00     0.054 A 
BRANCH  74  75
ATOM     75  S   UNL A   1      33.085  35.575  28.990  1.00  0.00     0.124 S 
ATOM     76  O   UNL A   1      33.809  36.597  28.241  1.00  0.00    -0.237 OA
ATOM     77  O   UNL A   1      32.362  34.592  28.187  1.00  0.00    -0.237 OA
ATOM     78  O   UNL A   1      32.365  36.052  30.170  1.00  0.00    -0.744 OA
ENDBRANCH  74  75
ENDBRANCH  46  69
BRANCH  58  79
ATOM     79  C   UNL A   1      39.916  34.040  36.935  1.00  0.00    -0.014 A 
ATOM     80  C   UNL A   1      40.396  35.352  36.779  1.00  0.00     0.010 A 
ATOM     81  C   UNL A   1      39.228  33.695  38.113  1.00  0.00     0.010 A 
ATOM     82  C   UNL A   1      40.196  36.300  37.787  1.00  0.00     0.020 A 
ATOM     83  C   UNL A   1      39.005  34.646  39.112  1.00  0.00     0.020 A 
ATOM     84  C   UNL A   1      39.496  35.943  38.944  1.00  0.00     0.054 A 
BRANCH  84  85
ATOM     85  S   UNL A   1      39.179  37.213  40.200  1.00  0.00     0.124 S 
ATOM     86  O   UNL A   1      38.316  36.502  41.140  1.00  0.00    -0.237 OA
ATOM     87  O   UNL A   1      40.520  37.523  40.689  1.00  0.00    -0.237 OA
ATOM     88  O   UNL A   1      38.532  38.288  39.451  1.00  0.00    -0.744 OA
ENDBRANCH  84  85
ENDBRANCH  58  79
ENDBRANCH  32  33
ENDBRANCH  24  27
ENDBRANCH  22  23
ENDBRANCH  21  22
ENDBRANCH   1  21
TORSDOF 17
ENDMDL
MODEL 3
REMARK VINA RESULT:     -10.5      4.728     10.118
REMARK SMILES C[C@H](C(=O)NCCCCCCNC(=O)c1ccc(-c2c3nc(c(-c4ccc(S(=O)(=O)[O-])cc4)c4ccc([nH]4)c(-c4ccc(S(=O)(=O)[O-])cc4)c4nc(c(-c5ccc(S(=O)(=O)[O-])cc5)c5ccc2[nH]5)C=C4)C=C3)cc1)c1ccc2ncccc2c1
REMARK SMILES IDX 9 1 8 2 7 3 6 4 5 5 3 6 4 7 2 9 1 10 75 11 76 12 84 13 77 14
REMARK SMILES IDX 83 15 78 16 82 17 79 18 81 19 80 20 10 21 11 22 12 23 13 24
REMARK SMILES IDX 14 26 15 27 16 28 74 29 17 30 73 31 18 32 19 33 20 34 67 35
REMARK SMILES IDX 21 36 72 37 66 38 68 39 22 40 71 41 65 42 64 43 23 45 53 46
REMARK SMILES IDX 34 47 52 48 35 49 38 50 51 51 69 52 36 53 37 54 50 56 70 57
REMARK SMILES IDX 39 58 24 59 25 60 33 61 26 62 32 63 27 64 28 65 29 66 30 67
REMARK SMILES IDX 31 68 54 69 55 70 63 71 56 72 62 73 57 74 58 75 59 76 60 77
REMARK SMILES IDX 61 78 40 79 41 80 49 81 42 82 48 83 43 84 44 85 45 86 46 87
REMARK SMILES IDX 47 88
REMARK H PARENT 5 8 12 25 68 44 38 55
REMARK Flexibility Score: inf
ROOT
ATOM      1  C   UNL A   1      31.613  30.983  26.106  1.00  0.00     0.002 C 
ENDROOT
BRANCH   1   2
ATOM      2  C   UNL A   1      31.519  29.474  25.865  1.00  0.00     0.002 C 
BRANCH   2   3
ATOM      3  C   UNL A   1      31.954  28.587  27.038  1.00  0.00     0.021 C 
BRANCH   3   4
ATOM      4  C   UNL A   1      32.452  27.200  26.640  1.00  0.00     0.116 C 
BRANCH   4   5
ATOM      5  N   UNL A   1      31.457  26.171  26.877  1.00  0.00    -0.356 N 
ATOM      6  C   UNL A   1      30.886  25.274  26.026  1.00  0.00     0.227 C 
ATOM      7  O   UNL A   1      30.092  24.462  26.512  1.00  0.00    -0.274 OA
ATOM      8  H   UNL A   1      31.141  26.112  27.807  1.00  0.00     0.163 HD
BRANCH   6   9
ATOM      9  C   UNL A   1      31.194  25.260  24.527  1.00  0.00     0.105 C 
ATOM     10  C   UNL A   1      30.657  23.988  23.861  1.00  0.00     0.023 C 
BRANCH   9  11
ATOM     11  C   UNL A   1      30.870  26.535  23.754  1.00  0.00    -0.035 A 
ATOM     12  C   UNL A   1      31.812  27.231  22.989  1.00  0.00     0.007 A 
ATOM     13  C   UNL A   1      29.558  27.039  23.777  1.00  0.00     0.015 A 
ATOM     14  C   UNL A   1      31.468  28.418  22.329  1.00  0.00     0.029 A 
ATOM     15  C   UNL A   1      29.212  28.222  23.099  1.00  0.00     0.000 A 
ATOM     16  C   UNL A   1      30.184  28.934  22.372  1.00  0.00     0.070 A 
ATOM     17  C   UNL A   1      27.906  28.733  23.123  1.00  0.00     0.012 A 
ATOM     18  N   UNL A   1      29.905  30.078  21.722  1.00  0.00    -0.256 NA
ATOM     19  C   UNL A   1      27.614  29.915  22.455  1.00  0.00     0.021 A 
ATOM     20  C   UNL A   1      28.640  30.548  21.780  1.00  0.00     0.112 A 
ENDBRANCH   9  11
ENDBRANCH   6   9
ENDBRANCH   4   5
ENDBRANCH   3   4
ENDBRANCH   2   3
ENDBRANCH   1   2
BRANCH   1  21
ATOM     21  C   UNL A   1      32.307  31.399  27.404  1.00  0.00     0.021 C 
BRANCH  21  22
ATOM     22  C   UNL A   1      33.364  32.488  27.252  1.00  0.00     0.116 C 
BRANCH  22  23
ATOM     23  N   UNL A   1      32.874  33.801  27.639  1.00  0.00    -0.352 N 
ATOM     24  C   UNL A   1      33.262  34.588  28.696  1.00  0.00     0.251 C 
ATOM     25  H   UNL A   1      32.168  34.177  27.066  1.00  0.00     0.163 HD
ATOM     26  O   UNL A   1      32.634  35.607  28.972  1.00  0.00    -0.269 OA
BRANCH  24  27
ATOM     27  C   UNL A   1      34.423  34.186  29.517  1.00  0.00     0.039 A 
ATOM     28  C   UNL A   1      34.210  33.442  30.681  1.00  0.00     0.014 A 
ATOM     29  C   UNL A   1      35.722  34.524  29.125  1.00  0.00     0.014 A 
ATOM     30  C   UNL A   1      35.303  32.978  31.416  1.00  0.00     0.010 A 
ATOM     31  C   UNL A   1      36.809  34.004  29.820  1.00  0.00     0.010 A 
ATOM     32  C   UNL A   1      36.612  33.225  30.972  1.00  0.00    -0.014 A 
BRANCH  32  33
ATOM     33  C   UNL A   1      37.795  32.678  31.685  1.00  0.00     0.031 A 
ATOM     34  C   UNL A   1      38.527  31.491  31.126  1.00  0.00     0.074 A 
ATOM     35  C   UNL A   1      38.145  33.183  32.884  1.00  0.00     0.049 A 
ATOM     36  N   UNL A   1      39.501  30.796  31.656  1.00  0.00    -0.248 NA
ATOM     37  C   UNL A   1      38.083  31.001  29.811  1.00  0.00     0.031 C 
ATOM     38  C   UNL A   1      37.485  34.303  33.557  1.00  0.00     0.029 A 
ATOM     39  N   UNL A   1      39.129  32.800  33.763  1.00  0.00    -0.354 N 
ATOM     40  C   UNL A   1      39.766  29.771  30.756  1.00  0.00     0.074 A 
ATOM     41  C   UNL A   1      38.822  29.911  29.668  1.00  0.00     0.031 C 
ATOM     42  C   UNL A   1      38.082  34.517  34.742  1.00  0.00     0.029 A 
ATOM     43  C   UNL A   1      39.138  33.527  34.930  1.00  0.00     0.049 A 
ATOM     44  H   UNL A   1      39.767  32.074  33.575  1.00  0.00     0.167 HD
ATOM     45  C   UNL A   1      40.716  28.807  30.823  1.00  0.00     0.031 A 
ATOM     46  C   UNL A   1      39.894  33.400  36.039  1.00  0.00     0.031 A 
ATOM     47  C   UNL A   1      41.657  28.679  31.903  1.00  0.00     0.049 A 
ATOM     48  C   UNL A   1      40.948  32.331  36.094  1.00  0.00     0.074 A 
ATOM     49  C   UNL A   1      42.703  27.782  32.030  1.00  0.00     0.029 A 
ATOM     50  N   UNL A   1      41.661  29.464  33.047  1.00  0.00    -0.354 N 
ATOM     51  N   UNL A   1      41.239  31.419  35.196  1.00  0.00    -0.248 NA
ATOM     52  C   UNL A   1      41.786  32.280  37.299  1.00  0.00     0.031 C 
ATOM     53  C   UNL A   1      43.306  27.990  33.275  1.00  0.00     0.029 A 
ATOM     54  C   UNL A   1      42.674  29.056  33.897  1.00  0.00     0.049 A 
ATOM     55  H   UNL A   1      41.037  30.204  33.227  1.00  0.00     0.167 HD
ATOM     56  C   UNL A   1      42.307  30.700  35.719  1.00  0.00     0.074 A 
ATOM     57  C   UNL A   1      42.617  31.287  37.007  1.00  0.00     0.031 C 
ATOM     58  C   UNL A   1      42.972  29.650  35.178  1.00  0.00     0.031 A 
BRANCH  45  59
ATOM     59  C   UNL A   1      40.760  27.803  29.701  1.00  0.00    -0.014 A 
ATOM     60  C   UNL A   1      41.707  27.904  28.665  1.00  0.00     0.010 A 
ATOM     61  C   UNL A   1      39.837  26.742  29.680  1.00  0.00     0.010 A 
ATOM     62  C   UNL A   1      41.687  27.005  27.596  1.00  0.00     0.020 A 
ATOM     63  C   UNL A   1      39.833  25.821  28.629  1.00  0.00     0.020 A 
ATOM     64  C   UNL A   1      40.741  25.975  27.580  1.00  0.00     0.054 A 
BRANCH  64  65
ATOM     65  S   UNL A   1      40.719  24.835  26.169  1.00  0.00     0.124 S 
ATOM     66  O   UNL A   1      39.311  24.446  26.121  1.00  0.00    -0.237 OA
ATOM     67  O   UNL A   1      41.174  25.678  25.066  1.00  0.00    -0.237 OA
ATOM     68  O   UNL A   1      41.645  23.776  26.564  1.00  0.00    -0.744 OA
ENDBRANCH  64  65
ENDBRANCH  45  59
BRANCH  46  69
ATOM     69  C   UNL A   1      39.667  34.324  37.183  1.00  0.00    -0.014 A 
ATOM     70  C   UNL A   1      38.979  33.888  38.328  1.00  0.00     0.010 A 
ATOM     71  C   UNL A   1      40.199  35.627  37.158  1.00  0.00     0.010 A 
ATOM     72  C   UNL A   1      38.829  34.737  39.429  1.00  0.00     0.020 A 
ATOM     73  C   UNL A   1      40.073  36.469  38.267  1.00  0.00     0.020 A 
ATOM     74  C   UNL A   1      39.385  36.019  39.395  1.00  0.00     0.054 A 
BRANCH  74  75
ATOM     75  S   UNL A   1      39.262  37.067  40.872  1.00  0.00     0.124 S 
ATOM     76  O   UNL A   1      38.528  38.222  40.365  1.00  0.00    -0.237 OA
ATOM     77  O   UNL A   1      38.534  36.211  41.805  1.00  0.00    -0.237 OA
ATOM     78  O   UNL A   1      40.658  37.317  41.230  1.00  0.00    -0.744 OA
ENDBRANCH  74  75
ENDBRANCH  46  69
BRANCH  58  79
ATOM     79  C   UNL A   1      44.127  29.075  35.953  1.00  0.00    -0.014 A 
ATOM     80  C   UNL A   1      43.951  27.983  36.821  1.00  0.00     0.010 A 
ATOM     81  C   UNL A   1      45.424  29.576  35.734  1.00  0.00     0.010 A 
ATOM     82  C   UNL A   1      45.051  27.408  37.463  1.00  0.00     0.020 A 
ATOM     83  C   UNL A   1      46.529  28.989  36.355  1.00  0.00     0.020 A 
ATOM     84  C   UNL A   1      46.334  27.910  37.221  1.00  0.00     0.054 A 
BRANCH  84  85
ATOM     85  S   UNL A   1      47.754  27.094  38.002  1.00  0.00     0.124 S 
ATOM     86  O   UNL A   1      48.870  27.911  37.533  1.00  0.00    -0.237 OA
ATOM     87  O   UNL A   1      47.446  27.208  39.426  1.00  0.00    -0.237 OA
ATOM     88  O   UNL A   1      47.709  25.734  37.469  1.00  0.00    -0.744 OA
ENDBRANCH  84  85
ENDBRANCH  58  79
ENDBRANCH  32  33
ENDBRANCH  24  27
ENDBRANCH  22  23
ENDBRANCH  21  22
ENDBRANCH   1  21
TORSDOF 17
ENDMDL
