MODEL 1
REMARK VINA RESULT:     -11.5      0.000      0.000
REMARK SMILES Cc1cc(Br)cc2c1O[C@H](C(F)(F)F)C(C(=O)NCCCCCCNC(=O)c1ccc(-c3c4nc(c(-c5ccc(S(=O)(=O)[O-])cc5)c5ccc([nH]5)c(-c5ccc(S(=O)(=O)[O-])cc5)c5nc(c(-c6ccc(S(=O)(=O)[O-])cc6)c6ccc3[nH]6)C=C5)C=C4)cc1)=C2
REMARK SMILES IDX 22 1 21 2 20 3 19 4 18 5 16 6 17 7 15 9 1 10 2 11 3 12 8 13
REMARK SMILES IDX 4 14 7 15 9 16 5 17 6 18 88 19 10 20 11 21 12 22 13 23 14 24
REMARK SMILES IDX 23 25 24 26 25 27 26 28 27 30 28 31 29 32 87 33 30 34 86 35
REMARK SMILES IDX 31 36 32 37 33 38 80 39 34 40 85 41 79 42 81 43 35 44 84 45
REMARK SMILES IDX 78 46 77 47 36 49 66 50 47 51 65 52 48 53 51 54 64 55 82 56
REMARK SMILES IDX 49 57 50 58 63 60 83 61 52 62 37 63 38 64 46 65 39 66 45 67
REMARK SMILES IDX 40 68 41 69 42 70 43 71 44 72 67 73 68 74 76 75 69 76 75 77
REMARK SMILES IDX 70 78 71 79 72 80 73 81 74 82 53 83 54 84 62 85 55 86 61 87
REMARK SMILES IDX 56 88 57 89 58 90 59 91 60 92
REMARK H PARENT 18 8 25 29 81 48 51 59
REMARK Flexibility Score: inf
ROOT
ATOM      1  C   UNL A   1      31.431  27.681  25.914  1.00  0.00     0.002 C 
ENDROOT
BRANCH   1   2
ATOM      2  C   UNL A   1      30.733  26.357  25.577  1.00  0.00     0.002 C 
BRANCH   2   3
ATOM      3  C   UNL A   1      29.966  26.354  24.254  1.00  0.00     0.021 C 
BRANCH   3   4
ATOM      4  C   UNL A   1      30.312  25.170  23.356  1.00  0.00     0.116 C 
BRANCH   4   5
ATOM      5  N   UNL A   1      31.379  25.491  22.424  1.00  0.00    -0.352 N 
ATOM      6  C   UNL A   1      32.633  25.051  22.163  1.00  0.00     0.251 C 
ATOM      7  O   UNL A   1      33.202  25.604  21.215  1.00  0.00    -0.270 OA
ATOM      8  H   UNL A   1      31.122  26.226  21.821  1.00  0.00     0.163 HD
BRANCH   6   9
ATOM      9  C   UNL A   1      33.343  23.983  22.928  1.00  0.00     0.067 C 
ATOM     10  C   UNL A   1      36.775  20.960  25.303  1.00  0.00     0.048 C 
ATOM     11  C   UNL A   1      35.371  20.797  24.789  1.00  0.00    -0.007 A 
ATOM     12  C   UNL A   1      34.699  19.585  24.985  1.00  0.00     0.023 A 
ATOM     13  C   UNL A   1      34.692  21.847  24.157  1.00  0.00     0.130 A 
ATOM     14  C   UNL A   1      33.391  19.426  24.527  1.00  0.00     0.019 A 
ATOM     15  C   UNL A   1      33.385  21.687  23.683  1.00  0.00     0.019 A 
ATOM     16  O   UNL A   1      35.385  23.007  23.984  1.00  0.00    -0.475 OA
ATOM     17  Br  UNL A   1      32.506  17.776  24.789  1.00  0.00    -0.051 Br
ATOM     18  C   UNL A   1      32.732  20.467  23.872  1.00  0.00     0.027 A 
ATOM     19  C   UNL A   1      32.744  22.778  22.956  1.00  0.00     0.025 C 
ATOM     20  C   UNL A   1      34.632  24.200  23.664  1.00  0.00     0.314 C 
BRANCH  20  21
ATOM     21  C   UNL A   1      34.451  25.042  24.940  1.00  0.00     0.429 C 
ATOM     22  F   UNL A   1      33.385  24.604  25.652  1.00  0.00    -0.167 F 
ATOM     23  F   UNL A   1      35.521  24.970  25.768  1.00  0.00    -0.167 F 
ATOM     24  F   UNL A   1      34.254  26.352  24.669  1.00  0.00    -0.167 F 
ENDBRANCH  20  21
ENDBRANCH   6   9
ENDBRANCH   4   5
ENDBRANCH   3   4
ENDBRANCH   2   3
ENDBRANCH   1   2
BRANCH   1  25
ATOM     25  C   UNL A   1      32.171  27.706  27.257  1.00  0.00     0.021 C 
BRANCH  25  26
ATOM     26  C   UNL A   1      33.544  28.367  27.206  1.00  0.00     0.116 C 
BRANCH  26  27
ATOM     27  N   UNL A   1      33.456  29.800  27.442  1.00  0.00    -0.352 N 
ATOM     28  C   UNL A   1      34.361  30.632  28.046  1.00  0.00     0.251 C 
ATOM     29  H   UNL A   1      32.632  30.231  27.123  1.00  0.00     0.163 HD
ATOM     30  O   UNL A   1      34.028  31.772  28.368  1.00  0.00    -0.269 OA
BRANCH  28  31
ATOM     31  C   UNL A   1      35.731  30.153  28.314  1.00  0.00     0.039 A 
ATOM     32  C   UNL A   1      36.673  30.184  27.283  1.00  0.00     0.014 A 
ATOM     33  C   UNL A   1      36.078  29.668  29.578  1.00  0.00     0.014 A 
ATOM     34  C   UNL A   1      37.982  29.774  27.536  1.00  0.00     0.010 A 
ATOM     35  C   UNL A   1      37.398  29.322  29.846  1.00  0.00     0.010 A 
ATOM     36  C   UNL A   1      38.361  29.369  28.827  1.00  0.00    -0.014 A 
BRANCH  36  37
ATOM     37  C   UNL A   1      39.762  28.990  29.134  1.00  0.00     0.031 A 
ATOM     38  C   UNL A   1      40.690  29.988  29.770  1.00  0.00     0.074 A 
ATOM     39  C   UNL A   1      40.209  27.767  28.787  1.00  0.00     0.049 A 
ATOM     40  N   UNL A   1      41.962  29.867  30.048  1.00  0.00    -0.248 NA
ATOM     41  C   UNL A   1      40.119  31.298  30.125  1.00  0.00     0.031 C 
ATOM     42  C   UNL A   1      39.403  26.721  28.150  1.00  0.00     0.029 A 
ATOM     43  N   UNL A   1      41.448  27.195  28.921  1.00  0.00    -0.354 N 
ATOM     44  C   UNL A   1      42.345  31.081  30.605  1.00  0.00     0.074 A 
ATOM     45  C   UNL A   1      41.184  31.944  30.579  1.00  0.00     0.031 C 
ATOM     46  C   UNL A   1      40.162  25.627  27.977  1.00  0.00     0.029 A 
ATOM     47  C   UNL A   1      41.516  25.907  28.444  1.00  0.00     0.049 A 
ATOM     48  H   UNL A   1      42.217  27.662  29.321  1.00  0.00     0.167 HD
ATOM     49  C   UNL A   1      43.548  31.437  31.111  1.00  0.00     0.031 A 
ATOM     50  C   UNL A   1      42.554  25.050  28.382  1.00  0.00     0.031 A 
ATOM     51  C   UNL A   1      44.698  30.571  31.135  1.00  0.00     0.049 A 
ATOM     52  C   UNL A   1      43.891  25.484  28.915  1.00  0.00     0.074 A 
ATOM     53  C   UNL A   1      45.958  30.830  31.646  1.00  0.00     0.029 A 
ATOM     54  N   UNL A   1      44.730  29.280  30.629  1.00  0.00    -0.354 N 
ATOM     55  N   UNL A   1      44.227  26.630  29.459  1.00  0.00    -0.248 NA
ATOM     56  C   UNL A   1      44.986  24.508  28.837  1.00  0.00     0.031 C 
ATOM     57  C   UNL A   1      46.767  29.716  31.401  1.00  0.00     0.029 A 
ATOM     58  C   UNL A   1      45.991  28.736  30.802  1.00  0.00     0.049 A 
ATOM     59  H   UNL A   1      43.968  28.818  30.209  1.00  0.00     0.167 HD
ATOM     60  C   UNL A   1      45.563  26.498  29.822  1.00  0.00     0.074 A 
ATOM     61  C   UNL A   1      45.969  25.159  29.444  1.00  0.00     0.031 C 
ATOM     62  C   UNL A   1      46.379  27.401  30.422  1.00  0.00     0.031 A 
BRANCH  49  63
ATOM     63  C   UNL A   1      43.689  32.821  31.688  1.00  0.00    -0.014 A 
ATOM     64  C   UNL A   1      43.455  33.062  33.055  1.00  0.00     0.010 A 
ATOM     65  C   UNL A   1      44.135  33.878  30.874  1.00  0.00     0.010 A 
ATOM     66  C   UNL A   1      43.645  34.338  33.591  1.00  0.00     0.020 A 
ATOM     67  C   UNL A   1      44.354  35.149  31.413  1.00  0.00     0.020 A 
ATOM     68  C   UNL A   1      44.099  35.373  32.767  1.00  0.00     0.054 A 
BRANCH  68  69
ATOM     69  S   UNL A   1      44.387  37.004  33.506  1.00  0.00     0.124 S 
ATOM     70  O   UNL A   1      45.190  36.667  34.678  1.00  0.00    -0.237 OA
ATOM     71  O   UNL A   1      45.095  37.713  32.444  1.00  0.00    -0.237 OA
ATOM     72  O   UNL A   1      43.043  37.498  33.795  1.00  0.00    -0.744 OA
ENDBRANCH  68  69
ENDBRANCH  49  63
BRANCH  50  73
ATOM     73  C   UNL A   1      42.358  23.687  27.814  1.00  0.00    -0.014 A 
ATOM     74  C   UNL A   1      42.600  23.443  26.451  1.00  0.00     0.010 A 
ATOM     75  C   UNL A   1      41.950  22.622  28.637  1.00  0.00     0.010 A 
ATOM     76  C   UNL A   1      42.419  22.164  25.916  1.00  0.00     0.020 A 
ATOM     77  C   UNL A   1      41.797  21.334  28.113  1.00  0.00     0.020 A 
ATOM     78  C   UNL A   1      42.024  21.115  26.753  1.00  0.00     0.054 A 
BRANCH  78  79
ATOM     79  S   UNL A   1      41.845  19.455  26.045  1.00  0.00     0.124 S 
ATOM     80  O   UNL A   1      40.421  19.410  25.728  1.00  0.00    -0.237 OA
ATOM     81  O   UNL A   1      42.749  19.505  24.898  1.00  0.00    -0.237 OA
ATOM     82  O   UNL A   1      42.274  18.573  27.128  1.00  0.00    -0.744 OA
ENDBRANCH  78  79
ENDBRANCH  50  73
BRANCH  62  83
ATOM     83  C   UNL A   1      47.780  26.960  30.755  1.00  0.00    -0.014 A 
ATOM     84  C   UNL A   1      48.853  27.193  29.878  1.00  0.00     0.010 A 
ATOM     85  C   UNL A   1      48.031  26.350  31.999  1.00  0.00     0.010 A 
ATOM     86  C   UNL A   1      50.146  26.791  30.223  1.00  0.00     0.020 A 
ATOM     87  C   UNL A   1      49.327  25.976  32.361  1.00  0.00     0.020 A 
ATOM     88  C   UNL A   1      50.375  26.185  31.462  1.00  0.00     0.054 A 
BRANCH  88  89
ATOM     89  S   UNL A   1      52.067  25.700  31.896  1.00  0.00     0.124 S 
ATOM     90  O   UNL A   1      52.344  26.558  33.045  1.00  0.00    -0.237 OA
ATOM     91  O   UNL A   1      51.925  24.277  32.193  1.00  0.00    -0.237 OA
ATOM     92  O   UNL A   1      52.837  26.006  30.692  1.00  0.00    -0.744 OA
ENDBRANCH  88  89
ENDBRANCH  62  83
ENDBRANCH  36  37
ENDBRANCH  28  31
ENDBRANCH  26  27
ENDBRANCH  25  26
ENDBRANCH   1  25
TORSDOF 17
ENDMDL
MODEL 2
REMARK VINA RESULT:     -11.2      3.097      9.168
REMARK SMILES Cc1cc(Br)cc2c1O[C@H](C(F)(F)F)C(C(=O)NCCCCCCNC(=O)c1ccc(-c3c4nc(c(-c5ccc(S(=O)(=O)[O-])cc5)c5ccc([nH]5)c(-c5ccc(S(=O)(=O)[O-])cc5)c5nc(c(-c6ccc(S(=O)(=O)[O-])cc6)c6ccc3[nH]6)C=C5)C=C4)cc1)=C2
REMARK SMILES IDX 22 1 21 2 20 3 19 4 18 5 16 6 17 7 15 9 1 10 2 11 3 12 8 13
REMARK SMILES IDX 4 14 7 15 9 16 5 17 6 18 88 19 10 20 11 21 12 22 13 23 14 24
REMARK SMILES IDX 23 25 24 26 25 27 26 28 27 30 28 31 29 32 87 33 30 34 86 35
REMARK SMILES IDX 31 36 32 37 33 38 80 39 34 40 85 41 79 42 81 43 35 44 84 45
REMARK SMILES IDX 78 46 77 47 36 49 66 50 47 51 65 52 48 53 51 54 64 55 82 56
REMARK SMILES IDX 49 57 50 58 63 60 83 61 52 62 37 63 38 64 46 65 39 66 45 67
REMARK SMILES IDX 40 68 41 69 42 70 43 71 44 72 67 73 68 74 76 75 69 76 75 77
REMARK SMILES IDX 70 78 71 79 72 80 73 81 74 82 53 83 54 84 62 85 55 86 61 87
REMARK SMILES IDX 56 88 57 89 58 90 59 91 60 92
REMARK H PARENT 18 8 25 29 81 48 51 59
REMARK Flexibility Score: inf
ROOT
ATOM      1  C   UNL A   1      35.069  22.053  25.971  1.00  0.00     0.002 C 
ENDROOT
BRANCH   1   2
ATOM      2  C   UNL A   1      34.534  21.176  24.832  1.00  0.00     0.002 C 
BRANCH   2   3
ATOM      3  C   UNL A   1      33.194  20.496  25.120  1.00  0.00     0.021 C 
BRANCH   3   4
ATOM      4  C   UNL A   1      31.989  21.330  24.700  1.00  0.00     0.116 C 
BRANCH   4   5
ATOM      5  N   UNL A   1      31.349  21.968  25.838  1.00  0.00    -0.352 N 
ATOM      6  C   UNL A   1      31.184  23.228  26.306  1.00  0.00     0.251 C 
ATOM      7  O   UNL A   1      30.510  23.327  27.336  1.00  0.00    -0.270 OA
ATOM      8  H   UNL A   1      30.919  21.306  26.427  1.00  0.00     0.163 HD
BRANCH   6   9
ATOM      9  C   UNL A   1      31.754  24.456  25.676  1.00  0.00     0.067 C 
ATOM     10  C   UNL A   1      34.031  27.924  22.619  1.00  0.00     0.048 C 
ATOM     11  C   UNL A   1      33.654  27.854  24.072  1.00  0.00    -0.007 A 
ATOM     12  C   UNL A   1      33.880  28.961  24.899  1.00  0.00     0.023 A 
ATOM     13  C   UNL A   1      33.032  26.723  24.619  1.00  0.00     0.130 A 
ATOM     14  C   UNL A   1      33.520  28.915  26.247  1.00  0.00     0.019 A 
ATOM     15  C   UNL A   1      32.683  26.668  25.974  1.00  0.00     0.019 A 
ATOM     16  O   UNL A   1      32.835  25.669  23.780  1.00  0.00    -0.475 OA
ATOM     17  Br  UNL A   1      33.846  30.415  27.350  1.00  0.00    -0.051 Br
ATOM     18  C   UNL A   1      32.928  27.774  26.790  1.00  0.00     0.027 A 
ATOM     19  C   UNL A   1      32.115  25.440  26.521  1.00  0.00     0.025 C 
ATOM     20  C   UNL A   1      31.906  24.642  24.195  1.00  0.00     0.314 C 
BRANCH  20  21
ATOM     21  C   UNL A   1      30.558  24.861  23.485  1.00  0.00     0.429 C 
ATOM     22  F   UNL A   1      29.682  25.486  24.308  1.00  0.00    -0.167 F 
ATOM     23  F   UNL A   1      30.671  25.640  22.383  1.00  0.00    -0.167 F 
ATOM     24  F   UNL A   1      29.990  23.701  23.086  1.00  0.00    -0.167 F 
ENDBRANCH  20  21
ENDBRANCH   6   9
ENDBRANCH   4   5
ENDBRANCH   3   4
ENDBRANCH   2   3
ENDBRANCH   1   2
BRANCH   1  25
ATOM     25  C   UNL A   1      35.211  23.543  25.637  1.00  0.00     0.021 C 
BRANCH  25  26
ATOM     26  C   UNL A   1      36.635  24.078  25.745  1.00  0.00     0.116 C 
BRANCH  26  27
ATOM     27  N   UNL A   1      37.606  22.999  25.839  1.00  0.00    -0.352 N 
ATOM     28  C   UNL A   1      38.910  23.045  26.254  1.00  0.00     0.251 C 
ATOM     29  H   UNL A   1      37.280  22.112  25.566  1.00  0.00     0.163 HD
ATOM     30  O   UNL A   1      39.654  22.086  26.053  1.00  0.00    -0.269 OA
BRANCH  28  31
ATOM     31  C   UNL A   1      39.418  24.252  26.937  1.00  0.00     0.039 A 
ATOM     32  C   UNL A   1      40.150  25.187  26.203  1.00  0.00     0.014 A 
ATOM     33  C   UNL A   1      39.177  24.451  28.300  1.00  0.00     0.014 A 
ATOM     34  C   UNL A   1      40.598  26.352  26.827  1.00  0.00     0.010 A 
ATOM     35  C   UNL A   1      39.567  25.641  28.903  1.00  0.00     0.010 A 
ATOM     36  C   UNL A   1      40.284  26.601  28.173  1.00  0.00    -0.014 A 
BRANCH  36  37
ATOM     37  C   UNL A   1      40.696  27.861  28.839  1.00  0.00     0.031 A 
ATOM     38  C   UNL A   1      42.064  27.976  29.451  1.00  0.00     0.074 A 
ATOM     39  C   UNL A   1      39.815  28.877  28.937  1.00  0.00     0.049 A 
ATOM     40  N   UNL A   1      42.578  28.966  30.134  1.00  0.00    -0.248 NA
ATOM     41  C   UNL A   1      42.967  26.824  29.290  1.00  0.00     0.031 C 
ATOM     42  C   UNL A   1      38.454  28.871  28.396  1.00  0.00     0.029 A 
ATOM     43  N   UNL A   1      39.932  30.109  29.528  1.00  0.00    -0.354 N 
ATOM     44  C   UNL A   1      43.859  28.557  30.487  1.00  0.00     0.074 A 
ATOM     45  C   UNL A   1      44.027  27.209  29.988  1.00  0.00     0.031 C 
ATOM     46  C   UNL A   1      37.875  30.056  28.653  1.00  0.00     0.029 A 
ATOM     47  C   UNL A   1      38.802  30.883  29.418  1.00  0.00     0.049 A 
ATOM     48  H   UNL A   1      40.749  30.410  29.988  1.00  0.00     0.167 HD
ATOM     49  C   UNL A   1      44.815  29.250  31.148  1.00  0.00     0.031 A 
ATOM     50  C   UNL A   1      38.537  32.118  29.886  1.00  0.00     0.031 A 
ATOM     51  C   UNL A   1      44.641  30.591  31.641  1.00  0.00     0.049 A 
ATOM     52  C   UNL A   1      39.603  32.850  30.654  1.00  0.00     0.074 A 
ATOM     53  C   UNL A   1      45.557  31.388  32.305  1.00  0.00     0.029 A 
ATOM     54  N   UNL A   1      43.476  31.335  31.521  1.00  0.00    -0.354 N 
ATOM     55  N   UNL A   1      40.817  32.455  30.958  1.00  0.00    -0.248 NA
ATOM     56  C   UNL A   1      39.270  34.199  31.131  1.00  0.00     0.031 C 
ATOM     57  C   UNL A   1      44.929  32.593  32.635  1.00  0.00     0.029 A 
ATOM     58  C   UNL A   1      43.646  32.575  32.113  1.00  0.00     0.049 A 
ATOM     59  H   UNL A   1      42.651  31.027  31.081  1.00  0.00     0.167 HD
ATOM     60  C   UNL A   1      41.405  33.522  31.630  1.00  0.00     0.074 A 
ATOM     61  C   UNL A   1      40.416  34.581  31.678  1.00  0.00     0.031 C 
ATOM     62  C   UNL A   1      42.653  33.619  32.152  1.00  0.00     0.031 A 
BRANCH  49  63
ATOM     63  C   UNL A   1      46.142  28.575  31.378  1.00  0.00    -0.014 A 
ATOM     64  C   UNL A   1      47.193  28.712  30.452  1.00  0.00     0.010 A 
ATOM     65  C   UNL A   1      46.369  27.861  32.568  1.00  0.00     0.010 A 
ATOM     66  C   UNL A   1      48.438  28.131  30.703  1.00  0.00     0.020 A 
ATOM     67  C   UNL A   1      47.622  27.302  32.837  1.00  0.00     0.020 A 
ATOM     68  C   UNL A   1      48.646  27.433  31.897  1.00  0.00     0.054 A 
BRANCH  68  69
ATOM     69  S   UNL A   1      50.291  26.737  32.217  1.00  0.00     0.124 S 
ATOM     70  O   UNL A   1      50.377  26.824  33.672  1.00  0.00    -0.237 OA
ATOM     71  O   UNL A   1      50.174  25.387  31.675  1.00  0.00    -0.237 OA
ATOM     72  O   UNL A   1      51.193  27.625  31.487  1.00  0.00    -0.744 OA
ENDBRANCH  68  69
ENDBRANCH  49  63
BRANCH  50  73
ATOM     73  C   UNL A   1      37.214  32.746  29.620  1.00  0.00    -0.014 A 
ATOM     74  C   UNL A   1      36.240  32.812  30.633  1.00  0.00     0.010 A 
ATOM     75  C   UNL A   1      36.925  33.299  28.360  1.00  0.00     0.010 A 
ATOM     76  C   UNL A   1      34.997  33.402  30.386  1.00  0.00     0.020 A 
ATOM     77  C   UNL A   1      35.695  33.919  28.117  1.00  0.00     0.020 A 
ATOM     78  C   UNL A   1      34.735  33.958  29.129  1.00  0.00     0.054 A 
BRANCH  78  79
ATOM     79  S   UNL A   1      33.134  34.763  28.850  1.00  0.00     0.124 S 
ATOM     80  O   UNL A   1      32.551  34.754  30.188  1.00  0.00    -0.237 OA
ATOM     81  O   UNL A   1      33.528  36.073  28.337  1.00  0.00    -0.237 OA
ATOM     82  O   UNL A   1      32.479  33.893  27.875  1.00  0.00    -0.744 OA
ENDBRANCH  78  79
ENDBRANCH  50  73
BRANCH  62  83
ATOM     83  C   UNL A   1      43.044  34.931  32.780  1.00  0.00    -0.014 A 
ATOM     84  C   UNL A   1      42.827  35.188  34.144  1.00  0.00     0.010 A 
ATOM     85  C   UNL A   1      43.695  35.902  31.994  1.00  0.00     0.010 A 
ATOM     86  C   UNL A   1      43.219  36.407  34.704  1.00  0.00     0.020 A 
ATOM     87  C   UNL A   1      44.118  37.108  32.558  1.00  0.00     0.020 A 
ATOM     88  C   UNL A   1      43.862  37.359  33.906  1.00  0.00     0.054 A 
BRANCH  88  89
ATOM     89  S   UNL A   1      44.387  38.919  34.666  1.00  0.00     0.124 S 
ATOM     90  O   UNL A   1      43.463  39.877  34.063  1.00  0.00    -0.237 OA
ATOM     91  O   UNL A   1      44.186  38.663  36.090  1.00  0.00    -0.237 OA
ATOM     92  O   UNL A   1      45.782  39.056  34.254  1.00  0.00    -0.744 OA
ENDBRANCH  88  89
ENDBRANCH  62  83
ENDBRANCH  36  37
ENDBRANCH  28  31
ENDBRANCH  26  27
ENDBRANCH  25  26
ENDBRANCH   1  25
TORSDOF 17
ENDMDL
MODEL 3
REMARK VINA RESULT:     -10.7      2.547      3.128
REMARK SMILES Cc1cc(Br)cc2c1O[C@H](C(F)(F)F)C(C(=O)NCCCCCCNC(=O)c1ccc(-c3c4nc(c(-c5ccc(S(=O)(=O)[O-])cc5)c5ccc([nH]5)c(-c5ccc(S(=O)(=O)[O-])cc5)c5nc(c(-c6ccc(S(=O)(=O)[O-])cc6)c6ccc3[nH]6)C=C5)C=C4)cc1)=C2
REMARK SMILES IDX 22 1 21 2 20 3 19 4 18 5 16 6 17 7 15 9 1 10 2 11 3 12 8 13
REMARK SMILES IDX 4 14 7 15 9 16 5 17 6 18 88 19 10 20 11 21 12 22 13 23 14 24
REMARK SMILES IDX 23 25 24 26 25 27 26 28 27 30 28 31 29 32 87 33 30 34 86 35
REMARK SMILES IDX 31 36 32 37 33 38 80 39 34 40 85 41 79 42 81 43 35 44 84 45
REMARK SMILES IDX 78 46 77 47 36 49 66 50 47 51 65 52 48 53 51 54 64 55 82 56
REMARK SMILES IDX 49 57 50 58 63 60 83 61 52 62 37 63 38 64 46 65 39 66 45 67
REMARK SMILES IDX 40 68 41 69 42 70 43 71 44 72 67 73 68 74 76 75 69 76 75 77
REMARK SMILES IDX 70 78 71 79 72 80 73 81 74 82 53 83 54 84 62 85 55 86 61 87
REMARK SMILES IDX 56 88 57 89 58 90 59 91 60 92
REMARK H PARENT 18 8 25 29 81 48 51 59
REMARK Flexibility Score: inf
ROOT
ATOM      1  C   UNL A   1      31.747  27.233  26.336  1.00  0.00     0.002 C 
ENDROOT
BRANCH   1   2
ATOM      2  C   UNL A   1      31.333  27.640  24.916  1.00  0.00     0.002 C 
BRANCH   2   3
ATOM      3  C   UNL A   1      30.147  26.860  24.345  1.00  0.00     0.021 C 
BRANCH   3   4
ATOM      4  C   UNL A   1      30.529  25.485  23.808  1.00  0.00     0.116 C 
BRANCH   4   5
ATOM      5  N   UNL A   1      31.409  25.579  22.656  1.00  0.00    -0.352 N 
ATOM      6  C   UNL A   1      32.534  24.968  22.215  1.00  0.00     0.251 C 
ATOM      7  O   UNL A   1      32.949  25.348  21.115  1.00  0.00    -0.270 OA
ATOM      8  H   UNL A   1      31.106  26.274  22.027  1.00  0.00     0.163 HD
BRANCH   6   9
ATOM      9  C   UNL A   1      33.279  23.906  22.956  1.00  0.00     0.067 C 
ATOM     10  C   UNL A   1      36.816  20.907  25.204  1.00  0.00     0.048 C 
ATOM     11  C   UNL A   1      35.393  20.737  24.749  1.00  0.00    -0.007 A 
ATOM     12  C   UNL A   1      34.733  19.523  24.979  1.00  0.00     0.023 A 
ATOM     13  C   UNL A   1      34.684  21.781  24.139  1.00  0.00     0.130 A 
ATOM     14  C   UNL A   1      33.408  19.358  24.575  1.00  0.00     0.019 A 
ATOM     15  C   UNL A   1      33.359  21.614  23.720  1.00  0.00     0.019 A 
ATOM     16  O   UNL A   1      35.365  22.942  23.932  1.00  0.00    -0.475 OA
ATOM     17  Br  UNL A   1      32.539  17.707  24.883  1.00  0.00    -0.051 Br
ATOM     18  C   UNL A   1      32.719  20.394  23.943  1.00  0.00     0.027 A 
ATOM     19  C   UNL A   1      32.685  22.699  23.015  1.00  0.00     0.025 C 
ATOM     20  C   UNL A   1      34.596  24.130  23.637  1.00  0.00     0.314 C 
BRANCH  20  21
ATOM     21  C   UNL A   1      34.466  24.979  24.915  1.00  0.00     0.429 C 
ATOM     22  F   UNL A   1      33.353  24.632  25.605  1.00  0.00    -0.167 F 
ATOM     23  F   UNL A   1      35.509  24.811  25.761  1.00  0.00    -0.167 F 
ATOM     24  F   UNL A   1      34.387  26.303  24.648  1.00  0.00    -0.167 F 
ENDBRANCH  20  21
ENDBRANCH   6   9
ENDBRANCH   4   5
ENDBRANCH   3   4
ENDBRANCH   2   3
ENDBRANCH   1   2
BRANCH   1  25
ATOM     25  C   UNL A   1      32.053  28.396  27.286  1.00  0.00     0.021 C 
BRANCH  25  26
ATOM     26  C   UNL A   1      33.463  28.963  27.154  1.00  0.00     0.116 C 
BRANCH  26  27
ATOM     27  N   UNL A   1      33.454  30.416  27.120  1.00  0.00    -0.352 N 
ATOM     28  C   UNL A   1      34.304  31.300  27.730  1.00  0.00     0.251 C 
ATOM     29  H   UNL A   1      32.736  30.822  26.583  1.00  0.00     0.163 HD
ATOM     30  O   UNL A   1      34.015  32.495  27.783  1.00  0.00    -0.269 OA
BRANCH  28  31
ATOM     31  C   UNL A   1      35.562  30.811  28.328  1.00  0.00     0.039 A 
ATOM     32  C   UNL A   1      36.763  31.432  27.982  1.00  0.00     0.014 A 
ATOM     33  C   UNL A   1      35.551  29.735  29.222  1.00  0.00     0.014 A 
ATOM     34  C   UNL A   1      37.953  31.007  28.574  1.00  0.00     0.010 A 
ATOM     35  C   UNL A   1      36.727  29.356  29.859  1.00  0.00     0.010 A 
ATOM     36  C   UNL A   1      37.939  29.986  29.539  1.00  0.00    -0.014 A 
BRANCH  36  37
ATOM     37  C   UNL A   1      39.182  29.561  30.227  1.00  0.00     0.031 A 
ATOM     38  C   UNL A   1      39.634  30.272  31.472  1.00  0.00     0.074 A 
ATOM     39  C   UNL A   1      39.929  28.573  29.696  1.00  0.00     0.049 A 
ATOM     40  N   UNL A   1      40.724  30.093  32.172  1.00  0.00    -0.248 NA
ATOM     41  C   UNL A   1      38.754  31.334  31.991  1.00  0.00     0.031 C 
ATOM     42  C   UNL A   1      39.599  27.822  28.481  1.00  0.00     0.029 A 
ATOM     43  N   UNL A   1      41.120  28.030  30.107  1.00  0.00    -0.354 N 
ATOM     44  C   UNL A   1      40.665  31.018  33.208  1.00  0.00     0.074 A 
ATOM     45  C   UNL A   1      39.458  31.792  33.017  1.00  0.00     0.031 C 
ATOM     46  C   UNL A   1      40.548  26.897  28.265  1.00  0.00     0.029 A 
ATOM     47  C   UNL A   1      41.576  27.021  29.294  1.00  0.00     0.049 A 
ATOM     48  H   UNL A   1      41.602  28.335  30.910  1.00  0.00     0.167 HD
ATOM     49  C   UNL A   1      41.528  31.192  34.235  1.00  0.00     0.031 A 
ATOM     50  C   UNL A   1      42.701  26.281  29.362  1.00  0.00     0.031 A 
ATOM     51  C   UNL A   1      42.727  30.416  34.419  1.00  0.00     0.049 A 
ATOM     52  C   UNL A   1      43.664  26.523  30.492  1.00  0.00     0.074 A 
ATOM     53  C   UNL A   1      43.657  30.500  35.440  1.00  0.00     0.029 A 
ATOM     54  N   UNL A   1      43.161  29.413  33.565  1.00  0.00    -0.354 N 
ATOM     55  N   UNL A   1      43.579  27.388  31.475  1.00  0.00    -0.248 NA
ATOM     56  C   UNL A   1      44.867  25.681  30.530  1.00  0.00     0.031 C 
ATOM     57  C   UNL A   1      44.681  29.586  35.176  1.00  0.00     0.029 A 
ATOM     58  C   UNL A   1      44.353  28.882  34.028  1.00  0.00     0.049 A 
ATOM     59  H   UNL A   1      42.692  29.122  32.750  1.00  0.00     0.167 HD
ATOM     60  C   UNL A   1      44.700  27.168  32.269  1.00  0.00     0.074 A 
ATOM     61  C   UNL A   1      45.440  26.083  31.656  1.00  0.00     0.031 C 
ATOM     62  C   UNL A   1      45.077  27.801  33.408  1.00  0.00     0.031 A 
BRANCH  49  63
ATOM     63  C   UNL A   1      41.211  32.259  35.249  1.00  0.00    -0.014 A 
ATOM     64  C   UNL A   1      41.651  33.583  35.068  1.00  0.00     0.010 A 
ATOM     65  C   UNL A   1      40.398  31.956  36.357  1.00  0.00     0.010 A 
ATOM     66  C   UNL A   1      41.303  34.577  35.985  1.00  0.00     0.020 A 
ATOM     67  C   UNL A   1      40.022  32.954  37.261  1.00  0.00     0.020 A 
ATOM     68  C   UNL A   1      40.485  34.257  37.073  1.00  0.00     0.054 A 
BRANCH  68  69
ATOM     69  S   UNL A   1      40.006  35.583  38.215  1.00  0.00     0.124 S 
ATOM     70  O   UNL A   1      38.832  35.010  38.867  1.00  0.00    -0.237 OA
ATOM     71  O   UNL A   1      41.190  35.719  39.058  1.00  0.00    -0.237 OA
ATOM     72  O   UNL A   1      39.736  36.719  37.336  1.00  0.00    -0.744 OA
ENDBRANCH  68  69
ENDBRANCH  49  63
BRANCH  50  73
ATOM     73  C   UNL A   1      42.961  25.229  28.342  1.00  0.00    -0.014 A 
ATOM     74  C   UNL A   1      42.428  23.937  28.499  1.00  0.00     0.010 A 
ATOM     75  C   UNL A   1      43.727  25.517  27.197  1.00  0.00     0.010 A 
ATOM     76  C   UNL A   1      42.670  22.948  27.541  1.00  0.00     0.020 A 
ATOM     77  C   UNL A   1      43.945  24.540  26.221  1.00  0.00     0.020 A 
ATOM     78  C   UNL A   1      43.423  23.258  26.404  1.00  0.00     0.054 A 
BRANCH  78  79
ATOM     79  S   UNL A   1      43.680  21.972  25.151  1.00  0.00     0.124 S 
ATOM     80  O   UNL A   1      42.696  20.967  25.540  1.00  0.00    -0.237 OA
ATOM     81  O   UNL A   1      43.401  22.687  23.908  1.00  0.00    -0.237 OA
ATOM     82  O   UNL A   1      45.077  21.586  25.339  1.00  0.00    -0.744 OA
ENDBRANCH  78  79
ENDBRANCH  50  73
BRANCH  62  83
ATOM     83  C   UNL A   1      46.322  27.310  34.097  1.00  0.00    -0.014 A 
ATOM     84  C   UNL A   1      46.276  26.285  35.058  1.00  0.00     0.010 A 
ATOM     85  C   UNL A   1      47.570  27.850  33.731  1.00  0.00     0.010 A 
ATOM     86  C   UNL A   1      47.451  25.835  35.667  1.00  0.00     0.020 A 
ATOM     87  C   UNL A   1      48.749  27.380  34.313  1.00  0.00     0.020 A 
ATOM     88  C   UNL A   1      48.680  26.386  35.290  1.00  0.00     0.054 A 
BRANCH  88  89
ATOM     89  S   UNL A   1      50.190  25.762  36.075  1.00  0.00     0.124 S 
ATOM     90  O   UNL A   1      49.773  25.618  37.467  1.00  0.00    -0.237 OA
ATOM     91  O   UNL A   1      50.429  24.512  35.358  1.00  0.00    -0.237 OA
ATOM     92  O   UNL A   1      51.173  26.814  35.826  1.00  0.00    -0.744 OA
ENDBRANCH  88  89
ENDBRANCH  62  83
ENDBRANCH  36  37
ENDBRANCH  28  31
ENDBRANCH  26  27
ENDBRANCH  25  26
ENDBRANCH   1  25
TORSDOF 17
ENDMDL
