MODEL 1
REMARK VINA RESULT:     -10.9      0.000      0.000
REMARK SMILES O=C(NCCCCCCNC(=O)c1csc(C[NH2+][C@H]2CCSc3ccc(F)cc32)c1)c1ccc(-c2c3nc(c(-c4ccc(S(=O)(=O)[O-])cc4)c4ccc([nH]4)c(-c4ccc(S(=O)(=O)[O-])cc4)c4nc(c(-c5ccc(S(=O)(=O)[O-])cc5)c5ccc2[nH]5)C=C4)C=C3)cc1
REMARK SMILES IDX 6 1 5 2 4 3 3 4 1 5 2 6 31 8 32 9 90 10 33 11 89 12 34 13
REMARK SMILES IDX 35 14 36 15 83 16 37 17 88 18 82 19 84 20 38 21 87 22 81 23
REMARK SMILES IDX 80 24 39 26 69 27 50 28 68 29 51 30 54 31 67 32 85 33 52 34
REMARK SMILES IDX 53 35 66 37 86 38 55 39 40 40 41 41 49 42 42 43 48 44 43 45
REMARK SMILES IDX 44 46 45 47 46 48 47 49 70 50 71 51 79 52 72 53 78 54 73 55
REMARK SMILES IDX 74 56 75 57 76 58 77 59 56 60 57 61 65 62 58 63 64 64 59 65
REMARK SMILES IDX 60 66 61 67 62 68 63 69 7 70 8 71 9 72 10 73 11 74 12 76
REMARK SMILES IDX 13 77 14 78 30 79 15 80 16 81 17 82 18 83 19 86 20 87 29 88
REMARK SMILES IDX 21 89 23 90 28 91 22 92 24 93 26 94 25 95 27 96
REMARK H PARENT 3 7 84 25 54 36 10 75 18 84 18 85
REMARK Flexibility Score: inf
ROOT
ATOM      1  C   UNL A   1      39.990  21.646  26.248  1.00  0.00     0.002 C 
ENDROOT
BRANCH   1   2
ATOM      2  C   UNL A   1      40.547  22.162  27.578  1.00  0.00     0.021 C 
BRANCH   2   3
ATOM      3  C   UNL A   1      41.796  23.033  27.478  1.00  0.00     0.116 C 
BRANCH   3   4
ATOM      4  N   UNL A   1      41.832  23.827  26.264  1.00  0.00    -0.352 N 
ATOM      5  O   UNL A   1      41.571  25.630  24.952  1.00  0.00    -0.269 OA
ATOM      6  C   UNL A   1      41.623  25.173  26.091  1.00  0.00     0.251 C 
ATOM      7  H   UNL A   1      42.038  23.326  25.442  1.00  0.00     0.163 HD
BRANCH   6   8
ATOM      8  C   UNL A   1      41.436  26.071  27.256  1.00  0.00     0.039 A 
ATOM      9  C   UNL A   1      42.362  27.100  27.454  1.00  0.00     0.014 A 
ATOM     10  C   UNL A   1      40.400  25.883  28.177  1.00  0.00     0.014 A 
ATOM     11  C   UNL A   1      42.232  27.957  28.549  1.00  0.00     0.010 A 
ATOM     12  C   UNL A   1      40.235  26.776  29.237  1.00  0.00     0.010 A 
ATOM     13  C   UNL A   1      41.158  27.811  29.443  1.00  0.00    -0.014 A 
BRANCH  13  14
ATOM     14  C   UNL A   1      41.018  28.721  30.608  1.00  0.00     0.031 A 
ATOM     15  C   UNL A   1      39.950  29.780  30.624  1.00  0.00     0.074 A 
ATOM     16  C   UNL A   1      41.852  28.595  31.659  1.00  0.00     0.049 A 
ATOM     17  N   UNL A   1      39.659  30.640  31.565  1.00  0.00    -0.248 NA
ATOM     18  C   UNL A   1      39.112  29.900  29.420  1.00  0.00     0.031 C 
ATOM     19  C   UNL A   1      42.944  27.628  31.756  1.00  0.00     0.029 A 
ATOM     20  N   UNL A   1      41.898  29.276  32.851  1.00  0.00    -0.354 N 
ATOM     21  C   UNL A   1      38.604  31.399  31.072  1.00  0.00     0.074 A 
ATOM     22  C   UNL A   1      38.345  30.937  29.726  1.00  0.00     0.031 C 
ATOM     23  C   UNL A   1      43.524  27.744  32.962  1.00  0.00     0.029 A 
ATOM     24  C   UNL A   1      42.863  28.810  33.711  1.00  0.00     0.049 A 
ATOM     25  H   UNL A   1      41.298  30.025  33.068  1.00  0.00     0.167 HD
ATOM     26  C   UNL A   1      37.895  32.373  31.691  1.00  0.00     0.031 A 
ATOM     27  C   UNL A   1      43.174  29.183  34.968  1.00  0.00     0.031 A 
ATOM     28  C   UNL A   1      38.147  32.831  33.031  1.00  0.00     0.049 A 
ATOM     29  C   UNL A   1      42.385  30.270  35.637  1.00  0.00     0.074 A 
ATOM     30  C   UNL A   1      37.466  33.797  33.751  1.00  0.00     0.029 A 
ATOM     31  N   UNL A   1      39.155  32.354  33.856  1.00  0.00    -0.354 N 
ATOM     32  N   UNL A   1      41.375  30.959  35.162  1.00  0.00    -0.248 NA
ATOM     33  C   UNL A   1      42.767  30.626  37.010  1.00  0.00     0.031 C 
ATOM     34  C   UNL A   1      38.086  33.932  34.997  1.00  0.00     0.029 A 
ATOM     35  C   UNL A   1      39.124  33.016  35.071  1.00  0.00     0.049 A 
ATOM     36  H   UNL A   1      39.797  31.649  33.613  1.00  0.00     0.167 HD
ATOM     37  C   UNL A   1      41.001  31.833  36.177  1.00  0.00     0.074 A 
ATOM     38  C   UNL A   1      41.879  31.568  37.300  1.00  0.00     0.031 C 
ATOM     39  C   UNL A   1      40.021  32.768  36.173  1.00  0.00     0.031 A 
BRANCH  26  40
ATOM     40  C   UNL A   1      36.765  33.001  30.921  1.00  0.00    -0.014 A 
ATOM     41  C   UNL A   1      37.026  34.016  29.985  1.00  0.00     0.010 A 
ATOM     42  C   UNL A   1      35.433  32.607  31.154  1.00  0.00     0.010 A 
ATOM     43  C   UNL A   1      35.978  34.624  29.289  1.00  0.00     0.020 A 
ATOM     44  C   UNL A   1      34.385  33.197  30.442  1.00  0.00     0.020 A 
ATOM     45  C   UNL A   1      34.663  34.211  29.523  1.00  0.00     0.054 A 
BRANCH  45  46
ATOM     46  S   UNL A   1      33.313  34.971  28.578  1.00  0.00     0.124 S 
ATOM     47  O   UNL A   1      34.030  35.900  27.710  1.00  0.00    -0.237 OA
ATOM     48  O   UNL A   1      32.699  33.826  27.910  1.00  0.00    -0.237 OA
ATOM     49  O   UNL A   1      32.485  35.590  29.612  1.00  0.00    -0.744 OA
ENDBRANCH  45  46
ENDBRANCH  26  40
BRANCH  27  50
ATOM     50  C   UNL A   1      44.260  28.458  35.679  1.00  0.00    -0.014 A 
ATOM     51  C   UNL A   1      45.604  28.829  35.496  1.00  0.00     0.010 A 
ATOM     52  C   UNL A   1      43.960  27.318  36.446  1.00  0.00     0.010 A 
ATOM     53  C   UNL A   1      46.632  28.041  36.019  1.00  0.00     0.020 A 
ATOM     54  C   UNL A   1      44.986  26.537  36.985  1.00  0.00     0.020 A 
ATOM     55  C   UNL A   1      46.316  26.886  36.739  1.00  0.00     0.054 A 
BRANCH  55  56
ATOM     56  S   UNL A   1      47.663  25.825  37.332  1.00  0.00     0.124 S 
ATOM     57  O   UNL A   1      48.293  26.678  38.337  1.00  0.00    -0.237 OA
ATOM     58  O   UNL A   1      46.952  24.660  37.853  1.00  0.00    -0.237 OA
ATOM     59  O   UNL A   1      48.458  25.580  36.132  1.00  0.00    -0.744 OA
ENDBRANCH  55  56
ENDBRANCH  27  50
BRANCH  39  60
ATOM     60  C   UNL A   1      39.849  33.608  37.408  1.00  0.00    -0.014 A 
ATOM     61  C   UNL A   1      38.928  33.223  38.399  1.00  0.00     0.010 A 
ATOM     62  C   UNL A   1      40.531  34.831  37.541  1.00  0.00     0.010 A 
ATOM     63  C   UNL A   1      38.675  34.055  39.493  1.00  0.00     0.020 A 
ATOM     64  C   UNL A   1      40.296  35.656  38.645  1.00  0.00     0.020 A 
ATOM     65  C   UNL A   1      39.355  35.272  39.604  1.00  0.00     0.054 A 
BRANCH  65  66
ATOM     66  S   UNL A   1      39.017  36.347  41.026  1.00  0.00     0.124 S 
ATOM     67  O   UNL A   1      40.316  36.394  41.689  1.00  0.00    -0.237 OA
ATOM     68  O   UNL A   1      38.584  37.593  40.397  1.00  0.00    -0.237 OA
ATOM     69  O   UNL A   1      37.969  35.630  41.750  1.00  0.00    -0.744 OA
ENDBRANCH  65  66
ENDBRANCH  39  60
ENDBRANCH  13  14
ENDBRANCH   6   8
ENDBRANCH   3   4
ENDBRANCH   2   3
ENDBRANCH   1   2
BRANCH   1  70
ATOM     70  C   UNL A   1      38.598  22.155  25.865  1.00  0.00     0.002 C 
BRANCH  70  71
ATOM     71  C   UNL A   1      37.681  21.139  25.174  1.00  0.00     0.021 C 
BRANCH  71  72
ATOM     72  C   UNL A   1      36.211  21.188  25.596  1.00  0.00     0.116 C 
BRANCH  72  73
ATOM     73  N   UNL A   1      35.463  20.056  25.074  1.00  0.00    -0.352 N 
ATOM     74  C   UNL A   1      34.138  19.972  24.754  1.00  0.00     0.252 C 
ATOM     75  H   UNL A   1      35.986  19.235  24.931  1.00  0.00     0.163 HD
ATOM     76  O   UNL A   1      33.632  18.854  24.579  1.00  0.00    -0.269 OA
BRANCH  74  77
ATOM     77  C   UNL A   1      33.348  21.184  24.643  1.00  0.00     0.051 A 
ATOM     78  C   UNL A   1      32.238  21.462  25.422  1.00  0.00     0.079 A 
ATOM     79  C   UNL A   1      33.650  22.290  23.781  1.00  0.00     0.035 A 
ATOM     80  S   UNL A   1      31.558  22.991  25.081  1.00  0.00    -0.142 S 
ATOM     81  C   UNL A   1      32.742  23.326  23.888  1.00  0.00     0.059 A 
BRANCH  81  82
ATOM     82  C   UNL A   1      32.717  24.625  23.140  1.00  0.00     0.308 C 
BRANCH  82  83
ATOM     83  N   UNL A   1      33.212  25.705  23.988  1.00  0.00    -0.336 N 
ATOM     84  H   UNL A   1      34.231  25.695  23.963  1.00  0.00     0.347 HD
ATOM     85  H   UNL A   1      32.850  25.543  24.928  1.00  0.00     0.347 HD
BRANCH  83  86
ATOM     86  C   UNL A   1      32.747  27.034  23.563  1.00  0.00     0.215 C 
ATOM     87  C   UNL A   1      31.374  26.868  22.896  1.00  0.00     0.081 C 
ATOM     88  C   UNL A   1      32.747  28.017  24.728  1.00  0.00     0.026 A 
ATOM     89  C   UNL A   1      30.841  28.198  22.399  1.00  0.00     0.081 C 
ATOM     90  C   UNL A   1      31.770  29.019  24.886  1.00  0.00     0.017 A 
ATOM     91  C   UNL A   1      33.807  27.977  25.663  1.00  0.00     0.050 A 
ATOM     92  S   UNL A   1      30.386  29.268  23.784  1.00  0.00    -0.125 SA
ATOM     93  C   UNL A   1      31.843  29.904  25.978  1.00  0.00     0.018 A 
ATOM     94  C   UNL A   1      33.864  28.866  26.728  1.00  0.00     0.123 A 
ATOM     95  C   UNL A   1      32.886  29.829  26.900  1.00  0.00     0.040 A 
ATOM     96  F   UNL A   1      34.882  28.795  27.595  1.00  0.00    -0.207 F 
ENDBRANCH  83  86
ENDBRANCH  82  83
ENDBRANCH  81  82
ENDBRANCH  74  77
ENDBRANCH  72  73
ENDBRANCH  71  72
ENDBRANCH  70  71
ENDBRANCH   1  70
TORSDOF 19
ENDMDL
MODEL 2
REMARK VINA RESULT:     -10.7      1.427      2.038
REMARK SMILES O=C(NCCCCCCNC(=O)c1csc(C[NH2+][C@H]2CCSc3ccc(F)cc32)c1)c1ccc(-c2c3nc(c(-c4ccc(S(=O)(=O)[O-])cc4)c4ccc([nH]4)c(-c4ccc(S(=O)(=O)[O-])cc4)c4nc(c(-c5ccc(S(=O)(=O)[O-])cc5)c5ccc2[nH]5)C=C4)C=C3)cc1
REMARK SMILES IDX 6 1 5 2 4 3 3 4 1 5 2 6 31 8 32 9 90 10 33 11 89 12 34 13
REMARK SMILES IDX 35 14 36 15 83 16 37 17 88 18 82 19 84 20 38 21 87 22 81 23
REMARK SMILES IDX 80 24 39 26 69 27 50 28 68 29 51 30 54 31 67 32 85 33 52 34
REMARK SMILES IDX 53 35 66 37 86 38 55 39 40 40 41 41 49 42 42 43 48 44 43 45
REMARK SMILES IDX 44 46 45 47 46 48 47 49 70 50 71 51 79 52 72 53 78 54 73 55
REMARK SMILES IDX 74 56 75 57 76 58 77 59 56 60 57 61 65 62 58 63 64 64 59 65
REMARK SMILES IDX 60 66 61 67 62 68 63 69 7 70 8 71 9 72 10 73 11 74 12 76
REMARK SMILES IDX 13 77 14 78 30 79 15 80 16 81 17 82 18 83 19 86 20 87 29 88
REMARK SMILES IDX 21 89 23 90 28 91 22 92 24 93 26 94 25 95 27 96
REMARK H PARENT 3 7 84 25 54 36 10 75 18 84 18 85
REMARK Flexibility Score: inf
ROOT
ATOM      1  C   UNL A   1      39.257  21.854  26.180  1.00  0.00     0.002 C 
ENDROOT
BRANCH   1   2
ATOM      2  C   UNL A   1      39.717  22.795  27.296  1.00  0.00     0.021 C 
BRANCH   2   3
ATOM      3  C   UNL A   1      41.193  23.179  27.272  1.00  0.00     0.116 C 
BRANCH   3   4
ATOM      4  N   UNL A   1      41.543  23.997  26.126  1.00  0.00    -0.352 N 
ATOM      5  O   UNL A   1      41.801  25.866  24.908  1.00  0.00    -0.269 OA
ATOM      6  C   UNL A   1      41.609  25.364  26.013  1.00  0.00     0.251 C 
ATOM      7  H   UNL A   1      41.767  23.498  25.308  1.00  0.00     0.163 HD
BRANCH   6   8
ATOM      8  C   UNL A   1      41.428  26.236  27.199  1.00  0.00     0.039 A 
ATOM      9  C   UNL A   1      42.367  27.248  27.426  1.00  0.00     0.014 A 
ATOM     10  C   UNL A   1      40.386  26.039  28.110  1.00  0.00     0.014 A 
ATOM     11  C   UNL A   1      42.242  28.079  28.541  1.00  0.00     0.010 A 
ATOM     12  C   UNL A   1      40.228  26.908  29.191  1.00  0.00     0.010 A 
ATOM     13  C   UNL A   1      41.162  27.926  29.427  1.00  0.00    -0.014 A 
BRANCH  13  14
ATOM     14  C   UNL A   1      41.029  28.809  30.613  1.00  0.00     0.031 A 
ATOM     15  C   UNL A   1      39.953  29.858  30.664  1.00  0.00     0.074 A 
ATOM     16  C   UNL A   1      41.876  28.668  31.650  1.00  0.00     0.049 A 
ATOM     17  N   UNL A   1      39.665  30.695  31.627  1.00  0.00    -0.248 NA
ATOM     18  C   UNL A   1      39.099  29.997  29.473  1.00  0.00     0.031 C 
ATOM     19  C   UNL A   1      42.978  27.707  31.714  1.00  0.00     0.029 A 
ATOM     20  N   UNL A   1      41.931  29.322  32.857  1.00  0.00    -0.354 N 
ATOM     21  C   UNL A   1      38.599  31.455  31.163  1.00  0.00     0.074 A 
ATOM     22  C   UNL A   1      38.328  31.021  29.810  1.00  0.00     0.031 C 
ATOM     23  C   UNL A   1      43.571  27.802  32.915  1.00  0.00     0.029 A 
ATOM     24  C   UNL A   1      42.910  28.846  33.695  1.00  0.00     0.049 A 
ATOM     25  H   UNL A   1      41.328  30.061  33.097  1.00  0.00     0.167 HD
ATOM     26  C   UNL A   1      37.889  32.410  31.812  1.00  0.00     0.031 A 
ATOM     27  C   UNL A   1      43.233  29.194  34.956  1.00  0.00     0.031 A 
ATOM     28  C   UNL A   1      38.153  32.841  33.159  1.00  0.00     0.049 A 
ATOM     29  C   UNL A   1      42.443  30.259  35.657  1.00  0.00     0.074 A 
ATOM     30  C   UNL A   1      37.473  33.786  33.907  1.00  0.00     0.029 A 
ATOM     31  N   UNL A   1      39.175  32.355  33.960  1.00  0.00    -0.354 N 
ATOM     32  N   UNL A   1      41.421  30.951  35.210  1.00  0.00    -0.248 NA
ATOM     33  C   UNL A   1      42.838  30.589  37.033  1.00  0.00     0.031 C 
ATOM     34  C   UNL A   1      38.106  33.899  35.148  1.00  0.00     0.029 A 
ATOM     35  C   UNL A   1      39.153  32.990  35.190  1.00  0.00     0.049 A 
ATOM     36  H   UNL A   1      39.819  31.660  33.695  1.00  0.00     0.167 HD
ATOM     37  C   UNL A   1      41.053  31.798  36.248  1.00  0.00     0.074 A 
ATOM     38  C   UNL A   1      41.946  31.517  37.355  1.00  0.00     0.031 C 
ATOM     39  C   UNL A   1      40.065  32.725  36.275  1.00  0.00     0.031 A 
BRANCH  26  40
ATOM     40  C   UNL A   1      36.745  33.045  31.068  1.00  0.00    -0.014 A 
ATOM     41  C   UNL A   1      35.422  32.833  31.494  1.00  0.00     0.010 A 
ATOM     42  C   UNL A   1      36.980  33.824  29.920  1.00  0.00     0.010 A 
ATOM     43  C   UNL A   1      34.353  33.393  30.789  1.00  0.00     0.020 A 
ATOM     44  C   UNL A   1      35.915  34.405  29.227  1.00  0.00     0.020 A 
ATOM     45  C   UNL A   1      34.607  34.176  29.659  1.00  0.00     0.054 A 
BRANCH  45  46
ATOM     46  S   UNL A   1      33.216  34.942  28.781  1.00  0.00     0.124 S 
ATOM     47  O   UNL A   1      32.345  35.348  29.879  1.00  0.00    -0.237 OA
ATOM     48  O   UNL A   1      33.855  36.030  28.044  1.00  0.00    -0.237 OA
ATOM     49  O   UNL A   1      32.707  33.855  27.944  1.00  0.00    -0.744 OA
ENDBRANCH  45  46
ENDBRANCH  26  40
BRANCH  27  50
ATOM     50  C   UNL A   1      44.333  28.463  35.638  1.00  0.00    -0.014 A 
ATOM     51  C   UNL A   1      44.058  27.319  36.409  1.00  0.00     0.010 A 
ATOM     52  C   UNL A   1      45.640  28.979  35.616  1.00  0.00     0.010 A 
ATOM     53  C   UNL A   1      45.059  26.738  37.193  1.00  0.00     0.020 A 
ATOM     54  C   UNL A   1      46.648  28.389  36.385  1.00  0.00     0.020 A 
ATOM     55  C   UNL A   1      46.341  27.292  37.193  1.00  0.00     0.054 A 
BRANCH  55  56
ATOM     56  S   UNL A   1      47.603  26.582  38.285  1.00  0.00     0.124 S 
ATOM     57  O   UNL A   1      47.353  27.296  39.535  1.00  0.00    -0.237 OA
ATOM     58  O   UNL A   1      47.261  25.162  38.294  1.00  0.00    -0.237 OA
ATOM     59  O   UNL A   1      48.858  26.912  37.616  1.00  0.00    -0.744 OA
ENDBRANCH  55  56
ENDBRANCH  27  50
BRANCH  39  60
ATOM     60  C   UNL A   1      39.901  33.537  37.531  1.00  0.00    -0.014 A 
ATOM     61  C   UNL A   1      38.904  33.198  38.463  1.00  0.00     0.010 A 
ATOM     62  C   UNL A   1      40.673  34.694  37.739  1.00  0.00     0.010 A 
ATOM     63  C   UNL A   1      38.665  34.013  39.573  1.00  0.00     0.020 A 
ATOM     64  C   UNL A   1      40.451  35.500  38.860  1.00  0.00     0.020 A 
ATOM     65  C   UNL A   1      39.435  35.165  39.759  1.00  0.00     0.054 A 
BRANCH  65  66
ATOM     66  S   UNL A   1      39.115  36.219  41.202  1.00  0.00     0.124 S 
ATOM     67  O   UNL A   1      40.379  36.135  41.927  1.00  0.00    -0.237 OA
ATOM     68  O   UNL A   1      38.820  37.516  40.599  1.00  0.00    -0.237 OA
ATOM     69  O   UNL A   1      37.976  35.570  41.849  1.00  0.00    -0.744 OA
ENDBRANCH  65  66
ENDBRANCH  39  60
ENDBRANCH  13  14
ENDBRANCH   6   8
ENDBRANCH   3   4
ENDBRANCH   2   3
ENDBRANCH   1   2
BRANCH   1  70
ATOM     70  C   UNL A   1      37.925  22.206  25.514  1.00  0.00     0.002 C 
BRANCH  70  71
ATOM     71  C   UNL A   1      37.009  21.023  25.180  1.00  0.00     0.021 C 
BRANCH  71  72
ATOM     72  C   UNL A   1      35.526  21.364  25.021  1.00  0.00     0.116 C 
BRANCH  72  73
ATOM     73  N   UNL A   1      34.697  20.171  25.015  1.00  0.00    -0.352 N 
ATOM     74  C   UNL A   1      33.353  20.053  25.228  1.00  0.00     0.252 C 
ATOM     75  H   UNL A   1      35.171  19.328  24.830  1.00  0.00     0.163 HD
ATOM     76  O   UNL A   1      32.875  18.930  25.446  1.00  0.00    -0.269 OA
BRANCH  74  77
ATOM     77  C   UNL A   1      32.517  21.239  25.212  1.00  0.00     0.051 A 
ATOM     78  C   UNL A   1      32.009  21.847  26.347  1.00  0.00     0.079 A 
ATOM     79  C   UNL A   1      32.174  21.991  24.040  1.00  0.00     0.035 A 
ATOM     80  S   UNL A   1      31.104  23.251  25.996  1.00  0.00    -0.142 S 
ATOM     81  C   UNL A   1      31.381  23.089  24.312  1.00  0.00     0.059 A 
BRANCH  81  82
ATOM     82  C   UNL A   1      30.812  24.090  23.352  1.00  0.00     0.308 C 
BRANCH  82  83
ATOM     83  N   UNL A   1      30.025  25.088  24.070  1.00  0.00    -0.336 N 
ATOM     84  H   UNL A   1      29.808  24.724  24.997  1.00  0.00     0.347 HD
ATOM     85  H   UNL A   1      29.182  25.262  23.521  1.00  0.00     0.347 HD
BRANCH  83  86
ATOM     86  C   UNL A   1      30.721  26.374  24.222  1.00  0.00     0.215 C 
ATOM     87  C   UNL A   1      32.163  26.197  23.727  1.00  0.00     0.081 C 
ATOM     88  C   UNL A   1      29.966  27.497  23.521  1.00  0.00     0.026 A 
ATOM     89  C   UNL A   1      32.959  27.479  23.884  1.00  0.00     0.081 C 
ATOM     90  C   UNL A   1      30.613  28.561  22.863  1.00  0.00     0.017 A 
ATOM     91  C   UNL A   1      28.554  27.521  23.583  1.00  0.00     0.050 A 
ATOM     92  S   UNL A   1      32.385  28.740  22.723  1.00  0.00    -0.125 SA
ATOM     93  C   UNL A   1      29.851  29.575  22.251  1.00  0.00     0.018 A 
ATOM     94  C   UNL A   1      27.822  28.536  22.980  1.00  0.00     0.123 A 
ATOM     95  C   UNL A   1      28.458  29.563  22.307  1.00  0.00     0.040 A 
ATOM     96  F   UNL A   1      26.485  28.523  23.057  1.00  0.00    -0.207 F 
ENDBRANCH  83  86
ENDBRANCH  82  83
ENDBRANCH  81  82
ENDBRANCH  74  77
ENDBRANCH  72  73
ENDBRANCH  71  72
ENDBRANCH  70  71
ENDBRANCH   1  70
TORSDOF 19
ENDMDL
MODEL 3
REMARK VINA RESULT:     -10.7      1.465      8.208
REMARK SMILES O=C(NCCCCCCNC(=O)c1csc(C[NH2+][C@H]2CCSc3ccc(F)cc32)c1)c1ccc(-c2c3nc(c(-c4ccc(S(=O)(=O)[O-])cc4)c4ccc([nH]4)c(-c4ccc(S(=O)(=O)[O-])cc4)c4nc(c(-c5ccc(S(=O)(=O)[O-])cc5)c5ccc2[nH]5)C=C4)C=C3)cc1
REMARK SMILES IDX 6 1 5 2 4 3 3 4 1 5 2 6 31 8 32 9 90 10 33 11 89 12 34 13
REMARK SMILES IDX 35 14 36 15 83 16 37 17 88 18 82 19 84 20 38 21 87 22 81 23
REMARK SMILES IDX 80 24 39 26 69 27 50 28 68 29 51 30 54 31 67 32 85 33 52 34
REMARK SMILES IDX 53 35 66 37 86 38 55 39 40 40 41 41 49 42 42 43 48 44 43 45
REMARK SMILES IDX 44 46 45 47 46 48 47 49 70 50 71 51 79 52 72 53 78 54 73 55
REMARK SMILES IDX 74 56 75 57 76 58 77 59 56 60 57 61 65 62 58 63 64 64 59 65
REMARK SMILES IDX 60 66 61 67 62 68 63 69 7 70 8 71 9 72 10 73 11 74 12 76
REMARK SMILES IDX 13 77 14 78 30 79 15 80 16 81 17 82 18 83 19 86 20 87 29 88
REMARK SMILES IDX 21 89 23 90 28 91 22 92 24 93 26 94 25 95 27 96
REMARK H PARENT 3 7 84 25 54 36 10 75 18 84 18 85
REMARK Flexibility Score: inf
ROOT
ATOM      1  C   UNL A   1      39.057  22.060  26.095  1.00  0.00     0.002 C 
ENDROOT
BRANCH   1   2
ATOM      2  C   UNL A   1      39.598  23.018  27.160  1.00  0.00     0.021 C 
BRANCH   2   3
ATOM      3  C   UNL A   1      41.104  23.258  27.129  1.00  0.00     0.116 C 
BRANCH   3   4
ATOM      4  N   UNL A   1      41.515  24.115  26.032  1.00  0.00    -0.352 N 
ATOM      5  O   UNL A   1      41.836  26.023  24.894  1.00  0.00    -0.269 OA
ATOM      6  C   UNL A   1      41.585  25.484  25.969  1.00  0.00     0.251 C 
ATOM      7  H   UNL A   1      41.784  23.643  25.211  1.00  0.00     0.163 HD
BRANCH   6   8
ATOM      8  C   UNL A   1      41.338  26.316  27.172  1.00  0.00     0.039 A 
ATOM      9  C   UNL A   1      42.288  27.284  27.515  1.00  0.00     0.014 A 
ATOM     10  C   UNL A   1      40.219  26.123  27.989  1.00  0.00     0.014 A 
ATOM     11  C   UNL A   1      42.101  28.076  28.649  1.00  0.00     0.010 A 
ATOM     12  C   UNL A   1      40.003  26.954  29.088  1.00  0.00     0.010 A 
ATOM     13  C   UNL A   1      40.948  27.928  29.439  1.00  0.00    -0.014 A 
BRANCH  13  14
ATOM     14  C   UNL A   1      40.748  28.769  30.647  1.00  0.00     0.031 A 
ATOM     15  C   UNL A   1      41.635  28.598  31.849  1.00  0.00     0.074 A 
ATOM     16  C   UNL A   1      39.768  29.692  30.663  1.00  0.00     0.049 A 
ATOM     17  N   UNL A   1      41.630  29.263  32.975  1.00  0.00    -0.248 NA
ATOM     18  C   UNL A   1      42.648  27.533  31.784  1.00  0.00     0.031 C 
ATOM     19  C   UNL A   1      38.823  29.939  29.573  1.00  0.00     0.029 A 
ATOM     20  N   UNL A   1      39.414  30.605  31.627  1.00  0.00    -0.354 N 
ATOM     21  C   UNL A   1      42.637  28.702  33.751  1.00  0.00     0.074 A 
ATOM     22  C   UNL A   1      43.194  27.604  32.990  1.00  0.00     0.031 C 
ATOM     23  C   UNL A   1      38.028  30.968  29.909  1.00  0.00     0.029 A 
ATOM     24  C   UNL A   1      38.388  31.436  31.246  1.00  0.00     0.049 A 
ATOM     25  H   UNL A   1      39.854  30.659  32.506  1.00  0.00     0.167 HD
ATOM     26  C   UNL A   1      43.080  29.081  34.974  1.00  0.00     0.031 A 
ATOM     27  C   UNL A   1      37.809  32.469  31.888  1.00  0.00     0.031 A 
ATOM     28  C   UNL A   1      42.532  30.175  35.731  1.00  0.00     0.049 A 
ATOM     29  C   UNL A   1      38.305  32.871  33.246  1.00  0.00     0.074 A 
ATOM     30  C   UNL A   1      42.931  30.647  36.969  1.00  0.00     0.029 A 
ATOM     31  N   UNL A   1      41.471  30.969  35.321  1.00  0.00    -0.354 N 
ATOM     32  N   UNL A   1      39.275  32.342  33.953  1.00  0.00    -0.248 NA
ATOM     33  C   UNL A   1      37.638  34.010  33.891  1.00  0.00     0.031 C 
ATOM     34  C   UNL A   1      42.087  31.704  37.326  1.00  0.00     0.029 A 
ATOM     35  C   UNL A   1      41.192  31.919  36.288  1.00  0.00     0.049 A 
ATOM     36  H   UNL A   1      40.990  30.872  34.469  1.00  0.00     0.167 HD
ATOM     37  C   UNL A   1      39.335  33.083  35.128  1.00  0.00     0.074 A 
ATOM     38  C   UNL A   1      38.319  34.111  35.027  1.00  0.00     0.031 C 
ATOM     39  C   UNL A   1      40.158  32.920  36.192  1.00  0.00     0.031 A 
BRANCH  26  40
ATOM     40  C   UNL A   1      44.229  28.307  35.563  1.00  0.00    -0.014 A 
ATOM     41  C   UNL A   1      43.982  27.195  36.386  1.00  0.00     0.010 A 
ATOM     42  C   UNL A   1      45.557  28.708  35.330  1.00  0.00     0.010 A 
ATOM     43  C   UNL A   1      45.044  26.491  36.962  1.00  0.00     0.020 A 
ATOM     44  C   UNL A   1      46.622  27.993  35.885  1.00  0.00     0.020 A 
ATOM     45  C   UNL A   1      46.357  26.896  36.708  1.00  0.00     0.054 A 
BRANCH  45  46
ATOM     46  S   UNL A   1      47.731  25.946  37.417  1.00  0.00     0.124 S 
ATOM     47  O   UNL A   1      47.611  26.247  38.840  1.00  0.00    -0.237 OA
ATOM     48  O   UNL A   1      47.412  24.573  37.032  1.00  0.00    -0.237 OA
ATOM     49  O   UNL A   1      48.907  26.507  36.754  1.00  0.00    -0.744 OA
ENDBRANCH  45  46
ENDBRANCH  26  40
BRANCH  27  50
ATOM     50  C   UNL A   1      36.728  33.222  31.198  1.00  0.00    -0.014 A 
ATOM     51  C   UNL A   1      35.386  33.051  31.580  1.00  0.00     0.010 A 
ATOM     52  C   UNL A   1      37.029  34.018  30.080  1.00  0.00     0.010 A 
ATOM     53  C   UNL A   1      34.358  33.617  30.821  1.00  0.00     0.020 A 
ATOM     54  C   UNL A   1      36.004  34.601  29.328  1.00  0.00     0.020 A 
ATOM     55  C   UNL A   1      34.674  34.368  29.686  1.00  0.00     0.054 A 
BRANCH  55  56
ATOM     56  S   UNL A   1      33.326  35.018  28.660  1.00  0.00     0.124 S 
ATOM     57  O   UNL A   1      34.042  35.927  27.768  1.00  0.00    -0.237 OA
ATOM     58  O   UNL A   1      32.789  33.814  28.031  1.00  0.00    -0.237 OA
ATOM     59  O   UNL A   1      32.440  35.659  29.628  1.00  0.00    -0.744 OA
ENDBRANCH  55  56
ENDBRANCH  27  50
BRANCH  39  60
ATOM     60  C   UNL A   1      39.987  33.853  37.360  1.00  0.00    -0.014 A 
ATOM     61  C   UNL A   1      39.101  33.522  38.400  1.00  0.00     0.010 A 
ATOM     62  C   UNL A   1      40.631  35.103  37.375  1.00  0.00     0.010 A 
ATOM     63  C   UNL A   1      38.846  34.432  39.430  1.00  0.00     0.020 A 
ATOM     64  C   UNL A   1      40.394  36.008  38.414  1.00  0.00     0.020 A 
ATOM     65  C   UNL A   1      39.487  35.674  39.424  1.00  0.00     0.054 A 
BRANCH  65  66
ATOM     66  S   UNL A   1      39.145  36.852  40.762  1.00  0.00     0.124 S 
ATOM     67  O   UNL A   1      38.438  36.019  41.729  1.00  0.00    -0.237 OA
ATOM     68  O   UNL A   1      40.481  37.286  41.163  1.00  0.00    -0.237 OA
ATOM     69  O   UNL A   1      38.337  37.880  40.110  1.00  0.00    -0.744 OA
ENDBRANCH  65  66
ENDBRANCH  39  60
ENDBRANCH  13  14
ENDBRANCH   6   8
ENDBRANCH   3   4
ENDBRANCH   2   3
ENDBRANCH   1   2
BRANCH   1  70
ATOM     70  C   UNL A   1      37.601  22.280  25.675  1.00  0.00     0.002 C 
BRANCH  70  71
ATOM     71  C   UNL A   1      36.809  21.017  25.317  1.00  0.00     0.021 C 
BRANCH  71  72
ATOM     72  C   UNL A   1      35.402  21.258  24.769  1.00  0.00     0.116 C 
BRANCH  72  73
ATOM     73  N   UNL A   1      34.537  20.110  24.983  1.00  0.00    -0.352 N 
ATOM     74  C   UNL A   1      33.221  20.077  25.345  1.00  0.00     0.252 C 
ATOM     75  H   UNL A   1      34.960  19.231  24.847  1.00  0.00     0.163 HD
ATOM     76  O   UNL A   1      32.731  19.008  25.737  1.00  0.00    -0.269 OA
BRANCH  74  77
ATOM     77  C   UNL A   1      32.428  21.292  25.282  1.00  0.00     0.051 A 
ATOM     78  C   UNL A   1      31.987  21.990  26.392  1.00  0.00     0.079 A 
ATOM     79  C   UNL A   1      32.066  21.979  24.076  1.00  0.00     0.035 A 
ATOM     80  S   UNL A   1      31.121  23.403  25.983  1.00  0.00    -0.142 S 
ATOM     81  C   UNL A   1      31.325  23.122  24.304  1.00  0.00     0.059 A 
BRANCH  81  82
ATOM     82  C   UNL A   1      30.756  24.081  23.301  1.00  0.00     0.308 C 
BRANCH  82  83
ATOM     83  N   UNL A   1      29.916  25.070  23.969  1.00  0.00    -0.336 N 
ATOM     84  H   UNL A   1      29.684  24.723  24.899  1.00  0.00     0.347 HD
ATOM     85  H   UNL A   1      29.085  25.202  23.391  1.00  0.00     0.347 HD
BRANCH  83  86
ATOM     86  C   UNL A   1      30.566  26.382  24.107  1.00  0.00     0.215 C 
ATOM     87  C   UNL A   1      31.966  26.288  23.483  1.00  0.00     0.081 C 
ATOM     88  C   UNL A   1      29.703  27.490  23.513  1.00  0.00     0.026 A 
ATOM     89  C   UNL A   1      32.715  27.600  23.617  1.00  0.00     0.081 C 
ATOM     90  C   UNL A   1      30.243  28.603  22.840  1.00  0.00     0.017 A 
ATOM     91  C   UNL A   1      28.303  27.446  23.696  1.00  0.00     0.050 A 
ATOM     92  S   UNL A   1      31.987  28.870  22.555  1.00  0.00    -0.125 SA
ATOM     93  C   UNL A   1      29.387  29.599  22.332  1.00  0.00     0.018 A 
ATOM     94  C   UNL A   1      27.477  28.443  23.194  1.00  0.00     0.123 A 
ATOM     95  C   UNL A   1      28.006  29.520  22.506  1.00  0.00     0.040 A 
ATOM     96  F   UNL A   1      26.154  28.365  23.386  1.00  0.00    -0.207 F 
ENDBRANCH  83  86
ENDBRANCH  82  83
ENDBRANCH  81  82
ENDBRANCH  74  77
ENDBRANCH  72  73
ENDBRANCH  71  72
ENDBRANCH  70  71
ENDBRANCH   1  70
TORSDOF 19
ENDMDL
