MODEL 1
REMARK VINA RESULT:      -9.8      0.000      0.000
REMARK SMILES CS(=O)(=O)c1ccc(C2=NN(c3ccc(C(=O)NCCCCCCNC(=O)c4ccc(-c5c6nc(c(-c7ccc(S(=O)(=O)[O-])cc7)c7ccc([nH]7)c(-c7ccc(S(=O)(=O)[O-])cc7)c7nc(c(-c8ccc(S(=O)(=O)[O-])cc8)c8ccc5[nH]8)C=C7)C=C6)cc4)cc3)[C@H](c3ccccc3)C2)cc1
REMARK SMILES IDX 21 1 20 2 19 3 18 4 16 5 17 6 15 8 12 9 13 10 89 11 14 12
REMARK SMILES IDX 88 13 11 14 9 15 10 16 97 17 90 18 8 19 5 20 6 21 99 22 7 23
REMARK SMILES IDX 98 24 2 25 1 26 3 27 4 28 91 29 92 30 96 31 93 32 95 33
REMARK SMILES IDX 94 34 22 35 23 36 24 37 25 38 26 39 27 41 28 42 29 43 87 44
REMARK SMILES IDX 30 45 86 46 31 47 32 48 33 49 80 50 34 51 85 52 79 53 81 54
REMARK SMILES IDX 35 55 84 56 78 57 77 58 36 60 66 61 47 62 65 63 48 64 51 65
REMARK SMILES IDX 64 66 82 67 49 68 50 69 63 71 83 72 52 73 37 74 38 75 46 76
REMARK SMILES IDX 39 77 45 78 40 79 41 80 42 81 43 82 44 83 67 84 68 85 76 86
REMARK SMILES IDX 69 87 75 88 70 89 71 90 72 91 73 92 74 93 53 94 54 95 62 96
REMARK SMILES IDX 55 97 61 98 56 99 57 100 58 101 59 102 60 103
REMARK H PARENT 18 7 25 40 81 59 51 70
REMARK Flexibility Score: inf
ROOT
ATOM      1  C   UNL A   1      50.108  24.936  33.277  1.00  0.00     0.002 C 
ENDROOT
BRANCH   1   2
ATOM      2  C   UNL A   1      51.396  24.480  32.578  1.00  0.00     0.021 C 
BRANCH   2   3
ATOM      3  C   UNL A   1      52.377  23.782  33.523  1.00  0.00     0.116 C 
BRANCH   3   4
ATOM      4  N   UNL A   1      52.816  22.526  32.941  1.00  0.00    -0.352 N 
ATOM      5  C   UNL A   1      52.441  21.229  33.179  1.00  0.00     0.251 C 
ATOM      6  O   UNL A   1      52.975  20.337  32.520  1.00  0.00    -0.269 OA
ATOM      7  H   UNL A   1      53.510  22.625  32.249  1.00  0.00     0.163 HD
BRANCH   5   8
ATOM      8  C   UNL A   1      51.363  20.878  34.141  1.00  0.00     0.039 A 
ATOM      9  C   UNL A   1      49.156  20.350  35.810  1.00  0.00     0.060 A 
ATOM     10  C   UNL A   1      49.091  20.069  34.442  1.00  0.00     0.029 A 
ATOM     11  C   UNL A   1      50.363  20.810  36.342  1.00  0.00     0.029 A 
ATOM     12  C   UNL A   1      50.185  20.333  33.612  1.00  0.00     0.016 A 
ATOM     13  C   UNL A   1      51.467  21.048  35.522  1.00  0.00     0.016 A 
BRANCH   9  14
ATOM     14  N   UNL A   1      48.064  20.183  36.650  1.00  0.00    -0.257 N 
ATOM     15  C   UNL A   1      47.156  19.147  38.266  1.00  0.00     0.071 C 
ATOM     16  N   UNL A   1      48.280  19.658  37.878  1.00  0.00    -0.176 NA
ATOM     17  C   UNL A   1      46.034  19.186  37.267  1.00  0.00     0.091 C 
ATOM     18  C   UNL A   1      46.697  20.000  36.140  1.00  0.00     0.144 C 
BRANCH  15  19
ATOM     19  C   UNL A   1      46.998  18.569  39.609  1.00  0.00    -0.002 A 
ATOM     20  C   UNL A   1      46.572  17.461  42.119  1.00  0.00     0.067 A 
ATOM     21  C   UNL A   1      45.786  17.042  41.043  1.00  0.00     0.021 A 
ATOM     22  C   UNL A   1      47.578  18.421  41.945  1.00  0.00     0.021 A 
ATOM     23  C   UNL A   1      45.991  17.613  39.789  1.00  0.00     0.011 A 
ATOM     24  C   UNL A   1      47.796  18.976  40.681  1.00  0.00     0.011 A 
BRANCH  20  25
ATOM     25  S   UNL A   1      46.321  16.719  43.715  1.00  0.00     0.175 S 
ATOM     26  C   UNL A   1      46.443  14.981  43.391  1.00  0.00     0.163 C 
ATOM     27  O   UNL A   1      44.962  17.005  44.123  1.00  0.00    -0.224 OA
ATOM     28  O   UNL A   1      47.446  17.103  44.552  1.00  0.00    -0.224 OA
ENDBRANCH  20  25
ENDBRANCH  15  19
BRANCH  18  29
ATOM     29  C   UNL A   1      46.080  21.343  35.756  1.00  0.00    -0.023 A 
ATOM     30  C   UNL A   1      45.793  22.371  36.667  1.00  0.00     0.006 A 
ATOM     31  C   UNL A   1      45.807  21.589  34.393  1.00  0.00     0.006 A 
ATOM     32  C   UNL A   1      45.250  23.588  36.233  1.00  0.00     0.000 A 
ATOM     33  C   UNL A   1      45.293  22.813  33.958  1.00  0.00     0.000 A 
ATOM     34  C   UNL A   1      45.010  23.812  34.881  1.00  0.00     0.000 A 
ENDBRANCH  18  29
ENDBRANCH   9  14
ENDBRANCH   5   8
ENDBRANCH   3   4
ENDBRANCH   2   3
ENDBRANCH   1   2
BRANCH   1  35
ATOM     35  C   UNL A   1      49.285  23.803  33.902  1.00  0.00     0.002 C 
BRANCH  35  36
ATOM     36  C   UNL A   1      48.913  24.016  35.372  1.00  0.00     0.021 C 
BRANCH  36  37
ATOM     37  C   UNL A   1      48.467  25.436  35.702  1.00  0.00     0.116 C 
BRANCH  37  38
ATOM     38  N   UNL A   1      48.424  25.661  37.140  1.00  0.00    -0.352 N 
ATOM     39  C   UNL A   1      47.665  26.553  37.854  1.00  0.00     0.251 C 
ATOM     40  H   UNL A   1      49.025  25.094  37.675  1.00  0.00     0.163 HD
ATOM     41  O   UNL A   1      47.932  26.785  39.029  1.00  0.00    -0.269 OA
BRANCH  39  42
ATOM     42  C   UNL A   1      46.532  27.239  37.197  1.00  0.00     0.039 A 
ATOM     43  C   UNL A   1      46.778  28.391  36.447  1.00  0.00     0.014 A 
ATOM     44  C   UNL A   1      45.230  26.749  37.329  1.00  0.00     0.014 A 
ATOM     45  C   UNL A   1      45.722  29.021  35.785  1.00  0.00     0.010 A 
ATOM     46  C   UNL A   1      44.194  27.331  36.608  1.00  0.00     0.010 A 
ATOM     47  C   UNL A   1      44.427  28.478  35.835  1.00  0.00    -0.014 A 
BRANCH  47  48
ATOM     48  C   UNL A   1      43.304  29.096  35.085  1.00  0.00     0.031 A 
ATOM     49  C   UNL A   1      42.994  28.651  33.680  1.00  0.00     0.074 A 
ATOM     50  C   UNL A   1      42.601  30.100  35.646  1.00  0.00     0.049 A 
ATOM     51  N   UNL A   1      42.089  29.106  32.852  1.00  0.00    -0.248 NA
ATOM     52  C   UNL A   1      43.825  27.569  33.125  1.00  0.00     0.031 C 
ATOM     53  C   UNL A   1      42.830  30.648  36.987  1.00  0.00     0.029 A 
ATOM     54  N   UNL A   1      41.555  30.842  35.161  1.00  0.00    -0.354 N 
ATOM     55  C   UNL A   1      42.251  28.379  31.678  1.00  0.00     0.074 A 
ATOM     56  C   UNL A   1      43.374  27.491  31.882  1.00  0.00     0.031 C 
ATOM     57  C   UNL A   1      41.931  31.616  37.225  1.00  0.00     0.029 A 
ATOM     58  C   UNL A   1      41.094  31.793  36.042  1.00  0.00     0.049 A 
ATOM     59  H   UNL A   1      41.169  30.709  34.265  1.00  0.00     0.167 HD
ATOM     60  C   UNL A   1      41.518  28.432  30.540  1.00  0.00     0.031 A 
ATOM     61  C   UNL A   1      40.115  32.709  35.914  1.00  0.00     0.031 A 
ATOM     62  C   UNL A   1      40.398  29.315  30.344  1.00  0.00     0.049 A 
ATOM     63  C   UNL A   1      39.328  32.762  34.631  1.00  0.00     0.074 A 
ATOM     64  C   UNL A   1      39.558  29.408  29.249  1.00  0.00     0.029 A 
ATOM     65  N   UNL A   1      39.963  30.259  31.263  1.00  0.00    -0.354 N 
ATOM     66  N   UNL A   1      39.454  32.020  33.558  1.00  0.00    -0.248 NA
ATOM     67  C   UNL A   1      38.261  33.768  34.550  1.00  0.00     0.031 C 
ATOM     68  C   UNL A   1      38.655  30.450  29.478  1.00  0.00     0.029 A 
ATOM     69  C   UNL A   1      38.886  30.959  30.746  1.00  0.00     0.049 A 
ATOM     70  H   UNL A   1      40.363  30.410  32.151  1.00  0.00     0.167 HD
ATOM     71  C   UNL A   1      38.461  32.450  32.683  1.00  0.00     0.074 A 
ATOM     72  C   UNL A   1      37.736  33.505  33.361  1.00  0.00     0.031 C 
ATOM     73  C   UNL A   1      38.174  32.009  31.433  1.00  0.00     0.031 A 
BRANCH  60  74
ATOM     74  C   UNL A   1      41.912  27.514  29.411  1.00  0.00    -0.014 A 
ATOM     75  C   UNL A   1      42.924  27.871  28.501  1.00  0.00     0.010 A 
ATOM     76  C   UNL A   1      41.292  26.257  29.283  1.00  0.00     0.010 A 
ATOM     77  C   UNL A   1      43.278  27.008  27.460  1.00  0.00     0.020 A 
ATOM     78  C   UNL A   1      41.665  25.378  28.263  1.00  0.00     0.020 A 
ATOM     79  C   UNL A   1      42.644  25.767  27.348  1.00  0.00     0.054 A 
BRANCH  79  80
ATOM     80  S   UNL A   1      43.142  24.658  26.001  1.00  0.00     0.124 S 
ATOM     81  O   UNL A   1      43.728  25.592  25.043  1.00  0.00    -0.237 OA
ATOM     82  O   UNL A   1      44.088  23.760  26.659  1.00  0.00    -0.237 OA
ATOM     83  O   UNL A   1      41.889  24.037  25.580  1.00  0.00    -0.744 OA
ENDBRANCH  79  80
ENDBRANCH  60  74
BRANCH  61  84
ATOM     84  C   UNL A   1      39.818  33.644  37.034  1.00  0.00    -0.014 A 
ATOM     85  C   UNL A   1      38.975  33.252  38.089  1.00  0.00     0.010 A 
ATOM     86  C   UNL A   1      40.388  34.931  37.057  1.00  0.00     0.010 A 
ATOM     87  C   UNL A   1      38.692  34.135  39.135  1.00  0.00     0.020 A 
ATOM     88  C   UNL A   1      40.133  35.804  38.116  1.00  0.00     0.020 A 
ATOM     89  C   UNL A   1      39.275  35.406  39.143  1.00  0.00     0.054 A 
BRANCH  89  90
ATOM     90  S   UNL A   1      38.932  36.518  40.535  1.00  0.00     0.124 S 
ATOM     91  O   UNL A   1      38.499  37.733  39.853  1.00  0.00    -0.237 OA
ATOM     92  O   UNL A   1      37.893  35.795  41.265  1.00  0.00    -0.237 OA
ATOM     93  O   UNL A   1      40.217  36.610  41.224  1.00  0.00    -0.744 OA
ENDBRANCH  89  90
ENDBRANCH  61  84
BRANCH  73  94
ATOM     94  C   UNL A   1      37.003  32.639  30.725  1.00  0.00    -0.014 A 
ATOM     95  C   UNL A   1      37.180  33.691  29.808  1.00  0.00     0.010 A 
ATOM     96  C   UNL A   1      35.709  32.130  30.943  1.00  0.00     0.010 A 
ATOM     97  C   UNL A   1      36.079  34.242  29.146  1.00  0.00     0.020 A 
ATOM     98  C   UNL A   1      34.611  32.658  30.260  1.00  0.00     0.020 A 
ATOM     99  C   UNL A   1      34.802  33.721  29.376  1.00  0.00     0.054 A 
BRANCH  99 100
ATOM    100  S   UNL A   1      33.398  34.426  28.470  1.00  0.00     0.124 S 
ATOM    101  O   UNL A   1      32.537  34.888  29.555  1.00  0.00    -0.237 OA
ATOM    102  O   UNL A   1      34.026  35.478  27.675  1.00  0.00    -0.237 OA
ATOM    103  O   UNL A   1      32.880  33.297  27.701  1.00  0.00    -0.744 OA
ENDBRANCH  99 100
ENDBRANCH  73  94
ENDBRANCH  47  48
ENDBRANCH  39  42
ENDBRANCH  37  38
ENDBRANCH  36  37
ENDBRANCH  35  36
ENDBRANCH   1  35
TORSDOF 20
ENDMDL
MODEL 2
REMARK VINA RESULT:      -9.5      7.172     18.231
REMARK SMILES CS(=O)(=O)c1ccc(C2=NN(c3ccc(C(=O)NCCCCCCNC(=O)c4ccc(-c5c6nc(c(-c7ccc(S(=O)(=O)[O-])cc7)c7ccc([nH]7)c(-c7ccc(S(=O)(=O)[O-])cc7)c7nc(c(-c8ccc(S(=O)(=O)[O-])cc8)c8ccc5[nH]8)C=C7)C=C6)cc4)cc3)[C@H](c3ccccc3)C2)cc1
REMARK SMILES IDX 21 1 20 2 19 3 18 4 16 5 17 6 15 8 12 9 13 10 89 11 14 12
REMARK SMILES IDX 88 13 11 14 9 15 10 16 97 17 90 18 8 19 5 20 6 21 99 22 7 23
REMARK SMILES IDX 98 24 2 25 1 26 3 27 4 28 91 29 92 30 96 31 93 32 95 33
REMARK SMILES IDX 94 34 22 35 23 36 24 37 25 38 26 39 27 41 28 42 29 43 87 44
REMARK SMILES IDX 30 45 86 46 31 47 32 48 33 49 80 50 34 51 85 52 79 53 81 54
REMARK SMILES IDX 35 55 84 56 78 57 77 58 36 60 66 61 47 62 65 63 48 64 51 65
REMARK SMILES IDX 64 66 82 67 49 68 50 69 63 71 83 72 52 73 37 74 38 75 46 76
REMARK SMILES IDX 39 77 45 78 40 79 41 80 42 81 43 82 44 83 67 84 68 85 76 86
REMARK SMILES IDX 69 87 75 88 70 89 71 90 72 91 73 92 74 93 53 94 54 95 62 96
REMARK SMILES IDX 55 97 61 98 56 99 57 100 58 101 59 102 60 103
REMARK H PARENT 18 7 25 40 81 59 51 70
REMARK Flexibility Score: inf
ROOT
ATOM      1  C   UNL A   1      38.258  30.015  29.715  1.00  0.00     0.002 C 
ENDROOT
BRANCH   1   2
ATOM      2  C   UNL A   1      37.334  29.940  28.493  1.00  0.00     0.021 C 
BRANCH   2   3
ATOM      3  C   UNL A   1      35.892  29.575  28.853  1.00  0.00     0.116 C 
BRANCH   3   4
ATOM      4  N   UNL A   1      35.000  30.659  28.482  1.00  0.00    -0.352 N 
ATOM      5  C   UNL A   1      33.895  30.696  27.672  1.00  0.00     0.251 C 
ATOM      6  O   UNL A   1      33.304  31.767  27.538  1.00  0.00    -0.269 OA
ATOM      7  H   UNL A   1      35.231  31.527  28.887  1.00  0.00     0.163 HD
BRANCH   5   8
ATOM      8  C   UNL A   1      33.348  29.477  27.020  1.00  0.00     0.039 A 
ATOM      9  C   UNL A   1      32.403  27.263  25.556  1.00  0.00     0.060 A 
ATOM     10  C   UNL A   1      33.742  27.652  25.464  1.00  0.00     0.029 A 
ATOM     11  C   UNL A   1      31.571  27.936  26.454  1.00  0.00     0.029 A 
ATOM     12  C   UNL A   1      34.212  28.752  26.187  1.00  0.00     0.016 A 
ATOM     13  C   UNL A   1      32.042  29.017  27.200  1.00  0.00     0.016 A 
BRANCH   9  14
ATOM     14  N   UNL A   1      31.879  26.232  24.788  1.00  0.00    -0.257 N 
ATOM     15  C   UNL A   1      32.058  24.254  24.038  1.00  0.00     0.071 C 
ATOM     16  N   UNL A   1      32.222  24.963  25.108  1.00  0.00    -0.176 NA
ATOM     17  C   UNL A   1      31.663  25.008  22.800  1.00  0.00     0.091 C 
ATOM     18  C   UNL A   1      31.474  26.420  23.387  1.00  0.00     0.144 C 
BRANCH  15  19
ATOM     19  C   UNL A   1      32.247  22.795  24.047  1.00  0.00    -0.002 A 
ATOM     20  C   UNL A   1      32.513  20.033  23.971  1.00  0.00     0.067 A 
ATOM     21  C   UNL A   1      32.173  20.721  22.804  1.00  0.00     0.021 A 
ATOM     22  C   UNL A   1      32.735  20.719  25.173  1.00  0.00     0.021 A 
ATOM     23  C   UNL A   1      32.023  22.105  22.850  1.00  0.00     0.011 A 
ATOM     24  C   UNL A   1      32.605  22.110  25.210  1.00  0.00     0.011 A 
BRANCH  20  25
ATOM     25  S   UNL A   1      32.721  18.268  23.907  1.00  0.00     0.175 S 
ATOM     26  C   UNL A   1      34.428  18.034  24.321  1.00  0.00     0.163 C 
ATOM     27  O   UNL A   1      32.533  17.854  22.533  1.00  0.00    -0.224 OA
ATOM     28  O   UNL A   1      31.915  17.698  24.973  1.00  0.00    -0.224 OA
ENDBRANCH  20  25
ENDBRANCH  15  19
BRANCH  18  29
ATOM     29  C   UNL A   1      30.089  27.058  23.306  1.00  0.00    -0.023 A 
ATOM     30  C   UNL A   1      28.927  26.500  23.859  1.00  0.00     0.006 A 
ATOM     31  C   UNL A   1      29.966  28.310  22.664  1.00  0.00     0.006 A 
ATOM     32  C   UNL A   1      27.695  27.161  23.767  1.00  0.00     0.000 A 
ATOM     33  C   UNL A   1      28.743  28.983  22.599  1.00  0.00     0.000 A 
ATOM     34  C   UNL A   1      27.605  28.404  23.146  1.00  0.00     0.000 A 
ENDBRANCH  18  29
ENDBRANCH   9  14
ENDBRANCH   5   8
ENDBRANCH   3   4
ENDBRANCH   2   3
ENDBRANCH   1   2
BRANCH   1  35
ATOM     35  C   UNL A   1      39.693  29.537  29.461  1.00  0.00     0.002 C 
BRANCH  35  36
ATOM     36  C   UNL A   1      39.918  28.882  28.095  1.00  0.00     0.021 C 
BRANCH  36  37
ATOM     37  C   UNL A   1      40.449  27.455  28.168  1.00  0.00     0.116 C 
BRANCH  37  38
ATOM     38  N   UNL A   1      40.541  26.851  26.846  1.00  0.00    -0.352 N 
ATOM     39  C   UNL A   1      41.656  26.470  26.144  1.00  0.00     0.251 C 
ATOM     40  H   UNL A   1      39.681  26.693  26.393  1.00  0.00     0.163 HD
ATOM     41  O   UNL A   1      41.569  26.209  24.947  1.00  0.00    -0.269 OA
BRANCH  39  42
ATOM     42  C   UNL A   1      42.961  26.387  26.832  1.00  0.00     0.039 A 
ATOM     43  C   UNL A   1      43.552  25.136  27.019  1.00  0.00     0.014 A 
ATOM     44  C   UNL A   1      43.594  27.543  27.299  1.00  0.00     0.014 A 
ATOM     45  C   UNL A   1      44.807  25.050  27.628  1.00  0.00     0.010 A 
ATOM     46  C   UNL A   1      44.875  27.462  27.834  1.00  0.00     0.010 A 
ATOM     47  C   UNL A   1      45.492  26.215  28.011  1.00  0.00    -0.014 A 
BRANCH  47  48
ATOM     48  C   UNL A   1      46.854  26.148  28.601  1.00  0.00     0.031 A 
ATOM     49  C   UNL A   1      47.029  25.926  30.079  1.00  0.00     0.074 A 
ATOM     50  C   UNL A   1      47.930  26.346  27.814  1.00  0.00     0.049 A 
ATOM     51  N   UNL A   1      48.132  25.887  30.781  1.00  0.00    -0.248 NA
ATOM     52  C   UNL A   1      45.804  25.747  30.877  1.00  0.00     0.031 C 
ATOM     53  C   UNL A   1      47.888  26.609  26.372  1.00  0.00     0.029 A 
ATOM     54  N   UNL A   1      49.268  26.362  28.114  1.00  0.00    -0.354 N 
ATOM     55  C   UNL A   1      47.735  25.695  32.100  1.00  0.00     0.074 A 
ATOM     56  C   UNL A   1      46.289  25.679  32.108  1.00  0.00     0.031 C 
ATOM     57  C   UNL A   1      49.144  26.730  25.912  1.00  0.00     0.029 A 
ATOM     58  C   UNL A   1      50.077  26.601  27.027  1.00  0.00     0.049 A 
ATOM     59  H   UNL A   1      49.619  26.217  29.023  1.00  0.00     0.167 HD
ATOM     60  C   UNL A   1      48.505  25.528  33.202  1.00  0.00     0.031 A 
ATOM     61  C   UNL A   1      51.416  26.711  26.936  1.00  0.00     0.031 A 
ATOM     62  C   UNL A   1      49.944  25.541  33.187  1.00  0.00     0.049 A 
ATOM     63  C   UNL A   1      52.249  26.542  28.178  1.00  0.00     0.074 A 
ATOM     64  C   UNL A   1      50.817  25.329  34.240  1.00  0.00     0.029 A 
ATOM     65  N   UNL A   1      50.724  25.783  32.065  1.00  0.00    -0.354 N 
ATOM     66  N   UNL A   1      51.857  26.294  29.405  1.00  0.00    -0.248 NA
ATOM     67  C   UNL A   1      53.705  26.656  28.020  1.00  0.00     0.031 C 
ATOM     68  C   UNL A   1      52.121  25.503  33.769  1.00  0.00     0.029 A 
ATOM     69  C   UNL A   1      52.065  25.754  32.407  1.00  0.00     0.049 A 
ATOM     70  H   UNL A   1      50.374  25.951  31.160  1.00  0.00     0.167 HD
ATOM     71  C   UNL A   1      53.021  26.192  30.160  1.00  0.00     0.074 A 
ATOM     72  C   UNL A   1      54.128  26.390  29.248  1.00  0.00     0.031 C 
ATOM     73  C   UNL A   1      53.158  25.954  31.489  1.00  0.00     0.031 A 
BRANCH  60  74
ATOM     74  C   UNL A   1      47.804  25.327  34.521  1.00  0.00    -0.014 A 
ATOM     75  C   UNL A   1      47.457  24.040  34.973  1.00  0.00     0.010 A 
ATOM     76  C   UNL A   1      47.524  26.435  35.341  1.00  0.00     0.010 A 
ATOM     77  C   UNL A   1      46.807  23.869  36.198  1.00  0.00     0.020 A 
ATOM     78  C   UNL A   1      46.903  26.266  36.582  1.00  0.00     0.020 A 
ATOM     79  C   UNL A   1      46.533  24.986  36.994  1.00  0.00     0.054 A 
BRANCH  79  80
ATOM     80  S   UNL A   1      45.711  24.731  38.591  1.00  0.00     0.124 S 
ATOM     81  O   UNL A   1      46.353  25.744  39.425  1.00  0.00    -0.237 OA
ATOM     82  O   UNL A   1      44.307  24.979  38.272  1.00  0.00    -0.237 OA
ATOM     83  O   UNL A   1      46.034  23.348  38.933  1.00  0.00    -0.744 OA
ENDBRANCH  79  80
ENDBRANCH  60  74
BRANCH  61  84
ATOM     84  C   UNL A   1      52.052  26.988  25.619  1.00  0.00    -0.014 A 
ATOM     85  C   UNL A   1      52.475  25.932  24.792  1.00  0.00     0.010 A 
ATOM     86  C   UNL A   1      52.230  28.313  25.178  1.00  0.00     0.010 A 
ATOM     87  C   UNL A   1      53.079  26.195  23.559  1.00  0.00     0.020 A 
ATOM     88  C   UNL A   1      52.804  28.579  23.933  1.00  0.00     0.020 A 
ATOM     89  C   UNL A   1      53.238  27.518  23.136  1.00  0.00     0.054 A 
BRANCH  89  90
ATOM     90  S   UNL A   1      53.982  27.835  21.511  1.00  0.00     0.124 S 
ATOM     91  O   UNL A   1      54.878  28.949  21.800  1.00  0.00    -0.237 OA
ATOM     92  O   UNL A   1      54.629  26.561  21.209  1.00  0.00    -0.237 OA
ATOM     93  O   UNL A   1      52.833  28.157  20.667  1.00  0.00    -0.744 OA
ENDBRANCH  89  90
ENDBRANCH  61  84
BRANCH  73  94
ATOM     94  C   UNL A   1      54.559  25.856  32.035  1.00  0.00    -0.014 A 
ATOM     95  C   UNL A   1      55.219  26.979  32.564  1.00  0.00     0.010 A 
ATOM     96  C   UNL A   1      55.202  24.605  32.068  1.00  0.00     0.010 A 
ATOM     97  C   UNL A   1      56.510  26.856  33.088  1.00  0.00     0.020 A 
ATOM     98  C   UNL A   1      56.478  24.473  32.619  1.00  0.00     0.020 A 
ATOM     99  C   UNL A   1      57.130  25.604  33.113  1.00  0.00     0.054 A 
BRANCH  99 100
ATOM    100  S   UNL A   1      58.787  25.466  33.838  1.00  0.00     0.124 S 
ATOM    101  O   UNL A   1      58.497  25.497  35.268  1.00  0.00    -0.237 OA
ATOM    102  O   UNL A   1      59.258  24.185  33.319  1.00  0.00    -0.237 OA
ATOM    103  O   UNL A   1      59.489  26.638  33.319  1.00  0.00    -0.744 OA
ENDBRANCH  99 100
ENDBRANCH  73  94
ENDBRANCH  47  48
ENDBRANCH  39  42
ENDBRANCH  37  38
ENDBRANCH  36  37
ENDBRANCH  35  36
ENDBRANCH   1  35
TORSDOF 20
ENDMDL
MODEL 3
REMARK VINA RESULT:      -9.4      7.561     15.664
REMARK SMILES CS(=O)(=O)c1ccc(C2=NN(c3ccc(C(=O)NCCCCCCNC(=O)c4ccc(-c5c6nc(c(-c7ccc(S(=O)(=O)[O-])cc7)c7ccc([nH]7)c(-c7ccc(S(=O)(=O)[O-])cc7)c7nc(c(-c8ccc(S(=O)(=O)[O-])cc8)c8ccc5[nH]8)C=C7)C=C6)cc4)cc3)[C@H](c3ccccc3)C2)cc1
REMARK SMILES IDX 21 1 20 2 19 3 18 4 16 5 17 6 15 8 12 9 13 10 89 11 14 12
REMARK SMILES IDX 88 13 11 14 9 15 10 16 97 17 90 18 8 19 5 20 6 21 99 22 7 23
REMARK SMILES IDX 98 24 2 25 1 26 3 27 4 28 91 29 92 30 96 31 93 32 95 33
REMARK SMILES IDX 94 34 22 35 23 36 24 37 25 38 26 39 27 41 28 42 29 43 87 44
REMARK SMILES IDX 30 45 86 46 31 47 32 48 33 49 80 50 34 51 85 52 79 53 81 54
REMARK SMILES IDX 35 55 84 56 78 57 77 58 36 60 66 61 47 62 65 63 48 64 51 65
REMARK SMILES IDX 64 66 82 67 49 68 50 69 63 71 83 72 52 73 37 74 38 75 46 76
REMARK SMILES IDX 39 77 45 78 40 79 41 80 42 81 43 82 44 83 67 84 68 85 76 86
REMARK SMILES IDX 69 87 75 88 70 89 71 90 72 91 73 92 74 93 53 94 54 95 62 96
REMARK SMILES IDX 55 97 61 98 56 99 57 100 58 101 59 102 60 103
REMARK H PARENT 18 7 25 40 81 59 51 70
REMARK Flexibility Score: inf
ROOT
ATOM      1  C   UNL A   1      45.705  42.917  29.837  1.00  0.00     0.002 C 
ENDROOT
BRANCH   1   2
ATOM      2  C   UNL A   1      44.888  41.698  29.387  1.00  0.00     0.021 C 
BRANCH   2   3
ATOM      3  C   UNL A   1      44.055  41.966  28.131  1.00  0.00     0.116 C 
BRANCH   3   4
ATOM      4  N   UNL A   1      44.727  41.420  26.965  1.00  0.00    -0.352 N 
ATOM      5  C   UNL A   1      44.765  40.153  26.443  1.00  0.00     0.251 C 
ATOM      6  O   UNL A   1      45.416  39.965  25.415  1.00  0.00    -0.269 OA
ATOM      7  H   UNL A   1      45.251  42.081  26.457  1.00  0.00     0.163 HD
BRANCH   5   8
ATOM      8  C   UNL A   1      43.989  39.029  27.029  1.00  0.00     0.039 A 
ATOM      9  C   UNL A   1      42.734  36.750  28.110  1.00  0.00     0.060 A 
ATOM     10  C   UNL A   1      43.948  37.204  28.633  1.00  0.00     0.029 A 
ATOM     11  C   UNL A   1      42.116  37.500  27.106  1.00  0.00     0.029 A 
ATOM     12  C   UNL A   1      44.573  38.333  28.096  1.00  0.00     0.016 A 
ATOM     13  C   UNL A   1      42.722  38.644  26.586  1.00  0.00     0.016 A 
BRANCH   9  14
ATOM     14  N   UNL A   1      42.127  35.585  28.558  1.00  0.00    -0.257 N 
ATOM     15  C   UNL A   1      40.560  34.657  29.651  1.00  0.00     0.071 C 
ATOM     16  N   UNL A   1      40.799  35.620  28.819  1.00  0.00    -0.176 NA
ATOM     17  C   UNL A   1      41.759  33.894  30.140  1.00  0.00     0.091 C 
ATOM     18  C   UNL A   1      42.864  34.539  29.282  1.00  0.00     0.144 C 
BRANCH  15  19
ATOM     19  C   UNL A   1      39.191  34.338  30.082  1.00  0.00    -0.002 A 
ATOM     20  C   UNL A   1      36.562  33.788  30.785  1.00  0.00     0.067 A 
ATOM     21  C   UNL A   1      36.924  33.789  29.437  1.00  0.00     0.021 A 
ATOM     22  C   UNL A   1      37.509  34.048  31.786  1.00  0.00     0.021 A 
ATOM     23  C   UNL A   1      38.240  34.082  29.086  1.00  0.00     0.011 A 
ATOM     24  C   UNL A   1      38.833  34.320  31.432  1.00  0.00     0.011 A 
BRANCH  20  25
ATOM     25  S   UNL A   1      34.886  33.396  31.232  1.00  0.00     0.175 S 
ATOM     26  C   UNL A   1      34.456  34.666  32.391  1.00  0.00     0.163 C 
ATOM     27  O   UNL A   1      34.904  32.133  31.937  1.00  0.00    -0.224 OA
ATOM     28  O   UNL A   1      34.069  33.574  30.043  1.00  0.00    -0.224 OA
ENDBRANCH  20  25
ENDBRANCH  15  19
BRANCH  18  29
ATOM     29  C   UNL A   1      43.637  33.652  28.309  1.00  0.00    -0.023 A 
ATOM     30  C   UNL A   1      43.606  32.249  28.321  1.00  0.00     0.006 A 
ATOM     31  C   UNL A   1      44.411  34.275  27.305  1.00  0.00     0.006 A 
ATOM     32  C   UNL A   1      44.322  31.504  27.376  1.00  0.00     0.000 A 
ATOM     33  C   UNL A   1      45.102  33.531  26.345  1.00  0.00     0.000 A 
ATOM     34  C   UNL A   1      45.062  32.143  26.385  1.00  0.00     0.000 A 
ENDBRANCH  18  29
ENDBRANCH   9  14
ENDBRANCH   5   8
ENDBRANCH   3   4
ENDBRANCH   2   3
ENDBRANCH   1   2
BRANCH   1  35
ATOM     35  C   UNL A   1      44.948  44.249  29.785  1.00  0.00     0.002 C 
BRANCH  35  36
ATOM     36  C   UNL A   1      44.163  44.590  31.056  1.00  0.00     0.021 C 
BRANCH  36  37
ATOM     37  C   UNL A   1      44.938  44.356  32.348  1.00  0.00     0.116 C 
BRANCH  37  38
ATOM     38  N   UNL A   1      44.077  44.480  33.516  1.00  0.00    -0.352 N 
ATOM     39  C   UNL A   1      43.326  43.519  34.143  1.00  0.00     0.251 C 
ATOM     40  H   UNL A   1      44.028  45.381  33.911  1.00  0.00     0.163 HD
ATOM     41  O   UNL A   1      42.469  43.845  34.959  1.00  0.00    -0.269 OA
BRANCH  39  42
ATOM     42  C   UNL A   1      43.548  42.094  33.824  1.00  0.00     0.039 A 
ATOM     43  C   UNL A   1      42.845  41.517  32.764  1.00  0.00     0.014 A 
ATOM     44  C   UNL A   1      44.443  41.326  34.576  1.00  0.00     0.014 A 
ATOM     45  C   UNL A   1      43.081  40.183  32.425  1.00  0.00     0.010 A 
ATOM     46  C   UNL A   1      44.733  40.023  34.189  1.00  0.00     0.010 A 
ATOM     47  C   UNL A   1      44.050  39.434  33.115  1.00  0.00    -0.014 A 
BRANCH  47  48
ATOM     48  C   UNL A   1      44.361  38.035  32.727  1.00  0.00     0.031 A 
ATOM     49  C   UNL A   1      43.561  36.895  33.299  1.00  0.00     0.074 A 
ATOM     50  C   UNL A   1      45.402  37.787  31.906  1.00  0.00     0.049 A 
ATOM     51  N   UNL A   1      43.716  35.608  33.118  1.00  0.00    -0.248 NA
ATOM     52  C   UNL A   1      42.460  37.244  34.211  1.00  0.00     0.031 C 
ATOM     53  C   UNL A   1      46.276  38.805  31.317  1.00  0.00     0.029 A 
ATOM     54  N   UNL A   1      45.903  36.604  31.427  1.00  0.00    -0.354 N 
ATOM     55  C   UNL A   1      42.744  34.997  33.902  1.00  0.00     0.074 A 
ATOM     56  C   UNL A   1      42.041  36.050  34.601  1.00  0.00     0.031 C 
ATOM     57  C   UNL A   1      47.186  38.202  30.534  1.00  0.00     0.029 A 
ATOM     58  C   UNL A   1      46.992  36.757  30.601  1.00  0.00     0.049 A 
ATOM     59  H   UNL A   1      45.521  35.725  31.655  1.00  0.00     0.167 HD
ATOM     60  C   UNL A   1      42.451  33.679  34.015  1.00  0.00     0.031 A 
ATOM     61  C   UNL A   1      47.753  35.841  29.973  1.00  0.00     0.031 A 
ATOM     62  C   UNL A   1      43.152  32.636  33.314  1.00  0.00     0.049 A 
ATOM     63  C   UNL A   1      47.421  34.382  30.130  1.00  0.00     0.074 A 
ATOM     64  C   UNL A   1      42.898  31.275  33.319  1.00  0.00     0.029 A 
ATOM     65  N   UNL A   1      44.246  32.835  32.484  1.00  0.00    -0.354 N 
ATOM     66  N   UNL A   1      46.455  33.828  30.824  1.00  0.00    -0.248 NA
ATOM     67  C   UNL A   1      48.273  33.426  29.411  1.00  0.00     0.031 C 
ATOM     68  C   UNL A   1      43.875  30.645  32.544  1.00  0.00     0.029 A 
ATOM     69  C   UNL A   1      44.696  31.619  31.997  1.00  0.00     0.049 A 
ATOM     70  H   UNL A   1      44.644  33.711  32.274  1.00  0.00     0.167 HD
ATOM     71  C   UNL A   1      46.566  32.460  30.600  1.00  0.00     0.074 A 
ATOM     72  C   UNL A   1      47.681  32.274  29.695  1.00  0.00     0.031 C 
ATOM     73  C   UNL A   1      45.810  31.449  31.097  1.00  0.00     0.031 A 
BRANCH  60  74
ATOM     74  C   UNL A   1      41.328  33.290  34.942  1.00  0.00    -0.014 A 
ATOM     75  C   UNL A   1      40.040  33.007  34.448  1.00  0.00     0.010 A 
ATOM     76  C   UNL A   1      41.570  33.164  36.322  1.00  0.00     0.010 A 
ATOM     77  C   UNL A   1      39.009  32.647  35.320  1.00  0.00     0.020 A 
ATOM     78  C   UNL A   1      40.550  32.774  37.194  1.00  0.00     0.020 A 
ATOM     79  C   UNL A   1      39.272  32.534  36.688  1.00  0.00     0.054 A 
BRANCH  79  80
ATOM     80  S   UNL A   1      37.920  32.041  37.793  1.00  0.00     0.124 S 
ATOM     81  O   UNL A   1      36.917  33.067  37.517  1.00  0.00    -0.237 OA
ATOM     82  O   UNL A   1      37.592  30.699  37.318  1.00  0.00    -0.237 OA
ATOM     83  O   UNL A   1      38.518  32.099  39.124  1.00  0.00    -0.744 OA
ENDBRANCH  79  80
ENDBRANCH  60  74
BRANCH  61  84
ATOM     84  C   UNL A   1      48.900  36.279  29.130  1.00  0.00    -0.014 A 
ATOM     85  C   UNL A   1      50.113  36.675  29.721  1.00  0.00     0.010 A 
ATOM     86  C   UNL A   1      48.788  36.291  27.727  1.00  0.00     0.010 A 
ATOM     87  C   UNL A   1      51.186  37.093  28.927  1.00  0.00     0.020 A 
ATOM     88  C   UNL A   1      49.868  36.678  26.929  1.00  0.00     0.020 A 
ATOM     89  C   UNL A   1      51.057  37.089  27.535  1.00  0.00     0.054 A 
BRANCH  89  90
ATOM     90  S   UNL A   1      52.477  37.590  26.522  1.00  0.00     0.124 S 
ATOM     91  O   UNL A   1      53.490  36.617  26.917  1.00  0.00    -0.237 OA
ATOM     92  O   UNL A   1      51.958  37.450  25.164  1.00  0.00    -0.237 OA
ATOM     93  O   UNL A   1      52.729  38.965  26.945  1.00  0.00    -0.744 OA
ENDBRANCH  89  90
ENDBRANCH  61  84
BRANCH  73  94
ATOM     94  C   UNL A   1      46.138  30.050  30.646  1.00  0.00    -0.014 A 
ATOM     95  C   UNL A   1      45.603  29.519  29.458  1.00  0.00     0.010 A 
ATOM     96  C   UNL A   1      47.042  29.275  31.397  1.00  0.00     0.010 A 
ATOM     97  C   UNL A   1      45.943  28.226  29.049  1.00  0.00     0.020 A 
ATOM     98  C   UNL A   1      47.407  27.996  30.974  1.00  0.00     0.020 A 
ATOM     99  C   UNL A   1      46.844  27.473  29.808  1.00  0.00     0.054 A 
BRANCH  99 100
ATOM    100  S   UNL A   1      47.300  25.816  29.229  1.00  0.00     0.124 S 
ATOM    101  O   UNL A   1      48.531  25.563  29.972  1.00  0.00    -0.237 OA
ATOM    102  O   UNL A   1      46.149  25.011  29.626  1.00  0.00    -0.237 OA
ATOM    103  O   UNL A   1      47.466  25.987  27.787  1.00  0.00    -0.744 OA
ENDBRANCH  99 100
ENDBRANCH  73  94
ENDBRANCH  47  48
ENDBRANCH  39  42
ENDBRANCH  37  38
ENDBRANCH  36  37
ENDBRANCH  35  36
ENDBRANCH   1  35
TORSDOF 20
ENDMDL
