MODEL 1
REMARK VINA RESULT:     -11.9      0.000      0.000
REMARK SMILES O=C(NCCCCCCNC(=O)[C@H]1Cc2c([nH]c3ccccc23)[C@H](c2c[nH]c3ccccc23)[NH2+]1)c1ccc(-c2c3nc(c(-c4ccc(S(=O)(=O)[O-])cc4)c4ccc([nH]4)c(-c4ccc(S(=O)(=O)[O-])cc4)c4nc(c(-c5ccc(S(=O)(=O)[O-])cc5)c5ccc2[nH]5)C=C4)C=C3)cc1
REMARK SMILES IDX 5 1 4 2 3 3 1 4 2 5 35 7 36 8 94 9 37 10 93 11 38 12 39 13
REMARK SMILES IDX 40 14 87 15 41 16 92 17 86 18 88 19 42 20 91 21 85 22 84 23
REMARK SMILES IDX 43 25 73 26 54 27 72 28 55 29 58 30 71 31 89 32 56 33 57 34
REMARK SMILES IDX 70 36 90 37 59 38 44 39 45 40 53 41 46 42 52 43 47 44 48 45
REMARK SMILES IDX 49 46 50 47 51 48 74 49 75 50 83 51 76 52 82 53 77 54 78 55
REMARK SMILES IDX 79 56 80 57 81 58 60 59 61 60 69 61 62 62 68 63 63 64 64 65
REMARK SMILES IDX 65 66 66 67 67 68 6 69 7 70 8 71 9 72 10 73 11 74 12 76
REMARK SMILES IDX 13 77 14 78 34 79 15 80 24 81 16 84 23 85 17 86 18 87 22 88
REMARK SMILES IDX 19 90 21 91 20 92 25 93 26 94 33 95 27 96 28 97 32 98 29 100
REMARK SMILES IDX 31 101 30 102
REMARK H PARENT 3 6 88 24 58 35 10 75 34 82 34 83 17 89 27 99
REMARK Flexibility Score: inf
ROOT
ATOM      1  C   UNL A   1      34.986  23.630  25.079  1.00  0.00     0.021 C 
ENDROOT
BRANCH   1   2
ATOM      2  C   UNL A   1      36.320  24.083  25.663  1.00  0.00     0.116 C 
BRANCH   2   3
ATOM      3  N   UNL A   1      37.303  23.011  25.673  1.00  0.00    -0.352 N 
ATOM      4  O   UNL A   1      39.354  22.088  25.788  1.00  0.00    -0.269 OA
ATOM      5  C   UNL A   1      38.623  23.033  26.058  1.00  0.00     0.251 C 
ATOM      6  H   UNL A   1      36.975  22.139  25.354  1.00  0.00     0.163 HD
BRANCH   5   7
ATOM      7  C   UNL A   1      39.163  24.205  26.785  1.00  0.00     0.039 A 
ATOM      8  C   UNL A   1      38.913  24.374  28.149  1.00  0.00     0.014 A 
ATOM      9  C   UNL A   1      39.948  25.136  26.099  1.00  0.00     0.014 A 
ATOM     10  C   UNL A   1      39.314  25.545  28.785  1.00  0.00     0.010 A 
ATOM     11  C   UNL A   1      40.427  26.269  26.765  1.00  0.00     0.010 A 
ATOM     12  C   UNL A   1      40.083  26.503  28.104  1.00  0.00    -0.014 A 
BRANCH  12  13
ATOM     13  C   UNL A   1      40.540  27.716  28.833  1.00  0.00     0.031 A 
ATOM     14  C   UNL A   1      41.950  27.832  29.348  1.00  0.00     0.074 A 
ATOM     15  C   UNL A   1      39.680  28.742  28.991  1.00  0.00     0.049 A 
ATOM     16  N   UNL A   1      42.529  28.849  29.937  1.00  0.00    -0.248 NA
ATOM     17  C   UNL A   1      42.824  26.658  29.192  1.00  0.00     0.031 C 
ATOM     18  C   UNL A   1      38.283  28.747  28.544  1.00  0.00     0.029 A 
ATOM     19  N   UNL A   1      39.855  29.987  29.537  1.00  0.00    -0.354 N 
ATOM     20  C   UNL A   1      43.819  28.433  30.243  1.00  0.00     0.074 A 
ATOM     21  C   UNL A   1      43.934  27.062  29.795  1.00  0.00     0.031 C 
ATOM     22  C   UNL A   1      37.751  29.955  28.776  1.00  0.00     0.029 A 
ATOM     23  C   UNL A   1      38.743  30.791  29.441  1.00  0.00     0.049 A 
ATOM     24  H   UNL A   1      40.697  30.279  29.957  1.00  0.00     0.167 HD
ATOM     25  C   UNL A   1      44.818  29.128  30.840  1.00  0.00     0.031 A 
ATOM     26  C   UNL A   1      38.539  32.059  29.844  1.00  0.00     0.031 A 
ATOM     27  C   UNL A   1      44.702  30.495  31.280  1.00  0.00     0.049 A 
ATOM     28  C   UNL A   1      39.659  32.803  30.511  1.00  0.00     0.074 A 
ATOM     29  C   UNL A   1      45.671  31.298  31.857  1.00  0.00     0.029 A 
ATOM     30  N   UNL A   1      43.548  31.260  31.200  1.00  0.00    -0.354 N 
ATOM     31  N   UNL A   1      40.885  32.404  30.751  1.00  0.00    -0.248 NA
ATOM     32  C   UNL A   1      39.369  34.172  30.957  1.00  0.00     0.031 C 
ATOM     33  C   UNL A   1      45.088  32.531  32.173  1.00  0.00     0.029 A 
ATOM     34  C   UNL A   1      43.773  32.517  31.737  1.00  0.00     0.049 A 
ATOM     35  H   UNL A   1      42.694  30.955  30.816  1.00  0.00     0.167 HD
ATOM     36  C   UNL A   1      41.520  33.481  31.356  1.00  0.00     0.074 A 
ATOM     37  C   UNL A   1      40.548  34.553  31.428  1.00  0.00     0.031 C 
ATOM     38  C   UNL A   1      42.795  33.573  31.809  1.00  0.00     0.031 A 
BRANCH  25  39
ATOM     39  C   UNL A   1      46.122  28.411  31.084  1.00  0.00    -0.014 A 
ATOM     40  C   UNL A   1      47.168  28.453  30.147  1.00  0.00     0.010 A 
ATOM     41  C   UNL A   1      46.317  27.718  32.295  1.00  0.00     0.010 A 
ATOM     42  C   UNL A   1      48.369  27.781  30.396  1.00  0.00     0.020 A 
ATOM     43  C   UNL A   1      47.525  27.068  32.559  1.00  0.00     0.020 A 
ATOM     44  C   UNL A   1      48.538  27.087  31.599  1.00  0.00     0.054 A 
BRANCH  44  45
ATOM     45  S   UNL A   1      50.111  26.234  31.901  1.00  0.00     0.124 S 
ATOM     46  O   UNL A   1      50.896  26.633  30.735  1.00  0.00    -0.237 OA
ATOM     47  O   UNL A   1      50.544  26.802  33.174  1.00  0.00    -0.237 OA
ATOM     48  O   UNL A   1      49.737  24.822  31.946  1.00  0.00    -0.744 OA
ENDBRANCH  44  45
ENDBRANCH  25  39
BRANCH  26  49
ATOM     49  C   UNL A   1      37.217  32.703  29.616  1.00  0.00    -0.014 A 
ATOM     50  C   UNL A   1      36.248  32.726  30.633  1.00  0.00     0.010 A 
ATOM     51  C   UNL A   1      36.932  33.321  28.384  1.00  0.00     0.010 A 
ATOM     52  C   UNL A   1      35.012  33.342  30.419  1.00  0.00     0.020 A 
ATOM     53  C   UNL A   1      35.709  33.962  28.176  1.00  0.00     0.020 A 
ATOM     54  C   UNL A   1      34.751  33.959  29.191  1.00  0.00     0.054 A 
BRANCH  54  55
ATOM     55  S   UNL A   1      33.162  34.801  28.954  1.00  0.00     0.124 S 
ATOM     56  O   UNL A   1      33.584  36.109  28.464  1.00  0.00    -0.237 OA
ATOM     57  O   UNL A   1      32.492  33.944  27.980  1.00  0.00    -0.237 OA
ATOM     58  O   UNL A   1      32.570  34.793  30.291  1.00  0.00    -0.744 OA
ENDBRANCH  54  55
ENDBRANCH  26  49
BRANCH  38  59
ATOM     59  C   UNL A   1      43.222  34.895  32.388  1.00  0.00    -0.014 A 
ATOM     60  C   UNL A   1      43.079  35.174  33.759  1.00  0.00     0.010 A 
ATOM     61  C   UNL A   1      43.798  35.865  31.547  1.00  0.00     0.010 A 
ATOM     62  C   UNL A   1      43.465  36.417  34.270  1.00  0.00     0.020 A 
ATOM     63  C   UNL A   1      44.211  37.097  32.060  1.00  0.00     0.020 A 
ATOM     64  C   UNL A   1      44.024  37.372  33.416  1.00  0.00     0.054 A 
BRANCH  64  65
ATOM     65  S   UNL A   1      44.537  38.969  34.104  1.00  0.00     0.124 S 
ATOM     66  O   UNL A   1      45.929  39.052  33.676  1.00  0.00    -0.237 OA
ATOM     67  O   UNL A   1      43.623  39.907  33.457  1.00  0.00    -0.237 OA
ATOM     68  O   UNL A   1      44.335  38.806  35.543  1.00  0.00    -0.744 OA
ENDBRANCH  64  65
ENDBRANCH  38  59
ENDBRANCH  12  13
ENDBRANCH   5   7
ENDBRANCH   2   3
ENDBRANCH   1   2
BRANCH   1  69
ATOM     69  C   UNL A   1      34.908  22.136  24.747  1.00  0.00     0.002 C 
BRANCH  69  70
ATOM     70  C   UNL A   1      33.645  21.691  23.997  1.00  0.00     0.002 C 
BRANCH  70  71
ATOM     71  C   UNL A   1      32.343  22.316  24.508  1.00  0.00     0.021 C 
BRANCH  71  72
ATOM     72  C   UNL A   1      31.563  23.083  23.436  1.00  0.00     0.116 C 
BRANCH  72  73
ATOM     73  N   UNL A   1      32.472  23.596  22.436  1.00  0.00    -0.351 N 
ATOM     74  C   UNL A   1      32.713  24.870  22.019  1.00  0.00     0.278 C 
ATOM     75  H   UNL A   1      33.009  22.908  21.980  1.00  0.00     0.163 HD
ATOM     76  O   UNL A   1      33.444  24.978  21.027  1.00  0.00    -0.268 OA
BRANCH  74  77
ATOM     77  C   UNL A   1      32.121  26.103  22.756  1.00  0.00     0.277 C 
ATOM     78  C   UNL A   1      33.139  26.428  23.890  1.00  0.00     0.114 C 
ATOM     79  N   UNL A   1      31.904  27.214  21.783  1.00  0.00    -0.324 N 
ATOM     80  C   UNL A   1      32.951  27.805  24.398  1.00  0.00    -0.006 A 
ATOM     81  C   UNL A   1      31.566  28.535  22.346  1.00  0.00     0.264 C 
ATOM     82  H   UNL A   1      31.141  26.937  21.165  1.00  0.00     0.347 HD
ATOM     83  H   UNL A   1      32.803  27.342  21.320  1.00  0.00     0.347 HD
ATOM     84  C   UNL A   1      32.257  28.742  23.665  1.00  0.00     0.083 A 
ATOM     85  C   UNL A   1      33.431  28.425  25.581  1.00  0.00     0.003 A 
ATOM     86  N   UNL A   1      32.333  29.927  24.349  1.00  0.00    -0.353 N 
ATOM     87  C   UNL A   1      33.024  29.759  25.529  1.00  0.00     0.046 A 
ATOM     88  C   UNL A   1      34.183  27.992  26.690  1.00  0.00     0.010 A 
ATOM     89  H   UNL A   1      31.948  30.779  24.040  1.00  0.00     0.166 HD
ATOM     90  C   UNL A   1      33.320  30.681  26.539  1.00  0.00     0.026 A 
ATOM     91  C   UNL A   1      34.486  28.900  27.711  1.00  0.00     0.001 A 
ATOM     92  C   UNL A   1      34.058  30.224  27.635  1.00  0.00     0.002 A 
BRANCH  81  93
ATOM     93  C   UNL A   1      30.077  28.875  22.420  1.00  0.00     0.041 A 
ATOM     94  C   UNL A   1      29.532  30.026  21.850  1.00  0.00     0.093 A 
ATOM     95  C   UNL A   1      28.944  28.190  22.997  1.00  0.00     0.009 A 
ATOM     96  N   UNL A   1      28.210  30.123  22.179  1.00  0.00    -0.361 N 
ATOM     97  C   UNL A   1      27.821  29.015  22.881  1.00  0.00     0.046 A 
ATOM     98  C   UNL A   1      28.735  26.944  23.615  1.00  0.00     0.011 A 
ATOM     99  H   UNL A   1      27.624  30.879  21.947  1.00  0.00     0.166 HD
ATOM    100  C   UNL A   1      26.561  28.689  23.401  1.00  0.00     0.026 A 
ATOM    101  C   UNL A   1      27.486  26.588  24.140  1.00  0.00     0.001 A 
ATOM    102  C   UNL A   1      26.414  27.461  24.045  1.00  0.00     0.002 A 
ENDBRANCH  81  93
ENDBRANCH  74  77
ENDBRANCH  72  73
ENDBRANCH  71  72
ENDBRANCH  70  71
ENDBRANCH  69  70
ENDBRANCH   1  69
TORSDOF 17
ENDMDL
MODEL 2
REMARK VINA RESULT:     -11.2      3.391      3.996
REMARK SMILES O=C(NCCCCCCNC(=O)[C@H]1Cc2c([nH]c3ccccc23)[C@H](c2c[nH]c3ccccc23)[NH2+]1)c1ccc(-c2c3nc(c(-c4ccc(S(=O)(=O)[O-])cc4)c4ccc([nH]4)c(-c4ccc(S(=O)(=O)[O-])cc4)c4nc(c(-c5ccc(S(=O)(=O)[O-])cc5)c5ccc2[nH]5)C=C4)C=C3)cc1
REMARK SMILES IDX 5 1 4 2 3 3 1 4 2 5 35 7 36 8 94 9 37 10 93 11 38 12 39 13
REMARK SMILES IDX 40 14 87 15 41 16 92 17 86 18 88 19 42 20 91 21 85 22 84 23
REMARK SMILES IDX 43 25 73 26 54 27 72 28 55 29 58 30 71 31 89 32 56 33 57 34
REMARK SMILES IDX 70 36 90 37 59 38 44 39 45 40 53 41 46 42 52 43 47 44 48 45
REMARK SMILES IDX 49 46 50 47 51 48 74 49 75 50 83 51 76 52 82 53 77 54 78 55
REMARK SMILES IDX 79 56 80 57 81 58 60 59 61 60 69 61 62 62 68 63 63 64 64 65
REMARK SMILES IDX 65 66 66 67 67 68 6 69 7 70 8 71 9 72 10 73 11 74 12 76
REMARK SMILES IDX 13 77 14 78 34 79 15 80 24 81 16 84 23 85 17 86 18 87 22 88
REMARK SMILES IDX 19 90 21 91 20 92 25 93 26 94 33 95 27 96 28 97 32 98 29 100
REMARK SMILES IDX 31 101 30 102
REMARK H PARENT 3 6 88 24 58 35 10 75 34 82 34 83 17 89 27 99
REMARK Flexibility Score: inf
ROOT
ATOM      1  C   UNL A   1      37.938  23.977  26.350  1.00  0.00     0.021 C 
ENDROOT
BRANCH   1   2
ATOM      2  C   UNL A   1      39.341  23.696  26.880  1.00  0.00     0.116 C 
BRANCH   2   3
ATOM      3  N   UNL A   1      40.372  24.240  26.010  1.00  0.00    -0.352 N 
ATOM      4  O   UNL A   1      41.719  25.821  25.137  1.00  0.00    -0.269 OA
ATOM      5  C   UNL A   1      41.043  25.439  26.085  1.00  0.00     0.251 C 
ATOM      6  H   UNL A   1      40.627  23.665  25.253  1.00  0.00     0.163 HD
BRANCH   5   7
ATOM      7  C   UNL A   1      40.934  26.273  27.304  1.00  0.00     0.039 A 
ATOM      8  C   UNL A   1      40.094  25.894  28.354  1.00  0.00     0.014 A 
ATOM      9  C   UNL A   1      41.700  27.438  27.409  1.00  0.00     0.014 A 
ATOM     10  C   UNL A   1      39.904  26.753  29.431  1.00  0.00     0.010 A 
ATOM     11  C   UNL A   1      41.574  28.256  28.537  1.00  0.00     0.010 A 
ATOM     12  C   UNL A   1      40.646  27.941  29.541  1.00  0.00    -0.014 A 
BRANCH  12  13
ATOM     13  C   UNL A   1      40.456  28.807  30.734  1.00  0.00     0.031 A 
ATOM     14  C   UNL A   1      41.366  28.700  31.929  1.00  0.00     0.074 A 
ATOM     15  C   UNL A   1      39.474  29.731  30.716  1.00  0.00     0.049 A 
ATOM     16  N   UNL A   1      41.383  29.430  33.017  1.00  0.00    -0.248 NA
ATOM     17  C   UNL A   1      42.383  27.638  31.910  1.00  0.00     0.031 C 
ATOM     18  C   UNL A   1      38.520  29.926  29.620  1.00  0.00     0.029 A 
ATOM     19  N   UNL A   1      39.133  30.698  31.626  1.00  0.00    -0.354 N 
ATOM     20  C   UNL A   1      42.388  28.903  33.819  1.00  0.00     0.074 A 
ATOM     21  C   UNL A   1      42.947  27.776  33.102  1.00  0.00     0.031 C 
ATOM     22  C   UNL A   1      37.747  30.986  29.892  1.00  0.00     0.029 A 
ATOM     23  C   UNL A   1      38.106  31.510  31.205  1.00  0.00     0.049 A 
ATOM     24  H   UNL A   1      39.581  30.803  32.497  1.00  0.00     0.167 HD
ATOM     25  C   UNL A   1      42.810  29.319  35.038  1.00  0.00     0.031 A 
ATOM     26  C   UNL A   1      37.512  32.558  31.806  1.00  0.00     0.031 A 
ATOM     27  C   UNL A   1      42.255  30.444  35.746  1.00  0.00     0.049 A 
ATOM     28  C   UNL A   1      37.993  32.992  33.160  1.00  0.00     0.074 A 
ATOM     29  C   UNL A   1      42.644  30.969  36.966  1.00  0.00     0.029 A 
ATOM     30  N   UNL A   1      41.192  31.216  35.303  1.00  0.00    -0.354 N 
ATOM     31  N   UNL A   1      38.975  32.506  33.881  1.00  0.00    -0.248 NA
ATOM     32  C   UNL A   1      37.288  34.122  33.780  1.00  0.00     0.031 C 
ATOM     33  C   UNL A   1      41.782  32.025  37.285  1.00  0.00     0.029 A 
ATOM     34  C   UNL A   1      40.894  32.196  36.235  1.00  0.00     0.049 A 
ATOM     35  H   UNL A   1      40.716  31.085  34.450  1.00  0.00     0.167 HD
ATOM     36  C   UNL A   1      39.021  33.285  35.030  1.00  0.00     0.074 A 
ATOM     37  C   UNL A   1      37.980  34.284  34.900  1.00  0.00     0.031 C 
ATOM     38  C   UNL A   1      39.852  33.181  36.096  1.00  0.00     0.031 A 
BRANCH  25  39
ATOM     39  C   UNL A   1      43.910  28.532  35.704  1.00  0.00    -0.014 A 
ATOM     40  C   UNL A   1      45.260  28.898  35.568  1.00  0.00     0.010 A 
ATOM     41  C   UNL A   1      43.580  27.430  36.517  1.00  0.00     0.010 A 
ATOM     42  C   UNL A   1      46.263  28.153  36.197  1.00  0.00     0.020 A 
ATOM     43  C   UNL A   1      44.577  26.699  37.168  1.00  0.00     0.020 A 
ATOM     44  C   UNL A   1      45.915  27.054  36.989  1.00  0.00     0.054 A 
BRANCH  44  45
ATOM     45  S   UNL A   1      47.236  26.112  37.803  1.00  0.00     0.124 S 
ATOM     46  O   UNL A   1      47.966  25.572  36.659  1.00  0.00    -0.237 OA
ATOM     47  O   UNL A   1      47.938  27.139  38.567  1.00  0.00    -0.237 OA
ATOM     48  O   UNL A   1      46.516  25.126  38.604  1.00  0.00    -0.744 OA
ENDBRANCH  44  45
ENDBRANCH  25  39
BRANCH  26  49
ATOM     49  C   UNL A   1      36.402  33.271  31.120  1.00  0.00    -0.014 A 
ATOM     50  C   UNL A   1      35.157  33.436  31.753  1.00  0.00     0.010 A 
ATOM     51  C   UNL A   1      36.593  33.813  29.835  1.00  0.00     0.010 A 
ATOM     52  C   UNL A   1      34.121  34.117  31.109  1.00  0.00     0.020 A 
ATOM     53  C   UNL A   1      35.568  34.519  29.200  1.00  0.00     0.020 A 
ATOM     54  C   UNL A   1      34.334  34.657  29.837  1.00  0.00     0.054 A 
BRANCH  54  55
ATOM     55  S   UNL A   1      32.993  35.586  29.044  1.00  0.00     0.124 S 
ATOM     56  O   UNL A   1      33.726  36.632  28.338  1.00  0.00    -0.237 OA
ATOM     57  O   UNL A   1      32.363  34.573  28.200  1.00  0.00    -0.237 OA
ATOM     58  O   UNL A   1      32.180  36.040  30.171  1.00  0.00    -0.744 OA
ENDBRANCH  54  55
ENDBRANCH  26  49
BRANCH  38  59
ATOM     59  C   UNL A   1      39.693  34.203  37.190  1.00  0.00    -0.014 A 
ATOM     60  C   UNL A   1      39.971  35.563  36.968  1.00  0.00     0.010 A 
ATOM     61  C   UNL A   1      39.233  33.795  38.456  1.00  0.00     0.010 A 
ATOM     62  C   UNL A   1      39.834  36.490  38.005  1.00  0.00     0.020 A 
ATOM     63  C   UNL A   1      39.068  34.723  39.486  1.00  0.00     0.020 A 
ATOM     64  C   UNL A   1      39.389  36.063  39.259  1.00  0.00     0.054 A 
BRANCH  64  65
ATOM     65  S   UNL A   1      39.199  37.285  40.585  1.00  0.00     0.124 S 
ATOM     66  O   UNL A   1      38.376  38.305  39.942  1.00  0.00    -0.237 OA
ATOM     67  O   UNL A   1      38.541  36.518  41.639  1.00  0.00    -0.237 OA
ATOM     68  O   UNL A   1      40.572  37.689  40.881  1.00  0.00    -0.744 OA
ENDBRANCH  64  65
ENDBRANCH  38  59
ENDBRANCH  12  13
ENDBRANCH   5   7
ENDBRANCH   2   3
ENDBRANCH   1   2
BRANCH   1  69
ATOM     69  C   UNL A   1      37.326  22.837  25.530  1.00  0.00     0.002 C 
BRANCH  69  70
ATOM     70  C   UNL A   1      36.037  23.187  24.773  1.00  0.00     0.002 C 
BRANCH  70  71
ATOM     71  C   UNL A   1      34.828  23.482  25.667  1.00  0.00     0.021 C 
BRANCH  71  72
ATOM     72  C   UNL A   1      33.509  23.606  24.900  1.00  0.00     0.116 C 
BRANCH  72  73
ATOM     73  N   UNL A   1      33.771  23.902  23.510  1.00  0.00    -0.351 N 
ATOM     74  C   UNL A   1      33.370  24.944  22.729  1.00  0.00     0.278 C 
ATOM     75  H   UNL A   1      34.335  23.240  23.050  1.00  0.00     0.163 HD
ATOM     76  O   UNL A   1      33.629  24.839  21.525  1.00  0.00    -0.268 OA
BRANCH  74  77
ATOM     77  C   UNL A   1      32.651  26.188  23.322  1.00  0.00     0.277 C 
ATOM     78  C   UNL A   1      33.571  26.676  24.481  1.00  0.00     0.114 C 
ATOM     79  N   UNL A   1      32.424  27.197  22.246  1.00  0.00    -0.324 N 
ATOM     80  C   UNL A   1      33.261  28.074  24.856  1.00  0.00    -0.006 A 
ATOM     81  C   UNL A   1      31.964  28.533  22.672  1.00  0.00     0.264 C 
ATOM     82  H   UNL A   1      31.722  26.817  21.611  1.00  0.00     0.347 HD
ATOM     83  H   UNL A   1      33.340  27.351  21.826  1.00  0.00     0.347 HD
ATOM     84  C   UNL A   1      32.554  28.895  24.006  1.00  0.00     0.083 A 
ATOM     85  C   UNL A   1      33.622  28.822  26.007  1.00  0.00     0.003 A 
ATOM     86  N   UNL A   1      32.507  30.135  24.589  1.00  0.00    -0.353 N 
ATOM     87  C   UNL A   1      33.131  30.114  25.817  1.00  0.00     0.046 A 
ATOM     88  C   UNL A   1      34.329  28.536  27.191  1.00  0.00     0.010 A 
ATOM     89  H   UNL A   1      32.088  30.929  24.185  1.00  0.00     0.166 HD
ATOM     90  C   UNL A   1      33.300  31.135  26.759  1.00  0.00     0.026 A 
ATOM     91  C   UNL A   1      34.505  29.544  28.146  1.00  0.00     0.001 A 
ATOM     92  C   UNL A   1      33.996  30.823  27.931  1.00  0.00     0.002 A 
BRANCH  81  93
ATOM     93  C   UNL A   1      30.453  28.770  22.630  1.00  0.00     0.041 A 
ATOM     94  C   UNL A   1      29.876  29.867  21.990  1.00  0.00     0.093 A 
ATOM     95  C   UNL A   1      29.330  28.021  23.144  1.00  0.00     0.009 A 
ATOM     96  N   UNL A   1      28.530  29.880  22.221  1.00  0.00    -0.361 N 
ATOM     97  C   UNL A   1      28.166  28.764  22.925  1.00  0.00     0.046 A 
ATOM     98  C   UNL A   1      29.161  26.779  23.781  1.00  0.00     0.011 A 
ATOM     99  H   UNL A   1      27.912  30.588  21.926  1.00  0.00     0.166 HD
ATOM    100  C   UNL A   1      26.896  28.364  23.363  1.00  0.00     0.026 A 
ATOM    101  C   UNL A   1      27.904  26.350  24.226  1.00  0.00     0.001 A 
ATOM    102  C   UNL A   1      26.786  27.145  24.030  1.00  0.00     0.002 A 
ENDBRANCH  81  93
ENDBRANCH  74  77
ENDBRANCH  72  73
ENDBRANCH  71  72
ENDBRANCH  70  71
ENDBRANCH  69  70
ENDBRANCH   1  69
TORSDOF 17
ENDMDL
MODEL 3
REMARK VINA RESULT:     -11.2      3.595      8.726
REMARK SMILES O=C(NCCCCCCNC(=O)[C@H]1Cc2c([nH]c3ccccc23)[C@H](c2c[nH]c3ccccc23)[NH2+]1)c1ccc(-c2c3nc(c(-c4ccc(S(=O)(=O)[O-])cc4)c4ccc([nH]4)c(-c4ccc(S(=O)(=O)[O-])cc4)c4nc(c(-c5ccc(S(=O)(=O)[O-])cc5)c5ccc2[nH]5)C=C4)C=C3)cc1
REMARK SMILES IDX 5 1 4 2 3 3 1 4 2 5 35 7 36 8 94 9 37 10 93 11 38 12 39 13
REMARK SMILES IDX 40 14 87 15 41 16 92 17 86 18 88 19 42 20 91 21 85 22 84 23
REMARK SMILES IDX 43 25 73 26 54 27 72 28 55 29 58 30 71 31 89 32 56 33 57 34
REMARK SMILES IDX 70 36 90 37 59 38 44 39 45 40 53 41 46 42 52 43 47 44 48 45
REMARK SMILES IDX 49 46 50 47 51 48 74 49 75 50 83 51 76 52 82 53 77 54 78 55
REMARK SMILES IDX 79 56 80 57 81 58 60 59 61 60 69 61 62 62 68 63 63 64 64 65
REMARK SMILES IDX 65 66 66 67 67 68 6 69 7 70 8 71 9 72 10 73 11 74 12 76
REMARK SMILES IDX 13 77 14 78 34 79 15 80 24 81 16 84 23 85 17 86 18 87 22 88
REMARK SMILES IDX 19 90 21 91 20 92 25 93 26 94 33 95 27 96 28 97 32 98 29 100
REMARK SMILES IDX 31 101 30 102
REMARK H PARENT 3 6 88 24 58 35 10 75 34 82 34 83 17 89 27 99
REMARK Flexibility Score: inf
ROOT
ATOM      1  C   UNL A   1      38.078  23.912  26.488  1.00  0.00     0.021 C 
ENDROOT
BRANCH   1   2
ATOM      2  C   UNL A   1      39.504  23.854  27.028  1.00  0.00     0.116 C 
BRANCH   2   3
ATOM      3  N   UNL A   1      40.470  24.375  26.075  1.00  0.00    -0.352 N 
ATOM      4  O   UNL A   1      41.734  25.936  25.055  1.00  0.00    -0.269 OA
ATOM      5  C   UNL A   1      41.124  25.585  26.058  1.00  0.00     0.251 C 
ATOM      6  H   UNL A   1      40.688  23.772  25.328  1.00  0.00     0.163 HD
BRANCH   5   7
ATOM      7  C   UNL A   1      41.075  26.469  27.246  1.00  0.00     0.039 A 
ATOM      8  C   UNL A   1      40.441  26.052  28.418  1.00  0.00     0.014 A 
ATOM      9  C   UNL A   1      41.691  27.723  27.194  1.00  0.00     0.014 A 
ATOM     10  C   UNL A   1      40.290  26.943  29.476  1.00  0.00     0.010 A 
ATOM     11  C   UNL A   1      41.615  28.584  28.294  1.00  0.00     0.010 A 
ATOM     12  C   UNL A   1      40.881  28.217  29.431  1.00  0.00    -0.014 A 
BRANCH  12  13
ATOM     13  C   UNL A   1      40.744  29.120  30.604  1.00  0.00     0.031 A 
ATOM     14  C   UNL A   1      39.650  30.153  30.671  1.00  0.00     0.074 A 
ATOM     15  C   UNL A   1      41.595  28.973  31.640  1.00  0.00     0.049 A 
ATOM     16  N   UNL A   1      39.347  30.966  31.652  1.00  0.00    -0.248 NA
ATOM     17  C   UNL A   1      38.788  30.299  29.487  1.00  0.00     0.031 C 
ATOM     18  C   UNL A   1      42.703  28.014  31.691  1.00  0.00     0.029 A 
ATOM     19  N   UNL A   1      41.645  29.600  32.858  1.00  0.00    -0.354 N 
ATOM     20  C   UNL A   1      38.282  31.736  31.198  1.00  0.00     0.074 A 
ATOM     21  C   UNL A   1      38.003  31.307  29.844  1.00  0.00     0.031 C 
ATOM     22  C   UNL A   1      43.280  28.072  32.899  1.00  0.00     0.029 A 
ATOM     23  C   UNL A   1      42.627  29.110  33.687  1.00  0.00     0.049 A 
ATOM     24  H   UNL A   1      41.036  30.330  33.116  1.00  0.00     0.167 HD
ATOM     25  C   UNL A   1      37.597  32.708  31.849  1.00  0.00     0.031 A 
ATOM     26  C   UNL A   1      42.971  29.458  34.942  1.00  0.00     0.031 A 
ATOM     27  C   UNL A   1      37.874  33.128  33.199  1.00  0.00     0.049 A 
ATOM     28  C   UNL A   1      42.201  30.544  35.636  1.00  0.00     0.074 A 
ATOM     29  C   UNL A   1      37.208  34.075  33.958  1.00  0.00     0.029 A 
ATOM     30  N   UNL A   1      38.901  32.635  33.989  1.00  0.00    -0.354 N 
ATOM     31  N   UNL A   1      41.170  31.228  35.203  1.00  0.00    -0.248 NA
ATOM     32  C   UNL A   1      42.640  30.901  36.991  1.00  0.00     0.031 C 
ATOM     33  C   UNL A   1      37.865  34.191  35.189  1.00  0.00     0.029 A 
ATOM     34  C   UNL A   1      38.903  33.273  35.219  1.00  0.00     0.049 A 
ATOM     35  H   UNL A   1      39.536  31.934  33.717  1.00  0.00     0.167 HD
ATOM     36  C   UNL A   1      40.821  32.081  36.242  1.00  0.00     0.074 A 
ATOM     37  C   UNL A   1      41.741  31.815  37.329  1.00  0.00     0.031 C 
ATOM     38  C   UNL A   1      39.827  33.003  36.290  1.00  0.00     0.031 A 
BRANCH  25  39
ATOM     39  C   UNL A   1      36.496  33.412  31.097  1.00  0.00    -0.014 A 
ATOM     40  C   UNL A   1      36.725  34.000  29.841  1.00  0.00     0.010 A 
ATOM     41  C   UNL A   1      35.197  33.447  31.640  1.00  0.00     0.010 A 
ATOM     42  C   UNL A   1      35.688  34.646  29.161  1.00  0.00     0.020 A 
ATOM     43  C   UNL A   1      34.152  34.069  30.953  1.00  0.00     0.020 A 
ATOM     44  C   UNL A   1      34.408  34.682  29.725  1.00  0.00     0.054 A 
BRANCH  44  45
ATOM     45  S   UNL A   1      33.078  35.518  28.817  1.00  0.00     0.124 S 
ATOM     46  O   UNL A   1      32.469  34.407  28.089  1.00  0.00    -0.237 OA
ATOM     47  O   UNL A   1      32.265  36.086  29.889  1.00  0.00    -0.237 OA
ATOM     48  O   UNL A   1      33.782  36.494  27.989  1.00  0.00    -0.744 OA
ENDBRANCH  44  45
ENDBRANCH  25  39
BRANCH  26  49
ATOM     49  C   UNL A   1      44.095  28.758  35.620  1.00  0.00    -0.014 A 
ATOM     50  C   UNL A   1      45.410  29.240  35.507  1.00  0.00     0.010 A 
ATOM     51  C   UNL A   1      43.849  27.617  36.407  1.00  0.00     0.010 A 
ATOM     52  C   UNL A   1      46.461  28.586  36.155  1.00  0.00     0.020 A 
ATOM     53  C   UNL A   1      44.893  26.978  37.080  1.00  0.00     0.020 A 
ATOM     54  C   UNL A   1      46.195  27.460  36.941  1.00  0.00     0.054 A 
BRANCH  54  55
ATOM     55  S   UNL A   1      47.566  26.661  37.819  1.00  0.00     0.124 S 
ATOM     56  O   UNL A   1      46.941  25.434  38.304  1.00  0.00    -0.237 OA
ATOM     57  O   UNL A   1      48.562  26.491  36.763  1.00  0.00    -0.237 OA
ATOM     58  O   UNL A   1      47.923  27.633  38.850  1.00  0.00    -0.744 OA
ENDBRANCH  54  55
ENDBRANCH  26  49
BRANCH  38  59
ATOM     59  C   UNL A   1      39.659  33.762  37.579  1.00  0.00    -0.014 A 
ATOM     60  C   UNL A   1      40.366  34.953  37.824  1.00  0.00     0.010 A 
ATOM     61  C   UNL A   1      38.760  33.285  38.550  1.00  0.00     0.010 A 
ATOM     62  C   UNL A   1      40.208  35.630  39.037  1.00  0.00     0.020 A 
ATOM     63  C   UNL A   1      38.578  33.975  39.752  1.00  0.00     0.020 A 
ATOM     64  C   UNL A   1      39.318  35.134  39.995  1.00  0.00     0.054 A 
BRANCH  64  65
ATOM     65  S   UNL A   1      39.114  36.039  41.553  1.00  0.00     0.124 S 
ATOM     66  O   UNL A   1      37.853  35.500  42.054  1.00  0.00    -0.237 OA
ATOM     67  O   UNL A   1      40.305  35.656  42.307  1.00  0.00    -0.237 OA
ATOM     68  O   UNL A   1      39.072  37.439  41.135  1.00  0.00    -0.744 OA
ENDBRANCH  64  65
ENDBRANCH  38  59
ENDBRANCH  12  13
ENDBRANCH   5   7
ENDBRANCH   2   3
ENDBRANCH   1   2
BRANCH   1  69
ATOM     69  C   UNL A   1      37.631  22.658  25.730  1.00  0.00     0.002 C 
BRANCH  69  70
ATOM     70  C   UNL A   1      36.265  22.758  25.037  1.00  0.00     0.002 C 
BRANCH  70  71
ATOM     71  C   UNL A   1      35.104  23.138  25.962  1.00  0.00     0.021 C 
BRANCH  71  72
ATOM     72  C   UNL A   1      33.783  23.383  25.227  1.00  0.00     0.116 C 
BRANCH  72  73
ATOM     73  N   UNL A   1      34.043  23.740  23.851  1.00  0.00    -0.351 N 
ATOM     74  C   UNL A   1      33.631  24.809  23.113  1.00  0.00     0.278 C 
ATOM     75  H   UNL A   1      34.614  23.103  23.364  1.00  0.00     0.163 HD
ATOM     76  O   UNL A   1      33.892  24.757  21.906  1.00  0.00    -0.268 OA
BRANCH  74  77
ATOM     77  C   UNL A   1      32.900  26.020  23.757  1.00  0.00     0.277 C 
ATOM     78  C   UNL A   1      33.915  26.613  24.779  1.00  0.00     0.114 C 
ATOM     79  N   UNL A   1      32.470  26.971  22.691  1.00  0.00    -0.324 N 
ATOM     80  C   UNL A   1      33.550  27.997  25.153  1.00  0.00    -0.006 A 
ATOM     81  C   UNL A   1      31.967  28.286  23.134  1.00  0.00     0.264 C 
ATOM     82  H   UNL A   1      31.726  26.520  22.158  1.00  0.00     0.347 HD
ATOM     83  H   UNL A   1      33.314  27.174  22.157  1.00  0.00     0.347 HD
ATOM     84  C   UNL A   1      32.686  28.736  24.375  1.00  0.00     0.083 A 
ATOM     85  C   UNL A   1      33.992  28.809  26.230  1.00  0.00     0.003 A 
ATOM     86  N   UNL A   1      32.619  29.990  24.926  1.00  0.00    -0.353 N 
ATOM     87  C   UNL A   1      33.387  30.056  26.067  1.00  0.00     0.046 A 
ATOM     88  C   UNL A   1      34.857  28.616  27.325  1.00  0.00     0.010 A 
ATOM     89  H   UNL A   1      32.096  30.737  24.556  1.00  0.00     0.166 HD
ATOM     90  C   UNL A   1      33.594  31.119  26.954  1.00  0.00     0.026 A 
ATOM     91  C   UNL A   1      35.072  29.667  28.223  1.00  0.00     0.001 A 
ATOM     92  C   UNL A   1      34.447  30.899  28.038  1.00  0.00     0.002 A 
BRANCH  81  93
ATOM     93  C   UNL A   1      30.449  28.415  23.273  1.00  0.00     0.041 A 
ATOM     94  C   UNL A   1      29.597  27.313  23.343  1.00  0.00     0.093 A 
ATOM     95  C   UNL A   1      29.571  29.556  23.386  1.00  0.00     0.009 A 
ATOM     96  N   UNL A   1      28.298  27.733  23.341  1.00  0.00    -0.361 N 
ATOM     97  C   UNL A   1      28.249  29.100  23.367  1.00  0.00     0.046 A 
ATOM     98  C   UNL A   1      29.744  30.946  23.505  1.00  0.00     0.011 A 
ATOM     99  H   UNL A   1      27.512  27.140  23.322  1.00  0.00     0.166 HD
ATOM    100  C   UNL A   1      27.134  29.950  23.388  1.00  0.00     0.026 A 
ATOM    101  C   UNL A   1      28.650  31.820  23.534  1.00  0.00     0.001 A 
ATOM    102  C   UNL A   1      27.358  31.324  23.461  1.00  0.00     0.002 A 
ENDBRANCH  81  93
ENDBRANCH  74  77
ENDBRANCH  72  73
ENDBRANCH  71  72
ENDBRANCH  70  71
ENDBRANCH  69  70
ENDBRANCH   1  69
TORSDOF 17
ENDMDL
