MODEL 1
REMARK VINA RESULT:     -11.4      0.000      0.000
REMARK SMILES CC1=C(C)C[C@@H](C(=O)NCCCCCCNC(=O)c2ccc(-c3c4nc(c(-c5ccc(S(=O)(=O)[O-])cc5)c5ccc([nH]5)c(-c5ccc(S(=O)(=O)[O-])cc5)c5nc(c(-c6ccc(S(=O)(=O)[O-])cc6)c6ccc3[nH]6)C=C5)C=C4)cc2)[C@@H](C(=O)N2CCN(c3cccc(C(F)(F)F)c3)CC2)C1
REMARK SMILES IDX 12 1 11 2 10 3 9 4 7 5 8 6 6 8 1 9 2 10 3 11 98 12 4 13 5 14
REMARK SMILES IDX 79 15 80 16 81 17 82 18 83 19 97 20 84 21 96 22 85 23 86 24
REMARK SMILES IDX 87 25 95 26 88 27 90 28 89 29 91 30 92 31 93 32 94 33 13 34
REMARK SMILES IDX 14 35 15 36 16 37 17 38 18 40 19 41 20 42 78 43 21 44 77 45
REMARK SMILES IDX 22 46 23 47 24 48 71 49 25 50 76 51 70 52 72 53 26 54 75 55
REMARK SMILES IDX 69 56 68 57 27 59 57 60 38 61 56 62 39 63 42 64 55 65 73 66
REMARK SMILES IDX 40 67 41 68 54 70 74 71 43 72 28 73 29 74 37 75 30 76 36 77
REMARK SMILES IDX 31 78 32 79 33 80 34 81 35 82 58 83 59 84 67 85 60 86 66 87
REMARK SMILES IDX 61 88 62 89 63 90 64 91 65 92 44 93 45 94 53 95 46 96 52 97
REMARK SMILES IDX 47 98 48 99 49 100 50 101 51 102
REMARK H PARENT 9 7 16 39 72 58 42 69
REMARK Flexibility Score: inf
ROOT
ATOM      1  C   UNL A   1      36.748  23.758  24.882  1.00  0.00     0.002 C 
ENDROOT
BRANCH   1   2
ATOM      2  C   UNL A   1      35.425  23.145  25.341  1.00  0.00     0.021 C 
BRANCH   2   3
ATOM      3  C   UNL A   1      34.330  24.171  25.615  1.00  0.00     0.116 C 
BRANCH   3   4
ATOM      4  N   UNL A   1      33.330  23.706  26.546  1.00  0.00    -0.356 N 
ATOM      5  C   UNL A   1      32.018  23.407  26.387  1.00  0.00     0.224 C 
ATOM      6  O   UNL A   1      31.423  22.959  27.377  1.00  0.00    -0.275 OA
ATOM      7  H   UNL A   1      33.661  23.585  27.465  1.00  0.00     0.163 HD
BRANCH   5   8
ATOM      8  C   UNL A   1      31.269  23.521  25.056  1.00  0.00     0.095 C 
ATOM      9  C   UNL A   1      33.155  25.907  21.822  1.00  0.00     0.039 C 
ATOM     10  C   UNL A   1      32.411  24.982  22.757  1.00  0.00    -0.074 C 
ATOM     11  C   UNL A   1      32.712  23.676  22.908  1.00  0.00    -0.074 C 
ATOM     12  C   UNL A   1      31.365  25.676  23.597  1.00  0.00     0.045 C 
ATOM     13  C   UNL A   1      33.800  22.956  22.150  1.00  0.00     0.039 C 
ATOM     14  C   UNL A   1      32.007  22.804  23.918  1.00  0.00     0.045 C 
ATOM     15  C   UNL A   1      30.612  24.849  24.660  1.00  0.00     0.095 C 
BRANCH  15  16
ATOM     16  C   UNL A   1      30.255  25.776  25.832  1.00  0.00     0.226 C 
ATOM     17  O   UNL A   1      29.422  25.546  26.699  1.00  0.00    -0.275 OA
ATOM     18  N   UNL A   1      31.046  26.912  25.887  1.00  0.00    -0.339 N 
ATOM     19  C   UNL A   1      31.692  27.238  27.162  1.00  0.00     0.141 C 
ATOM     20  C   UNL A   1      30.563  28.081  25.156  1.00  0.00     0.141 C 
ATOM     21  C   UNL A   1      32.853  28.229  26.963  1.00  0.00     0.138 C 
ATOM     22  C   UNL A   1      31.667  29.123  24.939  1.00  0.00     0.138 C 
ATOM     23  N   UNL A   1      32.383  29.386  26.191  1.00  0.00    -0.368 N 
BRANCH  23  24
ATOM     24  C   UNL A   1      32.548  30.660  26.674  1.00  0.00     0.037 A 
ATOM     25  C   UNL A   1      31.607  31.658  26.406  1.00  0.00     0.026 A 
ATOM     26  C   UNL A   1      33.676  30.998  27.430  1.00  0.00     0.039 A 
ATOM     27  C   UNL A   1      31.771  32.955  26.898  1.00  0.00     0.003 A 
ATOM     28  C   UNL A   1      33.876  32.304  27.906  1.00  0.00     0.058 A 
ATOM     29  C   UNL A   1      32.902  33.277  27.643  1.00  0.00     0.013 A 
BRANCH  28  30
ATOM     30  C   UNL A   1      35.118  32.662  28.678  1.00  0.00     0.416 C 
ATOM     31  F   UNL A   1      36.102  31.727  28.552  1.00  0.00    -0.166 F 
ATOM     32  F   UNL A   1      35.669  33.837  28.262  1.00  0.00    -0.166 F 
ATOM     33  F   UNL A   1      34.912  32.804  30.017  1.00  0.00    -0.166 F 
ENDBRANCH  28  30
ENDBRANCH  23  24
ENDBRANCH  15  16
ENDBRANCH   5   8
ENDBRANCH   3   4
ENDBRANCH   2   3
ENDBRANCH   1   2
BRANCH   1  34
ATOM     34  C   UNL A   1      37.931  23.478  25.814  1.00  0.00     0.002 C 
BRANCH  34  35
ATOM     35  C   UNL A   1      38.089  24.472  26.969  1.00  0.00     0.021 C 
BRANCH  35  36
ATOM     36  C   UNL A   1      39.522  24.634  27.468  1.00  0.00     0.116 C 
BRANCH  36  37
ATOM     37  N   UNL A   1      40.356  25.310  26.487  1.00  0.00    -0.352 N 
ATOM     38  C   UNL A   1      40.795  26.608  26.480  1.00  0.00     0.251 C 
ATOM     39  H   UNL A   1      40.643  24.760  25.723  1.00  0.00     0.163 HD
ATOM     40  O   UNL A   1      41.274  27.095  25.457  1.00  0.00    -0.269 OA
BRANCH  38  41
ATOM     41  C   UNL A   1      40.682  27.420  27.707  1.00  0.00     0.039 A 
ATOM     42  C   UNL A   1      40.025  26.888  28.818  1.00  0.00     0.014 A 
ATOM     43  C   UNL A   1      41.227  28.706  27.754  1.00  0.00     0.014 A 
ATOM     44  C   UNL A   1      39.967  27.626  30.002  1.00  0.00     0.010 A 
ATOM     45  C   UNL A   1      41.220  29.416  28.951  1.00  0.00     0.010 A 
ATOM     46  C   UNL A   1      40.592  28.882  30.087  1.00  0.00    -0.014 A 
BRANCH  46  47
ATOM     47  C   UNL A   1      40.620  29.645  31.359  1.00  0.00     0.031 A 
ATOM     48  C   UNL A   1      41.698  29.385  32.374  1.00  0.00     0.074 A 
ATOM     49  C   UNL A   1      39.629  30.517  31.630  1.00  0.00     0.049 A 
ATOM     50  N   UNL A   1      41.841  29.891  33.572  1.00  0.00    -0.248 NA
ATOM     51  C   UNL A   1      42.739  28.413  32.003  1.00  0.00     0.031 C 
ATOM     52  C   UNL A   1      38.508  30.829  30.740  1.00  0.00     0.029 A 
ATOM     53  N   UNL A   1      39.399  31.293  32.739  1.00  0.00    -0.354 N 
ATOM     54  C   UNL A   1      42.976  29.291  34.104  1.00  0.00     0.074 A 
ATOM     55  C   UNL A   1      43.460  28.352  33.114  1.00  0.00     0.031 C 
ATOM     56  C   UNL A   1      37.719  31.742  31.332  1.00  0.00     0.029 A 
ATOM     57  C   UNL A   1      38.254  32.048  32.654  1.00  0.00     0.049 A 
ATOM     58  H   UNL A   1      39.997  31.306  33.520  1.00  0.00     0.167 HD
ATOM     59  C   UNL A   1      43.569  29.513  35.301  1.00  0.00     0.031 A 
ATOM     60  C   UNL A   1      37.688  32.884  33.546  1.00  0.00     0.031 A 
ATOM     61  C   UNL A   1      43.087  30.452  36.279  1.00  0.00     0.049 A 
ATOM     62  C   UNL A   1      38.354  33.097  34.877  1.00  0.00     0.074 A 
ATOM     63  C   UNL A   1      43.650  30.789  37.498  1.00  0.00     0.029 A 
ATOM     64  N   UNL A   1      41.927  31.200  36.154  1.00  0.00    -0.354 N 
ATOM     65  N   UNL A   1      39.462  32.566  35.337  1.00  0.00    -0.248 NA
ATOM     66  C   UNL A   1      37.697  34.027  35.806  1.00  0.00     0.031 C 
ATOM     67  C   UNL A   1      42.803  31.703  38.133  1.00  0.00     0.029 A 
ATOM     68  C   UNL A   1      41.740  31.976  37.286  1.00  0.00     0.049 A 
ATOM     69  H   UNL A   1      41.325  31.182  35.376  1.00  0.00     0.167 HD
ATOM     70  C   UNL A   1      39.644  33.111  36.603  1.00  0.00     0.074 A 
ATOM     71  C   UNL A   1      38.543  34.026  36.827  1.00  0.00     0.031 C 
ATOM     72  C   UNL A   1      40.633  32.874  37.499  1.00  0.00     0.031 A 
BRANCH  59  73
ATOM     73  C   UNL A   1      44.804  28.714  35.623  1.00  0.00    -0.014 A 
ATOM     74  C   UNL A   1      46.081  29.164  35.241  1.00  0.00     0.010 A 
ATOM     75  C   UNL A   1      44.691  27.516  36.351  1.00  0.00     0.010 A 
ATOM     76  C   UNL A   1      47.218  28.411  35.545  1.00  0.00     0.020 A 
ATOM     77  C   UNL A   1      45.828  26.772  36.681  1.00  0.00     0.020 A 
ATOM     78  C   UNL A   1      47.083  27.215  36.259  1.00  0.00     0.054 A 
BRANCH  78  79
ATOM     79  S   UNL A   1      48.578  26.266  36.656  1.00  0.00     0.124 S 
ATOM     80  O   UNL A   1      49.457  27.303  37.191  1.00  0.00    -0.237 OA
ATOM     81  O   UNL A   1      48.091  25.292  37.629  1.00  0.00    -0.237 OA
ATOM     82  O   UNL A   1      48.986  25.708  35.369  1.00  0.00    -0.744 OA
ENDBRANCH  78  79
ENDBRANCH  59  73
BRANCH  60  83
ATOM     83  C   UNL A   1      36.418  33.581  33.206  1.00  0.00    -0.014 A 
ATOM     84  C   UNL A   1      36.441  34.826  32.554  1.00  0.00     0.010 A 
ATOM     85  C   UNL A   1      35.179  32.993  33.516  1.00  0.00     0.010 A 
ATOM     86  C   UNL A   1      35.247  35.479  32.232  1.00  0.00     0.020 A 
ATOM     87  C   UNL A   1      33.982  33.630  33.173  1.00  0.00     0.020 A 
ATOM     88  C   UNL A   1      34.025  34.875  32.542  1.00  0.00     0.054 A 
BRANCH  88  89
ATOM     89  S   UNL A   1      32.488  35.712  32.065  1.00  0.00     0.124 S 
ATOM     90  O   UNL A   1      31.479  34.898  32.733  1.00  0.00    -0.237 OA
ATOM     91  O   UNL A   1      32.679  37.056  32.605  1.00  0.00    -0.237 OA
ATOM     92  O   UNL A   1      32.496  35.631  30.606  1.00  0.00    -0.744 OA
ENDBRANCH  88  89
ENDBRANCH  60  83
BRANCH  72  93
ATOM     93  C   UNL A   1      40.580  33.627  38.800  1.00  0.00    -0.014 A 
ATOM     94  C   UNL A   1      41.261  34.847  38.960  1.00  0.00     0.010 A 
ATOM     95  C   UNL A   1      39.799  33.133  39.861  1.00  0.00     0.010 A 
ATOM     96  C   UNL A   1      41.184  35.545  40.167  1.00  0.00     0.020 A 
ATOM     97  C   UNL A   1      39.698  33.842  41.060  1.00  0.00     0.020 A 
ATOM     98  C   UNL A   1      40.404  35.038  41.210  1.00  0.00     0.054 A 
BRANCH  98  99
ATOM     99  S   UNL A   1      40.283  35.986  42.753  1.00  0.00     0.124 S 
ATOM    100  O   UNL A   1      38.838  36.090  42.932  1.00  0.00    -0.237 OA
ATOM    101  O   UNL A   1      40.975  35.128  43.711  1.00  0.00    -0.237 OA
ATOM    102  O   UNL A   1      40.965  37.240  42.443  1.00  0.00    -0.744 OA
ENDBRANCH  98  99
ENDBRANCH  72  93
ENDBRANCH  46  47
ENDBRANCH  38  41
ENDBRANCH  36  37
ENDBRANCH  35  36
ENDBRANCH  34  35
ENDBRANCH   1  34
TORSDOF 19
ENDMDL
MODEL 2
REMARK VINA RESULT:     -10.7      0.640      7.710
REMARK SMILES CC1=C(C)C[C@@H](C(=O)NCCCCCCNC(=O)c2ccc(-c3c4nc(c(-c5ccc(S(=O)(=O)[O-])cc5)c5ccc([nH]5)c(-c5ccc(S(=O)(=O)[O-])cc5)c5nc(c(-c6ccc(S(=O)(=O)[O-])cc6)c6ccc3[nH]6)C=C5)C=C4)cc2)[C@@H](C(=O)N2CCN(c3cccc(C(F)(F)F)c3)CC2)C1
REMARK SMILES IDX 12 1 11 2 10 3 9 4 7 5 8 6 6 8 1 9 2 10 3 11 98 12 4 13 5 14
REMARK SMILES IDX 79 15 80 16 81 17 82 18 83 19 97 20 84 21 96 22 85 23 86 24
REMARK SMILES IDX 87 25 95 26 88 27 90 28 89 29 91 30 92 31 93 32 94 33 13 34
REMARK SMILES IDX 14 35 15 36 16 37 17 38 18 40 19 41 20 42 78 43 21 44 77 45
REMARK SMILES IDX 22 46 23 47 24 48 71 49 25 50 76 51 70 52 72 53 26 54 75 55
REMARK SMILES IDX 69 56 68 57 27 59 57 60 38 61 56 62 39 63 42 64 55 65 73 66
REMARK SMILES IDX 40 67 41 68 54 70 74 71 43 72 28 73 29 74 37 75 30 76 36 77
REMARK SMILES IDX 31 78 32 79 33 80 34 81 35 82 58 83 59 84 67 85 60 86 66 87
REMARK SMILES IDX 61 88 62 89 63 90 64 91 65 92 44 93 45 94 53 95 46 96 52 97
REMARK SMILES IDX 47 98 48 99 49 100 50 101 51 102
REMARK H PARENT 9 7 16 39 72 58 42 69
REMARK Flexibility Score: inf
ROOT
ATOM      1  C   UNL A   1      37.068  23.322  24.302  1.00  0.00     0.002 C 
ENDROOT
BRANCH   1   2
ATOM      2  C   UNL A   1      35.681  22.693  24.166  1.00  0.00     0.021 C 
BRANCH   2   3
ATOM      3  C   UNL A   1      34.540  23.612  24.590  1.00  0.00     0.116 C 
BRANCH   3   4
ATOM      4  N   UNL A   1      33.684  23.035  25.597  1.00  0.00    -0.356 N 
ATOM      5  C   UNL A   1      32.348  22.808  25.625  1.00  0.00     0.224 C 
ATOM      6  O   UNL A   1      31.901  22.224  26.622  1.00  0.00    -0.275 OA
ATOM      7  H   UNL A   1      34.156  22.755  26.414  1.00  0.00     0.163 HD
BRANCH   5   8
ATOM      8  C   UNL A   1      31.396  23.162  24.480  1.00  0.00     0.095 C 
ATOM      9  C   UNL A   1      32.888  25.905  21.324  1.00  0.00     0.039 C 
ATOM     10  C   UNL A   1      32.243  24.890  22.239  1.00  0.00    -0.074 C 
ATOM     11  C   UNL A   1      32.462  23.562  22.150  1.00  0.00    -0.074 C 
ATOM     12  C   UNL A   1      31.413  25.504  23.342  1.00  0.00     0.045 C 
ATOM     13  C   UNL A   1      33.345  22.909  21.116  1.00  0.00     0.039 C 
ATOM     14  C   UNL A   1      31.871  22.586  23.139  1.00  0.00     0.045 C 
ATOM     15  C   UNL A   1      30.788  24.567  24.397  1.00  0.00     0.095 C 
BRANCH  15  16
ATOM     16  C   UNL A   1      30.709  25.324  25.731  1.00  0.00     0.226 C 
ATOM     17  O   UNL A   1      30.221  24.896  26.769  1.00  0.00    -0.275 OA
ATOM     18  N   UNL A   1      31.339  26.557  25.695  1.00  0.00    -0.339 N 
ATOM     19  C   UNL A   1      32.308  26.864  26.751  1.00  0.00     0.141 C 
ATOM     20  C   UNL A   1      30.519  27.699  25.298  1.00  0.00     0.141 C 
ATOM     21  C   UNL A   1      33.226  28.032  26.346  1.00  0.00     0.138 C 
ATOM     22  C   UNL A   1      31.372  28.910  24.899  1.00  0.00     0.138 C 
ATOM     23  N   UNL A   1      32.406  29.168  25.905  1.00  0.00    -0.368 N 
BRANCH  23  24
ATOM     24  C   UNL A   1      32.564  30.405  26.477  1.00  0.00     0.037 A 
ATOM     25  C   UNL A   1      31.645  31.430  26.239  1.00  0.00     0.026 A 
ATOM     26  C   UNL A   1      33.664  30.679  27.299  1.00  0.00     0.039 A 
ATOM     27  C   UNL A   1      31.801  32.690  26.822  1.00  0.00     0.003 A 
ATOM     28  C   UNL A   1      33.857  31.948  27.868  1.00  0.00     0.058 A 
ATOM     29  C   UNL A   1      32.905  32.948  27.632  1.00  0.00     0.013 A 
BRANCH  28  30
ATOM     30  C   UNL A   1      35.070  32.238  28.712  1.00  0.00     0.416 C 
ATOM     31  F   UNL A   1      36.237  32.058  28.032  1.00  0.00    -0.166 F 
ATOM     32  F   UNL A   1      35.097  33.525  29.159  1.00  0.00    -0.166 F 
ATOM     33  F   UNL A   1      35.166  31.458  29.825  1.00  0.00    -0.166 F 
ENDBRANCH  28  30
ENDBRANCH  23  24
ENDBRANCH  15  16
ENDBRANCH   5   8
ENDBRANCH   3   4
ENDBRANCH   2   3
ENDBRANCH   1   2
BRANCH   1  34
ATOM     34  C   UNL A   1      37.784  22.996  25.616  1.00  0.00     0.002 C 
BRANCH  34  35
ATOM     35  C   UNL A   1      37.900  24.169  26.594  1.00  0.00     0.021 C 
BRANCH  35  36
ATOM     36  C   UNL A   1      39.299  24.374  27.168  1.00  0.00     0.116 C 
BRANCH  36  37
ATOM     37  N   UNL A   1      40.164  25.070  26.229  1.00  0.00    -0.352 N 
ATOM     38  C   UNL A   1      40.647  26.351  26.291  1.00  0.00     0.251 C 
ATOM     39  H   UNL A   1      40.439  24.550  25.440  1.00  0.00     0.163 HD
ATOM     40  O   UNL A   1      41.152  26.872  25.298  1.00  0.00    -0.269 OA
BRANCH  38  41
ATOM     41  C   UNL A   1      40.550  27.103  27.557  1.00  0.00     0.039 A 
ATOM     42  C   UNL A   1      39.768  26.592  28.595  1.00  0.00     0.014 A 
ATOM     43  C   UNL A   1      41.234  28.311  27.714  1.00  0.00     0.014 A 
ATOM     44  C   UNL A   1      39.720  27.267  29.817  1.00  0.00     0.010 A 
ATOM     45  C   UNL A   1      41.233  28.951  28.949  1.00  0.00     0.010 A 
ATOM     46  C   UNL A   1      40.478  28.434  30.013  1.00  0.00    -0.014 A 
BRANCH  46  47
ATOM     47  C   UNL A   1      40.512  29.118  31.329  1.00  0.00     0.031 A 
ATOM     48  C   UNL A   1      39.468  30.144  31.677  1.00  0.00     0.074 A 
ATOM     49  C   UNL A   1      41.527  28.869  32.179  1.00  0.00     0.049 A 
ATOM     50  N   UNL A   1      39.380  30.901  32.739  1.00  0.00    -0.248 NA
ATOM     51  C   UNL A   1      38.397  30.361  30.691  1.00  0.00     0.031 C 
ATOM     52  C   UNL A   1      42.619  27.922  31.940  1.00  0.00     0.029 A 
ATOM     53  N   UNL A   1      41.813  29.401  33.411  1.00  0.00    -0.354 N 
ATOM     54  C   UNL A   1      38.256  31.695  32.547  1.00  0.00     0.074 A 
ATOM     55  C   UNL A   1      37.718  31.356  31.246  1.00  0.00     0.031 C 
ATOM     56  C   UNL A   1      43.446  27.928  32.999  1.00  0.00     0.029 A 
ATOM     57  C   UNL A   1      42.967  28.906  33.970  1.00  0.00     0.049 A 
ATOM     58  H   UNL A   1      41.246  30.073  33.853  1.00  0.00     0.167 HD
ATOM     59  C   UNL A   1      37.713  32.612  33.383  1.00  0.00     0.031 A 
ATOM     60  C   UNL A   1      43.582  29.214  35.129  1.00  0.00     0.031 A 
ATOM     61  C   UNL A   1      38.248  32.941  34.677  1.00  0.00     0.049 A 
ATOM     62  C   UNL A   1      42.971  30.251  36.030  1.00  0.00     0.074 A 
ATOM     63  C   UNL A   1      37.738  33.815  35.621  1.00  0.00     0.029 A 
ATOM     64  N   UNL A   1      39.416  32.416  35.208  1.00  0.00    -0.354 N 
ATOM     65  N   UNL A   1      41.872  30.947  35.857  1.00  0.00    -0.248 NA
ATOM     66  C   UNL A   1      43.679  30.540  37.285  1.00  0.00     0.031 C 
ATOM     67  C   UNL A   1      38.625  33.857  36.702  1.00  0.00     0.029 A 
ATOM     68  C   UNL A   1      39.659  32.968  36.454  1.00  0.00     0.049 A 
ATOM     69  H   UNL A   1      39.988  31.749  34.765  1.00  0.00     0.167 HD
ATOM     70  C   UNL A   1      41.748  31.744  36.990  1.00  0.00     0.074 A 
ATOM     71  C   UNL A   1      42.872  31.429  37.848  1.00  0.00     0.031 C 
ATOM     72  C   UNL A   1      40.790  32.654  37.292  1.00  0.00     0.031 A 
BRANCH  59  73
ATOM     73  C   UNL A   1      36.477  33.333  32.914  1.00  0.00    -0.014 A 
ATOM     74  C   UNL A   1      35.243  32.666  32.806  1.00  0.00     0.010 A 
ATOM     75  C   UNL A   1      36.540  34.706  32.614  1.00  0.00     0.010 A 
ATOM     76  C   UNL A   1      34.105  33.348  32.368  1.00  0.00     0.020 A 
ATOM     77  C   UNL A   1      35.399  35.399  32.200  1.00  0.00     0.020 A 
ATOM     78  C   UNL A   1      34.192  34.710  32.062  1.00  0.00     0.054 A 
BRANCH  78  79
ATOM     79  S   UNL A   1      32.695  35.575  31.512  1.00  0.00     0.124 S 
ATOM     80  O   UNL A   1      32.535  35.064  30.153  1.00  0.00    -0.237 OA
ATOM     81  O   UNL A   1      31.691  35.125  32.474  1.00  0.00    -0.237 OA
ATOM     82  O   UNL A   1      33.056  36.987  31.608  1.00  0.00    -0.744 OA
ENDBRANCH  78  79
ENDBRANCH  59  73
BRANCH  60  83
ATOM     83  C   UNL A   1      44.850  28.530  35.500  1.00  0.00    -0.014 A 
ATOM     84  C   UNL A   1      46.090  29.081  35.132  1.00  0.00     0.010 A 
ATOM     85  C   UNL A   1      44.823  27.333  36.237  1.00  0.00     0.010 A 
ATOM     86  C   UNL A   1      47.281  28.438  35.484  1.00  0.00     0.020 A 
ATOM     87  C   UNL A   1      46.012  26.700  36.612  1.00  0.00     0.020 A 
ATOM     88  C   UNL A   1      47.234  27.253  36.223  1.00  0.00     0.054 A 
BRANCH  88  89
ATOM     89  S   UNL A   1      48.792  26.465  36.717  1.00  0.00     0.124 S 
ATOM     90  O   UNL A   1      48.328  25.209  37.294  1.00  0.00    -0.237 OA
ATOM     91  O   UNL A   1      49.507  26.354  35.447  1.00  0.00    -0.237 OA
ATOM     92  O   UNL A   1      49.368  27.418  37.664  1.00  0.00    -0.744 OA
ENDBRANCH  88  89
ENDBRANCH  60  83
BRANCH  72  93
ATOM     93  C   UNL A   1      40.905  33.365  38.612  1.00  0.00    -0.014 A 
ATOM     94  C   UNL A   1      40.229  32.894  39.751  1.00  0.00     0.010 A 
ATOM     95  C   UNL A   1      41.740  34.492  38.726  1.00  0.00     0.010 A 
ATOM     96  C   UNL A   1      40.364  33.554  40.975  1.00  0.00     0.020 A 
ATOM     97  C   UNL A   1      41.899  35.138  39.954  1.00  0.00     0.020 A 
ATOM     98  C   UNL A   1      41.198  34.672  41.069  1.00  0.00     0.054 A 
BRANCH  98  99
ATOM     99  S   UNL A   1      41.393  35.485  42.679  1.00  0.00     0.124 S 
ATOM    100  O   UNL A   1      42.844  35.497  42.839  1.00  0.00    -0.237 OA
ATOM    101  O   UNL A   1      40.774  36.789  42.458  1.00  0.00    -0.237 OA
ATOM    102  O   UNL A   1      40.672  34.608  43.599  1.00  0.00    -0.744 OA
ENDBRANCH  98  99
ENDBRANCH  72  93
ENDBRANCH  46  47
ENDBRANCH  38  41
ENDBRANCH  36  37
ENDBRANCH  35  36
ENDBRANCH  34  35
ENDBRANCH   1  34
TORSDOF 19
ENDMDL
MODEL 3
REMARK VINA RESULT:     -10.6     11.752     16.531
REMARK SMILES CC1=C(C)C[C@@H](C(=O)NCCCCCCNC(=O)c2ccc(-c3c4nc(c(-c5ccc(S(=O)(=O)[O-])cc5)c5ccc([nH]5)c(-c5ccc(S(=O)(=O)[O-])cc5)c5nc(c(-c6ccc(S(=O)(=O)[O-])cc6)c6ccc3[nH]6)C=C5)C=C4)cc2)[C@@H](C(=O)N2CCN(c3cccc(C(F)(F)F)c3)CC2)C1
REMARK SMILES IDX 12 1 11 2 10 3 9 4 7 5 8 6 6 8 1 9 2 10 3 11 98 12 4 13 5 14
REMARK SMILES IDX 79 15 80 16 81 17 82 18 83 19 97 20 84 21 96 22 85 23 86 24
REMARK SMILES IDX 87 25 95 26 88 27 90 28 89 29 91 30 92 31 93 32 94 33 13 34
REMARK SMILES IDX 14 35 15 36 16 37 17 38 18 40 19 41 20 42 78 43 21 44 77 45
REMARK SMILES IDX 22 46 23 47 24 48 71 49 25 50 76 51 70 52 72 53 26 54 75 55
REMARK SMILES IDX 69 56 68 57 27 59 57 60 38 61 56 62 39 63 42 64 55 65 73 66
REMARK SMILES IDX 40 67 41 68 54 70 74 71 43 72 28 73 29 74 37 75 30 76 36 77
REMARK SMILES IDX 31 78 32 79 33 80 34 81 35 82 58 83 59 84 67 85 60 86 66 87
REMARK SMILES IDX 61 88 62 89 63 90 64 91 65 92 44 93 45 94 53 95 46 96 52 97
REMARK SMILES IDX 47 98 48 99 49 100 50 101 51 102
REMARK H PARENT 9 7 16 39 72 58 42 69
REMARK Flexibility Score: inf
ROOT
ATOM      1  C   UNL A   1      45.732  43.140  29.764  1.00  0.00     0.002 C 
ENDROOT
BRANCH   1   2
ATOM      2  C   UNL A   1      44.853  42.426  28.736  1.00  0.00     0.021 C 
BRANCH   2   3
ATOM      3  C   UNL A   1      44.638  43.217  27.450  1.00  0.00     0.116 C 
BRANCH   3   4
ATOM      4  N   UNL A   1      43.881  42.497  26.455  1.00  0.00    -0.356 N 
ATOM      5  C   UNL A   1      44.249  41.909  25.291  1.00  0.00     0.224 C 
ATOM      6  O   UNL A   1      43.368  41.297  24.672  1.00  0.00    -0.275 OA
ATOM      7  H   UNL A   1      42.921  42.420  26.658  1.00  0.00     0.163 HD
BRANCH   5   8
ATOM      8  C   UNL A   1      45.682  41.900  24.751  1.00  0.00     0.095 C 
ATOM      9  C   UNL A   1      48.843  43.761  27.253  1.00  0.00     0.039 C 
ATOM     10  C   UNL A   1      47.932  43.001  26.317  1.00  0.00    -0.074 C 
ATOM     11  C   UNL A   1      47.590  41.708  26.497  1.00  0.00    -0.074 C 
ATOM     12  C   UNL A   1      47.345  43.849  25.214  1.00  0.00     0.045 C 
ATOM     13  C   UNL A   1      48.087  40.842  27.627  1.00  0.00     0.039 C 
ATOM     14  C   UNL A   1      46.605  41.008  25.592  1.00  0.00     0.045 C 
ATOM     15  C   UNL A   1      46.321  43.202  24.257  1.00  0.00     0.095 C 
BRANCH  15  16
ATOM     16  C   UNL A   1      45.331  44.285  23.804  1.00  0.00     0.226 C 
ATOM     17  O   UNL A   1      44.761  45.086  24.534  1.00  0.00    -0.275 OA
ATOM     18  N   UNL A   1      45.186  44.348  22.427  1.00  0.00    -0.339 N 
ATOM     19  C   UNL A   1      45.331  45.655  21.781  1.00  0.00     0.141 C 
ATOM     20  C   UNL A   1      44.140  43.513  21.841  1.00  0.00     0.141 C 
ATOM     21  C   UNL A   1      45.586  45.506  20.269  1.00  0.00     0.138 C 
ATOM     22  C   UNL A   1      44.321  43.339  20.328  1.00  0.00     0.138 C 
ATOM     23  N   UNL A   1      44.562  44.633  19.684  1.00  0.00    -0.368 N 
BRANCH  23  24
ATOM     24  C   UNL A   1      43.811  45.058  18.616  1.00  0.00     0.037 A 
ATOM     25  C   UNL A   1      43.426  44.170  17.608  1.00  0.00     0.026 A 
ATOM     26  C   UNL A   1      43.429  46.400  18.498  1.00  0.00     0.039 A 
ATOM     27  C   UNL A   1      42.660  44.599  16.522  1.00  0.00     0.003 A 
ATOM     28  C   UNL A   1      42.688  46.858  17.398  1.00  0.00     0.058 A 
ATOM     29  C   UNL A   1      42.294  45.939  16.416  1.00  0.00     0.013 A 
BRANCH  28  30
ATOM     30  C   UNL A   1      42.326  48.314  17.264  1.00  0.00     0.416 C 
ATOM     31  F   UNL A   1      42.908  49.090  18.220  1.00  0.00    -0.166 F 
ATOM     32  F   UNL A   1      42.720  48.840  16.070  1.00  0.00    -0.166 F 
ATOM     33  F   UNL A   1      40.988  48.559  17.352  1.00  0.00    -0.166 F 
ENDBRANCH  28  30
ENDBRANCH  23  24
ENDBRANCH  15  16
ENDBRANCH   5   8
ENDBRANCH   3   4
ENDBRANCH   2   3
ENDBRANCH   1   2
BRANCH   1  34
ATOM     34  C   UNL A   1      46.063  42.303  31.002  1.00  0.00     0.002 C 
BRANCH  34  35
ATOM     35  C   UNL A   1      45.975  43.058  32.332  1.00  0.00     0.021 C 
BRANCH  35  36
ATOM     36  C   UNL A   1      45.649  42.178  33.535  1.00  0.00     0.116 C 
BRANCH  36  37
ATOM     37  N   UNL A   1      44.255  42.306  33.929  1.00  0.00    -0.352 N 
ATOM     38  C   UNL A   1      43.187  41.522  33.581  1.00  0.00     0.251 C 
ATOM     39  H   UNL A   1      44.050  43.062  34.526  1.00  0.00     0.163 HD
ATOM     40  O   UNL A   1      42.038  41.910  33.786  1.00  0.00    -0.269 OA
BRANCH  38  41
ATOM     41  C   UNL A   1      43.426  40.209  32.950  1.00  0.00     0.039 A 
ATOM     42  C   UNL A   1      43.304  40.086  31.565  1.00  0.00     0.014 A 
ATOM     43  C   UNL A   1      43.771  39.103  33.732  1.00  0.00     0.014 A 
ATOM     44  C   UNL A   1      43.588  38.863  30.955  1.00  0.00     0.010 A 
ATOM     45  C   UNL A   1      44.110  37.901  33.118  1.00  0.00     0.010 A 
ATOM     46  C   UNL A   1      44.024  37.770  31.724  1.00  0.00    -0.014 A 
BRANCH  46  47
ATOM     47  C   UNL A   1      44.416  36.488  31.088  1.00  0.00     0.031 A 
ATOM     48  C   UNL A   1      45.701  36.389  30.313  1.00  0.00     0.074 A 
ATOM     49  C   UNL A   1      43.577  35.435  31.148  1.00  0.00     0.049 A 
ATOM     50  N   UNL A   1      46.170  35.382  29.623  1.00  0.00    -0.248 NA
ATOM     51  C   UNL A   1      46.558  37.586  30.292  1.00  0.00     0.031 C 
ATOM     52  C   UNL A   1      42.286  35.419  31.840  1.00  0.00     0.029 A 
ATOM     53  N   UNL A   1      43.679  34.178  30.607  1.00  0.00    -0.354 N 
ATOM     54  C   UNL A   1      47.368  35.824  29.074  1.00  0.00     0.074 A 
ATOM     55  C   UNL A   1      47.532  37.205  29.477  1.00  0.00     0.031 C 
ATOM     56  C   UNL A   1      41.725  34.207  31.695  1.00  0.00     0.029 A 
ATOM     57  C   UNL A   1      42.594  33.376  30.868  1.00  0.00     0.049 A 
ATOM     58  H   UNL A   1      44.456  33.880  30.080  1.00  0.00     0.167 HD
ATOM     59  C   UNL A   1      48.257  35.139  28.316  1.00  0.00     0.031 A 
ATOM     60  C   UNL A   1      42.320  32.117  30.475  1.00  0.00     0.031 A 
ATOM     61  C   UNL A   1      48.092  33.764  27.923  1.00  0.00     0.049 A 
ATOM     62  C   UNL A   1      43.313  31.384  29.616  1.00  0.00     0.074 A 
ATOM     63  C   UNL A   1      48.963  32.966  27.203  1.00  0.00     0.029 A 
ATOM     64  N   UNL A   1      46.982  32.986  28.211  1.00  0.00    -0.354 N 
ATOM     65  N   UNL A   1      44.470  31.801  29.158  1.00  0.00    -0.248 NA
ATOM     66  C   UNL A   1      42.966  30.011  29.225  1.00  0.00     0.031 C 
ATOM     67  C   UNL A   1      48.357  31.720  27.012  1.00  0.00     0.029 A 
ATOM     68  C   UNL A   1      47.132  31.725  27.659  1.00  0.00     0.049 A 
ATOM     69  H   UNL A   1      46.201  33.286  28.731  1.00  0.00     0.167 HD
ATOM     70  C   UNL A   1      44.997  30.734  28.440  1.00  0.00     0.074 A 
ATOM     71  C   UNL A   1      44.042  29.648  28.540  1.00  0.00     0.031 C 
ATOM     72  C   UNL A   1      46.166  30.659  27.758  1.00  0.00     0.031 A 
BRANCH  59  73
ATOM     73  C   UNL A   1      49.487  35.874  27.853  1.00  0.00    -0.014 A 
ATOM     74  C   UNL A   1      50.703  35.768  28.550  1.00  0.00     0.010 A 
ATOM     75  C   UNL A   1      49.436  36.651  26.681  1.00  0.00     0.010 A 
ATOM     76  C   UNL A   1      51.835  36.457  28.110  1.00  0.00     0.020 A 
ATOM     77  C   UNL A   1      50.574  37.322  26.221  1.00  0.00     0.020 A 
ATOM     78  C   UNL A   1      51.762  37.235  26.949  1.00  0.00     0.054 A 
BRANCH  78  79
ATOM     79  S   UNL A   1      53.252  38.106  26.389  1.00  0.00     0.124 S 
ATOM     80  O   UNL A   1      53.204  37.883  24.946  1.00  0.00    -0.237 OA
ATOM     81  O   UNL A   1      53.003  39.479  26.821  1.00  0.00    -0.237 OA
ATOM     82  O   UNL A   1      54.336  37.421  27.089  1.00  0.00    -0.744 OA
ENDBRANCH  78  79
ENDBRANCH  59  73
BRANCH  60  83
ATOM     83  C   UNL A   1      41.046  31.471  30.892  1.00  0.00    -0.014 A 
ATOM     84  C   UNL A   1      40.919  30.912  32.176  1.00  0.00     0.010 A 
ATOM     85  C   UNL A   1      39.949  31.428  30.014  1.00  0.00     0.010 A 
ATOM     86  C   UNL A   1      39.720  30.309  32.568  1.00  0.00     0.020 A 
ATOM     87  C   UNL A   1      38.741  30.848  30.411  1.00  0.00     0.020 A 
ATOM     88  C   UNL A   1      38.638  30.282  31.683  1.00  0.00     0.054 A 
BRANCH  88  89
ATOM     89  S   UNL A   1      37.074  29.544  32.233  1.00  0.00     0.124 S 
ATOM     90  O   UNL A   1      36.484  30.628  33.010  1.00  0.00    -0.237 OA
ATOM     91  O   UNL A   1      36.409  29.235  30.969  1.00  0.00    -0.237 OA
ATOM     92  O   UNL A   1      37.501  28.379  33.003  1.00  0.00    -0.744 OA
ENDBRANCH  88  89
ENDBRANCH  60  83
BRANCH  72  93
ATOM     93  C   UNL A   1      46.487  29.356  27.079  1.00  0.00    -0.014 A 
ATOM     94  C   UNL A   1      47.070  28.292  27.790  1.00  0.00     0.010 A 
ATOM     95  C   UNL A   1      46.156  29.176  25.723  1.00  0.00     0.010 A 
ATOM     96  C   UNL A   1      47.342  27.080  27.150  1.00  0.00     0.020 A 
ATOM     97  C   UNL A   1      46.402  27.957  25.087  1.00  0.00     0.020 A 
ATOM     98  C   UNL A   1      47.007  26.921  25.802  1.00  0.00     0.054 A 
BRANCH  98  99
ATOM     99  S   UNL A   1      47.328  25.323  25.005  1.00  0.00     0.124 S 
ATOM    100  O   UNL A   1      47.957  24.567  26.085  1.00  0.00    -0.237 OA
ATOM    101  O   UNL A   1      45.990  24.879  24.624  1.00  0.00    -0.237 OA
ATOM    102  O   UNL A   1      48.206  25.663  23.889  1.00  0.00    -0.744 OA
ENDBRANCH  98  99
ENDBRANCH  72  93
ENDBRANCH  46  47
ENDBRANCH  38  41
ENDBRANCH  36  37
ENDBRANCH  35  36
ENDBRANCH  34  35
ENDBRANCH   1  34
TORSDOF 19
ENDMDL
