MODEL 1
REMARK VINA RESULT:     -11.3      0.000      0.000
REMARK SMILES O=C(NCCCCCCNC(=O)c1ccc(-c2c3nc(c(-c4ccc(S(=O)(=O)[O-])cc4)c4ccc([nH]4)c(-c4ccc(S(=O)(=O)[O-])cc4)c4nc(c(-c5ccc(S(=O)(=O)[O-])cc5)c5ccc2[nH]5)C=C4)C=C3)cc1)C1=Cc2cc(Cl)ccc2O[C@@H]1C(F)(F)F
REMARK SMILES IDX 7 1 6 2 5 3 4 4 3 5 1 6 2 7 73 9 74 10 83 11 75 12 82 13
REMARK SMILES IDX 76 14 81 15 77 16 80 17 78 18 79 19 84 20 85 21 86 22 87 23
REMARK SMILES IDX 8 24 9 25 10 26 11 27 12 29 13 30 14 31 72 32 15 33 71 34
REMARK SMILES IDX 16 35 17 36 18 37 65 38 19 39 70 40 64 41 66 42 20 43 69 44
REMARK SMILES IDX 63 45 62 46 21 48 51 49 32 50 50 51 33 52 36 53 49 54 67 55
REMARK SMILES IDX 34 56 35 57 48 59 68 60 37 61 22 62 23 63 31 64 24 65 30 66
REMARK SMILES IDX 25 67 26 68 27 69 28 70 29 71 52 72 53 73 61 74 54 75 60 76
REMARK SMILES IDX 55 77 56 78 57 79 58 80 59 81 38 82 39 83 47 84 40 85 46 86
REMARK SMILES IDX 41 87 42 88 43 89 44 90 45 91
REMARK H PARENT 3 8 10 28 66 47 36 58
REMARK Flexibility Score: inf
ROOT
ATOM      1  C   UNL A   1      31.468  26.895  26.460  1.00  0.00     0.002 C 
ENDROOT
BRANCH   1   2
ATOM      2  C   UNL A   1      31.812  25.415  26.253  1.00  0.00     0.002 C 
BRANCH   2   3
ATOM      3  C   UNL A   1      32.916  25.102  25.244  1.00  0.00     0.021 C 
BRANCH   3   4
ATOM      4  C   UNL A   1      34.204  24.518  25.813  1.00  0.00     0.116 C 
BRANCH   4   5
ATOM      5  N   UNL A   1      34.040  23.415  26.742  1.00  0.00    -0.352 N 
ATOM      6  O   UNL A   1      33.934  21.282  27.430  1.00  0.00    -0.270 OA
ATOM      7  C   UNL A   1      33.914  22.076  26.489  1.00  0.00     0.251 C 
ATOM      8  H   UNL A   1      34.015  23.667  27.694  1.00  0.00     0.163 HD
BRANCH   7   9
ATOM      9  C   UNL A   1      33.839  21.517  25.105  1.00  0.00     0.067 C 
ATOM     10  C   UNL A   1      34.737  20.638  24.621  1.00  0.00     0.025 C 
ATOM     11  C   UNL A   1      32.423  21.464  24.574  1.00  0.00     0.314 C 
ATOM     12  C   UNL A   1      34.149  19.271  24.566  1.00  0.00     0.019 A 
ATOM     13  O   UNL A   1      31.862  20.129  24.714  1.00  0.00    -0.475 OA
ATOM     14  C   UNL A   1      35.014  18.173  24.652  1.00  0.00     0.032 A 
ATOM     15  C   UNL A   1      32.763  19.092  24.724  1.00  0.00     0.128 A 
ATOM     16  C   UNL A   1      34.500  16.929  25.008  1.00  0.00     0.041 A 
ATOM     17  C   UNL A   1      32.257  17.833  25.040  1.00  0.00     0.048 A 
ATOM     18  Cl  UNL A   1      35.581  15.630  25.329  1.00  0.00    -0.084 Cl
ATOM     19  C   UNL A   1      33.130  16.757  25.212  1.00  0.00     0.024 A 
BRANCH  11  20
ATOM     20  C   UNL A   1      32.307  21.973  23.128  1.00  0.00     0.429 C 
ATOM     21  F   UNL A   1      32.255  20.945  22.247  1.00  0.00    -0.167 F 
ATOM     22  F   UNL A   1      31.179  22.702  22.945  1.00  0.00    -0.167 F 
ATOM     23  F   UNL A   1      33.349  22.758  22.766  1.00  0.00    -0.167 F 
ENDBRANCH  11  20
ENDBRANCH   7   9
ENDBRANCH   4   5
ENDBRANCH   3   4
ENDBRANCH   2   3
ENDBRANCH   1   2
BRANCH   1  24
ATOM     24  C   UNL A   1      32.188  27.624  27.598  1.00  0.00     0.021 C 
BRANCH  24  25
ATOM     25  C   UNL A   1      33.484  28.341  27.228  1.00  0.00     0.116 C 
BRANCH  25  26
ATOM     26  N   UNL A   1      33.413  29.777  27.431  1.00  0.00    -0.352 N 
ATOM     27  C   UNL A   1      34.338  30.651  27.952  1.00  0.00     0.251 C 
ATOM     28  H   UNL A   1      32.565  30.192  27.150  1.00  0.00     0.163 HD
ATOM     29  O   UNL A   1      34.005  31.810  28.179  1.00  0.00    -0.269 OA
BRANCH  27  30
ATOM     30  C   UNL A   1      35.717  30.207  28.263  1.00  0.00     0.039 A 
ATOM     31  C   UNL A   1      36.677  30.243  27.246  1.00  0.00     0.014 A 
ATOM     32  C   UNL A   1      36.066  29.720  29.525  1.00  0.00     0.014 A 
ATOM     33  C   UNL A   1      37.991  29.846  27.510  1.00  0.00     0.010 A 
ATOM     34  C   UNL A   1      37.394  29.400  29.810  1.00  0.00     0.010 A 
ATOM     35  C   UNL A   1      38.370  29.451  28.804  1.00  0.00    -0.014 A 
BRANCH  35  36
ATOM     36  C   UNL A   1      39.778  29.080  29.113  1.00  0.00     0.031 A 
ATOM     37  C   UNL A   1      40.714  30.090  29.725  1.00  0.00     0.074 A 
ATOM     38  C   UNL A   1      40.228  27.847  28.805  1.00  0.00     0.049 A 
ATOM     39  N   UNL A   1      41.984  29.966  30.019  1.00  0.00    -0.248 NA
ATOM     40  C   UNL A   1      40.159  31.421  30.026  1.00  0.00     0.031 C 
ATOM     41  C   UNL A   1      39.435  26.788  28.176  1.00  0.00     0.029 A 
ATOM     42  N   UNL A   1      41.465  27.275  28.974  1.00  0.00    -0.354 N 
ATOM     43  C   UNL A   1      42.378  31.197  30.530  1.00  0.00     0.074 A 
ATOM     44  C   UNL A   1      41.230  32.073  30.451  1.00  0.00     0.031 C 
ATOM     45  C   UNL A   1      40.196  25.692  28.033  1.00  0.00     0.029 A 
ATOM     46  C   UNL A   1      41.543  25.979  28.518  1.00  0.00     0.049 A 
ATOM     47  H   UNL A   1      42.226  27.748  29.383  1.00  0.00     0.167 HD
ATOM     48  C   UNL A   1      43.579  31.562  31.041  1.00  0.00     0.031 A 
ATOM     49  C   UNL A   1      42.580  25.121  28.481  1.00  0.00     0.031 A 
ATOM     50  C   UNL A   1      44.719  30.688  31.122  1.00  0.00     0.049 A 
ATOM     51  C   UNL A   1      43.912  25.556  29.033  1.00  0.00     0.074 A 
ATOM     52  C   UNL A   1      45.969  30.952  31.657  1.00  0.00     0.029 A 
ATOM     53  N   UNL A   1      44.752  29.382  30.656  1.00  0.00    -0.354 N 
ATOM     54  N   UNL A   1      44.246  26.707  29.564  1.00  0.00    -0.248 NA
ATOM     55  C   UNL A   1      45.002  24.571  28.994  1.00  0.00     0.031 C 
ATOM     56  C   UNL A   1      46.773  29.825  31.465  1.00  0.00     0.029 A 
ATOM     57  C   UNL A   1      46.006  28.835  30.874  1.00  0.00     0.049 A 
ATOM     58  H   UNL A   1      43.997  28.913  30.235  1.00  0.00     0.167 HD
ATOM     59  C   UNL A   1      45.576  26.575  29.948  1.00  0.00     0.074 A 
ATOM     60  C   UNL A   1      45.978  25.226  29.605  1.00  0.00     0.031 C 
ATOM     61  C   UNL A   1      46.392  27.489  30.530  1.00  0.00     0.031 A 
BRANCH  48  62
ATOM     62  C   UNL A   1      43.720  32.971  31.560  1.00  0.00    -0.014 A 
ATOM     63  C   UNL A   1      44.148  34.013  30.717  1.00  0.00     0.010 A 
ATOM     64  C   UNL A   1      43.369  33.269  32.889  1.00  0.00     0.010 A 
ATOM     65  C   UNL A   1      44.260  35.318  31.203  1.00  0.00     0.020 A 
ATOM     66  C   UNL A   1      43.449  34.580  33.371  1.00  0.00     0.020 A 
ATOM     67  C   UNL A   1      43.909  35.593  32.528  1.00  0.00     0.054 A 
BRANCH  67  68
ATOM     68  S   UNL A   1      44.033  37.303  33.120  1.00  0.00     0.124 S 
ATOM     69  O   UNL A   1      42.898  37.389  34.035  1.00  0.00    -0.237 OA
ATOM     70  O   UNL A   1      45.351  37.328  33.751  1.00  0.00    -0.237 OA
ATOM     71  O   UNL A   1      43.911  38.102  31.903  1.00  0.00    -0.744 OA
ENDBRANCH  67  68
ENDBRANCH  48  62
BRANCH  49  72
ATOM     72  C   UNL A   1      42.405  23.763  27.893  1.00  0.00    -0.014 A 
ATOM     73  C   UNL A   1      42.006  22.676  28.691  1.00  0.00     0.010 A 
ATOM     74  C   UNL A   1      42.639  23.551  26.521  1.00  0.00     0.010 A 
ATOM     75  C   UNL A   1      41.870  21.400  28.135  1.00  0.00     0.020 A 
ATOM     76  C   UNL A   1      42.471  22.284  25.955  1.00  0.00     0.020 A 
ATOM     77  C   UNL A   1      42.103  21.212  26.770  1.00  0.00     0.054 A 
BRANCH  77  78
ATOM     78  S   UNL A   1      41.883  19.556  26.063  1.00  0.00     0.124 S 
ATOM     79  O   UNL A   1      42.313  18.697  27.161  1.00  0.00    -0.237 OA
ATOM     80  O   UNL A   1      40.454  19.530  25.760  1.00  0.00    -0.237 OA
ATOM     81  O   UNL A   1      42.759  19.565  24.893  1.00  0.00    -0.744 OA
ENDBRANCH  77  78
ENDBRANCH  49  72
BRANCH  61  82
ATOM     82  C   UNL A   1      47.793  27.052  30.874  1.00  0.00    -0.014 A 
ATOM     83  C   UNL A   1      48.878  27.337  30.026  1.00  0.00     0.010 A 
ATOM     84  C   UNL A   1      48.031  26.395  32.095  1.00  0.00     0.010 A 
ATOM     85  C   UNL A   1      50.171  26.942  30.378  1.00  0.00     0.020 A 
ATOM     86  C   UNL A   1      49.327  26.027  32.465  1.00  0.00     0.020 A 
ATOM     87  C   UNL A   1      50.388  26.290  31.597  1.00  0.00     0.054 A 
BRANCH  87  88
ATOM     88  S   UNL A   1      52.083  25.828  32.049  1.00  0.00     0.124 S 
ATOM     89  O   UNL A   1      52.404  26.816  33.075  1.00  0.00    -0.237 OA
ATOM     90  O   UNL A   1      51.923  24.456  32.525  1.00  0.00    -0.237 OA
ATOM     91  O   UNL A   1      52.826  25.965  30.799  1.00  0.00    -0.744 OA
ENDBRANCH  87  88
ENDBRANCH  61  82
ENDBRANCH  35  36
ENDBRANCH  27  30
ENDBRANCH  25  26
ENDBRANCH  24  25
ENDBRANCH   1  24
TORSDOF 17
ENDMDL
MODEL 2
REMARK VINA RESULT:     -11.2      2.815      3.483
REMARK SMILES O=C(NCCCCCCNC(=O)c1ccc(-c2c3nc(c(-c4ccc(S(=O)(=O)[O-])cc4)c4ccc([nH]4)c(-c4ccc(S(=O)(=O)[O-])cc4)c4nc(c(-c5ccc(S(=O)(=O)[O-])cc5)c5ccc2[nH]5)C=C4)C=C3)cc1)C1=Cc2cc(Cl)ccc2O[C@@H]1C(F)(F)F
REMARK SMILES IDX 7 1 6 2 5 3 4 4 3 5 1 6 2 7 73 9 74 10 83 11 75 12 82 13
REMARK SMILES IDX 76 14 81 15 77 16 80 17 78 18 79 19 84 20 85 21 86 22 87 23
REMARK SMILES IDX 8 24 9 25 10 26 11 27 12 29 13 30 14 31 72 32 15 33 71 34
REMARK SMILES IDX 16 35 17 36 18 37 65 38 19 39 70 40 64 41 66 42 20 43 69 44
REMARK SMILES IDX 63 45 62 46 21 48 51 49 32 50 50 51 33 52 36 53 49 54 67 55
REMARK SMILES IDX 34 56 35 57 48 59 68 60 37 61 22 62 23 63 31 64 24 65 30 66
REMARK SMILES IDX 25 67 26 68 27 69 28 70 29 71 52 72 53 73 61 74 54 75 60 76
REMARK SMILES IDX 55 77 56 78 57 79 58 80 59 81 38 82 39 83 47 84 40 85 46 86
REMARK SMILES IDX 41 87 42 88 43 89 44 90 45 91
REMARK H PARENT 3 8 10 28 66 47 36 58
REMARK Flexibility Score: inf
ROOT
ATOM      1  C   UNL A   1      32.536  27.330  24.162  1.00  0.00     0.002 C 
ENDROOT
BRANCH   1   2
ATOM      2  C   UNL A   1      31.293  27.534  25.038  1.00  0.00     0.002 C 
BRANCH   2   3
ATOM      3  C   UNL A   1      31.182  26.660  26.285  1.00  0.00     0.021 C 
BRANCH   3   4
ATOM      4  C   UNL A   1      30.784  25.207  26.057  1.00  0.00     0.116 C 
BRANCH   4   5
ATOM      5  N   UNL A   1      31.480  24.227  26.870  1.00  0.00    -0.352 N 
ATOM      6  O   UNL A   1      33.153  22.877  27.512  1.00  0.00    -0.270 OA
ATOM      7  C   UNL A   1      32.650  23.563  26.622  1.00  0.00     0.251 C 
ATOM      8  H   UNL A   1      31.046  24.007  27.727  1.00  0.00     0.163 HD
BRANCH   7   9
ATOM      9  C   UNL A   1      33.401  23.699  25.337  1.00  0.00     0.067 C 
ATOM     10  C   UNL A   1      34.560  24.377  25.235  1.00  0.00     0.025 C 
ATOM     11  C   UNL A   1      33.162  22.538  24.396  1.00  0.00     0.314 C 
ATOM     12  C   UNL A   1      35.706  23.433  25.116  1.00  0.00     0.019 A 
ATOM     13  O   UNL A   1      34.250  21.575  24.467  1.00  0.00    -0.475 OA
ATOM     14  C   UNL A   1      36.963  23.857  25.562  1.00  0.00     0.032 A 
ATOM     15  C   UNL A   1      35.473  22.072  24.847  1.00  0.00     0.128 A 
ATOM     16  C   UNL A   1      37.941  22.906  25.845  1.00  0.00     0.041 A 
ATOM     17  C   UNL A   1      36.474  21.134  25.096  1.00  0.00     0.048 A 
ATOM     18  Cl  UNL A   1      39.407  23.400  26.598  1.00  0.00    -0.084 Cl
ATOM     19  C   UNL A   1      37.698  21.550  25.624  1.00  0.00     0.024 A 
BRANCH  11  20
ATOM     20  C   UNL A   1      32.902  22.985  22.948  1.00  0.00     0.429 C 
ATOM     21  F   UNL A   1      32.160  22.071  22.277  1.00  0.00    -0.167 F 
ATOM     22  F   UNL A   1      32.217  24.154  22.903  1.00  0.00    -0.167 F 
ATOM     23  F   UNL A   1      34.044  23.168  22.246  1.00  0.00    -0.167 F 
ENDBRANCH  11  20
ENDBRANCH   7   9
ENDBRANCH   4   5
ENDBRANCH   3   4
ENDBRANCH   2   3
ENDBRANCH   1   2
BRANCH   1  24
ATOM     24  C   UNL A   1      33.755  28.204  24.471  1.00  0.00     0.021 C 
BRANCH  24  25
ATOM     25  C   UNL A   1      34.038  28.472  25.947  1.00  0.00     0.116 C 
BRANCH  25  26
ATOM     26  N   UNL A   1      33.750  29.841  26.337  1.00  0.00    -0.352 N 
ATOM     27  C   UNL A   1      34.360  30.651  27.266  1.00  0.00     0.251 C 
ATOM     28  H   UNL A   1      32.997  30.257  25.859  1.00  0.00     0.163 HD
ATOM     29  O   UNL A   1      33.849  31.729  27.548  1.00  0.00    -0.269 OA
BRANCH  27  30
ATOM     30  C   UNL A   1      35.609  30.228  27.944  1.00  0.00     0.039 A 
ATOM     31  C   UNL A   1      36.827  30.423  27.286  1.00  0.00     0.014 A 
ATOM     32  C   UNL A   1      35.592  29.609  29.197  1.00  0.00     0.014 A 
ATOM     33  C   UNL A   1      38.024  30.050  27.905  1.00  0.00     0.010 A 
ATOM     34  C   UNL A   1      36.790  29.311  29.847  1.00  0.00     0.010 A 
ATOM     35  C   UNL A   1      38.020  29.520  29.205  1.00  0.00    -0.014 A 
BRANCH  35  36
ATOM     36  C   UNL A   1      39.290  29.171  29.898  1.00  0.00     0.031 A 
ATOM     37  C   UNL A   1      39.745  29.964  31.096  1.00  0.00     0.074 A 
ATOM     38  C   UNL A   1      40.056  28.168  29.425  1.00  0.00     0.049 A 
ATOM     39  N   UNL A   1      40.843  29.839  31.799  1.00  0.00    -0.248 NA
ATOM     40  C   UNL A   1      38.863  31.052  31.553  1.00  0.00     0.031 C 
ATOM     41  C   UNL A   1      39.748  27.348  28.251  1.00  0.00     0.029 A 
ATOM     42  N   UNL A   1      41.257  27.670  29.869  1.00  0.00    -0.354 N 
ATOM     43  C   UNL A   1      40.787  30.833  32.770  1.00  0.00     0.074 A 
ATOM     44  C   UNL A   1      39.577  31.589  32.531  1.00  0.00     0.031 C 
ATOM     45  C   UNL A   1      40.720  26.437  28.082  1.00  0.00     0.029 A 
ATOM     46  C   UNL A   1      41.742  26.633  29.105  1.00  0.00     0.049 A 
ATOM     47  H   UNL A   1      41.727  28.022  30.660  1.00  0.00     0.167 HD
ATOM     48  C   UNL A   1      41.650  31.080  33.784  1.00  0.00     0.031 A 
ATOM     49  C   UNL A   1      42.885  25.927  29.206  1.00  0.00     0.031 A 
ATOM     50  C   UNL A   1      42.852  30.325  34.023  1.00  0.00     0.049 A 
ATOM     51  C   UNL A   1      43.841  26.235  30.328  1.00  0.00     0.074 A 
ATOM     52  C   UNL A   1      43.772  30.475  35.046  1.00  0.00     0.029 A 
ATOM     53  N   UNL A   1      43.301  29.279  33.231  1.00  0.00    -0.354 N 
ATOM     54  N   UNL A   1      43.740  27.142  31.270  1.00  0.00    -0.248 NA
ATOM     55  C   UNL A   1      45.058  25.416  30.409  1.00  0.00     0.031 C 
ATOM     56  C   UNL A   1      44.806  29.556  34.842  1.00  0.00     0.029 A 
ATOM     57  C   UNL A   1      44.496  28.788  33.732  1.00  0.00     0.049 A 
ATOM     58  H   UNL A   1      42.840  28.936  32.433  1.00  0.00     0.167 HD
ATOM     59  C   UNL A   1      44.865  26.984  32.071  1.00  0.00     0.074 A 
ATOM     60  C   UNL A   1      45.622  25.882  31.514  1.00  0.00     0.031 C 
ATOM     61  C   UNL A   1      45.238  27.688  33.169  1.00  0.00     0.031 A 
BRANCH  48  62
ATOM     62  C   UNL A   1      41.322  32.217  34.721  1.00  0.00    -0.014 A 
ATOM     63  C   UNL A   1      41.760  33.527  34.450  1.00  0.00     0.010 A 
ATOM     64  C   UNL A   1      40.523  31.985  35.854  1.00  0.00     0.010 A 
ATOM     65  C   UNL A   1      41.437  34.575  35.315  1.00  0.00     0.020 A 
ATOM     66  C   UNL A   1      40.171  33.038  36.706  1.00  0.00     0.020 A 
ATOM     67  C   UNL A   1      40.644  34.324  36.438  1.00  0.00     0.054 A 
BRANCH  67  68
ATOM     68  S   UNL A   1      40.214  35.712  37.523  1.00  0.00     0.124 S 
ATOM     69  O   UNL A   1      39.759  36.715  36.564  1.00  0.00    -0.237 OA
ATOM     70  O   UNL A   1      39.174  35.141  38.376  1.00  0.00    -0.237 OA
ATOM     71  O   UNL A   1      41.470  36.026  38.200  1.00  0.00    -0.744 OA
ENDBRANCH  67  68
ENDBRANCH  48  62
BRANCH  49  72
ATOM     72  C   UNL A   1      43.193  24.860  28.213  1.00  0.00    -0.014 A 
ATOM     73  C   UNL A   1      42.815  23.526  28.444  1.00  0.00     0.010 A 
ATOM     74  C   UNL A   1      43.872  25.179  27.022  1.00  0.00     0.010 A 
ATOM     75  C   UNL A   1      43.133  22.528  27.518  1.00  0.00     0.020 A 
ATOM     76  C   UNL A   1      44.162  24.190  26.078  1.00  0.00     0.020 A 
ATOM     77  C   UNL A   1      43.804  22.866  26.340  1.00  0.00     0.054 A 
BRANCH  77  78
ATOM     78  S   UNL A   1      44.171  21.562  25.134  1.00  0.00     0.124 S 
ATOM     79  O   UNL A   1      44.086  22.285  23.869  1.00  0.00    -0.237 OA
ATOM     80  O   UNL A   1      45.510  21.134  25.531  1.00  0.00    -0.237 OA
ATOM     81  O   UNL A   1      43.117  20.576  25.365  1.00  0.00    -0.744 OA
ENDBRANCH  77  78
ENDBRANCH  49  72
BRANCH  61  82
ATOM     82  C   UNL A   1      46.504  27.265  33.869  1.00  0.00    -0.014 A 
ATOM     83  C   UNL A   1      47.749  27.829  33.537  1.00  0.00     0.010 A 
ATOM     84  C   UNL A   1      46.434  26.328  34.916  1.00  0.00     0.010 A 
ATOM     85  C   UNL A   1      48.905  27.438  34.217  1.00  0.00     0.020 A 
ATOM     86  C   UNL A   1      47.583  25.958  35.619  1.00  0.00     0.020 A 
ATOM     87  C   UNL A   1      48.815  26.505  35.256  1.00  0.00     0.054 A 
BRANCH  87  88
ATOM     88  S   UNL A   1      50.324  26.049  36.151  1.00  0.00     0.124 S 
ATOM     89  O   UNL A   1      50.531  27.210  37.011  1.00  0.00    -0.237 OA
ATOM     90  O   UNL A   1      49.929  24.820  36.837  1.00  0.00    -0.237 OA
ATOM     91  O   UNL A   1      51.316  25.871  35.093  1.00  0.00    -0.744 OA
ENDBRANCH  87  88
ENDBRANCH  61  82
ENDBRANCH  35  36
ENDBRANCH  27  30
ENDBRANCH  25  26
ENDBRANCH  24  25
ENDBRANCH   1  24
TORSDOF 17
ENDMDL
MODEL 3
REMARK VINA RESULT:     -11.1      1.459      2.233
REMARK SMILES O=C(NCCCCCCNC(=O)c1ccc(-c2c3nc(c(-c4ccc(S(=O)(=O)[O-])cc4)c4ccc([nH]4)c(-c4ccc(S(=O)(=O)[O-])cc4)c4nc(c(-c5ccc(S(=O)(=O)[O-])cc5)c5ccc2[nH]5)C=C4)C=C3)cc1)C1=Cc2cc(Cl)ccc2O[C@@H]1C(F)(F)F
REMARK SMILES IDX 7 1 6 2 5 3 4 4 3 5 1 6 2 7 73 9 74 10 83 11 75 12 82 13
REMARK SMILES IDX 76 14 81 15 77 16 80 17 78 18 79 19 84 20 85 21 86 22 87 23
REMARK SMILES IDX 8 24 9 25 10 26 11 27 12 29 13 30 14 31 72 32 15 33 71 34
REMARK SMILES IDX 16 35 17 36 18 37 65 38 19 39 70 40 64 41 66 42 20 43 69 44
REMARK SMILES IDX 63 45 62 46 21 48 51 49 32 50 50 51 33 52 36 53 49 54 67 55
REMARK SMILES IDX 34 56 35 57 48 59 68 60 37 61 22 62 23 63 31 64 24 65 30 66
REMARK SMILES IDX 25 67 26 68 27 69 28 70 29 71 52 72 53 73 61 74 54 75 60 76
REMARK SMILES IDX 55 77 56 78 57 79 58 80 59 81 38 82 39 83 47 84 40 85 46 86
REMARK SMILES IDX 41 87 42 88 43 89 44 90 45 91
REMARK H PARENT 3 8 10 28 66 47 36 58
REMARK Flexibility Score: inf
ROOT
ATOM      1  C   UNL A   1      31.960  27.395  26.578  1.00  0.00     0.002 C 
ENDROOT
BRANCH   1   2
ATOM      2  C   UNL A   1      31.098  26.629  25.567  1.00  0.00     0.002 C 
BRANCH   2   3
ATOM      3  C   UNL A   1      29.962  25.783  26.137  1.00  0.00     0.021 C 
BRANCH   3   4
ATOM      4  C   UNL A   1      30.066  24.278  25.917  1.00  0.00     0.116 C 
BRANCH   4   5
ATOM      5  N   UNL A   1      30.951  23.568  26.822  1.00  0.00    -0.352 N 
ATOM      6  O   UNL A   1      32.866  22.667  27.569  1.00  0.00    -0.270 OA
ATOM      7  C   UNL A   1      32.227  23.119  26.618  1.00  0.00     0.251 C 
ATOM      8  H   UNL A   1      30.578  23.382  27.715  1.00  0.00     0.163 HD
BRANCH   7   9
ATOM      9  C   UNL A   1      32.923  23.229  25.300  1.00  0.00     0.067 C 
ATOM     10  C   UNL A   1      34.081  23.897  25.137  1.00  0.00     0.025 C 
ATOM     11  C   UNL A   1      32.637  22.055  24.389  1.00  0.00     0.314 C 
ATOM     12  C   UNL A   1      35.214  22.943  24.984  1.00  0.00     0.019 A 
ATOM     13  O   UNL A   1      33.721  21.086  24.429  1.00  0.00    -0.475 OA
ATOM     14  C   UNL A   1      36.493  23.366  25.369  1.00  0.00     0.032 A 
ATOM     15  C   UNL A   1      34.962  21.580  24.748  1.00  0.00     0.128 A 
ATOM     16  C   UNL A   1      37.476  22.413  25.624  1.00  0.00     0.041 A 
ATOM     17  C   UNL A   1      35.967  20.640  24.969  1.00  0.00     0.048 A 
ATOM     18  Cl  UNL A   1      38.975  22.909  26.305  1.00  0.00    -0.084 Cl
ATOM     19  C   UNL A   1      37.215  21.055  25.437  1.00  0.00     0.024 A 
BRANCH  11  20
ATOM     20  C   UNL A   1      32.317  22.481  22.947  1.00  0.00     0.429 C 
ATOM     21  F   UNL A   1      31.484  23.550  22.923  1.00  0.00    -0.167 F 
ATOM     22  F   UNL A   1      33.436  22.843  22.274  1.00  0.00    -0.167 F 
ATOM     23  F   UNL A   1      31.726  21.496  22.231  1.00  0.00    -0.167 F 
ENDBRANCH  11  20
ENDBRANCH   7   9
ENDBRANCH   4   5
ENDBRANCH   3   4
ENDBRANCH   2   3
ENDBRANCH   1   2
BRANCH   1  24
ATOM     24  C   UNL A   1      33.479  27.281  26.426  1.00  0.00     0.021 C 
BRANCH  24  25
ATOM     25  C   UNL A   1      34.210  28.541  25.970  1.00  0.00     0.116 C 
BRANCH  25  26
ATOM     26  N   UNL A   1      33.806  29.725  26.707  1.00  0.00    -0.352 N 
ATOM     27  C   UNL A   1      34.458  30.426  27.694  1.00  0.00     0.251 C 
ATOM     28  H   UNL A   1      32.923  30.083  26.461  1.00  0.00     0.163 HD
ATOM     29  O   UNL A   1      33.858  31.312  28.294  1.00  0.00    -0.269 OA
BRANCH  27  30
ATOM     30  C   UNL A   1      35.861  30.112  28.055  1.00  0.00     0.039 A 
ATOM     31  C   UNL A   1      36.127  29.610  29.332  1.00  0.00     0.014 A 
ATOM     32  C   UNL A   1      36.917  30.342  27.169  1.00  0.00     0.014 A 
ATOM     33  C   UNL A   1      37.437  29.289  29.698  1.00  0.00     0.010 A 
ATOM     34  C   UNL A   1      38.212  29.947  27.506  1.00  0.00     0.010 A 
ATOM     35  C   UNL A   1      38.489  29.424  28.777  1.00  0.00    -0.014 A 
BRANCH  35  36
ATOM     36  C   UNL A   1      39.880  29.032  29.134  1.00  0.00     0.031 A 
ATOM     37  C   UNL A   1      40.803  30.022  29.795  1.00  0.00     0.074 A 
ATOM     38  C   UNL A   1      40.327  27.798  28.825  1.00  0.00     0.049 A 
ATOM     39  N   UNL A   1      42.059  29.878  30.135  1.00  0.00    -0.248 NA
ATOM     40  C   UNL A   1      40.252  31.354  30.094  1.00  0.00     0.031 C 
ATOM     41  C   UNL A   1      39.546  26.758  28.150  1.00  0.00     0.029 A 
ATOM     42  N   UNL A   1      41.550  27.209  29.031  1.00  0.00    -0.354 N 
ATOM     43  C   UNL A   1      42.448  31.097  30.678  1.00  0.00     0.074 A 
ATOM     44  C   UNL A   1      41.313  31.988  30.569  1.00  0.00     0.031 C 
ATOM     45  C   UNL A   1      40.300  25.655  28.020  1.00  0.00     0.029 A 
ATOM     46  C   UNL A   1      41.630  25.919  28.559  1.00  0.00     0.049 A 
ATOM     47  H   UNL A   1      42.301  27.667  29.475  1.00  0.00     0.167 HD
ATOM     48  C   UNL A   1      43.632  31.440  31.239  1.00  0.00     0.031 A 
ATOM     49  C   UNL A   1      42.659  25.049  28.548  1.00  0.00     0.031 A 
ATOM     50  C   UNL A   1      44.759  30.552  31.350  1.00  0.00     0.049 A 
ATOM     51  C   UNL A   1      43.974  25.460  29.157  1.00  0.00     0.074 A 
ATOM     52  C   UNL A   1      45.990  30.794  31.935  1.00  0.00     0.029 A 
ATOM     53  N   UNL A   1      44.795  29.253  30.867  1.00  0.00    -0.354 N 
ATOM     54  N   UNL A   1      44.301  26.600  29.717  1.00  0.00    -0.248 NA
ATOM     55  C   UNL A   1      45.053  24.463  29.144  1.00  0.00     0.031 C 
ATOM     56  C   UNL A   1      46.789  29.660  31.757  1.00  0.00     0.029 A 
ATOM     57  C   UNL A   1      46.033  28.687  31.123  1.00  0.00     0.049 A 
ATOM     58  H   UNL A   1      44.051  28.799  30.410  1.00  0.00     0.167 HD
ATOM     59  C   UNL A   1      45.614  26.447  30.148  1.00  0.00     0.074 A 
ATOM     60  C   UNL A   1      46.013  25.098  29.801  1.00  0.00     0.031 C 
ATOM     61  C   UNL A   1      46.417  27.342  30.774  1.00  0.00     0.031 A 
BRANCH  48  62
ATOM     62  C   UNL A   1      43.769  32.840  31.784  1.00  0.00    -0.014 A 
ATOM     63  C   UNL A   1      44.247  33.888  30.975  1.00  0.00     0.010 A 
ATOM     64  C   UNL A   1      43.367  33.125  33.101  1.00  0.00     0.010 A 
ATOM     65  C   UNL A   1      44.355  35.184  31.484  1.00  0.00     0.020 A 
ATOM     66  C   UNL A   1      43.444  34.427  33.605  1.00  0.00     0.020 A 
ATOM     67  C   UNL A   1      43.952  35.446  32.797  1.00  0.00     0.054 A 
BRANCH  67  68
ATOM     68  S   UNL A   1      44.073  37.145  33.418  1.00  0.00     0.124 S 
ATOM     69  O   UNL A   1      45.331  37.106  34.160  1.00  0.00    -0.237 OA
ATOM     70  O   UNL A   1      44.094  37.935  32.189  1.00  0.00    -0.237 OA
ATOM     71  O   UNL A   1      42.874  37.303  34.238  1.00  0.00    -0.744 OA
ENDBRANCH  67  68
ENDBRANCH  48  62
BRANCH  49  72
ATOM     72  C   UNL A   1      42.490  23.702  27.935  1.00  0.00    -0.014 A 
ATOM     73  C   UNL A   1      42.773  23.486  26.575  1.00  0.00     0.010 A 
ATOM     74  C   UNL A   1      42.042  22.620  28.717  1.00  0.00     0.010 A 
ATOM     75  C   UNL A   1      42.585  22.224  26.002  1.00  0.00     0.020 A 
ATOM     76  C   UNL A   1      41.885  21.350  28.157  1.00  0.00     0.020 A 
ATOM     77  C   UNL A   1      42.144  21.163  26.797  1.00  0.00     0.054 A 
BRANCH  77  78
ATOM     78  S   UNL A   1      41.944  19.525  26.043  1.00  0.00     0.124 S 
ATOM     79  O   UNL A   1      42.828  19.615  24.885  1.00  0.00    -0.237 OA
ATOM     80  O   UNL A   1      42.387  18.631  27.110  1.00  0.00    -0.237 OA
ATOM     81  O   UNL A   1      40.516  19.460  25.739  1.00  0.00    -0.744 OA
ENDBRANCH  77  78
ENDBRANCH  49  72
BRANCH  61  82
ATOM     82  C   UNL A   1      47.799  26.884  31.163  1.00  0.00    -0.014 A 
ATOM     83  C   UNL A   1      48.040  26.241  32.390  1.00  0.00     0.010 A 
ATOM     84  C   UNL A   1      48.862  27.053  30.257  1.00  0.00     0.010 A 
ATOM     85  C   UNL A   1      49.326  25.804  32.717  1.00  0.00     0.020 A 
ATOM     86  C   UNL A   1      50.143  26.589  30.567  1.00  0.00     0.020 A 
ATOM     87  C   UNL A   1      50.371  25.980  31.802  1.00  0.00     0.054 A 
BRANCH  87  88
ATOM     88  S   UNL A   1      52.021  25.364  32.234  1.00  0.00     0.124 S 
ATOM     89  O   UNL A   1      52.822  25.822  31.102  1.00  0.00    -0.237 OA
ATOM     90  O   UNL A   1      52.289  26.033  33.505  1.00  0.00    -0.237 OA
ATOM     91  O   UNL A   1      51.839  23.917  32.324  1.00  0.00    -0.744 OA
ENDBRANCH  87  88
ENDBRANCH  61  82
ENDBRANCH  35  36
ENDBRANCH  27  30
ENDBRANCH  25  26
ENDBRANCH  24  25
ENDBRANCH   1  24
TORSDOF 17
ENDMDL
