MODEL 1
REMARK VINA RESULT:      -8.6      0.000      0.000
REMARK SMILES COc1ccc(/C=C/c2cc(OC)cc(OC)c2/C=C/C(=O)NCCCCCCNC(=O)c2ccc(-c3c4nc(c(-c5ccc(S(=O)(=O)[O-])cc5)c5ccc([nH]5)c(-c5ccc(S(=O)(=O)[O-])cc5)c5nc(c(-c6ccc(S(=O)(=O)[O-])cc6)c6ccc3[nH]6)C=C5)C=C4)cc2)cc1
REMARK SMILES IDX 26 1 25 2 24 3 23 4 21 5 22 6 20 8 19 9 18 10 9 11 10 12
REMARK SMILES IDX 11 13 15 14 14 15 8 16 7 17 6 18 3 19 4 20 94 21 5 22 93 23
REMARK SMILES IDX 2 24 1 25 12 26 13 27 16 28 17 29 27 30 28 31 29 32 30 33
REMARK SMILES IDX 31 34 32 36 33 37 34 38 92 39 35 40 91 41 36 42 37 43 38 44
REMARK SMILES IDX 85 45 39 46 90 47 84 48 86 49 40 50 89 51 83 52 82 53 41 55
REMARK SMILES IDX 71 56 52 57 70 58 53 59 56 60 69 61 87 62 54 63 55 64 68 66
REMARK SMILES IDX 88 67 57 68 42 69 43 70 51 71 44 72 50 73 45 74 46 75 47 76
REMARK SMILES IDX 48 77 49 78 72 79 73 80 81 81 74 82 80 83 75 84 76 85 77 86
REMARK SMILES IDX 78 87 79 88 58 89 59 90 67 91 60 92 66 93 61 94 62 95 63 96
REMARK SMILES IDX 64 97 65 98
REMARK H PARENT 23 7 30 35 86 54 56 65
REMARK Flexibility Score: inf
ROOT
ATOM      1  C   UNL A   1      37.313  30.759  30.582  1.00  0.00     0.002 C 
ENDROOT
BRANCH   1   2
ATOM      2  C   UNL A   1      37.008  29.521  29.729  1.00  0.00     0.021 C 
BRANCH   2   3
ATOM      3  C   UNL A   1      38.225  28.651  29.433  1.00  0.00     0.116 C 
BRANCH   3   4
ATOM      4  N   UNL A   1      38.936  29.121  28.262  1.00  0.00    -0.353 N 
ATOM      5  C   UNL A   1      39.849  28.465  27.501  1.00  0.00     0.244 C 
ATOM      6  O   UNL A   1      40.327  28.992  26.502  1.00  0.00    -0.270 OA
ATOM      7  H   UNL A   1      38.730  30.041  27.981  1.00  0.00     0.163 HD
BRANCH   5   8
ATOM      8  C   UNL A   1      40.230  27.080  27.849  1.00  0.00     0.072 C 
ATOM      9  C   UNL A   1      40.475  26.170  26.894  1.00  0.00     0.018 C 
BRANCH   9  10
ATOM     10  C   UNL A   1      40.643  24.735  27.191  1.00  0.00     0.024 A 
ATOM     11  C   UNL A   1      39.638  23.829  26.749  1.00  0.00    -0.011 A 
ATOM     12  C   UNL A   1      39.747  22.453  27.009  1.00  0.00     0.055 A 
ATOM     13  C   UNL A   1      40.814  21.949  27.738  1.00  0.00     0.123 A 
ATOM     14  C   UNL A   1      41.732  24.210  27.924  1.00  0.00     0.130 A 
ATOM     15  C   UNL A   1      41.802  22.825  28.172  1.00  0.00     0.093 A 
BRANCH  11  16
ATOM     16  C   UNL A   1      38.407  24.221  26.041  1.00  0.00     0.009 C 
ATOM     17  C   UNL A   1      37.495  23.324  25.641  1.00  0.00     0.009 C 
BRANCH  17  18
ATOM     18  C   UNL A   1      36.229  23.633  24.957  1.00  0.00    -0.025 A 
ATOM     19  C   UNL A   1      33.878  24.155  23.494  1.00  0.00     0.118 A 
ATOM     20  C   UNL A   1      34.070  24.734  24.748  1.00  0.00     0.047 A 
ATOM     21  C   UNL A   1      34.840  23.285  22.990  1.00  0.00     0.047 A 
ATOM     22  C   UNL A   1      35.236  24.473  25.476  1.00  0.00     0.012 A 
ATOM     23  C   UNL A   1      36.007  23.035  23.711  1.00  0.00     0.012 A 
BRANCH  19  24
ATOM     24  O   UNL A   1      32.734  24.521  22.846  1.00  0.00    -0.497 OA
ATOM     25  C   UNL A   1      32.890  25.504  21.831  1.00  0.00     0.278 C 
ENDBRANCH  19  24
ENDBRANCH  17  18
ENDBRANCH  11  16
BRANCH  13  26
ATOM     26  O   UNL A   1      40.790  20.602  27.962  1.00  0.00    -0.497 OA
ATOM     27  C   UNL A   1      41.275  19.791  26.897  1.00  0.00     0.278 C 
ENDBRANCH  13  26
BRANCH  14  28
ATOM     28  O   UNL A   1      42.809  24.832  28.496  1.00  0.00    -0.496 OA
ATOM     29  C   UNL A   1      44.110  24.273  28.485  1.00  0.00     0.278 C 
ENDBRANCH  14  28
ENDBRANCH   9  10
ENDBRANCH   5   8
ENDBRANCH   3   4
ENDBRANCH   2   3
ENDBRANCH   1   2
BRANCH   1  30
ATOM     30  C   UNL A   1      37.440  32.079  29.808  1.00  0.00     0.002 C 
BRANCH  30  31
ATOM     31  C   UNL A   1      36.153  32.562  29.138  1.00  0.00     0.021 C 
BRANCH  31  32
ATOM     32  C   UNL A   1      34.870  32.206  29.884  1.00  0.00     0.116 C 
BRANCH  32  33
ATOM     33  N   UNL A   1      34.210  33.388  30.412  1.00  0.00    -0.352 N 
ATOM     34  C   UNL A   1      34.411  34.067  31.591  1.00  0.00     0.251 C 
ATOM     35  H   UNL A   1      33.508  33.764  29.833  1.00  0.00     0.163 HD
ATOM     36  O   UNL A   1      33.585  34.909  31.939  1.00  0.00    -0.269 OA
BRANCH  34  37
ATOM     37  C   UNL A   1      35.584  33.785  32.457  1.00  0.00     0.039 A 
ATOM     38  C   UNL A   1      35.597  32.605  33.214  1.00  0.00     0.014 A 
ATOM     39  C   UNL A   1      36.654  34.674  32.561  1.00  0.00     0.014 A 
ATOM     40  C   UNL A   1      36.703  32.288  34.017  1.00  0.00     0.010 A 
ATOM     41  C   UNL A   1      37.786  34.320  33.297  1.00  0.00     0.010 A 
ATOM     42  C   UNL A   1      37.826  33.127  34.040  1.00  0.00    -0.014 A 
BRANCH  42  43
ATOM     43  C   UNL A   1      39.046  32.800  34.833  1.00  0.00     0.031 A 
ATOM     44  C   UNL A   1      40.188  32.068  34.177  1.00  0.00     0.074 A 
ATOM     45  C   UNL A   1      39.112  33.073  36.153  1.00  0.00     0.049 A 
ATOM     46  N   UNL A   1      41.320  31.668  34.700  1.00  0.00    -0.248 NA
ATOM     47  C   UNL A   1      40.036  31.742  32.750  1.00  0.00     0.031 C 
ATOM     48  C   UNL A   1      38.104  33.795  36.925  1.00  0.00     0.029 A 
ATOM     49  N   UNL A   1      40.065  32.750  37.090  1.00  0.00    -0.354 N 
ATOM     50  C   UNL A   1      42.020  31.063  33.664  1.00  0.00     0.074 A 
ATOM     51  C   UNL A   1      41.147  31.064  32.509  1.00  0.00     0.031 C 
ATOM     52  C   UNL A   1      38.456  33.814  38.220  1.00  0.00     0.029 A 
ATOM     53  C   UNL A   1      39.735  33.130  38.370  1.00  0.00     0.049 A 
ATOM     54  H   UNL A   1      40.905  32.289  36.865  1.00  0.00     0.167 HD
ATOM     55  C   UNL A   1      43.289  30.591  33.655  1.00  0.00     0.031 A 
ATOM     56  C   UNL A   1      40.389  32.977  39.538  1.00  0.00     0.031 A 
ATOM     57  C   UNL A   1      44.148  30.564  34.808  1.00  0.00     0.049 A 
ATOM     58  C   UNL A   1      41.760  32.364  39.533  1.00  0.00     0.074 A 
ATOM     59  C   UNL A   1      45.467  30.156  34.892  1.00  0.00     0.029 A 
ATOM     60  N   UNL A   1      43.765  30.944  36.087  1.00  0.00    -0.354 N 
ATOM     61  N   UNL A   1      42.448  31.897  38.519  1.00  0.00    -0.248 NA
ATOM     62  C   UNL A   1      42.463  32.303  40.821  1.00  0.00     0.031 C 
ATOM     63  C   UNL A   1      45.862  30.226  36.233  1.00  0.00     0.029 A 
ATOM     64  C   UNL A   1      44.810  30.742  36.974  1.00  0.00     0.049 A 
ATOM     65  H   UNL A   1      42.881  31.302  36.328  1.00  0.00     0.167 HD
ATOM     66  C   UNL A   1      43.686  31.536  39.037  1.00  0.00     0.074 A 
ATOM     67  C   UNL A   1      43.647  31.835  40.455  1.00  0.00     0.031 C 
ATOM     68  C   UNL A   1      44.762  31.027  38.388  1.00  0.00     0.031 A 
BRANCH  55  69
ATOM     69  C   UNL A   1      43.806  30.058  32.342  1.00  0.00    -0.014 A 
ATOM     70  C   UNL A   1      44.450  30.906  31.419  1.00  0.00     0.010 A 
ATOM     71  C   UNL A   1      43.624  28.704  32.012  1.00  0.00     0.010 A 
ATOM     72  C   UNL A   1      44.825  30.431  30.161  1.00  0.00     0.020 A 
ATOM     73  C   UNL A   1      44.032  28.216  30.765  1.00  0.00     0.020 A 
ATOM     74  C   UNL A   1      44.600  29.090  29.837  1.00  0.00     0.054 A 
BRANCH  74  75
ATOM     75  S   UNL A   1      45.057  28.510  28.181  1.00  0.00     0.124 S 
ATOM     76  O   UNL A   1      45.739  27.253  28.483  1.00  0.00    -0.237 OA
ATOM     77  O   UNL A   1      43.763  28.377  27.518  1.00  0.00    -0.237 OA
ATOM     78  O   UNL A   1      45.913  29.575  27.664  1.00  0.00    -0.744 OA
ENDBRANCH  74  75
ENDBRANCH  55  69
BRANCH  56  79
ATOM     79  C   UNL A   1      39.790  33.511  40.792  1.00  0.00    -0.014 A 
ATOM     80  C   UNL A   1      39.855  34.887  41.072  1.00  0.00     0.010 A 
ATOM     81  C   UNL A   1      39.112  32.661  41.685  1.00  0.00     0.010 A 
ATOM     82  C   UNL A   1      39.256  35.405  42.223  1.00  0.00     0.020 A 
ATOM     83  C   UNL A   1      38.494  33.181  42.828  1.00  0.00     0.020 A 
ATOM     84  C   UNL A   1      38.572  34.550  43.091  1.00  0.00     0.054 A 
BRANCH  84  85
ATOM     85  S   UNL A   1      37.739  35.265  44.535  1.00  0.00     0.124 S 
ATOM     86  O   UNL A   1      36.364  35.391  44.064  1.00  0.00    -0.237 OA
ATOM     87  O   UNL A   1      37.967  34.249  45.560  1.00  0.00    -0.237 OA
ATOM     88  O   UNL A   1      38.446  36.526  44.751  1.00  0.00    -0.744 OA
ENDBRANCH  84  85
ENDBRANCH  56  79
BRANCH  68  89
ATOM     89  C   UNL A   1      46.008  30.783  39.198  1.00  0.00    -0.014 A 
ATOM     90  C   UNL A   1      46.865  31.837  39.560  1.00  0.00     0.010 A 
ATOM     91  C   UNL A   1      46.295  29.482  39.650  1.00  0.00     0.010 A 
ATOM     92  C   UNL A   1      48.001  31.588  40.336  1.00  0.00     0.020 A 
ATOM     93  C   UNL A   1      47.412  29.234  40.452  1.00  0.00     0.020 A 
ATOM     94  C   UNL A   1      48.266  30.289  40.779  1.00  0.00     0.054 A 
BRANCH  94  95
ATOM     95  S   UNL A   1      49.716  30.004  41.829  1.00  0.00     0.124 S 
ATOM     96  O   UNL A   1      50.377  28.898  41.142  1.00  0.00    -0.237 OA
ATOM     97  O   UNL A   1      50.411  31.288  41.767  1.00  0.00    -0.237 OA
ATOM     98  O   UNL A   1      49.143  29.675  43.132  1.00  0.00    -0.744 OA
ENDBRANCH  94  95
ENDBRANCH  68  89
ENDBRANCH  42  43
ENDBRANCH  34  37
ENDBRANCH  32  33
ENDBRANCH  31  32
ENDBRANCH  30  31
ENDBRANCH   1  30
TORSDOF 22
ENDMDL
MODEL 2
REMARK VINA RESULT:      -8.5      5.642     12.372
REMARK SMILES COc1ccc(/C=C/c2cc(OC)cc(OC)c2/C=C/C(=O)NCCCCCCNC(=O)c2ccc(-c3c4nc(c(-c5ccc(S(=O)(=O)[O-])cc5)c5ccc([nH]5)c(-c5ccc(S(=O)(=O)[O-])cc5)c5nc(c(-c6ccc(S(=O)(=O)[O-])cc6)c6ccc3[nH]6)C=C5)C=C4)cc2)cc1
REMARK SMILES IDX 26 1 25 2 24 3 23 4 21 5 22 6 20 8 19 9 18 10 9 11 10 12
REMARK SMILES IDX 11 13 15 14 14 15 8 16 7 17 6 18 3 19 4 20 94 21 5 22 93 23
REMARK SMILES IDX 2 24 1 25 12 26 13 27 16 28 17 29 27 30 28 31 29 32 30 33
REMARK SMILES IDX 31 34 32 36 33 37 34 38 92 39 35 40 91 41 36 42 37 43 38 44
REMARK SMILES IDX 85 45 39 46 90 47 84 48 86 49 40 50 89 51 83 52 82 53 41 55
REMARK SMILES IDX 71 56 52 57 70 58 53 59 56 60 69 61 87 62 54 63 55 64 68 66
REMARK SMILES IDX 88 67 57 68 42 69 43 70 51 71 44 72 50 73 45 74 46 75 47 76
REMARK SMILES IDX 48 77 49 78 72 79 73 80 81 81 74 82 80 83 75 84 76 85 77 86
REMARK SMILES IDX 78 87 79 88 58 89 59 90 67 91 60 92 66 93 61 94 62 95 63 96
REMARK SMILES IDX 64 97 65 98
REMARK H PARENT 23 7 30 35 86 54 56 65
REMARK Flexibility Score: inf
ROOT
ATOM      1  C   UNL A   1      43.802  25.771  27.395  1.00  0.00     0.002 C 
ENDROOT
BRANCH   1   2
ATOM      2  C   UNL A   1      42.303  26.043  27.577  1.00  0.00     0.021 C 
BRANCH   2   3
ATOM      3  C   UNL A   1      41.953  27.517  27.755  1.00  0.00     0.116 C 
BRANCH   3   4
ATOM      4  N   UNL A   1      43.114  28.361  27.564  1.00  0.00    -0.353 N 
ATOM      5  C   UNL A   1      43.283  29.665  27.901  1.00  0.00     0.244 C 
ATOM      6  O   UNL A   1      44.357  30.227  27.713  1.00  0.00    -0.270 OA
ATOM      7  H   UNL A   1      43.886  27.930  27.130  1.00  0.00     0.163 HD
BRANCH   5   8
ATOM      8  C   UNL A   1      42.178  30.400  28.550  1.00  0.00     0.072 C 
ATOM      9  C   UNL A   1      42.385  31.117  29.665  1.00  0.00     0.018 C 
BRANCH   9  10
ATOM     10  C   UNL A   1      41.279  31.682  30.461  1.00  0.00     0.024 A 
ATOM     11  C   UNL A   1      41.191  33.097  30.590  1.00  0.00    -0.011 A 
ATOM     12  C   UNL A   1      40.159  33.686  31.340  1.00  0.00     0.055 A 
ATOM     13  C   UNL A   1      39.227  32.904  32.005  1.00  0.00     0.123 A 
ATOM     14  C   UNL A   1      40.318  30.893  31.134  1.00  0.00     0.130 A 
ATOM     15  C   UNL A   1      39.303  31.521  31.883  1.00  0.00     0.093 A 
BRANCH  11  16
ATOM     16  C   UNL A   1      42.152  34.054  30.016  1.00  0.00     0.009 C 
ATOM     17  C   UNL A   1      41.804  34.938  29.071  1.00  0.00     0.009 C 
BRANCH  17  18
ATOM     18  C   UNL A   1      42.691  35.945  28.468  1.00  0.00    -0.025 A 
ATOM     19  C   UNL A   1      44.268  38.001  27.360  1.00  0.00     0.118 A 
ATOM     20  C   UNL A   1      44.534  36.668  27.054  1.00  0.00     0.047 A 
ATOM     21  C   UNL A   1      43.241  38.305  28.249  1.00  0.00     0.047 A 
ATOM     22  C   UNL A   1      43.754  35.645  27.605  1.00  0.00     0.012 A 
ATOM     23  C   UNL A   1      42.456  37.287  28.789  1.00  0.00     0.012 A 
BRANCH  19  24
ATOM     24  O   UNL A   1      45.052  38.919  26.724  1.00  0.00    -0.497 OA
ATOM     25  C   UNL A   1      46.338  38.462  26.329  1.00  0.00     0.278 C 
ENDBRANCH  19  24
ENDBRANCH  17  18
ENDBRANCH  11  16
BRANCH  13  26
ATOM     26  O   UNL A   1      38.297  33.588  32.735  1.00  0.00    -0.497 OA
ATOM     27  C   UNL A   1      37.781  34.767  32.125  1.00  0.00     0.278 C 
ENDBRANCH  13  26
BRANCH  14  28
ATOM     28  O   UNL A   1      40.175  29.534  31.219  1.00  0.00    -0.496 OA
ATOM     29  C   UNL A   1      39.253  28.916  32.097  1.00  0.00     0.278 C 
ENDBRANCH  14  28
ENDBRANCH   9  10
ENDBRANCH   5   8
ENDBRANCH   3   4
ENDBRANCH   2   3
ENDBRANCH   1   2
BRANCH   1  30
ATOM     30  C   UNL A   1      44.187  24.298  27.200  1.00  0.00     0.002 C 
BRANCH  30  31
ATOM     31  C   UNL A   1      45.031  23.696  28.325  1.00  0.00     0.021 C 
BRANCH  31  32
ATOM     32  C   UNL A   1      45.264  24.621  29.516  1.00  0.00     0.116 C 
BRANCH  32  33
ATOM     33  N   UNL A   1      44.820  24.017  30.760  1.00  0.00    -0.352 N 
ATOM     34  C   UNL A   1      44.533  24.592  31.976  1.00  0.00     0.251 C 
ATOM     35  H   UNL A   1      44.704  23.039  30.728  1.00  0.00     0.163 HD
ATOM     36  O   UNL A   1      44.391  23.865  32.958  1.00  0.00    -0.269 OA
BRANCH  34  37
ATOM     37  C   UNL A   1      44.418  26.065  32.128  1.00  0.00     0.039 A 
ATOM     38  C   UNL A   1      45.181  26.703  33.115  1.00  0.00     0.014 A 
ATOM     39  C   UNL A   1      43.551  26.821  31.340  1.00  0.00     0.014 A 
ATOM     40  C   UNL A   1      45.125  28.097  33.266  1.00  0.00     0.010 A 
ATOM     41  C   UNL A   1      43.556  28.214  31.438  1.00  0.00     0.010 A 
ATOM     42  C   UNL A   1      44.337  28.872  32.404  1.00  0.00    -0.014 A 
BRANCH  42  43
ATOM     43  C   UNL A   1      44.292  30.360  32.490  1.00  0.00     0.031 A 
ATOM     44  C   UNL A   1      43.260  31.025  33.363  1.00  0.00     0.074 A 
ATOM     45  C   UNL A   1      45.104  31.127  31.732  1.00  0.00     0.049 A 
ATOM     46  N   UNL A   1      43.038  32.302  33.552  1.00  0.00    -0.248 NA
ATOM     47  C   UNL A   1      42.359  30.140  34.120  1.00  0.00     0.031 C 
ATOM     48  C   UNL A   1      46.167  30.637  30.858  1.00  0.00     0.029 A 
ATOM     49  N   UNL A   1      45.145  32.490  31.557  1.00  0.00    -0.354 N 
ATOM     50  C   UNL A   1      41.990  32.371  34.462  1.00  0.00     0.074 A 
ATOM     51  C   UNL A   1      41.559  31.013  34.712  1.00  0.00     0.031 C 
ATOM     52  C   UNL A   1      46.718  31.667  30.199  1.00  0.00     0.029 A 
ATOM     53  C   UNL A   1      46.069  32.900  30.624  1.00  0.00     0.049 A 
ATOM     54  H   UNL A   1      44.568  33.113  32.054  1.00  0.00     0.167 HD
ATOM     55  C   UNL A   1      41.462  33.459  35.072  1.00  0.00     0.031 A 
ATOM     56  C   UNL A   1      46.387  34.129  30.172  1.00  0.00     0.031 A 
ATOM     57  C   UNL A   1      41.871  34.812  34.805  1.00  0.00     0.049 A 
ATOM     58  C   UNL A   1      45.726  35.328  30.787  1.00  0.00     0.074 A 
ATOM     59  C   UNL A   1      41.437  35.979  35.406  1.00  0.00     0.029 A 
ATOM     60  N   UNL A   1      42.797  35.181  33.839  1.00  0.00    -0.354 N 
ATOM     61  N   UNL A   1      44.813  35.372  31.727  1.00  0.00    -0.248 NA
ATOM     62  C   UNL A   1      46.175  36.646  30.318  1.00  0.00     0.031 C 
ATOM     63  C   UNL A   1      42.050  37.058  34.760  1.00  0.00     0.029 A 
ATOM     64  C   UNL A   1      42.918  36.560  33.801  1.00  0.00     0.049 A 
ATOM     65  H   UNL A   1      43.294  34.554  33.265  1.00  0.00     0.167 HD
ATOM     66  C   UNL A   1      44.616  36.721  32.000  1.00  0.00     0.074 A 
ATOM     67  C   UNL A   1      45.502  37.458  31.121  1.00  0.00     0.031 C 
ATOM     68  C   UNL A   1      43.792  37.290  32.914  1.00  0.00     0.031 A 
BRANCH  55  69
ATOM     69  C   UNL A   1      40.373  33.208  36.084  1.00  0.00    -0.014 A 
ATOM     70  C   UNL A   1      40.644  33.256  37.466  1.00  0.00     0.010 A 
ATOM     71  C   UNL A   1      39.072  32.893  35.656  1.00  0.00     0.010 A 
ATOM     72  C   UNL A   1      39.660  32.913  38.395  1.00  0.00     0.020 A 
ATOM     73  C   UNL A   1      38.073  32.584  36.585  1.00  0.00     0.020 A 
ATOM     74  C   UNL A   1      38.383  32.565  37.946  1.00  0.00     0.054 A 
BRANCH  74  75
ATOM     75  S   UNL A   1      37.135  32.082  39.170  1.00  0.00     0.124 S 
ATOM     76  O   UNL A   1      35.952  32.789  38.686  1.00  0.00    -0.237 OA
ATOM     77  O   UNL A   1      37.097  30.628  39.034  1.00  0.00    -0.237 OA
ATOM     78  O   UNL A   1      37.680  32.573  40.433  1.00  0.00    -0.744 OA
ENDBRANCH  74  75
ENDBRANCH  55  69
BRANCH  56  79
ATOM     79  C   UNL A   1      47.457  34.282  29.148  1.00  0.00    -0.014 A 
ATOM     80  C   UNL A   1      47.133  34.251  27.781  1.00  0.00     0.010 A 
ATOM     81  C   UNL A   1      48.793  34.505  29.531  1.00  0.00     0.010 A 
ATOM     82  C   UNL A   1      48.123  34.439  26.813  1.00  0.00     0.020 A 
ATOM     83  C   UNL A   1      49.783  34.714  28.563  1.00  0.00     0.020 A 
ATOM     84  C   UNL A   1      49.441  34.677  27.210  1.00  0.00     0.054 A 
BRANCH  84  85
ATOM     85  S   UNL A   1      50.688  34.995  25.931  1.00  0.00     0.124 S 
ATOM     86  O   UNL A   1      50.502  36.418  25.668  1.00  0.00    -0.237 OA
ATOM     87  O   UNL A   1      51.930  34.633  26.611  1.00  0.00    -0.237 OA
ATOM     88  O   UNL A   1      50.300  34.100  24.842  1.00  0.00    -0.744 OA
ENDBRANCH  84  85
ENDBRANCH  56  79
BRANCH  68  89
ATOM     89  C   UNL A   1      43.826  38.791  33.038  1.00  0.00    -0.014 A 
ATOM     90  C   UNL A   1      43.223  39.620  32.075  1.00  0.00     0.010 A 
ATOM     91  C   UNL A   1      44.425  39.378  34.167  1.00  0.00     0.010 A 
ATOM     92  C   UNL A   1      43.244  41.009  32.226  1.00  0.00     0.020 A 
ATOM     93  C   UNL A   1      44.422  40.765  34.338  1.00  0.00     0.020 A 
ATOM     94  C   UNL A   1      43.841  41.573  33.358  1.00  0.00     0.054 A 
BRANCH  94  95
ATOM     95  S   UNL A   1      43.807  43.375  33.556  1.00  0.00     0.124 S 
ATOM     96  O   UNL A   1      44.992  43.786  32.808  1.00  0.00    -0.237 OA
ATOM     97  O   UNL A   1      42.525  43.737  32.954  1.00  0.00    -0.237 OA
ATOM     98  O   UNL A   1      43.885  43.567  35.003  1.00  0.00    -0.744 OA
ENDBRANCH  94  95
ENDBRANCH  68  89
ENDBRANCH  42  43
ENDBRANCH  34  37
ENDBRANCH  32  33
ENDBRANCH  31  32
ENDBRANCH  30  31
ENDBRANCH   1  30
TORSDOF 22
ENDMDL
MODEL 3
REMARK VINA RESULT:      -8.2      7.061     10.519
REMARK SMILES COc1ccc(/C=C/c2cc(OC)cc(OC)c2/C=C/C(=O)NCCCCCCNC(=O)c2ccc(-c3c4nc(c(-c5ccc(S(=O)(=O)[O-])cc5)c5ccc([nH]5)c(-c5ccc(S(=O)(=O)[O-])cc5)c5nc(c(-c6ccc(S(=O)(=O)[O-])cc6)c6ccc3[nH]6)C=C5)C=C4)cc2)cc1
REMARK SMILES IDX 26 1 25 2 24 3 23 4 21 5 22 6 20 8 19 9 18 10 9 11 10 12
REMARK SMILES IDX 11 13 15 14 14 15 8 16 7 17 6 18 3 19 4 20 94 21 5 22 93 23
REMARK SMILES IDX 2 24 1 25 12 26 13 27 16 28 17 29 27 30 28 31 29 32 30 33
REMARK SMILES IDX 31 34 32 36 33 37 34 38 92 39 35 40 91 41 36 42 37 43 38 44
REMARK SMILES IDX 85 45 39 46 90 47 84 48 86 49 40 50 89 51 83 52 82 53 41 55
REMARK SMILES IDX 71 56 52 57 70 58 53 59 56 60 69 61 87 62 54 63 55 64 68 66
REMARK SMILES IDX 88 67 57 68 42 69 43 70 51 71 44 72 50 73 45 74 46 75 47 76
REMARK SMILES IDX 48 77 49 78 72 79 73 80 81 81 74 82 80 83 75 84 76 85 77 86
REMARK SMILES IDX 78 87 79 88 58 89 59 90 67 91 60 92 66 93 61 94 62 95 63 96
REMARK SMILES IDX 64 97 65 98
REMARK H PARENT 23 7 30 35 86 54 56 65
REMARK Flexibility Score: inf
ROOT
ATOM      1  C   UNL A   1      37.637  29.061  31.562  1.00  0.00     0.002 C 
ENDROOT
BRANCH   1   2
ATOM      2  C   UNL A   1      38.917  28.316  31.164  1.00  0.00     0.021 C 
BRANCH   2   3
ATOM      3  C   UNL A   1      38.811  27.552  29.847  1.00  0.00     0.116 C 
BRANCH   3   4
ATOM      4  N   UNL A   1      39.335  28.330  28.743  1.00  0.00    -0.353 N 
ATOM      5  C   UNL A   1      40.126  27.925  27.716  1.00  0.00     0.244 C 
ATOM      6  O   UNL A   1      40.446  28.707  26.826  1.00  0.00    -0.270 OA
ATOM      7  H   UNL A   1      39.085  29.282  28.738  1.00  0.00     0.163 HD
BRANCH   5   8
ATOM      8  C   UNL A   1      40.561  26.516  27.642  1.00  0.00     0.072 C 
ATOM      9  C   UNL A   1      40.276  25.759  26.571  1.00  0.00     0.018 C 
BRANCH   9  10
ATOM     10  C   UNL A   1      40.498  24.301  26.549  1.00  0.00     0.024 A 
ATOM     11  C   UNL A   1      39.363  23.443  26.547  1.00  0.00    -0.011 A 
ATOM     12  C   UNL A   1      39.518  22.047  26.529  1.00  0.00     0.055 A 
ATOM     13  C   UNL A   1      40.780  21.471  26.556  1.00  0.00     0.123 A 
ATOM     14  C   UNL A   1      41.780  23.705  26.565  1.00  0.00     0.130 A 
ATOM     15  C   UNL A   1      41.895  22.300  26.556  1.00  0.00     0.093 A 
BRANCH  11  16
ATOM     16  C   UNL A   1      37.964  23.901  26.605  1.00  0.00     0.009 C 
ATOM     17  C   UNL A   1      36.990  23.315  25.895  1.00  0.00     0.009 C 
BRANCH  17  18
ATOM     18  C   UNL A   1      35.566  23.690  25.917  1.00  0.00    -0.025 A 
ATOM     19  C   UNL A   1      32.803  24.236  26.014  1.00  0.00     0.118 A 
ATOM     20  C   UNL A   1      33.671  25.108  25.358  1.00  0.00     0.047 A 
ATOM     21  C   UNL A   1      33.320  23.113  26.654  1.00  0.00     0.047 A 
ATOM     22  C   UNL A   1      35.043  24.840  25.312  1.00  0.00     0.012 A 
ATOM     23  C   UNL A   1      34.687  22.839  26.597  1.00  0.00     0.012 A 
BRANCH  19  24
ATOM     24  O   UNL A   1      31.480  24.562  25.950  1.00  0.00    -0.497 OA
ATOM     25  C   UNL A   1      31.174  25.753  25.238  1.00  0.00     0.278 C 
ENDBRANCH  19  24
ENDBRANCH  17  18
ENDBRANCH  11  16
BRANCH  13  26
ATOM     26  O   UNL A   1      40.803  20.106  26.578  1.00  0.00    -0.497 OA
ATOM     27  C   UNL A   1      39.862  19.459  25.729  1.00  0.00     0.278 C 
ENDBRANCH  13  26
BRANCH  14  28
ATOM     28  O   UNL A   1      43.028  24.266  26.604  1.00  0.00    -0.496 OA
ATOM     29  C   UNL A   1      43.659  24.646  27.813  1.00  0.00     0.278 C 
ENDBRANCH  14  28
ENDBRANCH   9  10
ENDBRANCH   5   8
ENDBRANCH   3   4
ENDBRANCH   2   3
ENDBRANCH   1   2
BRANCH   1  30
ATOM     30  C   UNL A   1      36.680  29.391  30.408  1.00  0.00     0.002 C 
BRANCH  30  31
ATOM     31  C   UNL A   1      36.682  30.855  29.965  1.00  0.00     0.021 C 
BRANCH  31  32
ATOM     32  C   UNL A   1      37.858  31.679  30.482  1.00  0.00     0.116 C 
BRANCH  32  33
ATOM     33  N   UNL A   1      37.411  32.876  31.175  1.00  0.00    -0.352 N 
ATOM     34  C   UNL A   1      38.088  34.035  31.475  1.00  0.00     0.251 C 
ATOM     35  H   UNL A   1      36.474  32.855  31.476  1.00  0.00     0.163 HD
ATOM     36  O   UNL A   1      37.584  34.829  32.267  1.00  0.00    -0.269 OA
BRANCH  34  37
ATOM     37  C   UNL A   1      39.420  34.329  30.885  1.00  0.00     0.039 A 
ATOM     38  C   UNL A   1      40.558  34.207  31.692  1.00  0.00     0.014 A 
ATOM     39  C   UNL A   1      39.562  34.753  29.564  1.00  0.00     0.014 A 
ATOM     40  C   UNL A   1      41.835  34.444  31.162  1.00  0.00     0.010 A 
ATOM     41  C   UNL A   1      40.837  34.911  29.016  1.00  0.00     0.010 A 
ATOM     42  C   UNL A   1      41.990  34.764  29.805  1.00  0.00    -0.014 A 
BRANCH  42  43
ATOM     43  C   UNL A   1      43.331  34.967  29.185  1.00  0.00     0.031 A 
ATOM     44  C   UNL A   1      44.230  33.781  28.950  1.00  0.00     0.074 A 
ATOM     45  C   UNL A   1      43.791  36.205  28.909  1.00  0.00     0.049 A 
ATOM     46  N   UNL A   1      45.440  33.750  28.450  1.00  0.00    -0.248 NA
ATOM     47  C   UNL A   1      43.701  32.460  29.326  1.00  0.00     0.031 C 
ATOM     48  C   UNL A   1      43.036  37.447  29.058  1.00  0.00     0.029 A 
ATOM     49  N   UNL A   1      45.022  36.628  28.466  1.00  0.00    -0.354 N 
ATOM     50  C   UNL A   1      45.806  32.410  28.434  1.00  0.00     0.074 A 
ATOM     51  C   UNL A   1      44.731  31.672  29.061  1.00  0.00     0.031 C 
ATOM     52  C   UNL A   1      43.827  38.492  28.770  1.00  0.00     0.029 A 
ATOM     53  C   UNL A   1      45.142  37.995  28.385  1.00  0.00     0.049 A 
ATOM     54  H   UNL A   1      45.749  36.008  28.229  1.00  0.00     0.167 HD
ATOM     55  C   UNL A   1      46.914  31.835  27.906  1.00  0.00     0.031 A 
ATOM     56  C   UNL A   1      46.178  38.775  28.017  1.00  0.00     0.031 A 
ATOM     57  C   UNL A   1      47.995  32.569  27.306  1.00  0.00     0.049 A 
ATOM     58  C   UNL A   1      47.439  38.129  27.522  1.00  0.00     0.074 A 
ATOM     59  C   UNL A   1      49.135  32.080  26.695  1.00  0.00     0.029 A 
ATOM     60  N   UNL A   1      48.081  33.954  27.261  1.00  0.00    -0.354 N 
ATOM     61  N   UNL A   1      47.721  36.853  27.413  1.00  0.00    -0.248 NA
ATOM     62  C   UNL A   1      48.502  39.026  27.051  1.00  0.00     0.031 C 
ATOM     63  C   UNL A   1      49.942  33.167  26.340  1.00  0.00     0.029 A 
ATOM     64  C   UNL A   1      49.274  34.336  26.669  1.00  0.00     0.049 A 
ATOM     65  H   UNL A   1      47.396  34.573  27.602  1.00  0.00     0.167 HD
ATOM     66  C   UNL A   1      48.973  36.793  26.812  1.00  0.00     0.074 A 
ATOM     67  C   UNL A   1      49.393  38.162  26.587  1.00  0.00     0.031 C 
ATOM     68  C   UNL A   1      49.694  35.700  26.459  1.00  0.00     0.031 A 
BRANCH  55  69
ATOM     69  C   UNL A   1      46.994  30.331  27.971  1.00  0.00    -0.014 A 
ATOM     70  C   UNL A   1      47.570  29.684  29.082  1.00  0.00     0.010 A 
ATOM     71  C   UNL A   1      46.516  29.553  26.902  1.00  0.00     0.010 A 
ATOM     72  C   UNL A   1      47.743  28.299  29.086  1.00  0.00     0.020 A 
ATOM     73  C   UNL A   1      46.654  28.162  26.918  1.00  0.00     0.020 A 
ATOM     74  C   UNL A   1      47.296  27.547  27.995  1.00  0.00     0.054 A 
BRANCH  74  75
ATOM     75  S   UNL A   1      47.571  25.755  28.006  1.00  0.00     0.124 S 
ATOM     76  O   UNL A   1      47.075  25.384  29.330  1.00  0.00    -0.237 OA
ATOM     77  O   UNL A   1      46.758  25.298  26.881  1.00  0.00    -0.237 OA
ATOM     78  O   UNL A   1      49.014  25.625  27.823  1.00  0.00    -0.744 OA
ENDBRANCH  74  75
ENDBRANCH  55  69
BRANCH  56  79
ATOM     79  C   UNL A   1      46.017  40.255  28.009  1.00  0.00    -0.014 A 
ATOM     80  C   UNL A   1      46.292  40.998  29.171  1.00  0.00     0.010 A 
ATOM     81  C   UNL A   1      45.639  40.933  26.836  1.00  0.00     0.010 A 
ATOM     82  C   UNL A   1      46.189  42.391  29.162  1.00  0.00     0.020 A 
ATOM     83  C   UNL A   1      45.555  42.330  26.819  1.00  0.00     0.020 A 
ATOM     84  C   UNL A   1      45.829  43.051  27.983  1.00  0.00     0.054 A 
BRANCH  84  85
ATOM     85  S   UNL A   1      45.780  44.864  27.984  1.00  0.00     0.124 S 
ATOM     86  O   UNL A   1      44.879  45.146  29.096  1.00  0.00    -0.237 OA
ATOM     87  O   UNL A   1      47.183  45.212  28.201  1.00  0.00    -0.237 OA
ATOM     88  O   UNL A   1      45.263  45.195  26.658  1.00  0.00    -0.744 OA
ENDBRANCH  84  85
ENDBRANCH  56  79
BRANCH  68  89
ATOM     89  C   UNL A   1      51.008  35.933  25.761  1.00  0.00    -0.014 A 
ATOM     90  C   UNL A   1      52.214  36.018  26.478  1.00  0.00     0.010 A 
ATOM     91  C   UNL A   1      51.040  36.012  24.356  1.00  0.00     0.010 A 
ATOM     92  C   UNL A   1      53.424  36.207  25.804  1.00  0.00     0.020 A 
ATOM     93  C   UNL A   1      52.250  36.169  23.677  1.00  0.00     0.020 A 
ATOM     94  C   UNL A   1      53.435  36.278  24.408  1.00  0.00     0.054 A 
BRANCH  94  95
ATOM     95  S   UNL A   1      55.024  36.469  23.556  1.00  0.00     0.124 S 
ATOM     96  O   UNL A   1      55.051  35.293  22.691  1.00  0.00    -0.237 OA
ATOM     97  O   UNL A   1      54.867  37.751  22.871  1.00  0.00    -0.237 OA
ATOM     98  O   UNL A   1      56.003  36.467  24.642  1.00  0.00    -0.744 OA
ENDBRANCH  94  95
ENDBRANCH  68  89
ENDBRANCH  42  43
ENDBRANCH  34  37
ENDBRANCH  32  33
ENDBRANCH  31  32
ENDBRANCH  30  31
ENDBRANCH   1  30
TORSDOF 22
ENDMDL
