MODEL 1
REMARK VINA RESULT:     -12.1      0.000      0.000
REMARK SMILES Cn1cc([C@@H]2CC(NCCCCCCNC(=O)c3ccc(-c4c5nc(c(-c6ccc(S(=O)(=O)[O-])cc6)c6ccc([nH]6)c(-c6ccc(S(=O)(=O)[O-])cc6)c6nc(c(-c7ccc(S(=O)(=O)[O-])cc7)c7ccc4[nH]7)C=C6)C=C5)cc3)=[NH+]c3c2sc(C(=O)[O-])c3-c2ccc(Cl)cc2)cn1
REMARK SMILES IDX 13 1 12 2 11 3 10 4 9 5 8 6 5 7 6 8 80 9 7 10 79 11 81 12
REMARK SMILES IDX 78 13 86 14 82 15 4 18 1 19 2 20 3 21 95 22 94 23 87 24
REMARK SMILES IDX 88 25 93 26 89 27 92 28 90 29 91 30 83 31 84 32 85 33 14 34
REMARK SMILES IDX 15 35 16 36 17 38 18 39 19 40 77 41 20 42 76 43 21 44 22 45
REMARK SMILES IDX 23 46 70 47 24 48 75 49 69 50 71 51 25 52 74 53 68 54 67 55
REMARK SMILES IDX 26 57 56 58 37 59 55 60 38 61 41 62 54 63 72 64 39 65 40 66
REMARK SMILES IDX 53 68 73 69 42 70 27 71 28 72 36 73 29 74 35 75 30 76 31 77
REMARK SMILES IDX 32 78 33 79 34 80 57 81 58 82 66 83 59 84 65 85 60 86 61 87
REMARK SMILES IDX 62 88 63 89 64 90 43 91 44 92 52 93 45 94 51 95 46 96 47 97
REMARK SMILES IDX 48 98 49 99 50 100
REMARK H PARENT 8 16 78 17 15 37 71 56 41 67
REMARK Flexibility Score: inf
ROOT
ATOM      1  C   UNL A   1      40.050  32.102  33.379  1.00  0.00     0.021 C 
ENDROOT
BRANCH   1   2
ATOM      2  C   UNL A   1      40.680  30.705  33.300  1.00  0.00     0.002 C 
BRANCH   2   3
ATOM      3  C   UNL A   1      39.719  29.507  33.341  1.00  0.00     0.004 C 
BRANCH   3   4
ATOM      4  C   UNL A   1      39.254  28.966  31.986  1.00  0.00     0.046 C 
BRANCH   4   5
ATOM      5  C   UNL A   1      37.742  28.819  31.832  1.00  0.00     0.233 C 
BRANCH   5   6
ATOM      6  N   UNL A   1      37.373  28.756  30.430  1.00  0.00    -0.278 N 
ATOM      7  C   UNL A   1      35.345  30.415  27.624  1.00  0.00     0.079 C 
ATOM      8  C   UNL A   1      36.243  29.400  28.344  1.00  0.00     0.142 C 
ATOM      9  C   UNL A   1      35.037  31.574  28.509  1.00  0.00     0.061 A 
ATOM     10  C   UNL A   1      36.593  29.702  29.802  1.00  0.00     0.248 C 
ATOM     11  C   UNL A   1      35.444  31.700  29.802  1.00  0.00     0.147 A 
ATOM     12  S   UNL A   1      34.139  32.928  28.014  1.00  0.00    -0.133 S 
ATOM     13  N   UNL A   1      36.232  30.763  30.461  1.00  0.00    -0.243 N 
ATOM     14  C   UNL A   1      34.984  32.888  30.452  1.00  0.00     0.049 A 
ATOM     15  C   UNL A   1      34.238  33.672  29.575  1.00  0.00     0.062 A 
ATOM     16  H   UNL A   1      37.697  27.993  29.898  1.00  0.00     0.304 HD
ATOM     17  H   UNL A   1      36.507  30.898  31.396  1.00  0.00     0.312 HD
BRANCH   7  18
ATOM     18  C   UNL A   1      34.095  29.777  27.084  1.00  0.00    -0.001 A 
ATOM     19  C   UNL A   1      31.845  27.153  26.060  1.00  0.00     0.173 C 
ATOM     20  N   UNL A   1      32.563  28.358  26.395  1.00  0.00    -0.276 N 
ATOM     21  C   UNL A   1      33.881  28.458  26.731  1.00  0.00     0.112 A 
ATOM     22  N   UNL A   1      31.912  29.537  26.432  1.00  0.00    -0.182 NA
ATOM     23  C   UNL A   1      32.837  30.391  26.873  1.00  0.00     0.139 A 
ENDBRANCH   7  18
BRANCH  14  24
ATOM     24  C   UNL A   1      35.295  33.261  31.831  1.00  0.00    -0.012 A 
ATOM     25  C   UNL A   1      36.548  33.781  32.182  1.00  0.00     0.010 A 
ATOM     26  C   UNL A   1      34.307  33.125  32.818  1.00  0.00     0.010 A 
ATOM     27  C   UNL A   1      36.830  34.095  33.516  1.00  0.00     0.021 A 
ATOM     28  C   UNL A   1      34.584  33.451  34.146  1.00  0.00     0.021 A 
ATOM     29  C   UNL A   1      35.851  33.918  34.492  1.00  0.00     0.041 A 
ATOM     30  Cl  UNL A   1      36.204  34.267  36.140  1.00  0.00    -0.084 Cl
ENDBRANCH  14  24
BRANCH  15  31
ATOM     31  C   UNL A   1      33.571  34.956  29.708  1.00  0.00     0.082 C 
ATOM     32  O   UNL A   1      33.686  35.779  30.595  1.00  0.00    -0.544 OA
ATOM     33  O   UNL A   1      32.702  35.204  28.701  1.00  0.00    -0.544 OA
ENDBRANCH  15  31
ENDBRANCH   5   6
ENDBRANCH   4   5
ENDBRANCH   3   4
ENDBRANCH   2   3
ENDBRANCH   1   2
BRANCH   1  34
ATOM     34  C   UNL A   1      41.021  33.249  33.144  1.00  0.00     0.116 C 
BRANCH  34  35
ATOM     35  N   UNL A   1      40.712  34.020  31.937  1.00  0.00    -0.352 N 
ATOM     36  C   UNL A   1      41.238  33.863  30.665  1.00  0.00     0.251 C 
ATOM     37  H   UNL A   1      40.047  34.737  32.042  1.00  0.00     0.163 HD
ATOM     38  O   UNL A   1      41.213  34.786  29.859  1.00  0.00    -0.269 OA
BRANCH  36  39
ATOM     39  C   UNL A   1      41.817  32.559  30.298  1.00  0.00     0.039 A 
ATOM     40  C   UNL A   1      43.182  32.283  30.408  1.00  0.00     0.014 A 
ATOM     41  C   UNL A   1      40.930  31.579  29.867  1.00  0.00     0.014 A 
ATOM     42  C   UNL A   1      43.625  30.984  30.159  1.00  0.00     0.010 A 
ATOM     43  C   UNL A   1      41.331  30.273  29.830  1.00  0.00     0.010 A 
ATOM     44  C   UNL A   1      42.684  29.976  29.890  1.00  0.00    -0.014 A 
BRANCH  44  45
ATOM     45  C   UNL A   1      43.062  28.571  29.780  1.00  0.00     0.031 A 
ATOM     46  C   UNL A   1      43.770  28.055  30.976  1.00  0.00     0.074 A 
ATOM     47  C   UNL A   1      42.577  27.750  28.819  1.00  0.00     0.049 A 
ATOM     48  N   UNL A   1      45.038  27.843  31.110  1.00  0.00    -0.248 NA
ATOM     49  C   UNL A   1      43.014  27.944  32.238  1.00  0.00     0.031 C 
ATOM     50  C   UNL A   1      41.569  28.075  27.794  1.00  0.00     0.029 A 
ATOM     51  N   UNL A   1      42.773  26.417  28.621  1.00  0.00    -0.354 N 
ATOM     52  C   UNL A   1      45.175  27.266  32.368  1.00  0.00     0.074 A 
ATOM     53  C   UNL A   1      43.983  27.615  33.096  1.00  0.00     0.031 C 
ATOM     54  C   UNL A   1      41.065  26.937  27.271  1.00  0.00     0.029 A 
ATOM     55  C   UNL A   1      41.853  25.823  27.759  1.00  0.00     0.049 A 
ATOM     56  H   UNL A   1      43.504  25.915  29.049  1.00  0.00     0.167 HD
ATOM     57  C   UNL A   1      46.044  26.233  32.560  1.00  0.00     0.031 A 
ATOM     58  C   UNL A   1      41.748  24.507  27.451  1.00  0.00     0.031 A 
ATOM     59  C   UNL A   1      46.890  26.058  31.405  1.00  0.00     0.049 A 
ATOM     60  C   UNL A   1      43.067  23.895  27.720  1.00  0.00     0.074 A 
ATOM     61  C   UNL A   1      47.964  26.696  30.828  1.00  0.00     0.029 A 
ATOM     62  N   UNL A   1      46.335  25.242  30.453  1.00  0.00    -0.354 N 
ATOM     63  N   UNL A   1      44.151  24.232  27.073  1.00  0.00    -0.248 NA
ATOM     64  C   UNL A   1      43.280  23.165  28.963  1.00  0.00     0.031 C 
ATOM     65  C   UNL A   1      47.932  26.351  29.442  1.00  0.00     0.029 A 
ATOM     66  C   UNL A   1      46.875  25.471  29.218  1.00  0.00     0.049 A 
ATOM     67  H   UNL A   1      45.634  24.575  30.636  1.00  0.00     0.167 HD
ATOM     68  C   UNL A   1      45.148  24.153  28.023  1.00  0.00     0.074 A 
ATOM     69  C   UNL A   1      44.599  23.334  29.096  1.00  0.00     0.031 C 
ATOM     70  C   UNL A   1      46.197  25.026  28.016  1.00  0.00     0.031 A 
BRANCH  57  71
ATOM     71  C   UNL A   1      45.786  25.055  33.484  1.00  0.00    -0.014 A 
ATOM     72  C   UNL A   1      46.718  24.799  34.514  1.00  0.00     0.010 A 
ATOM     73  C   UNL A   1      44.855  24.032  33.209  1.00  0.00     0.010 A 
ATOM     74  C   UNL A   1      46.758  23.566  35.180  1.00  0.00     0.020 A 
ATOM     75  C   UNL A   1      44.863  22.812  33.891  1.00  0.00     0.020 A 
ATOM     76  C   UNL A   1      45.834  22.575  34.853  1.00  0.00     0.054 A 
BRANCH  76  77
ATOM     77  S   UNL A   1      45.947  20.955  35.648  1.00  0.00     0.124 S 
ATOM     78  O   UNL A   1      45.989  21.316  37.062  1.00  0.00    -0.237 OA
ATOM     79  O   UNL A   1      44.722  20.303  35.194  1.00  0.00    -0.237 OA
ATOM     80  O   UNL A   1      47.183  20.395  35.106  1.00  0.00    -0.744 OA
ENDBRANCH  76  77
ENDBRANCH  57  71
BRANCH  58  81
ATOM     81  C   UNL A   1      40.537  23.697  27.172  1.00  0.00    -0.014 A 
ATOM     82  C   UNL A   1      39.298  24.315  26.912  1.00  0.00     0.010 A 
ATOM     83  C   UNL A   1      40.672  22.332  26.850  1.00  0.00     0.010 A 
ATOM     84  C   UNL A   1      38.261  23.615  26.273  1.00  0.00     0.020 A 
ATOM     85  C   UNL A   1      39.639  21.628  26.214  1.00  0.00     0.020 A 
ATOM     86  C   UNL A   1      38.448  22.281  25.903  1.00  0.00     0.054 A 
BRANCH  86  87
ATOM     87  S   UNL A   1      37.182  21.446  24.897  1.00  0.00     0.124 S 
ATOM     88  O   UNL A   1      37.096  22.312  23.725  1.00  0.00    -0.237 OA
ATOM     89  O   UNL A   1      37.771  20.131  24.669  1.00  0.00    -0.237 OA
ATOM     90  O   UNL A   1      35.999  21.453  25.759  1.00  0.00    -0.744 OA
ENDBRANCH  86  87
ENDBRANCH  58  81
BRANCH  70  91
ATOM     91  C   UNL A   1      46.590  25.654  26.710  1.00  0.00    -0.014 A 
ATOM     92  C   UNL A   1      46.064  26.856  26.202  1.00  0.00     0.010 A 
ATOM     93  C   UNL A   1      47.616  25.010  25.997  1.00  0.00     0.010 A 
ATOM     94  C   UNL A   1      46.551  27.389  24.996  1.00  0.00     0.020 A 
ATOM     95  C   UNL A   1      48.113  25.543  24.809  1.00  0.00     0.020 A 
ATOM     96  C   UNL A   1      47.574  26.726  24.308  1.00  0.00     0.054 A 
BRANCH  96  97
ATOM     97  S   UNL A   1      48.225  27.426  22.766  1.00  0.00     0.124 S 
ATOM     98  O   UNL A   1      48.406  26.242  21.931  1.00  0.00    -0.237 OA
ATOM     99  O   UNL A   1      47.161  28.335  22.348  1.00  0.00    -0.237 OA
ATOM    100  O   UNL A   1      49.464  28.085  23.178  1.00  0.00    -0.744 OA
ENDBRANCH  96  97
ENDBRANCH  70  91
ENDBRANCH  44  45
ENDBRANCH  36  39
ENDBRANCH  34  35
ENDBRANCH   1  34
TORSDOF 18
ENDMDL
MODEL 2
REMARK VINA RESULT:     -11.9      4.116     10.743
REMARK SMILES Cn1cc([C@@H]2CC(NCCCCCCNC(=O)c3ccc(-c4c5nc(c(-c6ccc(S(=O)(=O)[O-])cc6)c6ccc([nH]6)c(-c6ccc(S(=O)(=O)[O-])cc6)c6nc(c(-c7ccc(S(=O)(=O)[O-])cc7)c7ccc4[nH]7)C=C6)C=C5)cc3)=[NH+]c3c2sc(C(=O)[O-])c3-c2ccc(Cl)cc2)cn1
REMARK SMILES IDX 13 1 12 2 11 3 10 4 9 5 8 6 5 7 6 8 80 9 7 10 79 11 81 12
REMARK SMILES IDX 78 13 86 14 82 15 4 18 1 19 2 20 3 21 95 22 94 23 87 24
REMARK SMILES IDX 88 25 93 26 89 27 92 28 90 29 91 30 83 31 84 32 85 33 14 34
REMARK SMILES IDX 15 35 16 36 17 38 18 39 19 40 77 41 20 42 76 43 21 44 22 45
REMARK SMILES IDX 23 46 70 47 24 48 75 49 69 50 71 51 25 52 74 53 68 54 67 55
REMARK SMILES IDX 26 57 56 58 37 59 55 60 38 61 41 62 54 63 72 64 39 65 40 66
REMARK SMILES IDX 53 68 73 69 42 70 27 71 28 72 36 73 29 74 35 75 30 76 31 77
REMARK SMILES IDX 32 78 33 79 34 80 57 81 58 82 66 83 59 84 65 85 60 86 61 87
REMARK SMILES IDX 62 88 63 89 64 90 43 91 44 92 52 93 45 94 51 95 46 96 47 97
REMARK SMILES IDX 48 98 49 99 50 100
REMARK H PARENT 8 16 78 17 15 37 71 56 41 67
REMARK Flexibility Score: inf
ROOT
ATOM      1  C   UNL A   1      41.890  21.812  27.866  1.00  0.00     0.021 C 
ENDROOT
BRANCH   1   2
ATOM      2  C   UNL A   1      40.405  22.091  27.594  1.00  0.00     0.002 C 
BRANCH   2   3
ATOM      3  C   UNL A   1      40.078  23.305  26.711  1.00  0.00     0.004 C 
BRANCH   3   4
ATOM      4  C   UNL A   1      39.237  24.408  27.361  1.00  0.00     0.046 C 
BRANCH   4   5
ATOM      5  C   UNL A   1      37.748  24.369  27.025  1.00  0.00     0.233 C 
BRANCH   5   6
ATOM      6  N   UNL A   1      37.420  23.163  26.287  1.00  0.00    -0.278 N 
ATOM      7  C   UNL A   1      34.779  21.410  24.121  1.00  0.00     0.079 C 
ATOM      8  C   UNL A   1      36.071  21.628  24.921  1.00  0.00     0.142 C 
ATOM      9  C   UNL A   1      33.976  22.664  24.056  1.00  0.00     0.061 A 
ATOM     10  C   UNL A   1      36.268  23.010  25.547  1.00  0.00     0.248 C 
ATOM     11  C   UNL A   1      34.304  23.835  24.668  1.00  0.00     0.147 A 
ATOM     12  S   UNL A   1      32.528  22.813  23.181  1.00  0.00    -0.133 S 
ATOM     13  N   UNL A   1      35.460  24.020  25.418  1.00  0.00    -0.243 N 
ATOM     14  C   UNL A   1      33.348  24.882  24.487  1.00  0.00     0.049 A 
ATOM     15  C   UNL A   1      32.297  24.456  23.678  1.00  0.00     0.062 A 
ATOM     16  H   UNL A   1      38.057  22.413  26.317  1.00  0.00     0.304 HD
ATOM     17  H   UNL A   1      35.659  24.886  25.839  1.00  0.00     0.312 HD
BRANCH   7  18
ATOM     18  C   UNL A   1      33.974  20.258  24.654  1.00  0.00    -0.001 A 
ATOM     19  C   UNL A   1      32.953  16.840  25.178  1.00  0.00     0.173 C 
ATOM     20  N   UNL A   1      33.167  18.265  25.117  1.00  0.00    -0.276 N 
ATOM     21  C   UNL A   1      34.005  18.930  24.271  1.00  0.00     0.112 A 
ATOM     22  N   UNL A   1      32.531  19.075  25.985  1.00  0.00    -0.182 NA
ATOM     23  C   UNL A   1      33.040  20.280  25.717  1.00  0.00     0.139 A 
ENDBRANCH   7  18
BRANCH  14  24
ATOM     24  C   UNL A   1      33.475  26.234  25.028  1.00  0.00    -0.012 A 
ATOM     25  C   UNL A   1      33.185  26.515  26.370  1.00  0.00     0.010 A 
ATOM     26  C   UNL A   1      33.930  27.267  24.195  1.00  0.00     0.010 A 
ATOM     27  C   UNL A   1      33.280  27.825  26.851  1.00  0.00     0.021 A 
ATOM     28  C   UNL A   1      34.038  28.572  24.679  1.00  0.00     0.021 A 
ATOM     29  C   UNL A   1      33.696  28.848  26.001  1.00  0.00     0.041 A 
ATOM     30  Cl  UNL A   1      33.780  30.467  26.577  1.00  0.00    -0.084 Cl
ENDBRANCH  14  24
BRANCH  15  31
ATOM     31  C   UNL A   1      31.100  25.108  23.173  1.00  0.00     0.082 C 
ATOM     32  O   UNL A   1      29.998  25.165  23.683  1.00  0.00    -0.544 OA
ATOM     33  O   UNL A   1      31.287  25.688  21.966  1.00  0.00    -0.544 OA
ENDBRANCH  15  31
ENDBRANCH   5   6
ENDBRANCH   4   5
ENDBRANCH   3   4
ENDBRANCH   2   3
ENDBRANCH   1   2
BRANCH   1  34
ATOM     34  C   UNL A   1      42.787  23.038  27.797  1.00  0.00     0.116 C 
BRANCH  34  35
ATOM     35  N   UNL A   1      43.590  23.089  26.571  1.00  0.00    -0.352 N 
ATOM     36  C   UNL A   1      43.692  24.125  25.659  1.00  0.00     0.251 C 
ATOM     37  H   UNL A   1      44.125  22.287  26.374  1.00  0.00     0.163 HD
ATOM     38  O   UNL A   1      44.058  23.913  24.508  1.00  0.00    -0.269 OA
BRANCH  36  39
ATOM     39  C   UNL A   1      43.362  25.491  26.103  1.00  0.00     0.039 A 
ATOM     40  C   UNL A   1      42.195  26.150  25.708  1.00  0.00     0.014 A 
ATOM     41  C   UNL A   1      44.253  26.097  26.981  1.00  0.00     0.014 A 
ATOM     42  C   UNL A   1      41.900  27.389  26.277  1.00  0.00     0.010 A 
ATOM     43  C   UNL A   1      43.863  27.200  27.687  1.00  0.00     0.010 A 
ATOM     44  C   UNL A   1      42.735  27.899  27.286  1.00  0.00    -0.014 A 
BRANCH  44  45
ATOM     45  C   UNL A   1      42.400  29.106  28.035  1.00  0.00     0.031 A 
ATOM     46  C   UNL A   1      43.363  30.215  27.830  1.00  0.00     0.074 A 
ATOM     47  C   UNL A   1      41.198  29.294  28.629  1.00  0.00     0.049 A 
ATOM     48  N   UNL A   1      44.296  30.606  28.633  1.00  0.00    -0.248 NA
ATOM     49  C   UNL A   1      43.430  30.839  26.495  1.00  0.00     0.031 C 
ATOM     50  C   UNL A   1      40.028  28.401  28.577  1.00  0.00     0.029 A 
ATOM     51  N   UNL A   1      40.709  30.376  29.298  1.00  0.00    -0.354 N 
ATOM     52  C   UNL A   1      44.841  31.733  28.029  1.00  0.00     0.074 A 
ATOM     53  C   UNL A   1      44.481  31.650  26.638  1.00  0.00     0.031 C 
ATOM     54  C   UNL A   1      38.920  29.076  28.952  1.00  0.00     0.029 A 
ATOM     55  C   UNL A   1      39.326  30.367  29.469  1.00  0.00     0.049 A 
ATOM     56  H   UNL A   1      41.284  31.100  29.633  1.00  0.00     0.167 HD
ATOM     57  C   UNL A   1      45.182  32.820  28.779  1.00  0.00     0.031 A 
ATOM     58  C   UNL A   1      38.560  31.345  30.011  1.00  0.00     0.031 A 
ATOM     59  C   UNL A   1      45.126  32.505  30.186  1.00  0.00     0.049 A 
ATOM     60  C   UNL A   1      39.445  32.155  30.876  1.00  0.00     0.074 A 
ATOM     61  C   UNL A   1      45.871  31.793  31.097  1.00  0.00     0.029 A 
ATOM     62  N   UNL A   1      43.879  32.686  30.726  1.00  0.00    -0.354 N 
ATOM     63  N   UNL A   1      40.041  31.671  31.933  1.00  0.00    -0.248 NA
ATOM     64  C   UNL A   1      39.979  33.416  30.378  1.00  0.00     0.031 C 
ATOM     65  C   UNL A   1      44.970  31.414  32.137  1.00  0.00     0.029 A 
ATOM     66  C   UNL A   1      43.712  31.947  31.864  1.00  0.00     0.049 A 
ATOM     67  H   UNL A   1      43.188  33.274  30.341  1.00  0.00     0.167 HD
ATOM     68  C   UNL A   1      41.262  32.314  31.955  1.00  0.00     0.074 A 
ATOM     69  C   UNL A   1      41.100  33.483  31.101  1.00  0.00     0.031 C 
ATOM     70  C   UNL A   1      42.387  31.672  32.384  1.00  0.00     0.031 A 
BRANCH  57  71
ATOM     71  C   UNL A   1      45.016  34.261  28.328  1.00  0.00    -0.014 A 
ATOM     72  C   UNL A   1      46.084  35.157  28.552  1.00  0.00     0.010 A 
ATOM     73  C   UNL A   1      43.776  34.834  27.976  1.00  0.00     0.010 A 
ATOM     74  C   UNL A   1      45.903  36.546  28.495  1.00  0.00     0.020 A 
ATOM     75  C   UNL A   1      43.593  36.216  27.882  1.00  0.00     0.020 A 
ATOM     76  C   UNL A   1      44.651  37.065  28.170  1.00  0.00     0.054 A 
BRANCH  76  77
ATOM     77  S   UNL A   1      44.399  38.857  28.188  1.00  0.00     0.124 S 
ATOM     78  O   UNL A   1      42.951  38.958  28.033  1.00  0.00    -0.237 OA
ATOM     79  O   UNL A   1      44.926  39.227  29.498  1.00  0.00    -0.237 OA
ATOM     80  O   UNL A   1      45.188  39.322  27.050  1.00  0.00    -0.744 OA
ENDBRANCH  76  77
ENDBRANCH  57  71
BRANCH  58  81
ATOM     81  C   UNL A   1      37.186  31.775  29.653  1.00  0.00    -0.014 A 
ATOM     82  C   UNL A   1      36.193  31.915  30.641  1.00  0.00     0.010 A 
ATOM     83  C   UNL A   1      36.944  32.351  28.390  1.00  0.00     0.010 A 
ATOM     84  C   UNL A   1      35.037  32.678  30.401  1.00  0.00     0.020 A 
ATOM     85  C   UNL A   1      35.792  33.111  28.144  1.00  0.00     0.020 A 
ATOM     86  C   UNL A   1      34.856  33.294  29.161  1.00  0.00     0.054 A 
BRANCH  86  87
ATOM     87  S   UNL A   1      33.464  34.442  28.927  1.00  0.00     0.124 S 
ATOM     88  O   UNL A   1      34.123  35.622  28.374  1.00  0.00    -0.237 OA
ATOM     89  O   UNL A   1      32.599  33.712  28.007  1.00  0.00    -0.237 OA
ATOM     90  O   UNL A   1      32.928  34.611  30.278  1.00  0.00    -0.744 OA
ENDBRANCH  86  87
ENDBRANCH  58  81
BRANCH  70  91
ATOM     91  C   UNL A   1      42.231  30.537  33.355  1.00  0.00    -0.014 A 
ATOM     92  C   UNL A   1      41.956  30.680  34.727  1.00  0.00     0.010 A 
ATOM     93  C   UNL A   1      42.299  29.242  32.811  1.00  0.00     0.010 A 
ATOM     94  C   UNL A   1      41.766  29.546  35.534  1.00  0.00     0.020 A 
ATOM     95  C   UNL A   1      42.096  28.115  33.603  1.00  0.00     0.020 A 
ATOM     96  C   UNL A   1      41.839  28.269  34.964  1.00  0.00     0.054 A 
BRANCH  96  97
ATOM     97  S   UNL A   1      41.566  26.803  35.998  1.00  0.00     0.124 S 
ATOM     98  O   UNL A   1      42.928  26.358  36.284  1.00  0.00    -0.237 OA
ATOM     99  O   UNL A   1      40.827  27.341  37.136  1.00  0.00    -0.237 OA
ATOM    100  O   UNL A   1      40.793  25.908  35.136  1.00  0.00    -0.744 OA
ENDBRANCH  96  97
ENDBRANCH  70  91
ENDBRANCH  44  45
ENDBRANCH  36  39
ENDBRANCH  34  35
ENDBRANCH   1  34
TORSDOF 18
ENDMDL
MODEL 3
REMARK VINA RESULT:     -11.4      3.628      6.833
REMARK SMILES Cn1cc([C@@H]2CC(NCCCCCCNC(=O)c3ccc(-c4c5nc(c(-c6ccc(S(=O)(=O)[O-])cc6)c6ccc([nH]6)c(-c6ccc(S(=O)(=O)[O-])cc6)c6nc(c(-c7ccc(S(=O)(=O)[O-])cc7)c7ccc4[nH]7)C=C6)C=C5)cc3)=[NH+]c3c2sc(C(=O)[O-])c3-c2ccc(Cl)cc2)cn1
REMARK SMILES IDX 13 1 12 2 11 3 10 4 9 5 8 6 5 7 6 8 80 9 7 10 79 11 81 12
REMARK SMILES IDX 78 13 86 14 82 15 4 18 1 19 2 20 3 21 95 22 94 23 87 24
REMARK SMILES IDX 88 25 93 26 89 27 92 28 90 29 91 30 83 31 84 32 85 33 14 34
REMARK SMILES IDX 15 35 16 36 17 38 18 39 19 40 77 41 20 42 76 43 21 44 22 45
REMARK SMILES IDX 23 46 70 47 24 48 75 49 69 50 71 51 25 52 74 53 68 54 67 55
REMARK SMILES IDX 26 57 56 58 37 59 55 60 38 61 41 62 54 63 72 64 39 65 40 66
REMARK SMILES IDX 53 68 73 69 42 70 27 71 28 72 36 73 29 74 35 75 30 76 31 77
REMARK SMILES IDX 32 78 33 79 34 80 57 81 58 82 66 83 59 84 65 85 60 86 61 87
REMARK SMILES IDX 62 88 63 89 64 90 43 91 44 92 52 93 45 94 51 95 46 96 47 97
REMARK SMILES IDX 48 98 49 99 50 100
REMARK H PARENT 8 16 78 17 15 37 71 56 41 67
REMARK Flexibility Score: inf
ROOT
ATOM      1  C   UNL A   1      34.451  33.362  31.349  1.00  0.00     0.021 C 
ENDROOT
BRANCH   1   2
ATOM      2  C   UNL A   1      35.551  32.976  32.348  1.00  0.00     0.002 C 
BRANCH   2   3
ATOM      3  C   UNL A   1      36.025  31.516  32.325  1.00  0.00     0.004 C 
BRANCH   3   4
ATOM      4  C   UNL A   1      37.512  31.283  32.616  1.00  0.00     0.046 C 
BRANCH   4   5
ATOM      5  C   UNL A   1      38.348  32.552  32.766  1.00  0.00     0.233 C 
BRANCH   5   6
ATOM      6  N   UNL A   1      39.282  32.683  31.663  1.00  0.00    -0.278 N 
ATOM      7  C   UNL A   1      42.464  34.433  30.414  1.00  0.00     0.079 C 
ATOM      8  C   UNL A   1      41.215  33.539  30.409  1.00  0.00     0.142 C 
ATOM      9  C   UNL A   1      42.690  35.021  31.765  1.00  0.00     0.061 A 
ATOM     10  C   UNL A   1      40.415  33.467  31.710  1.00  0.00     0.248 C 
ATOM     11  C   UNL A   1      41.876  34.844  32.842  1.00  0.00     0.147 A 
ATOM     12  S   UNL A   1      44.026  35.993  32.159  1.00  0.00    -0.133 S 
ATOM     13  N   UNL A   1      40.729  34.058  32.824  1.00  0.00    -0.243 N 
ATOM     14  C   UNL A   1      42.290  35.547  34.016  1.00  0.00     0.049 A 
ATOM     15  C   UNL A   1      43.477  36.237  33.784  1.00  0.00     0.062 A 
ATOM     16  H   UNL A   1      39.096  32.185  30.834  1.00  0.00     0.304 HD
ATOM     17  H   UNL A   1      40.172  33.954  33.629  1.00  0.00     0.312 HD
BRANCH   7  18
ATOM     18  C   UNL A   1      42.403  35.491  29.348  1.00  0.00    -0.001 A 
ATOM     19  C   UNL A   1      43.510  38.217  27.264  1.00  0.00     0.173 C 
ATOM     20  N   UNL A   1      42.851  37.147  27.971  1.00  0.00    -0.276 N 
ATOM     21  C   UNL A   1      43.288  36.524  29.104  1.00  0.00     0.112 A 
ATOM     22  N   UNL A   1      41.698  36.639  27.494  1.00  0.00    -0.182 NA
ATOM     23  C   UNL A   1      41.442  35.620  28.317  1.00  0.00     0.139 A 
ENDBRANCH   7  18
BRANCH  14  24
ATOM     24  C   UNL A   1      41.596  35.508  35.302  1.00  0.00    -0.012 A 
ATOM     25  C   UNL A   1      40.576  36.418  35.611  1.00  0.00     0.010 A 
ATOM     26  C   UNL A   1      41.937  34.518  36.236  1.00  0.00     0.010 A 
ATOM     27  C   UNL A   1      39.955  36.380  36.863  1.00  0.00     0.021 A 
ATOM     28  C   UNL A   1      41.308  34.472  37.481  1.00  0.00     0.021 A 
ATOM     29  C   UNL A   1      40.332  35.415  37.796  1.00  0.00     0.041 A 
ATOM     30  Cl  UNL A   1      39.598  35.387  39.352  1.00  0.00    -0.084 Cl
ENDBRANCH  14  24
BRANCH  15  31
ATOM     31  C   UNL A   1      44.322  37.074  34.619  1.00  0.00     0.082 C 
ATOM     32  O   UNL A   1      44.004  38.028  35.301  1.00  0.00    -0.544 OA
ATOM     33  O   UNL A   1      45.626  36.715  34.574  1.00  0.00    -0.544 OA
ENDBRANCH  15  31
ENDBRANCH   5   6
ENDBRANCH   4   5
ENDBRANCH   3   4
ENDBRANCH   2   3
ENDBRANCH   1   2
BRANCH   1  34
ATOM     34  C   UNL A   1      34.941  33.600  29.928  1.00  0.00     0.116 C 
BRANCH  34  35
ATOM     35  N   UNL A   1      34.280  32.738  28.945  1.00  0.00    -0.352 N 
ATOM     36  C   UNL A   1      34.830  31.698  28.214  1.00  0.00     0.251 C 
ATOM     37  H   UNL A   1      33.326  32.920  28.784  1.00  0.00     0.163 HD
ATOM     38  O   UNL A   1      34.312  31.326  27.167  1.00  0.00    -0.269 OA
BRANCH  36  39
ATOM     39  C   UNL A   1      36.044  31.039  28.729  1.00  0.00     0.039 A 
ATOM     40  C   UNL A   1      36.076  29.687  29.078  1.00  0.00     0.014 A 
ATOM     41  C   UNL A   1      37.190  31.820  28.817  1.00  0.00     0.014 A 
ATOM     42  C   UNL A   1      37.298  29.117  29.435  1.00  0.00     0.010 A 
ATOM     43  C   UNL A   1      38.409  31.219  28.960  1.00  0.00     0.010 A 
ATOM     44  C   UNL A   1      38.468  29.891  29.353  1.00  0.00    -0.014 A 
BRANCH  44  45
ATOM     45  C   UNL A   1      39.794  29.316  29.554  1.00  0.00     0.031 A 
ATOM     46  C   UNL A   1      40.152  29.141  30.983  1.00  0.00     0.074 A 
ATOM     47  C   UNL A   1      40.509  28.745  28.556  1.00  0.00     0.049 A 
ATOM     48  N   UNL A   1      40.938  29.879  31.694  1.00  0.00    -0.248 NA
ATOM     49  C   UNL A   1      39.399  28.146  31.770  1.00  0.00     0.031 C 
ATOM     50  C   UNL A   1      40.083  28.533  27.162  1.00  0.00     0.029 A 
ATOM     51  N   UNL A   1      41.715  28.112  28.591  1.00  0.00    -0.354 N 
ATOM     52  C   UNL A   1      41.019  29.236  32.924  1.00  0.00     0.074 A 
ATOM     53  C   UNL A   1      39.866  28.378  33.000  1.00  0.00     0.031 C 
ATOM     54  C   UNL A   1      40.881  27.617  26.573  1.00  0.00     0.029 A 
ATOM     55  C   UNL A   1      41.990  27.339  27.463  1.00  0.00     0.049 A 
ATOM     56  H   UNL A   1      42.340  28.194  29.346  1.00  0.00     0.167 HD
ATOM     57  C   UNL A   1      42.212  29.157  33.582  1.00  0.00     0.031 A 
ATOM     58  C   UNL A   1      43.061  26.534  27.262  1.00  0.00     0.031 A 
ATOM     59  C   UNL A   1      43.196  30.005  32.956  1.00  0.00     0.049 A 
ATOM     60  C   UNL A   1      44.138  27.019  28.153  1.00  0.00     0.074 A 
ATOM     61  C   UNL A   1      43.469  31.351  32.871  1.00  0.00     0.029 A 
ATOM     62  N   UNL A   1      43.866  29.384  31.934  1.00  0.00    -0.354 N 
ATOM     63  N   UNL A   1      44.674  28.204  28.038  1.00  0.00    -0.248 NA
ATOM     64  C   UNL A   1      44.383  26.339  29.418  1.00  0.00     0.031 C 
ATOM     65  C   UNL A   1      44.202  31.532  31.658  1.00  0.00     0.029 A 
ATOM     66  C   UNL A   1      44.404  30.289  31.061  1.00  0.00     0.049 A 
ATOM     67  H   UNL A   1      43.950  28.407  31.839  1.00  0.00     0.167 HD
ATOM     68  C   UNL A   1      44.930  28.585  29.340  1.00  0.00     0.074 A 
ATOM     69  C   UNL A   1      44.901  27.353  30.118  1.00  0.00     0.031 C 
ATOM     70  C   UNL A   1      44.809  29.887  29.729  1.00  0.00     0.031 A 
BRANCH  57  71
ATOM     71  C   UNL A   1      42.667  27.955  34.392  1.00  0.00    -0.014 A 
ATOM     72  C   UNL A   1      43.042  28.162  35.737  1.00  0.00     0.010 A 
ATOM     73  C   UNL A   1      43.021  26.715  33.822  1.00  0.00     0.010 A 
ATOM     74  C   UNL A   1      43.789  27.211  36.446  1.00  0.00     0.020 A 
ATOM     75  C   UNL A   1      43.735  25.744  34.531  1.00  0.00     0.020 A 
ATOM     76  C   UNL A   1      44.141  26.010  35.830  1.00  0.00     0.054 A 
BRANCH  76  77
ATOM     77  S   UNL A   1      45.182  24.827  36.717  1.00  0.00     0.124 S 
ATOM     78  O   UNL A   1      44.955  25.209  38.107  1.00  0.00    -0.237 OA
ATOM     79  O   UNL A   1      44.610  23.548  36.307  1.00  0.00    -0.237 OA
ATOM     80  O   UNL A   1      46.522  25.099  36.200  1.00  0.00    -0.744 OA
ENDBRANCH  76  77
ENDBRANCH  57  71
BRANCH  58  81
ATOM     81  C   UNL A   1      43.147  25.241  26.541  1.00  0.00    -0.014 A 
ATOM     82  C   UNL A   1      43.746  25.161  25.269  1.00  0.00     0.010 A 
ATOM     83  C   UNL A   1      42.926  24.038  27.241  1.00  0.00     0.010 A 
ATOM     84  C   UNL A   1      44.187  23.930  24.753  1.00  0.00     0.020 A 
ATOM     85  C   UNL A   1      43.360  22.806  26.730  1.00  0.00     0.020 A 
ATOM     86  C   UNL A   1      44.016  22.762  25.500  1.00  0.00     0.054 A 
BRANCH  86  87
ATOM     87  S   UNL A   1      44.768  21.211  24.920  1.00  0.00     0.124 S 
ATOM     88  O   UNL A   1      46.150  21.347  25.373  1.00  0.00    -0.237 OA
ATOM     89  O   UNL A   1      43.976  20.195  25.605  1.00  0.00    -0.237 OA
ATOM     90  O   UNL A   1      44.587  21.263  23.469  1.00  0.00    -0.744 OA
ENDBRANCH  86  87
ENDBRANCH  58  81
BRANCH  70  91
ATOM     91  C   UNL A   1      44.985  30.958  28.691  1.00  0.00    -0.014 A 
ATOM     92  C   UNL A   1      43.936  31.657  28.067  1.00  0.00     0.010 A 
ATOM     93  C   UNL A   1      46.310  31.320  28.391  1.00  0.00     0.010 A 
ATOM     94  C   UNL A   1      44.215  32.688  27.154  1.00  0.00     0.020 A 
ATOM     95  C   UNL A   1      46.592  32.351  27.499  1.00  0.00     0.020 A 
ATOM     96  C   UNL A   1      45.544  33.027  26.877  1.00  0.00     0.054 A 
BRANCH  96  97
ATOM     97  S   UNL A   1      45.908  34.377  25.720  1.00  0.00     0.124 S 
ATOM     98  O   UNL A   1      45.004  34.095  24.608  1.00  0.00    -0.237 OA
ATOM     99  O   UNL A   1      45.592  35.569  26.502  1.00  0.00    -0.237 OA
ATOM    100  O   UNL A   1      47.329  34.204  25.418  1.00  0.00    -0.744 OA
ENDBRANCH  96  97
ENDBRANCH  70  91
ENDBRANCH  44  45
ENDBRANCH  36  39
ENDBRANCH  34  35
ENDBRANCH   1  34
TORSDOF 18
ENDMDL
