MODEL 1
REMARK VINA RESULT:     -11.8      0.000      0.000
REMARK SMILES O=C(CCc1nc(-c2ccccc2)c(-c2ccccc2)o1)NCCCCCCNC(=O)c1ccc(-c2c3nc(c(-c4ccc(S(=O)(=O)[O-])cc4)c4ccc([nH]4)c(-c4ccc(S(=O)(=O)[O-])cc4)c4nc(c(-c5ccc(S(=O)(=O)[O-])cc5)c5ccc2[nH]5)C=C4)C=C3)cc1
REMARK SMILES IDX 25 1 24 2 23 3 22 4 1 5 2 6 3 8 4 9 5 10 6 11 21 12 7 13
REMARK SMILES IDX 14 14 8 15 9 16 13 17 10 18 12 19 11 20 15 21 16 22 20 23
REMARK SMILES IDX 17 24 19 25 18 26 26 27 27 28 28 29 29 30 30 31 31 33 32 34
REMARK SMILES IDX 33 35 91 36 34 37 90 38 35 39 36 40 37 41 84 42 38 43 89 44
REMARK SMILES IDX 83 45 85 46 39 47 88 48 82 49 81 50 40 52 70 53 51 54 69 55
REMARK SMILES IDX 52 56 55 57 68 58 86 59 53 60 54 61 67 63 87 64 56 65 41 66
REMARK SMILES IDX 42 67 50 68 43 69 49 70 44 71 45 72 46 73 47 74 48 75 71 76
REMARK SMILES IDX 72 77 80 78 73 79 79 80 74 81 75 82 76 83 77 84 78 85 57 86
REMARK SMILES IDX 58 87 66 88 59 89 65 90 60 91 61 92 62 93 63 94 64 95
REMARK H PARENT 22 7 29 32 85 51 55 62
REMARK Flexibility Score: inf
ROOT
ATOM      1  C   UNL A   1      35.158  24.333  25.019  1.00  0.00     0.002 C 
ENDROOT
BRANCH   1   2
ATOM      2  C   UNL A   1      35.224  23.581  23.683  1.00  0.00     0.021 C 
BRANCH   2   3
ATOM      3  C   UNL A   1      33.907  23.534  22.903  1.00  0.00     0.116 C 
BRANCH   3   4
ATOM      4  N   UNL A   1      32.776  23.346  23.788  1.00  0.00    -0.356 N 
ATOM      5  O   UNL A   1      33.326  21.242  24.529  1.00  0.00    -0.275 OA
ATOM      6  C   UNL A   1      32.568  22.206  24.522  1.00  0.00     0.220 C 
ATOM      7  H   UNL A   1      32.119  24.076  23.866  1.00  0.00     0.163 HD
BRANCH   6   8
ATOM      8  C   UNL A   1      31.276  22.209  25.314  1.00  0.00     0.110 C 
BRANCH   8   9
ATOM      9  C   UNL A   1      31.248  23.274  26.402  1.00  0.00     0.107 C 
BRANCH   9  10
ATOM     10  C   UNL A   1      31.273  24.658  25.857  1.00  0.00     0.196 A 
ATOM     11  N   UNL A   1      30.483  25.190  24.949  1.00  0.00    -0.213 NA
ATOM     12  O   UNL A   1      32.167  25.533  26.415  1.00  0.00    -0.440 OA
ATOM     13  C   UNL A   1      30.894  26.503  24.873  1.00  0.00     0.117 A 
ATOM     14  C   UNL A   1      31.901  26.730  25.795  1.00  0.00     0.162 A 
BRANCH  13  15
ATOM     15  C   UNL A   1      30.269  27.483  24.004  1.00  0.00     0.004 A 
ATOM     16  C   UNL A   1      28.883  27.507  23.801  1.00  0.00     0.010 A 
ATOM     17  C   UNL A   1      31.068  28.415  23.328  1.00  0.00     0.010 A 
ATOM     18  C   UNL A   1      28.316  28.405  22.893  1.00  0.00     0.001 A 
ATOM     19  C   UNL A   1      30.503  29.301  22.408  1.00  0.00     0.001 A 
ATOM     20  C   UNL A   1      29.127  29.289  22.186  1.00  0.00     0.000 A 
ENDBRANCH  13  15
BRANCH  14  21
ATOM     21  C   UNL A   1      32.624  27.890  26.291  1.00  0.00     0.020 A 
ATOM     22  C   UNL A   1      31.954  29.012  26.787  1.00  0.00     0.012 A 
ATOM     23  C   UNL A   1      34.025  27.882  26.316  1.00  0.00     0.012 A 
ATOM     24  C   UNL A   1      32.676  30.090  27.312  1.00  0.00     0.001 A 
ATOM     25  C   UNL A   1      34.749  28.960  26.825  1.00  0.00     0.001 A 
ATOM     26  C   UNL A   1      34.071  30.063  27.329  1.00  0.00     0.000 A 
ENDBRANCH  14  21
ENDBRANCH   9  10
ENDBRANCH   8   9
ENDBRANCH   6   8
ENDBRANCH   3   4
ENDBRANCH   2   3
ENDBRANCH   1   2
BRANCH   1  27
ATOM     27  C   UNL A   1      36.030  23.739  26.125  1.00  0.00     0.002 C 
BRANCH  27  28
ATOM     28  C   UNL A   1      37.463  23.406  25.732  1.00  0.00     0.021 C 
BRANCH  28  29
ATOM     29  C   UNL A   1      38.518  23.898  26.714  1.00  0.00     0.116 C 
BRANCH  29  30
ATOM     30  N   UNL A   1      39.854  23.995  26.134  1.00  0.00    -0.352 N 
ATOM     31  C   UNL A   1      40.803  24.972  26.323  1.00  0.00     0.251 C 
ATOM     32  H   UNL A   1      40.110  23.263  25.529  1.00  0.00     0.163 HD
ATOM     33  O   UNL A   1      41.851  24.958  25.683  1.00  0.00    -0.269 OA
BRANCH  31  34
ATOM     34  C   UNL A   1      40.522  26.063  27.278  1.00  0.00     0.039 A 
ATOM     35  C   UNL A   1      39.715  25.806  28.390  1.00  0.00     0.014 A 
ATOM     36  C   UNL A   1      41.126  27.311  27.114  1.00  0.00     0.014 A 
ATOM     37  C   UNL A   1      39.591  26.776  29.387  1.00  0.00     0.010 A 
ATOM     38  C   UNL A   1      41.066  28.242  28.143  1.00  0.00     0.010 A 
ATOM     39  C   UNL A   1      40.304  27.983  29.294  1.00  0.00    -0.014 A 
BRANCH  39  40
ATOM     40  C   UNL A   1      40.283  28.998  30.378  1.00  0.00     0.031 A 
ATOM     41  C   UNL A   1      41.205  28.839  31.558  1.00  0.00     0.074 A 
ATOM     42  C   UNL A   1      39.366  29.987  30.361  1.00  0.00     0.049 A 
ATOM     43  N   UNL A   1      41.232  29.511  32.679  1.00  0.00    -0.248 NA
ATOM     44  C   UNL A   1      42.204  27.759  31.482  1.00  0.00     0.031 C 
ATOM     45  C   UNL A   1      38.384  30.222  29.298  1.00  0.00     0.029 A 
ATOM     46  N   UNL A   1      39.096  30.971  31.280  1.00  0.00    -0.354 N 
ATOM     47  C   UNL A   1      42.214  28.909  33.456  1.00  0.00     0.074 A 
ATOM     48  C   UNL A   1      42.741  27.800  32.693  1.00  0.00     0.031 C 
ATOM     49  C   UNL A   1      37.632  31.289  29.619  1.00  0.00     0.029 A 
ATOM     50  C   UNL A   1      38.046  31.787  30.926  1.00  0.00     0.049 A 
ATOM     51  H   UNL A   1      39.607  31.082  32.114  1.00  0.00     0.167 HD
ATOM     52  C   UNL A   1      42.647  29.255  34.690  1.00  0.00     0.031 A 
ATOM     53  C   UNL A   1      37.471  32.810  31.589  1.00  0.00     0.031 A 
ATOM     54  C   UNL A   1      42.160  30.392  35.424  1.00  0.00     0.049 A 
ATOM     55  C   UNL A   1      37.998  33.197  32.944  1.00  0.00     0.074 A 
ATOM     56  C   UNL A   1      42.599  30.878  36.643  1.00  0.00     0.029 A 
ATOM     57  N   UNL A   1      41.136  31.226  35.004  1.00  0.00    -0.354 N 
ATOM     58  N   UNL A   1      38.975  32.654  33.632  1.00  0.00    -0.248 NA
ATOM     59  C   UNL A   1      37.352  34.337  33.610  1.00  0.00     0.031 C 
ATOM     60  C   UNL A   1      41.817  31.986  36.978  1.00  0.00     0.029 A 
ATOM     61  C   UNL A   1      40.921  32.216  35.945  1.00  0.00     0.049 A 
ATOM     62  H   UNL A   1      40.638  31.128  34.160  1.00  0.00     0.167 HD
ATOM     63  C   UNL A   1      39.082  33.411  34.794  1.00  0.00     0.074 A 
ATOM     64  C   UNL A   1      38.078  34.451  34.714  1.00  0.00     0.031 C 
ATOM     65  C   UNL A   1      39.937  33.259  35.834  1.00  0.00     0.031 A 
BRANCH  52  66
ATOM     66  C   UNL A   1      43.709  28.404  35.328  1.00  0.00    -0.014 A 
ATOM     67  C   UNL A   1      43.371  27.282  36.104  1.00  0.00     0.010 A 
ATOM     68  C   UNL A   1      45.065  28.690  35.088  1.00  0.00     0.010 A 
ATOM     69  C   UNL A   1      44.370  26.473  36.649  1.00  0.00     0.020 A 
ATOM     70  C   UNL A   1      46.068  27.870  35.612  1.00  0.00     0.020 A 
ATOM     71  C   UNL A   1      45.713  26.772  36.398  1.00  0.00     0.054 A 
BRANCH  71  72
ATOM     72  S   UNL A   1      46.989  25.672  37.072  1.00  0.00     0.124 S 
ATOM     73  O   UNL A   1      48.163  26.542  37.077  1.00  0.00    -0.237 OA
ATOM     74  O   UNL A   1      46.457  25.331  38.388  1.00  0.00    -0.237 OA
ATOM     75  O   UNL A   1      47.035  24.568  36.117  1.00  0.00    -0.744 OA
ENDBRANCH  71  72
ENDBRANCH  52  66
BRANCH  53  76
ATOM     76  C   UNL A   1      36.330  33.554  30.986  1.00  0.00    -0.014 A 
ATOM     77  C   UNL A   1      36.357  33.915  29.627  1.00  0.00     0.010 A 
ATOM     78  C   UNL A   1      35.229  33.934  31.772  1.00  0.00     0.010 A 
ATOM     79  C   UNL A   1      35.324  34.677  29.075  1.00  0.00     0.020 A 
ATOM     80  C   UNL A   1      34.180  34.673  31.217  1.00  0.00     0.020 A 
ATOM     81  C   UNL A   1      34.244  35.056  29.876  1.00  0.00     0.054 A 
BRANCH  81  82
ATOM     82  S   UNL A   1      32.905  36.036  29.140  1.00  0.00     0.124 S 
ATOM     83  O   UNL A   1      32.093  36.361  30.307  1.00  0.00    -0.237 OA
ATOM     84  O   UNL A   1      33.624  37.156  28.536  1.00  0.00    -0.237 OA
ATOM     85  O   UNL A   1      32.295  35.112  28.186  1.00  0.00    -0.744 OA
ENDBRANCH  81  82
ENDBRANCH  53  76
BRANCH  65  86
ATOM     86  C   UNL A   1      39.870  34.269  36.945  1.00  0.00    -0.014 A 
ATOM     87  C   UNL A   1      40.498  35.521  36.830  1.00  0.00     0.010 A 
ATOM     88  C   UNL A   1      39.096  33.988  38.085  1.00  0.00     0.010 A 
ATOM     89  C   UNL A   1      40.367  36.469  37.848  1.00  0.00     0.020 A 
ATOM     90  C   UNL A   1      38.944  34.941  39.094  1.00  0.00     0.020 A 
ATOM     91  C   UNL A   1      39.590  36.174  38.973  1.00  0.00     0.054 A 
BRANCH  91  92
ATOM     92  S   UNL A   1      39.378  37.444  40.250  1.00  0.00     0.124 S 
ATOM     93  O   UNL A   1      40.756  37.870  40.485  1.00  0.00    -0.237 OA
ATOM     94  O   UNL A   1      38.521  38.426  39.590  1.00  0.00    -0.237 OA
ATOM     95  O   UNL A   1      38.752  36.723  41.355  1.00  0.00    -0.744 OA
ENDBRANCH  91  92
ENDBRANCH  65  86
ENDBRANCH  39  40
ENDBRANCH  31  34
ENDBRANCH  29  30
ENDBRANCH  28  29
ENDBRANCH  27  28
ENDBRANCH   1  27
TORSDOF 20
ENDMDL
MODEL 2
REMARK VINA RESULT:     -11.7      6.093     10.411
REMARK SMILES O=C(CCc1nc(-c2ccccc2)c(-c2ccccc2)o1)NCCCCCCNC(=O)c1ccc(-c2c3nc(c(-c4ccc(S(=O)(=O)[O-])cc4)c4ccc([nH]4)c(-c4ccc(S(=O)(=O)[O-])cc4)c4nc(c(-c5ccc(S(=O)(=O)[O-])cc5)c5ccc2[nH]5)C=C4)C=C3)cc1
REMARK SMILES IDX 25 1 24 2 23 3 22 4 1 5 2 6 3 8 4 9 5 10 6 11 21 12 7 13
REMARK SMILES IDX 14 14 8 15 9 16 13 17 10 18 12 19 11 20 15 21 16 22 20 23
REMARK SMILES IDX 17 24 19 25 18 26 26 27 27 28 28 29 29 30 30 31 31 33 32 34
REMARK SMILES IDX 33 35 91 36 34 37 90 38 35 39 36 40 37 41 84 42 38 43 89 44
REMARK SMILES IDX 83 45 85 46 39 47 88 48 82 49 81 50 40 52 70 53 51 54 69 55
REMARK SMILES IDX 52 56 55 57 68 58 86 59 53 60 54 61 67 63 87 64 56 65 41 66
REMARK SMILES IDX 42 67 50 68 43 69 49 70 44 71 45 72 46 73 47 74 48 75 71 76
REMARK SMILES IDX 72 77 80 78 73 79 79 80 74 81 75 82 76 83 77 84 78 85 57 86
REMARK SMILES IDX 58 87 66 88 59 89 65 90 60 91 61 92 62 93 63 94 64 95
REMARK H PARENT 22 7 29 32 85 51 55 62
REMARK Flexibility Score: inf
ROOT
ATOM      1  C   UNL A   1      35.720  20.914  25.083  1.00  0.00     0.002 C 
ENDROOT
BRANCH   1   2
ATOM      2  C   UNL A   1      35.116  19.513  24.913  1.00  0.00     0.021 C 
BRANCH   2   3
ATOM      3  C   UNL A   1      33.587  19.475  24.841  1.00  0.00     0.116 C 
BRANCH   3   4
ATOM      4  N   UNL A   1      33.083  20.378  23.826  1.00  0.00    -0.356 N 
ATOM      5  O   UNL A   1      31.902  21.765  25.225  1.00  0.00    -0.275 OA
ATOM      6  C   UNL A   1      32.268  21.447  24.099  1.00  0.00     0.220 C 
ATOM      7  H   UNL A   1      33.340  20.216  22.888  1.00  0.00     0.163 HD
BRANCH   6   8
ATOM      8  C   UNL A   1      31.806  22.200  22.868  1.00  0.00     0.110 C 
BRANCH   8   9
ATOM      9  C   UNL A   1      32.693  23.391  22.533  1.00  0.00     0.107 C 
BRANCH   9  10
ATOM     10  C   UNL A   1      32.108  24.689  22.966  1.00  0.00     0.196 A 
ATOM     11  N   UNL A   1      30.961  25.225  22.608  1.00  0.00    -0.213 NA
ATOM     12  O   UNL A   1      32.791  25.393  23.922  1.00  0.00    -0.440 OA
ATOM     13  C   UNL A   1      30.883  26.381  23.354  1.00  0.00     0.117 A 
ATOM     14  C   UNL A   1      31.983  26.472  24.189  1.00  0.00     0.162 A 
BRANCH  13  15
ATOM     15  C   UNL A   1      29.750  27.287  23.301  1.00  0.00     0.004 A 
ATOM     16  C   UNL A   1      28.475  26.894  23.727  1.00  0.00     0.010 A 
ATOM     17  C   UNL A   1      29.922  28.579  22.787  1.00  0.00     0.010 A 
ATOM     18  C   UNL A   1      27.384  27.755  23.585  1.00  0.00     0.001 A 
ATOM     19  C   UNL A   1      28.829  29.433  22.629  1.00  0.00     0.001 A 
ATOM     20  C   UNL A   1      27.559  29.016  23.021  1.00  0.00     0.000 A 
ENDBRANCH  13  15
BRANCH  14  21
ATOM     21  C   UNL A   1      32.400  27.340  25.278  1.00  0.00     0.020 A 
ATOM     22  C   UNL A   1      31.630  27.482  26.436  1.00  0.00     0.012 A 
ATOM     23  C   UNL A   1      33.620  28.025  25.197  1.00  0.00     0.012 A 
ATOM     24  C   UNL A   1      32.086  28.279  27.493  1.00  0.00     0.001 A 
ATOM     25  C   UNL A   1      34.072  28.831  26.242  1.00  0.00     0.001 A 
ATOM     26  C   UNL A   1      33.305  28.952  27.394  1.00  0.00     0.000 A 
ENDBRANCH  14  21
ENDBRANCH   9  10
ENDBRANCH   8   9
ENDBRANCH   6   8
ENDBRANCH   3   4
ENDBRANCH   2   3
ENDBRANCH   1   2
BRANCH   1  27
ATOM     27  C   UNL A   1      37.157  21.049  24.579  1.00  0.00     0.002 C 
BRANCH  27  28
ATOM     28  C   UNL A   1      38.095  19.903  24.936  1.00  0.00     0.021 C 
BRANCH  28  29
ATOM     29  C   UNL A   1      39.188  20.268  25.932  1.00  0.00     0.116 C 
BRANCH  29  30
ATOM     30  N   UNL A   1      40.334  19.365  25.896  1.00  0.00    -0.352 N 
ATOM     31  C   UNL A   1      41.659  19.650  26.130  1.00  0.00     0.251 C 
ATOM     32  H   UNL A   1      40.131  18.427  25.676  1.00  0.00     0.163 HD
ATOM     33  O   UNL A   1      42.522  18.791  25.966  1.00  0.00    -0.269 OA
BRANCH  31  34
ATOM     34  C   UNL A   1      42.031  21.018  26.543  1.00  0.00     0.039 A 
ATOM     35  C   UNL A   1      42.296  21.277  27.890  1.00  0.00     0.014 A 
ATOM     36  C   UNL A   1      42.195  22.018  25.583  1.00  0.00     0.014 A 
ATOM     37  C   UNL A   1      42.818  22.518  28.261  1.00  0.00     0.010 A 
ATOM     38  C   UNL A   1      42.790  23.222  25.943  1.00  0.00     0.010 A 
ATOM     39  C   UNL A   1      43.114  23.483  27.284  1.00  0.00    -0.014 A 
BRANCH  39  40
ATOM     40  C   UNL A   1      43.765  24.774  27.622  1.00  0.00     0.031 A 
ATOM     41  C   UNL A   1      42.930  25.906  28.159  1.00  0.00     0.074 A 
ATOM     42  C   UNL A   1      45.070  24.967  27.342  1.00  0.00     0.049 A 
ATOM     43  N   UNL A   1      43.264  27.153  28.360  1.00  0.00    -0.248 NA
ATOM     44  C   UNL A   1      41.523  25.603  28.477  1.00  0.00     0.031 C 
ATOM     45  C   UNL A   1      45.979  23.965  26.776  1.00  0.00     0.029 A 
ATOM     46  N   UNL A   1      45.857  26.083  27.477  1.00  0.00    -0.354 N 
ATOM     47  C   UNL A   1      42.104  27.792  28.782  1.00  0.00     0.074 A 
ATOM     48  C   UNL A   1      41.050  26.803  28.782  1.00  0.00     0.031 C 
ATOM     49  C   UNL A   1      47.199  24.509  26.627  1.00  0.00     0.029 A 
ATOM     50  C   UNL A   1      47.151  25.906  27.044  1.00  0.00     0.049 A 
ATOM     51  H   UNL A   1      45.526  26.933  27.848  1.00  0.00     0.167 HD
ATOM     52  C   UNL A   1      41.935  29.082  29.149  1.00  0.00     0.031 A 
ATOM     53  C   UNL A   1      48.179  26.775  26.975  1.00  0.00     0.031 A 
ATOM     54  C   UNL A   1      42.996  30.050  29.203  1.00  0.00     0.049 A 
ATOM     55  C   UNL A   1      47.971  28.196  27.425  1.00  0.00     0.074 A 
ATOM     56  C   UNL A   1      42.942  31.360  29.647  1.00  0.00     0.029 A 
ATOM     57  N   UNL A   1      44.304  29.812  28.811  1.00  0.00    -0.354 N 
ATOM     58  N   UNL A   1      46.880  28.761  27.886  1.00  0.00    -0.248 NA
ATOM     59  C   UNL A   1      49.132  29.094  27.355  1.00  0.00     0.031 C 
ATOM     60  C   UNL A   1      44.211  31.925  29.492  1.00  0.00     0.029 A 
ATOM     61  C   UNL A   1      45.063  30.954  28.992  1.00  0.00     0.049 A 
ATOM     62  H   UNL A   1      44.641  28.958  28.458  1.00  0.00     0.167 HD
ATOM     63  C   UNL A   1      47.235  30.071  28.192  1.00  0.00     0.074 A 
ATOM     64  C   UNL A   1      48.640  30.212  27.872  1.00  0.00     0.031 C 
ATOM     65  C   UNL A   1      46.466  31.066  28.695  1.00  0.00     0.031 A 
BRANCH  52  66
ATOM     66  C   UNL A   1      40.552  29.529  29.534  1.00  0.00    -0.014 A 
ATOM     67  C   UNL A   1      40.204  29.734  30.881  1.00  0.00     0.010 A 
ATOM     68  C   UNL A   1      39.611  29.819  28.530  1.00  0.00     0.010 A 
ATOM     69  C   UNL A   1      38.931  30.198  31.218  1.00  0.00     0.020 A 
ATOM     70  C   UNL A   1      38.343  30.305  28.861  1.00  0.00     0.020 A 
ATOM     71  C   UNL A   1      38.008  30.481  30.206  1.00  0.00     0.054 A 
BRANCH  71  72
ATOM     72  S   UNL A   1      36.381  31.135  30.670  1.00  0.00     0.124 S 
ATOM     73  O   UNL A   1      36.713  32.492  31.096  1.00  0.00    -0.237 OA
ATOM     74  O   UNL A   1      35.627  31.036  29.423  1.00  0.00    -0.237 OA
ATOM     75  O   UNL A   1      35.938  30.238  31.735  1.00  0.00    -0.744 OA
ENDBRANCH  71  72
ENDBRANCH  52  66
BRANCH  53  76
ATOM     76  C   UNL A   1      49.507  26.336  26.464  1.00  0.00    -0.014 A 
ATOM     77  C   UNL A   1      50.467  25.806  27.346  1.00  0.00     0.010 A 
ATOM     78  C   UNL A   1      49.832  26.476  25.104  1.00  0.00     0.010 A 
ATOM     79  C   UNL A   1      51.740  25.462  26.884  1.00  0.00     0.020 A 
ATOM     80  C   UNL A   1      51.096  26.107  24.633  1.00  0.00     0.020 A 
ATOM     81  C   UNL A   1      52.048  25.621  25.531  1.00  0.00     0.054 A 
BRANCH  81  82
ATOM     82  S   UNL A   1      53.703  25.158  24.947  1.00  0.00     0.124 S 
ATOM     83  O   UNL A   1      53.728  25.748  23.613  1.00  0.00    -0.237 OA
ATOM     84  O   UNL A   1      54.577  25.787  25.934  1.00  0.00    -0.237 OA
ATOM     85  O   UNL A   1      53.681  23.697  24.988  1.00  0.00    -0.744 OA
ENDBRANCH  81  82
ENDBRANCH  53  76
BRANCH  65  86
ATOM     86  C   UNL A   1      47.133  32.382  28.988  1.00  0.00    -0.014 A 
ATOM     87  C   UNL A   1      47.811  32.600  30.199  1.00  0.00     0.010 A 
ATOM     88  C   UNL A   1      47.148  33.381  27.999  1.00  0.00     0.010 A 
ATOM     89  C   UNL A   1      48.480  33.806  30.423  1.00  0.00     0.020 A 
ATOM     90  C   UNL A   1      47.835  34.578  28.210  1.00  0.00     0.020 A 
ATOM     91  C   UNL A   1      48.488  34.788  29.426  1.00  0.00     0.054 A 
BRANCH  91  92
ATOM     92  S   UNL A   1      49.419  36.318  29.711  1.00  0.00     0.124 S 
ATOM     93  O   UNL A   1      50.759  35.809  29.996  1.00  0.00    -0.237 OA
ATOM     94  O   UNL A   1      49.273  37.026  28.443  1.00  0.00    -0.237 OA
ATOM     95  O   UNL A   1      48.733  36.934  30.844  1.00  0.00    -0.744 OA
ENDBRANCH  91  92
ENDBRANCH  65  86
ENDBRANCH  39  40
ENDBRANCH  31  34
ENDBRANCH  29  30
ENDBRANCH  28  29
ENDBRANCH  27  28
ENDBRANCH   1  27
TORSDOF 20
ENDMDL
MODEL 3
REMARK VINA RESULT:     -11.6      1.192      8.073
REMARK SMILES O=C(CCc1nc(-c2ccccc2)c(-c2ccccc2)o1)NCCCCCCNC(=O)c1ccc(-c2c3nc(c(-c4ccc(S(=O)(=O)[O-])cc4)c4ccc([nH]4)c(-c4ccc(S(=O)(=O)[O-])cc4)c4nc(c(-c5ccc(S(=O)(=O)[O-])cc5)c5ccc2[nH]5)C=C4)C=C3)cc1
REMARK SMILES IDX 25 1 24 2 23 3 22 4 1 5 2 6 3 8 4 9 5 10 6 11 21 12 7 13
REMARK SMILES IDX 14 14 8 15 9 16 13 17 10 18 12 19 11 20 15 21 16 22 20 23
REMARK SMILES IDX 17 24 19 25 18 26 26 27 27 28 28 29 29 30 30 31 31 33 32 34
REMARK SMILES IDX 33 35 91 36 34 37 90 38 35 39 36 40 37 41 84 42 38 43 89 44
REMARK SMILES IDX 83 45 85 46 39 47 88 48 82 49 81 50 40 52 70 53 51 54 69 55
REMARK SMILES IDX 52 56 55 57 68 58 86 59 53 60 54 61 67 63 87 64 56 65 41 66
REMARK SMILES IDX 42 67 50 68 43 69 49 70 44 71 45 72 46 73 47 74 48 75 71 76
REMARK SMILES IDX 72 77 80 78 73 79 79 80 74 81 75 82 76 83 77 84 78 85 57 86
REMARK SMILES IDX 58 87 66 88 59 89 65 90 60 91 61 92 62 93 63 94 64 95
REMARK H PARENT 22 7 29 32 85 51 55 62
REMARK Flexibility Score: inf
ROOT
ATOM      1  C   UNL A   1      37.566  23.669  25.332  1.00  0.00     0.002 C 
ENDROOT
BRANCH   1   2
ATOM      2  C   UNL A   1      36.539  22.703  24.727  1.00  0.00     0.021 C 
BRANCH   2   3
ATOM      3  C   UNL A   1      35.622  23.318  23.665  1.00  0.00     0.116 C 
BRANCH   3   4
ATOM      4  N   UNL A   1      34.336  22.651  23.627  1.00  0.00    -0.356 N 
ATOM      5  O   UNL A   1      33.567  23.603  21.683  1.00  0.00    -0.275 OA
ATOM      6  C   UNL A   1      33.403  22.857  22.643  1.00  0.00     0.220 C 
ATOM      7  H   UNL A   1      34.120  22.014  24.348  1.00  0.00     0.163 HD
BRANCH   6   8
ATOM      8  C   UNL A   1      32.104  22.108  22.857  1.00  0.00     0.110 C 
BRANCH   8   9
ATOM      9  C   UNL A   1      31.287  22.657  24.019  1.00  0.00     0.107 C 
BRANCH   9  10
ATOM     10  C   UNL A   1      31.189  24.141  24.007  1.00  0.00     0.196 A 
ATOM     11  N   UNL A   1      30.354  24.897  23.327  1.00  0.00    -0.213 NA
ATOM     12  O   UNL A   1      32.006  24.828  24.866  1.00  0.00    -0.440 OA
ATOM     13  C   UNL A   1      30.648  26.178  23.739  1.00  0.00     0.117 A 
ATOM     14  C   UNL A   1      31.634  26.141  24.709  1.00  0.00     0.162 A 
BRANCH  13  15
ATOM     15  C   UNL A   1      29.937  27.350  23.261  1.00  0.00     0.004 A 
ATOM     16  C   UNL A   1      30.601  28.394  22.603  1.00  0.00     0.010 A 
ATOM     17  C   UNL A   1      28.558  27.460  23.482  1.00  0.00     0.010 A 
ATOM     18  C   UNL A   1      29.909  29.549  22.230  1.00  0.00     0.001 A 
ATOM     19  C   UNL A   1      27.870  28.621  23.125  1.00  0.00     0.001 A 
ATOM     20  C   UNL A   1      28.549  29.669  22.505  1.00  0.00     0.000 A 
ENDBRANCH  13  15
BRANCH  14  21
ATOM     21  C   UNL A   1      32.255  27.102  25.607  1.00  0.00     0.020 A 
ATOM     22  C   UNL A   1      33.599  27.461  25.478  1.00  0.00     0.012 A 
ATOM     23  C   UNL A   1      31.489  27.720  26.605  1.00  0.00     0.012 A 
ATOM     24  C   UNL A   1      34.154  28.432  26.320  1.00  0.00     0.001 A 
ATOM     25  C   UNL A   1      32.041  28.678  27.455  1.00  0.00     0.001 A 
ATOM     26  C   UNL A   1      33.375  29.038  27.308  1.00  0.00     0.000 A 
ENDBRANCH  14  21
ENDBRANCH   9  10
ENDBRANCH   8   9
ENDBRANCH   6   8
ENDBRANCH   3   4
ENDBRANCH   2   3
ENDBRANCH   1   2
BRANCH   1  27
ATOM     27  C   UNL A   1      38.249  23.155  26.599  1.00  0.00     0.002 C 
BRANCH  27  28
ATOM     28  C   UNL A   1      39.585  22.454  26.394  1.00  0.00     0.021 C 
BRANCH  28  29
ATOM     29  C   UNL A   1      40.799  23.274  26.809  1.00  0.00     0.116 C 
BRANCH  29  30
ATOM     30  N   UNL A   1      41.221  24.241  25.801  1.00  0.00    -0.352 N 
ATOM     31  C   UNL A   1      41.463  25.587  25.950  1.00  0.00     0.251 C 
ATOM     32  H   UNL A   1      41.350  23.883  24.893  1.00  0.00     0.163 HD
ATOM     33  O   UNL A   1      41.722  26.288  24.976  1.00  0.00    -0.269 OA
BRANCH  31  34
ATOM     34  C   UNL A   1      41.367  26.182  27.298  1.00  0.00     0.039 A 
ATOM     35  C   UNL A   1      42.453  26.899  27.808  1.00  0.00     0.014 A 
ATOM     36  C   UNL A   1      40.172  26.098  28.016  1.00  0.00     0.014 A 
ATOM     37  C   UNL A   1      42.306  27.611  29.001  1.00  0.00     0.010 A 
ATOM     38  C   UNL A   1      40.004  26.872  29.159  1.00  0.00     0.010 A 
ATOM     39  C   UNL A   1      41.066  27.642  29.660  1.00  0.00    -0.014 A 
BRANCH  39  40
ATOM     40  C   UNL A   1      40.837  28.469  30.872  1.00  0.00     0.031 A 
ATOM     41  C   UNL A   1      39.746  29.507  30.866  1.00  0.00     0.074 A 
ATOM     42  C   UNL A   1      41.674  28.370  31.926  1.00  0.00     0.049 A 
ATOM     43  N   UNL A   1      39.488  30.436  31.746  1.00  0.00    -0.248 NA
ATOM     44  C   UNL A   1      38.851  29.523  29.695  1.00  0.00     0.031 C 
ATOM     45  C   UNL A   1      42.799  27.437  32.038  1.00  0.00     0.029 A 
ATOM     46  N   UNL A   1      41.719  29.080  33.100  1.00  0.00    -0.354 N 
ATOM     47  C   UNL A   1      38.435  31.174  31.219  1.00  0.00     0.074 A 
ATOM     48  C   UNL A   1      38.119  30.603  29.929  1.00  0.00     0.031 C 
ATOM     49  C   UNL A   1      43.413  27.623  33.219  1.00  0.00     0.029 A 
ATOM     50  C   UNL A   1      42.755  28.714  33.930  1.00  0.00     0.049 A 
ATOM     51  H   UNL A   1      41.072  29.785  33.327  1.00  0.00     0.167 HD
ATOM     52  C   UNL A   1      37.781  32.224  31.766  1.00  0.00     0.031 A 
ATOM     53  C   UNL A   1      43.140  29.213  35.121  1.00  0.00     0.031 A 
ATOM     54  C   UNL A   1      38.060  32.755  33.073  1.00  0.00     0.049 A 
ATOM     55  C   UNL A   1      42.370  30.358  35.721  1.00  0.00     0.074 A 
ATOM     56  C   UNL A   1      37.393  33.760  33.751  1.00  0.00     0.029 A 
ATOM     57  N   UNL A   1      39.079  32.317  33.903  1.00  0.00    -0.354 N 
ATOM     58  N   UNL A   1      41.333  30.998  35.234  1.00  0.00    -0.248 NA
ATOM     59  C   UNL A   1      42.817  30.845  37.035  1.00  0.00     0.031 C 
ATOM     60  C   UNL A   1      38.030  33.954  34.979  1.00  0.00     0.029 A 
ATOM     61  C   UNL A   1      39.066  33.039  35.082  1.00  0.00     0.049 A 
ATOM     62  H   UNL A   1      39.715  31.598  33.686  1.00  0.00     0.167 HD
ATOM     63  C   UNL A   1      40.984  31.937  36.199  1.00  0.00     0.074 A 
ATOM     64  C   UNL A   1      41.913  31.779  37.297  1.00  0.00     0.031 C 
ATOM     65  C   UNL A   1      39.981  32.848  36.176  1.00  0.00     0.031 A 
BRANCH  52  66
ATOM     66  C   UNL A   1      36.689  32.871  30.959  1.00  0.00    -0.014 A 
ATOM     67  C   UNL A   1      36.982  33.856  30.001  1.00  0.00     0.010 A 
ATOM     68  C   UNL A   1      35.361  32.434  31.112  1.00  0.00     0.010 A 
ATOM     69  C   UNL A   1      35.962  34.411  29.224  1.00  0.00     0.020 A 
ATOM     70  C   UNL A   1      34.341  32.969  30.322  1.00  0.00     0.020 A 
ATOM     71  C   UNL A   1      34.647  33.963  29.390  1.00  0.00     0.054 A 
BRANCH  71  72
ATOM     72  S   UNL A   1      33.351  34.662  28.330  1.00  0.00     0.124 S 
ATOM     73  O   UNL A   1      34.131  35.465  27.392  1.00  0.00    -0.237 OA
ATOM     74  O   UNL A   1      32.722  33.471  27.764  1.00  0.00    -0.237 OA
ATOM     75  O   UNL A   1      32.517  35.422  29.258  1.00  0.00    -0.744 OA
ENDBRANCH  71  72
ENDBRANCH  52  66
BRANCH  53  76
ATOM     76  C   UNL A   1      44.310  28.636  35.838  1.00  0.00    -0.014 A 
ATOM     77  C   UNL A   1      44.133  27.580  36.751  1.00  0.00     0.010 A 
ATOM     78  C   UNL A   1      45.600  29.160  35.641  1.00  0.00     0.010 A 
ATOM     79  C   UNL A   1      45.217  27.085  37.481  1.00  0.00     0.020 A 
ATOM     80  C   UNL A   1      46.691  28.648  36.350  1.00  0.00     0.020 A 
ATOM     81  C   UNL A   1      46.489  27.628  37.280  1.00  0.00     0.054 A 
BRANCH  81  82
ATOM     82  S   UNL A   1      47.886  26.965  38.229  1.00  0.00     0.124 S 
ATOM     83  O   UNL A   1      47.212  26.117  39.207  1.00  0.00    -0.237 OA
ATOM     84  O   UNL A   1      48.660  26.262  37.208  1.00  0.00    -0.237 OA
ATOM     85  O   UNL A   1      48.527  28.161  38.770  1.00  0.00    -0.744 OA
ENDBRANCH  81  82
ENDBRANCH  53  76
BRANCH  65  86
ATOM     86  C   UNL A   1      39.793  33.708  37.395  1.00  0.00    -0.014 A 
ATOM     87  C   UNL A   1      40.155  35.066  37.391  1.00  0.00     0.010 A 
ATOM     88  C   UNL A   1      39.167  33.164  38.530  1.00  0.00     0.010 A 
ATOM     89  C   UNL A   1      39.910  35.862  38.513  1.00  0.00     0.020 A 
ATOM     90  C   UNL A   1      38.900  33.962  39.644  1.00  0.00     0.020 A 
ATOM     91  C   UNL A   1      39.283  35.305  39.632  1.00  0.00     0.054 A 
BRANCH  91  92
ATOM     92  S   UNL A   1      38.913  36.373  41.051  1.00  0.00     0.124 S 
ATOM     93  O   UNL A   1      38.588  37.640  40.400  1.00  0.00    -0.237 OA
ATOM     94  O   UNL A   1      37.792  35.688  41.688  1.00  0.00    -0.237 OA
ATOM     95  O   UNL A   1      40.155  36.368  41.819  1.00  0.00    -0.744 OA
ENDBRANCH  91  92
ENDBRANCH  65  86
ENDBRANCH  39  40
ENDBRANCH  31  34
ENDBRANCH  29  30
ENDBRANCH  28  29
ENDBRANCH  27  28
ENDBRANCH   1  27
TORSDOF 20
ENDMDL
