MODEL 1
REMARK VINA RESULT:     -11.3      0.000      0.000
REMARK SMILES C[C@@H](NC1=[NH+]S(=O)(=O)c2ccccc21)C(=O)NCCCCCCNC(=O)c1ccc(-c2c3nc(c(-c4ccc(S(=O)(=O)[O-])cc4)c4ccc([nH]4)c(-c4ccc(S(=O)(=O)[O-])cc4)c4nc(c(-c5ccc(S(=O)(=O)[O-])cc5)c5ccc2[nH]5)C=C4)C=C3)cc1
REMARK SMILES IDX 21 1 20 2 19 3 18 4 17 5 15 6 16 7 2 9 1 10 3 11 4 12 5 14
REMARK SMILES IDX 14 15 6 16 9 18 13 19 7 20 8 21 10 22 12 23 11 24 22 25
REMARK SMILES IDX 23 26 24 27 25 28 26 30 27 31 28 32 86 33 29 34 85 35 30 36
REMARK SMILES IDX 31 37 32 38 79 39 33 40 84 41 78 42 80 43 34 44 83 45 77 46
REMARK SMILES IDX 76 47 35 49 65 50 46 51 64 52 47 53 50 54 63 55 81 56 48 57
REMARK SMILES IDX 49 58 62 60 82 61 51 62 36 63 37 64 45 65 38 66 44 67 39 68
REMARK SMILES IDX 40 69 41 70 42 71 43 72 66 73 67 74 75 75 68 76 74 77 69 78
REMARK SMILES IDX 70 79 71 80 72 81 73 82 52 83 53 84 61 85 54 86 60 87 55 88
REMARK SMILES IDX 56 89 57 90 58 91 59 92
REMARK H PARENT 17 8 3 13 5 17 24 29 80 48 50 59
REMARK Flexibility Score: inf
ROOT
ATOM      1  C   UNL A   1      36.239  23.242  23.715  1.00  0.00     0.002 C 
ENDROOT
BRANCH   1   2
ATOM      2  C   UNL A   1      34.894  22.868  23.083  1.00  0.00     0.002 C 
BRANCH   2   3
ATOM      3  C   UNL A   1      33.648  23.338  23.839  1.00  0.00     0.021 C 
BRANCH   3   4
ATOM      4  C   UNL A   1      32.854  22.225  24.514  1.00  0.00     0.116 C 
BRANCH   4   5
ATOM      5  N   UNL A   1      32.959  22.274  25.958  1.00  0.00    -0.352 N 
ATOM      6  C   UNL A   1      32.068  22.724  26.892  1.00  0.00     0.264 C 
ATOM      7  O   UNL A   1      32.405  22.650  28.080  1.00  0.00    -0.270 OA
ATOM      8  H   UNL A   1      33.805  21.931  26.325  1.00  0.00     0.163 HD
BRANCH   6   9
ATOM      9  C   UNL A   1      30.738  23.409  26.499  1.00  0.00     0.258 C 
ATOM     10  C   UNL A   1      29.587  22.723  27.234  1.00  0.00     0.069 C 
BRANCH   9  11
ATOM     11  N   UNL A   1      30.698  24.855  26.751  1.00  0.00    -0.262 N 
ATOM     12  C   UNL A   1      30.485  25.796  25.778  1.00  0.00     0.292 C 
ATOM     13  H   UNL A   1      30.832  25.167  27.675  1.00  0.00     0.306 HD
ATOM     14  N   UNL A   1      29.972  25.537  24.611  1.00  0.00    -0.162 N 
ATOM     15  C   UNL A   1      30.955  27.187  25.971  1.00  0.00     0.087 A 
ATOM     16  S   UNL A   1      30.042  26.850  23.631  1.00  0.00     0.329 S 
ATOM     17  H   UNL A   1      29.593  24.667  24.350  1.00  0.00     0.327 HD
ATOM     18  C   UNL A   1      30.812  27.891  24.791  1.00  0.00     0.124 A 
ATOM     19  C   UNL A   1      31.593  27.759  27.059  1.00  0.00     0.018 A 
ATOM     20  O   UNL A   1      28.719  27.373  23.389  1.00  0.00    -0.179 OA
ATOM     21  O   UNL A   1      31.004  26.621  22.569  1.00  0.00    -0.179 OA
ATOM     22  C   UNL A   1      31.312  29.163  24.605  1.00  0.00     0.025 A 
ATOM     23  C   UNL A   1      32.092  29.058  26.911  1.00  0.00     0.001 A 
ATOM     24  C   UNL A   1      31.961  29.750  25.693  1.00  0.00     0.002 A 
ENDBRANCH   9  11
ENDBRANCH   6   9
ENDBRANCH   4   5
ENDBRANCH   3   4
ENDBRANCH   2   3
ENDBRANCH   1   2
BRANCH   1  25
ATOM     25  C   UNL A   1      36.166  24.027  25.029  1.00  0.00     0.021 C 
BRANCH  25  26
ATOM     26  C   UNL A   1      36.550  23.248  26.285  1.00  0.00     0.116 C 
BRANCH  26  27
ATOM     27  N   UNL A   1      37.757  22.457  26.115  1.00  0.00    -0.352 N 
ATOM     28  C   UNL A   1      39.068  22.812  26.322  1.00  0.00     0.251 C 
ATOM     29  H   UNL A   1      37.614  21.534  25.807  1.00  0.00     0.163 HD
ATOM     30  O   UNL A   1      39.968  22.040  26.003  1.00  0.00    -0.269 OA
BRANCH  28  31
ATOM     31  C   UNL A   1      39.397  24.135  26.898  1.00  0.00     0.039 A 
ATOM     32  C   UNL A   1      39.051  24.391  28.228  1.00  0.00     0.014 A 
ATOM     33  C   UNL A   1      40.033  25.120  26.137  1.00  0.00     0.014 A 
ATOM     34  C   UNL A   1      39.401  25.609  28.815  1.00  0.00     0.010 A 
ATOM     35  C   UNL A   1      40.429  26.313  26.739  1.00  0.00     0.010 A 
ATOM     36  C   UNL A   1      40.122  26.566  28.085  1.00  0.00    -0.014 A 
BRANCH  36  37
ATOM     37  C   UNL A   1      40.587  27.824  28.721  1.00  0.00     0.031 A 
ATOM     38  C   UNL A   1      41.969  27.921  29.304  1.00  0.00     0.074 A 
ATOM     39  C   UNL A   1      39.735  28.861  28.838  1.00  0.00     0.049 A 
ATOM     40  N   UNL A   1      42.524  28.917  29.947  1.00  0.00    -0.248 NA
ATOM     41  C   UNL A   1      42.830  26.737  29.166  1.00  0.00     0.031 C 
ATOM     42  C   UNL A   1      38.352  28.877  28.357  1.00  0.00     0.029 A 
ATOM     43  N   UNL A   1      39.904  30.097  29.411  1.00  0.00    -0.354 N 
ATOM     44  C   UNL A   1      43.793  28.477  30.304  1.00  0.00     0.074 A 
ATOM     45  C   UNL A   1      43.908  27.109  29.841  1.00  0.00     0.031 C 
ATOM     46  C   UNL A   1      37.801  30.067  28.646  1.00  0.00     0.029 A 
ATOM     47  C   UNL A   1      38.780  30.886  29.356  1.00  0.00     0.049 A 
ATOM     48  H   UNL A   1      40.749  30.389  29.821  1.00  0.00     0.167 HD
ATOM     49  C   UNL A   1      44.778  29.151  30.945  1.00  0.00     0.031 A 
ATOM     50  C   UNL A   1      38.554  32.125  29.832  1.00  0.00     0.031 A 
ATOM     51  C   UNL A   1      44.664  30.510  31.404  1.00  0.00     0.049 A 
ATOM     52  C   UNL A   1      39.659  32.860  30.534  1.00  0.00     0.074 A 
ATOM     53  C   UNL A   1      45.625  31.298  32.014  1.00  0.00     0.029 A 
ATOM     54  N   UNL A   1      43.516  31.283  31.310  1.00  0.00    -0.354 N 
ATOM     55  N   UNL A   1      40.874  32.449  30.804  1.00  0.00    -0.248 NA
ATOM     56  C   UNL A   1      39.366  34.227  30.984  1.00  0.00     0.031 C 
ATOM     57  C   UNL A   1      45.045  32.534  32.324  1.00  0.00     0.029 A 
ATOM     58  C   UNL A   1      43.736  32.530  31.871  1.00  0.00     0.049 A 
ATOM     59  H   UNL A   1      42.669  30.988  30.904  1.00  0.00     0.167 HD
ATOM     60  C   UNL A   1      41.497  33.510  31.450  1.00  0.00     0.074 A 
ATOM     61  C   UNL A   1      40.528  34.588  31.513  1.00  0.00     0.031 C 
ATOM     62  C   UNL A   1      42.757  33.585  31.946  1.00  0.00     0.031 A 
BRANCH  49  63
ATOM     63  C   UNL A   1      46.063  28.408  31.196  1.00  0.00    -0.014 A 
ATOM     64  C   UNL A   1      46.269  27.704  32.397  1.00  0.00     0.010 A 
ATOM     65  C   UNL A   1      47.079  28.418  30.224  1.00  0.00     0.010 A 
ATOM     66  C   UNL A   1      47.492  27.078  32.649  1.00  0.00     0.020 A 
ATOM     67  C   UNL A   1      48.295  27.770  30.462  1.00  0.00     0.020 A 
ATOM     68  C   UNL A   1      48.503  27.127  31.684  1.00  0.00     0.054 A 
BRANCH  68  69
ATOM     69  S   UNL A   1      50.092  26.328  32.041  1.00  0.00     0.124 S 
ATOM     70  O   UNL A   1      50.122  26.363  33.501  1.00  0.00    -0.237 OA
ATOM     71  O   UNL A   1      49.929  25.003  31.449  1.00  0.00    -0.237 OA
ATOM     72  O   UNL A   1      51.067  27.188  31.375  1.00  0.00    -0.744 OA
ENDBRANCH  68  69
ENDBRANCH  49  63
BRANCH  50  73
ATOM     73  C   UNL A   1      37.216  32.742  29.642  1.00  0.00    -0.014 A 
ATOM     74  C   UNL A   1      36.271  32.730  30.682  1.00  0.00     0.010 A 
ATOM     75  C   UNL A   1      36.908  33.403  28.439  1.00  0.00     0.010 A 
ATOM     76  C   UNL A   1      35.042  33.377  30.526  1.00  0.00     0.020 A 
ATOM     77  C   UNL A   1      35.688  34.068  28.287  1.00  0.00     0.020 A 
ATOM     78  C   UNL A   1      34.762  34.048  29.332  1.00  0.00     0.054 A 
BRANCH  78  79
ATOM     79  S   UNL A   1      33.206  34.972  29.185  1.00  0.00     0.124 S 
ATOM     80  O   UNL A   1      32.463  34.164  28.224  1.00  0.00    -0.237 OA
ATOM     81  O   UNL A   1      32.697  34.957  30.555  1.00  0.00    -0.237 OA
ATOM     82  O   UNL A   1      33.637  36.284  28.706  1.00  0.00    -0.744 OA
ENDBRANCH  78  79
ENDBRANCH  50  73
BRANCH  62  83
ATOM     83  C   UNL A   1      43.162  34.876  32.602  1.00  0.00    -0.014 A 
ATOM     84  C   UNL A   1      43.757  35.908  31.855  1.00  0.00     0.010 A 
ATOM     85  C   UNL A   1      42.901  35.077  33.969  1.00  0.00     0.010 A 
ATOM     86  C   UNL A   1      44.107  37.113  32.471  1.00  0.00     0.020 A 
ATOM     87  C   UNL A   1      43.231  36.288  34.584  1.00  0.00     0.020 A 
ATOM     88  C   UNL A   1      43.844  37.293  33.833  1.00  0.00     0.054 A 
BRANCH  88  89
ATOM     89  S   UNL A   1      44.267  38.882  34.602  1.00  0.00     0.124 S 
ATOM     90  O   UNL A   1      44.067  38.593  36.020  1.00  0.00    -0.237 OA
ATOM     91  O   UNL A   1      45.655  39.081  34.191  1.00  0.00    -0.237 OA
ATOM     92  O   UNL A   1      43.309  39.815  34.014  1.00  0.00    -0.744 OA
ENDBRANCH  88  89
ENDBRANCH  62  83
ENDBRANCH  36  37
ENDBRANCH  28  31
ENDBRANCH  26  27
ENDBRANCH  25  26
ENDBRANCH   1  25
TORSDOF 17
ENDMDL
MODEL 2
REMARK VINA RESULT:     -10.8      1.768      2.689
REMARK SMILES C[C@@H](NC1=[NH+]S(=O)(=O)c2ccccc21)C(=O)NCCCCCCNC(=O)c1ccc(-c2c3nc(c(-c4ccc(S(=O)(=O)[O-])cc4)c4ccc([nH]4)c(-c4ccc(S(=O)(=O)[O-])cc4)c4nc(c(-c5ccc(S(=O)(=O)[O-])cc5)c5ccc2[nH]5)C=C4)C=C3)cc1
REMARK SMILES IDX 21 1 20 2 19 3 18 4 17 5 15 6 16 7 2 9 1 10 3 11 4 12 5 14
REMARK SMILES IDX 14 15 6 16 9 18 13 19 7 20 8 21 10 22 12 23 11 24 22 25
REMARK SMILES IDX 23 26 24 27 25 28 26 30 27 31 28 32 86 33 29 34 85 35 30 36
REMARK SMILES IDX 31 37 32 38 79 39 33 40 84 41 78 42 80 43 34 44 83 45 77 46
REMARK SMILES IDX 76 47 35 49 65 50 46 51 64 52 47 53 50 54 63 55 81 56 48 57
REMARK SMILES IDX 49 58 62 60 82 61 51 62 36 63 37 64 45 65 38 66 44 67 39 68
REMARK SMILES IDX 40 69 41 70 42 71 43 72 66 73 67 74 75 75 68 76 74 77 69 78
REMARK SMILES IDX 70 79 71 80 72 81 73 82 52 83 53 84 61 85 54 86 60 87 55 88
REMARK SMILES IDX 56 89 57 90 58 91 59 92
REMARK H PARENT 17 8 3 13 5 17 24 29 80 48 50 59
REMARK Flexibility Score: inf
ROOT
ATOM      1  C   UNL A   1      34.391  22.713  25.710  1.00  0.00     0.002 C 
ENDROOT
BRANCH   1   2
ATOM      2  C   UNL A   1      33.205  23.638  25.414  1.00  0.00     0.002 C 
BRANCH   2   3
ATOM      3  C   UNL A   1      33.315  25.062  25.969  1.00  0.00     0.021 C 
BRANCH   3   4
ATOM      4  C   UNL A   1      33.665  26.124  24.933  1.00  0.00     0.116 C 
BRANCH   4   5
ATOM      5  N   UNL A   1      33.827  27.436  25.527  1.00  0.00    -0.352 N 
ATOM      6  C   UNL A   1      33.523  28.673  25.028  1.00  0.00     0.264 C 
ATOM      7  O   UNL A   1      33.759  29.649  25.750  1.00  0.00    -0.270 OA
ATOM      8  H   UNL A   1      34.217  27.438  26.430  1.00  0.00     0.163 HD
BRANCH   6   9
ATOM      9  C   UNL A   1      33.017  28.877  23.581  1.00  0.00     0.258 C 
ATOM     10  C   UNL A   1      34.093  28.404  22.604  1.00  0.00     0.069 C 
BRANCH   9  11
ATOM     11  N   UNL A   1      31.745  28.211  23.280  1.00  0.00    -0.262 N 
ATOM     12  C   UNL A   1      30.592  28.874  22.951  1.00  0.00     0.292 C 
ATOM     13  H   UNL A   1      31.717  27.227  23.317  1.00  0.00     0.306 HD
ATOM     14  N   UNL A   1      30.550  30.109  22.543  1.00  0.00    -0.162 N 
ATOM     15  C   UNL A   1      29.275  28.231  23.164  1.00  0.00     0.087 A 
ATOM     16  S   UNL A   1      29.003  30.642  22.428  1.00  0.00     0.329 S 
ATOM     17  H   UNL A   1      31.344  30.652  22.333  1.00  0.00     0.327 HD
ATOM     18  C   UNL A   1      28.270  29.156  22.954  1.00  0.00     0.124 A 
ATOM     19  C   UNL A   1      28.978  26.967  23.644  1.00  0.00     0.018 A 
ATOM     20  O   UNL A   1      28.638  30.842  21.046  1.00  0.00    -0.179 OA
ATOM     21  O   UNL A   1      28.744  31.626  23.461  1.00  0.00    -0.179 OA
ATOM     22  C   UNL A   1      26.942  28.906  23.233  1.00  0.00     0.025 A 
ATOM     23  C   UNL A   1      27.637  26.672  23.916  1.00  0.00     0.001 A 
ATOM     24  C   UNL A   1      26.630  27.635  23.721  1.00  0.00     0.002 A 
ENDBRANCH   9  11
ENDBRANCH   6   9
ENDBRANCH   4   5
ENDBRANCH   3   4
ENDBRANCH   2   3
ENDBRANCH   1   2
BRANCH   1  25
ATOM     25  C   UNL A   1      35.639  23.389  26.288  1.00  0.00     0.021 C 
BRANCH  25  26
ATOM     26  C   UNL A   1      36.824  23.513  25.333  1.00  0.00     0.116 C 
BRANCH  26  27
ATOM     27  N   UNL A   1      37.892  22.574  25.629  1.00  0.00    -0.352 N 
ATOM     28  C   UNL A   1      39.103  22.796  26.239  1.00  0.00     0.251 C 
ATOM     29  H   UNL A   1      37.723  21.645  25.354  1.00  0.00     0.163 HD
ATOM     30  O   UNL A   1      39.935  21.895  26.292  1.00  0.00    -0.269 OA
BRANCH  28  31
ATOM     31  C   UNL A   1      39.418  24.127  26.802  1.00  0.00     0.039 A 
ATOM     32  C   UNL A   1      39.039  24.405  28.118  1.00  0.00     0.014 A 
ATOM     33  C   UNL A   1      40.074  25.100  26.042  1.00  0.00     0.014 A 
ATOM     34  C   UNL A   1      39.375  25.632  28.695  1.00  0.00     0.010 A 
ATOM     35  C   UNL A   1      40.456  26.303  26.635  1.00  0.00     0.010 A 
ATOM     36  C   UNL A   1      40.115  26.577  27.968  1.00  0.00    -0.014 A 
BRANCH  36  37
ATOM     37  C   UNL A   1      40.564  27.845  28.596  1.00  0.00     0.031 A 
ATOM     38  C   UNL A   1      41.944  27.962  29.179  1.00  0.00     0.074 A 
ATOM     39  C   UNL A   1      39.700  28.872  28.706  1.00  0.00     0.049 A 
ATOM     40  N   UNL A   1      42.487  28.969  29.816  1.00  0.00    -0.248 NA
ATOM     41  C   UNL A   1      42.820  26.788  29.050  1.00  0.00     0.031 C 
ATOM     42  C   UNL A   1      38.317  28.868  28.224  1.00  0.00     0.029 A 
ATOM     43  N   UNL A   1      39.853  30.114  29.270  1.00  0.00    -0.354 N 
ATOM     44  C   UNL A   1      43.761  28.547  30.176  1.00  0.00     0.074 A 
ATOM     45  C   UNL A   1      43.893  27.177  29.723  1.00  0.00     0.031 C 
ATOM     46  C   UNL A   1      37.752  30.053  28.504  1.00  0.00     0.029 A 
ATOM     47  C   UNL A   1      38.720  30.889  29.209  1.00  0.00     0.049 A 
ATOM     48  H   UNL A   1      40.694  30.419  29.679  1.00  0.00     0.167 HD
ATOM     49  C   UNL A   1      44.738  29.237  30.813  1.00  0.00     0.031 A 
ATOM     50  C   UNL A   1      38.479  32.128  29.676  1.00  0.00     0.031 A 
ATOM     51  C   UNL A   1      44.607  30.598  31.262  1.00  0.00     0.049 A 
ATOM     52  C   UNL A   1      39.575  32.881  30.374  1.00  0.00     0.074 A 
ATOM     53  C   UNL A   1      45.558  31.402  31.867  1.00  0.00     0.029 A 
ATOM     54  N   UNL A   1      43.449  31.356  31.163  1.00  0.00    -0.354 N 
ATOM     55  N   UNL A   1      40.794  32.487  30.648  1.00  0.00    -0.248 NA
ATOM     56  C   UNL A   1      39.265  34.248  30.815  1.00  0.00     0.031 C 
ATOM     57  C   UNL A   1      44.963  32.632  32.169  1.00  0.00     0.029 A 
ATOM     58  C   UNL A   1      43.654  32.610  31.715  1.00  0.00     0.049 A 
ATOM     59  H   UNL A   1      42.606  31.048  30.758  1.00  0.00     0.167 HD
ATOM     60  C   UNL A   1      41.404  33.560  31.286  1.00  0.00     0.074 A 
ATOM     61  C   UNL A   1      40.422  34.626  31.342  1.00  0.00     0.031 C 
ATOM     62  C   UNL A   1      42.663  33.653  31.782  1.00  0.00     0.031 A 
BRANCH  49  63
ATOM     63  C   UNL A   1      46.031  28.511  31.069  1.00  0.00    -0.014 A 
ATOM     64  C   UNL A   1      47.049  28.480  30.097  1.00  0.00     0.010 A 
ATOM     65  C   UNL A   1      46.230  27.845  32.292  1.00  0.00     0.010 A 
ATOM     66  C   UNL A   1      48.215  27.743  30.318  1.00  0.00     0.020 A 
ATOM     67  C   UNL A   1      47.407  27.129  32.526  1.00  0.00     0.020 A 
ATOM     68  C   UNL A   1      48.380  27.061  31.527  1.00  0.00     0.054 A 
BRANCH  68  69
ATOM     69  S   UNL A   1      49.891  26.091  31.784  1.00  0.00     0.124 S 
ATOM     70  O   UNL A   1      50.764  27.065  32.436  1.00  0.00    -0.237 OA
ATOM     71  O   UNL A   1      49.433  24.995  32.634  1.00  0.00    -0.237 OA
ATOM     72  O   UNL A   1      50.287  25.704  30.433  1.00  0.00    -0.744 OA
ENDBRANCH  68  69
ENDBRANCH  49  63
BRANCH  50  73
ATOM     73  C   UNL A   1      37.134  32.728  29.482  1.00  0.00    -0.014 A 
ATOM     74  C   UNL A   1      36.190  32.717  30.523  1.00  0.00     0.010 A 
ATOM     75  C   UNL A   1      36.816  33.372  28.272  1.00  0.00     0.010 A 
ATOM     76  C   UNL A   1      34.953  33.348  30.362  1.00  0.00     0.020 A 
ATOM     77  C   UNL A   1      35.589  34.020  28.115  1.00  0.00     0.020 A 
ATOM     78  C   UNL A   1      34.664  34.003  29.161  1.00  0.00     0.054 A 
BRANCH  78  79
ATOM     79  S   UNL A   1      33.098  34.906  29.006  1.00  0.00     0.124 S 
ATOM     80  O   UNL A   1      33.546  36.213  28.538  1.00  0.00    -0.237 OA
ATOM     81  O   UNL A   1      32.361  34.101  28.035  1.00  0.00    -0.237 OA
ATOM     82  O   UNL A   1      32.555  34.876  30.364  1.00  0.00    -0.744 OA
ENDBRANCH  78  79
ENDBRANCH  50  73
BRANCH  62  83
ATOM     83  C   UNL A   1      43.052  34.954  32.430  1.00  0.00    -0.014 A 
ATOM     84  C   UNL A   1      43.684  35.967  31.688  1.00  0.00     0.010 A 
ATOM     85  C   UNL A   1      42.739  35.182  33.782  1.00  0.00     0.010 A 
ATOM     86  C   UNL A   1      44.019  37.181  32.295  1.00  0.00     0.020 A 
ATOM     87  C   UNL A   1      43.054  36.403  34.387  1.00  0.00     0.020 A 
ATOM     88  C   UNL A   1      43.704  37.389  33.642  1.00  0.00     0.054 A 
BRANCH  88  89
ATOM     89  S   UNL A   1      44.109  38.988  34.398  1.00  0.00     0.124 S 
ATOM     90  O   UNL A   1      42.985  39.818  33.969  1.00  0.00    -0.237 OA
ATOM     91  O   UNL A   1      44.149  38.672  35.824  1.00  0.00    -0.237 OA
ATOM     92  O   UNL A   1      45.400  39.332  33.806  1.00  0.00    -0.744 OA
ENDBRANCH  88  89
ENDBRANCH  62  83
ENDBRANCH  36  37
ENDBRANCH  28  31
ENDBRANCH  26  27
ENDBRANCH  25  26
ENDBRANCH   1  25
TORSDOF 17
ENDMDL
MODEL 3
REMARK VINA RESULT:     -10.5      3.460      4.401
REMARK SMILES C[C@@H](NC1=[NH+]S(=O)(=O)c2ccccc21)C(=O)NCCCCCCNC(=O)c1ccc(-c2c3nc(c(-c4ccc(S(=O)(=O)[O-])cc4)c4ccc([nH]4)c(-c4ccc(S(=O)(=O)[O-])cc4)c4nc(c(-c5ccc(S(=O)(=O)[O-])cc5)c5ccc2[nH]5)C=C4)C=C3)cc1
REMARK SMILES IDX 21 1 20 2 19 3 18 4 17 5 15 6 16 7 2 9 1 10 3 11 4 12 5 14
REMARK SMILES IDX 14 15 6 16 9 18 13 19 7 20 8 21 10 22 12 23 11 24 22 25
REMARK SMILES IDX 23 26 24 27 25 28 26 30 27 31 28 32 86 33 29 34 85 35 30 36
REMARK SMILES IDX 31 37 32 38 79 39 33 40 84 41 78 42 80 43 34 44 83 45 77 46
REMARK SMILES IDX 76 47 35 49 65 50 46 51 64 52 47 53 50 54 63 55 81 56 48 57
REMARK SMILES IDX 49 58 62 60 82 61 51 62 36 63 37 64 45 65 38 66 44 67 39 68
REMARK SMILES IDX 40 69 41 70 42 71 43 72 66 73 67 74 75 75 68 76 74 77 69 78
REMARK SMILES IDX 70 79 71 80 72 81 73 82 52 83 53 84 61 85 54 86 60 87 55 88
REMARK SMILES IDX 56 89 57 90 58 91 59 92
REMARK H PARENT 17 8 3 13 5 17 24 29 80 48 50 59
REMARK Flexibility Score: inf
ROOT
ATOM      1  C   UNL A   1      40.776  21.677  26.892  1.00  0.00     0.002 C 
ENDROOT
BRANCH   1   2
ATOM      2  C   UNL A   1      39.429  22.383  26.704  1.00  0.00     0.002 C 
BRANCH   2   3
ATOM      3  C   UNL A   1      38.510  21.791  25.630  1.00  0.00     0.021 C 
BRANCH   3   4
ATOM      4  C   UNL A   1      37.268  22.622  25.326  1.00  0.00     0.116 C 
BRANCH   4   5
ATOM      5  N   UNL A   1      36.252  22.486  26.351  1.00  0.00    -0.352 N 
ATOM      6  C   UNL A   1      34.892  22.585  26.262  1.00  0.00     0.264 C 
ATOM      7  O   UNL A   1      34.242  22.419  27.300  1.00  0.00    -0.270 OA
ATOM      8  H   UNL A   1      36.595  22.292  27.252  1.00  0.00     0.163 HD
BRANCH   6   9
ATOM      9  C   UNL A   1      34.180  23.004  24.954  1.00  0.00     0.258 C 
ATOM     10  C   UNL A   1      33.539  21.770  24.317  1.00  0.00     0.069 C 
BRANCH   9  11
ATOM     11  N   UNL A   1      33.173  24.059  25.117  1.00  0.00    -0.262 N 
ATOM     12  C   UNL A   1      32.847  24.964  24.141  1.00  0.00     0.292 C 
ATOM     13  H   UNL A   1      32.704  24.121  25.980  1.00  0.00     0.306 HD
ATOM     14  N   UNL A   1      33.123  24.809  22.879  1.00  0.00    -0.162 N 
ATOM     15  C   UNL A   1      32.246  26.268  24.505  1.00  0.00     0.087 A 
ATOM     16  S   UNL A   1      32.767  26.164  22.026  1.00  0.00     0.329 S 
ATOM     17  H   UNL A   1      33.497  23.987  22.488  1.00  0.00     0.327 HD
ATOM     18  C   UNL A   1      32.196  27.080  23.389  1.00  0.00     0.124 A 
ATOM     19  C   UNL A   1      31.898  26.762  25.751  1.00  0.00     0.018 A 
ATOM     20  O   UNL A   1      31.640  25.933  21.154  1.00  0.00    -0.179 OA
ATOM     21  O   UNL A   1      33.992  26.798  21.578  1.00  0.00    -0.179 OA
ATOM     22  C   UNL A   1      31.840  28.413  23.439  1.00  0.00     0.025 A 
ATOM     23  C   UNL A   1      31.510  28.104  25.834  1.00  0.00     0.001 A 
ATOM     24  C   UNL A   1      31.490  28.924  24.690  1.00  0.00     0.002 A 
ENDBRANCH   9  11
ENDBRANCH   6   9
ENDBRANCH   4   5
ENDBRANCH   3   4
ENDBRANCH   2   3
ENDBRANCH   1   2
BRANCH   1  25
ATOM     25  C   UNL A   1      41.710  22.287  27.942  1.00  0.00     0.021 C 
BRANCH  25  26
ATOM     26  C   UNL A   1      42.831  23.169  27.396  1.00  0.00     0.116 C 
BRANCH  26  27
ATOM     27  N   UNL A   1      42.437  23.917  26.214  1.00  0.00    -0.352 N 
ATOM     28  C   UNL A   1      41.901  25.179  26.121  1.00  0.00     0.251 C 
ATOM     29  H   UNL A   1      42.574  23.454  25.358  1.00  0.00     0.163 HD
ATOM     30  O   UNL A   1      41.514  25.600  25.035  1.00  0.00    -0.269 OA
BRANCH  28  31
ATOM     31  C   UNL A   1      41.760  26.017  27.332  1.00  0.00     0.039 A 
ATOM     32  C   UNL A   1      42.747  26.969  27.607  1.00  0.00     0.014 A 
ATOM     33  C   UNL A   1      40.672  25.866  28.197  1.00  0.00     0.014 A 
ATOM     34  C   UNL A   1      42.610  27.813  28.711  1.00  0.00     0.010 A 
ATOM     35  C   UNL A   1      40.510  26.745  29.268  1.00  0.00     0.010 A 
ATOM     36  C   UNL A   1      41.474  27.730  29.531  1.00  0.00    -0.014 A 
BRANCH  36  37
ATOM     37  C   UNL A   1      41.265  28.683  30.650  1.00  0.00     0.031 A 
ATOM     38  C   UNL A   1      42.108  28.601  31.891  1.00  0.00     0.074 A 
ATOM     39  C   UNL A   1      40.263  29.580  30.577  1.00  0.00     0.049 A 
ATOM     40  N   UNL A   1      42.029  29.309  32.988  1.00  0.00    -0.248 NA
ATOM     41  C   UNL A   1      43.161  27.574  31.910  1.00  0.00     0.031 C 
ATOM     42  C   UNL A   1      39.343  29.729  29.448  1.00  0.00     0.029 A 
ATOM     43  N   UNL A   1      39.843  30.526  31.477  1.00  0.00    -0.354 N 
ATOM     44  C   UNL A   1      43.010  28.807  33.835  1.00  0.00     0.074 A 
ATOM     45  C   UNL A   1      43.643  27.706  33.137  1.00  0.00     0.031 C 
ATOM     46  C   UNL A   1      38.473  30.715  29.719  1.00  0.00     0.029 A 
ATOM     47  C   UNL A   1      38.754  31.248  31.049  1.00  0.00     0.049 A 
ATOM     48  H   UNL A   1      40.279  30.674  32.347  1.00  0.00     0.167 HD
ATOM     49  C   UNL A   1      43.364  29.230  35.073  1.00  0.00     0.031 A 
ATOM     50  C   UNL A   1      38.052  32.221  31.659  1.00  0.00     0.031 A 
ATOM     51  C   UNL A   1      42.737  30.325  35.765  1.00  0.00     0.049 A 
ATOM     52  C   UNL A   1      38.462  32.682  33.028  1.00  0.00     0.074 A 
ATOM     53  C   UNL A   1      43.061  30.864  36.998  1.00  0.00     0.029 A 
ATOM     54  N   UNL A   1      41.651  31.044  35.288  1.00  0.00    -0.354 N 
ATOM     55  N   UNL A   1      39.435  32.236  33.785  1.00  0.00    -0.248 NA
ATOM     56  C   UNL A   1      37.687  33.782  33.618  1.00  0.00     0.031 C 
ATOM     57  C   UNL A   1      42.145  31.884  37.284  1.00  0.00     0.029 A 
ATOM     58  C   UNL A   1      41.278  32.007  36.211  1.00  0.00     0.049 A 
ATOM     59  H   UNL A   1      41.212  30.893  34.420  1.00  0.00     0.167 HD
ATOM     60  C   UNL A   1      39.397  33.008  34.941  1.00  0.00     0.074 A 
ATOM     61  C   UNL A   1      38.315  33.959  34.774  1.00  0.00     0.031 C 
ATOM     62  C   UNL A   1      40.187  32.933  36.041  1.00  0.00     0.031 A 
BRANCH  49  63
ATOM     63  C   UNL A   1      44.479  28.485  35.756  1.00  0.00    -0.014 A 
ATOM     64  C   UNL A   1      45.802  28.963  35.714  1.00  0.00     0.010 A 
ATOM     65  C   UNL A   1      44.204  27.288  36.442  1.00  0.00     0.010 A 
ATOM     66  C   UNL A   1      46.839  28.226  36.291  1.00  0.00     0.020 A 
ATOM     67  C   UNL A   1      45.236  26.561  37.042  1.00  0.00     0.020 A 
ATOM     68  C   UNL A   1      46.550  27.022  36.940  1.00  0.00     0.054 A 
BRANCH  68  69
ATOM     69  S   UNL A   1      47.915  26.068  37.661  1.00  0.00     0.124 S 
ATOM     70  O   UNL A   1      48.131  26.766  38.927  1.00  0.00    -0.237 OA
ATOM     71  O   UNL A   1      47.348  24.727  37.775  1.00  0.00    -0.237 OA
ATOM     72  O   UNL A   1      48.988  26.206  36.681  1.00  0.00    -0.744 OA
ENDBRANCH  68  69
ENDBRANCH  49  63
BRANCH  50  73
ATOM     73  C   UNL A   1      36.890  32.825  30.958  1.00  0.00    -0.014 A 
ATOM     74  C   UNL A   1      35.578  32.544  31.377  1.00  0.00     0.010 A 
ATOM     75  C   UNL A   1      37.096  33.738  29.907  1.00  0.00     0.010 A 
ATOM     76  C   UNL A   1      34.491  33.173  30.763  1.00  0.00     0.020 A 
ATOM     77  C   UNL A   1      36.013  34.383  29.305  1.00  0.00     0.020 A 
ATOM     78  C   UNL A   1      34.716  34.094  29.737  1.00  0.00     0.054 A 
BRANCH  78  79
ATOM     79  S   UNL A   1      33.302  34.980  29.022  1.00  0.00     0.124 S 
ATOM     80  O   UNL A   1      33.938  36.167  28.462  1.00  0.00    -0.237 OA
ATOM     81  O   UNL A   1      32.782  34.019  28.052  1.00  0.00    -0.237 OA
ATOM     82  O   UNL A   1      32.434  35.216  30.175  1.00  0.00    -0.744 OA
ENDBRANCH  78  79
ENDBRANCH  50  73
BRANCH  62  83
ATOM     83  C   UNL A   1      39.910  33.908  37.152  1.00  0.00    -0.014 A 
ATOM     84  C   UNL A   1      40.585  35.139  37.215  1.00  0.00     0.010 A 
ATOM     85  C   UNL A   1      38.931  33.608  38.117  1.00  0.00     0.010 A 
ATOM     86  C   UNL A   1      40.302  36.047  38.240  1.00  0.00     0.020 A 
ATOM     87  C   UNL A   1      38.631  34.523  39.131  1.00  0.00     0.020 A 
ATOM     88  C   UNL A   1      39.329  35.731  39.193  1.00  0.00     0.054 A 
BRANCH  88  89
ATOM     89  S   UNL A   1      38.946  36.943  40.488  1.00  0.00     0.124 S 
ATOM     90  O   UNL A   1      38.126  36.156  41.405  1.00  0.00    -0.237 OA
ATOM     91  O   UNL A   1      40.269  37.311  40.987  1.00  0.00    -0.237 OA
ATOM     92  O   UNL A   1      38.240  38.002  39.771  1.00  0.00    -0.744 OA
ENDBRANCH  88  89
ENDBRANCH  62  83
ENDBRANCH  36  37
ENDBRANCH  28  31
ENDBRANCH  26  27
ENDBRANCH  25  26
ENDBRANCH   1  25
TORSDOF 17
ENDMDL
