MODEL 1
REMARK VINA RESULT:     -11.5      0.000      0.000
REMARK SMILES Cc1cc(Cl)cc2c1O[C@H](C(F)(F)F)C(C(=O)NCCCCCCNC(=O)c1ccc(-c3c4nc(c(-c5ccc(S(=O)(=O)[O-])cc5)c5ccc([nH]5)c(-c5ccc(S(=O)(=O)[O-])cc5)c5nc(c(-c6ccc(S(=O)(=O)[O-])cc6)c6ccc3[nH]6)C=C5)C=C4)cc1)=C2
REMARK SMILES IDX 22 1 21 2 20 3 19 4 18 5 16 6 17 7 15 9 1 10 2 11 3 12 8 13
REMARK SMILES IDX 4 14 7 15 9 16 5 17 6 18 88 19 10 20 11 21 12 22 13 23 14 24
REMARK SMILES IDX 23 25 24 26 25 27 26 28 27 30 28 31 29 32 87 33 30 34 86 35
REMARK SMILES IDX 31 36 32 37 33 38 80 39 34 40 85 41 79 42 81 43 35 44 84 45
REMARK SMILES IDX 78 46 77 47 36 49 66 50 47 51 65 52 48 53 51 54 64 55 82 56
REMARK SMILES IDX 49 57 50 58 63 60 83 61 52 62 37 63 38 64 46 65 39 66 45 67
REMARK SMILES IDX 40 68 41 69 42 70 43 71 44 72 67 73 68 74 76 75 69 76 75 77
REMARK SMILES IDX 70 78 71 79 72 80 73 81 74 82 53 83 54 84 62 85 55 86 61 87
REMARK SMILES IDX 56 88 57 89 58 90 59 91 60 92
REMARK H PARENT 18 8 25 29 81 48 51 59
REMARK Flexibility Score: inf
ROOT
ATOM      1  C   UNL A   1      31.504  27.816  25.794  1.00  0.00     0.002 C 
ENDROOT
BRANCH   1   2
ATOM      2  C   UNL A   1      30.659  26.596  25.402  1.00  0.00     0.002 C 
BRANCH   2   3
ATOM      3  C   UNL A   1      30.035  26.663  24.006  1.00  0.00     0.021 C 
BRANCH   3   4
ATOM      4  C   UNL A   1      30.344  25.442  23.146  1.00  0.00     0.116 C 
BRANCH   4   5
ATOM      5  N   UNL A   1      31.450  25.692  22.235  1.00  0.00    -0.352 N 
ATOM      6  C   UNL A   1      32.683  25.182  22.011  1.00  0.00     0.251 C 
ATOM      7  O   UNL A   1      33.306  25.695  21.075  1.00  0.00    -0.270 OA
ATOM      8  H   UNL A   1      31.246  26.429  21.615  1.00  0.00     0.163 HD
BRANCH   6   9
ATOM      9  C   UNL A   1      33.314  24.081  22.799  1.00  0.00     0.067 C 
ATOM     10  C   UNL A   1      36.464  20.928  25.397  1.00  0.00     0.048 C 
ATOM     11  C   UNL A   1      35.101  20.819  24.771  1.00  0.00    -0.007 A 
ATOM     12  C   UNL A   1      34.382  19.624  24.896  1.00  0.00     0.027 A 
ATOM     13  C   UNL A   1      34.508  21.891  24.090  1.00  0.00     0.131 A 
ATOM     14  C   UNL A   1      33.111  19.507  24.332  1.00  0.00     0.042 A 
ATOM     15  C   UNL A   1      33.237  21.775  23.517  1.00  0.00     0.019 A 
ATOM     16  O   UNL A   1      35.250  23.027  23.970  1.00  0.00    -0.475 OA
ATOM     17  Cl  UNL A   1      32.247  18.026  24.483  1.00  0.00    -0.084 Cl
ATOM     18  C   UNL A   1      32.536  20.573  23.641  1.00  0.00     0.032 A 
ATOM     19  C   UNL A   1      32.683  22.893  22.763  1.00  0.00     0.025 C 
ATOM     20  C   UNL A   1      34.555  24.249  23.624  1.00  0.00     0.314 C 
BRANCH  20  21
ATOM     21  C   UNL A   1      34.313  25.071  24.904  1.00  0.00     0.429 C 
ATOM     22  F   UNL A   1      35.346  24.919  25.768  1.00  0.00    -0.167 F 
ATOM     23  F   UNL A   1      34.210  26.398  24.658  1.00  0.00    -0.167 F 
ATOM     24  F   UNL A   1      33.183  24.701  25.547  1.00  0.00    -0.167 F 
ENDBRANCH  20  21
ENDBRANCH   6   9
ENDBRANCH   4   5
ENDBRANCH   3   4
ENDBRANCH   2   3
ENDBRANCH   1   2
BRANCH   1  25
ATOM     25  C   UNL A   1      32.169  27.732  27.171  1.00  0.00     0.021 C 
BRANCH  25  26
ATOM     26  C   UNL A   1      33.561  28.349  27.234  1.00  0.00     0.116 C 
BRANCH  26  27
ATOM     27  N   UNL A   1      33.501  29.796  27.354  1.00  0.00    -0.352 N 
ATOM     28  C   UNL A   1      34.407  30.654  27.920  1.00  0.00     0.251 C 
ATOM     29  H   UNL A   1      32.696  30.219  26.977  1.00  0.00     0.163 HD
ATOM     30  O   UNL A   1      34.091  31.819  28.152  1.00  0.00    -0.269 OA
BRANCH  28  31
ATOM     31  C   UNL A   1      35.757  30.165  28.256  1.00  0.00     0.039 A 
ATOM     32  C   UNL A   1      36.749  30.177  27.274  1.00  0.00     0.014 A 
ATOM     33  C   UNL A   1      36.039  29.692  29.542  1.00  0.00     0.014 A 
ATOM     34  C   UNL A   1      38.038  29.753  27.594  1.00  0.00     0.010 A 
ATOM     35  C   UNL A   1      37.342  29.340  29.879  1.00  0.00     0.010 A 
ATOM     36  C   UNL A   1      38.350  29.354  28.905  1.00  0.00    -0.014 A 
BRANCH  36  37
ATOM     37  C   UNL A   1      39.721  28.917  29.265  1.00  0.00     0.031 A 
ATOM     38  C   UNL A   1      40.629  29.848  30.021  1.00  0.00     0.074 A 
ATOM     39  C   UNL A   1      40.155  27.699  28.886  1.00  0.00     0.049 A 
ATOM     40  N   UNL A   1      41.866  29.660  30.403  1.00  0.00    -0.248 NA
ATOM     41  C   UNL A   1      40.084  31.168  30.378  1.00  0.00     0.031 C 
ATOM     42  C   UNL A   1      39.371  26.718  28.132  1.00  0.00     0.029 A 
ATOM     43  N   UNL A   1      41.360  27.075  29.089  1.00  0.00    -0.354 N 
ATOM     44  C   UNL A   1      42.244  30.835  31.041  1.00  0.00     0.074 A 
ATOM     45  C   UNL A   1      41.131  31.751  30.942  1.00  0.00     0.031 C 
ATOM     46  C   UNL A   1      40.102  25.602  27.972  1.00  0.00     0.029 A 
ATOM     47  C   UNL A   1      41.418  25.803  28.572  1.00  0.00     0.049 A 
ATOM     48  H   UNL A   1      42.113  27.500  29.561  1.00  0.00     0.167 HD
ATOM     49  C   UNL A   1      43.404  31.115  31.679  1.00  0.00     0.031 A 
ATOM     50  C   UNL A   1      42.417  24.899  28.580  1.00  0.00     0.031 A 
ATOM     51  C   UNL A   1      44.507  30.197  31.781  1.00  0.00     0.049 A 
ATOM     52  C   UNL A   1      43.714  25.252  29.255  1.00  0.00     0.074 A 
ATOM     53  C   UNL A   1      45.714  30.374  32.434  1.00  0.00     0.029 A 
ATOM     54  N   UNL A   1      44.537  28.931  31.216  1.00  0.00    -0.354 N 
ATOM     55  N   UNL A   1      44.038  26.352  29.894  1.00  0.00    -0.248 NA
ATOM     56  C   UNL A   1      44.779  24.241  29.218  1.00  0.00     0.031 C 
ATOM     57  C   UNL A   1      46.496  29.236  32.216  1.00  0.00     0.029 A 
ATOM     58  C   UNL A   1      45.753  28.325  31.483  1.00  0.00     0.049 A 
ATOM     59  H   UNL A   1      43.802  28.523  30.703  1.00  0.00     0.167 HD
ATOM     60  C   UNL A   1      45.337  26.157  30.350  1.00  0.00     0.074 A 
ATOM     61  C   UNL A   1      45.730  24.827  29.932  1.00  0.00     0.031 C 
ATOM     62  C   UNL A   1      46.130  27.002  31.052  1.00  0.00     0.031 A 
BRANCH  49  63
ATOM     63  C   UNL A   1      43.537  32.470  32.324  1.00  0.00    -0.014 A 
ATOM     64  C   UNL A   1      43.175  32.667  33.670  1.00  0.00     0.010 A 
ATOM     65  C   UNL A   1      44.077  33.545  31.596  1.00  0.00     0.010 A 
ATOM     66  C   UNL A   1      43.320  33.923  34.264  1.00  0.00     0.020 A 
ATOM     67  C   UNL A   1      44.251  34.796  32.196  1.00  0.00     0.020 A 
ATOM     68  C   UNL A   1      43.859  34.979  33.524  1.00  0.00     0.054 A 
BRANCH  68  69
ATOM     69  S   UNL A   1      44.065  36.587  34.337  1.00  0.00     0.124 S 
ATOM     70  O   UNL A   1      45.486  36.853  34.125  1.00  0.00    -0.237 OA
ATOM     71  O   UNL A   1      43.147  37.442  33.587  1.00  0.00    -0.237 OA
ATOM     72  O   UNL A   1      43.681  36.329  35.722  1.00  0.00    -0.744 OA
ENDBRANCH  68  69
ENDBRANCH  49  63
BRANCH  50  73
ATOM     73  C   UNL A   1      42.216  23.565  27.950  1.00  0.00    -0.014 A 
ATOM     74  C   UNL A   1      42.586  23.349  26.611  1.00  0.00     0.010 A 
ATOM     75  C   UNL A   1      41.678  22.497  28.691  1.00  0.00     0.010 A 
ATOM     76  C   UNL A   1      42.414  22.093  26.023  1.00  0.00     0.020 A 
ATOM     77  C   UNL A   1      41.530  21.232  28.115  1.00  0.00     0.020 A 
ATOM     78  C   UNL A   1      41.892  21.040  26.780  1.00  0.00     0.054 A 
BRANCH  78  79
ATOM     79  S   UNL A   1      41.735  19.405  26.009  1.00  0.00     0.124 S 
ATOM     80  O   UNL A   1      42.616  19.528  24.852  1.00  0.00    -0.237 OA
ATOM     81  O   UNL A   1      42.201  18.514  27.069  1.00  0.00    -0.237 OA
ATOM     82  O   UNL A   1      40.310  19.306  25.704  1.00  0.00    -0.744 OA
ENDBRANCH  78  79
ENDBRANCH  50  73
BRANCH  62  83
ATOM     83  C   UNL A   1      47.506  26.517  31.428  1.00  0.00    -0.014 A 
ATOM     84  C   UNL A   1      47.749  25.927  32.680  1.00  0.00     0.010 A 
ATOM     85  C   UNL A   1      48.548  26.580  30.485  1.00  0.00     0.010 A 
ATOM     86  C   UNL A   1      49.014  25.426  32.990  1.00  0.00     0.020 A 
ATOM     87  C   UNL A   1      49.807  26.052  30.780  1.00  0.00     0.020 A 
ATOM     88  C   UNL A   1      50.035  25.486  32.036  1.00  0.00     0.054 A 
BRANCH  88  89
ATOM     89  S   UNL A   1      51.651  24.775  32.447  1.00  0.00     0.124 S 
ATOM     90  O   UNL A   1      51.460  23.368  32.108  1.00  0.00    -0.237 OA
ATOM     91  O   UNL A   1      52.556  25.515  31.571  1.00  0.00    -0.237 OA
ATOM     92  O   UNL A   1      51.804  25.057  33.873  1.00  0.00    -0.744 OA
ENDBRANCH  88  89
ENDBRANCH  62  83
ENDBRANCH  36  37
ENDBRANCH  28  31
ENDBRANCH  26  27
ENDBRANCH  25  26
ENDBRANCH   1  25
TORSDOF 17
ENDMDL
MODEL 2
REMARK VINA RESULT:     -11.4      3.146      9.308
REMARK SMILES Cc1cc(Cl)cc2c1O[C@H](C(F)(F)F)C(C(=O)NCCCCCCNC(=O)c1ccc(-c3c4nc(c(-c5ccc(S(=O)(=O)[O-])cc5)c5ccc([nH]5)c(-c5ccc(S(=O)(=O)[O-])cc5)c5nc(c(-c6ccc(S(=O)(=O)[O-])cc6)c6ccc3[nH]6)C=C5)C=C4)cc1)=C2
REMARK SMILES IDX 22 1 21 2 20 3 19 4 18 5 16 6 17 7 15 9 1 10 2 11 3 12 8 13
REMARK SMILES IDX 4 14 7 15 9 16 5 17 6 18 88 19 10 20 11 21 12 22 13 23 14 24
REMARK SMILES IDX 23 25 24 26 25 27 26 28 27 30 28 31 29 32 87 33 30 34 86 35
REMARK SMILES IDX 31 36 32 37 33 38 80 39 34 40 85 41 79 42 81 43 35 44 84 45
REMARK SMILES IDX 78 46 77 47 36 49 66 50 47 51 65 52 48 53 51 54 64 55 82 56
REMARK SMILES IDX 49 57 50 58 63 60 83 61 52 62 37 63 38 64 46 65 39 66 45 67
REMARK SMILES IDX 40 68 41 69 42 70 43 71 44 72 67 73 68 74 76 75 69 76 75 77
REMARK SMILES IDX 70 78 71 79 72 80 73 81 74 82 53 83 54 84 62 85 55 86 61 87
REMARK SMILES IDX 56 88 57 89 58 90 59 91 60 92
REMARK H PARENT 18 8 25 29 81 48 51 59
REMARK Flexibility Score: inf
ROOT
ATOM      1  C   UNL A   1      34.560  22.612  26.010  1.00  0.00     0.002 C 
ENDROOT
BRANCH   1   2
ATOM      2  C   UNL A   1      34.374  21.161  25.544  1.00  0.00     0.002 C 
BRANCH   2   3
ATOM      3  C   UNL A   1      32.953  20.613  25.691  1.00  0.00     0.021 C 
BRANCH   3   4
ATOM      4  C   UNL A   1      31.895  21.487  25.025  1.00  0.00     0.116 C 
BRANCH   4   5
ATOM      5  N   UNL A   1      31.057  22.158  26.004  1.00  0.00    -0.352 N 
ATOM      6  C   UNL A   1      30.803  23.432  26.384  1.00  0.00     0.251 C 
ATOM      7  O   UNL A   1      29.960  23.559  27.279  1.00  0.00    -0.270 OA
ATOM      8  H   UNL A   1      30.533  21.513  26.533  1.00  0.00     0.163 HD
BRANCH   6   9
ATOM      9  C   UNL A   1      31.457  24.646  25.811  1.00  0.00     0.067 C 
ATOM     10  C   UNL A   1      34.068  28.092  22.995  1.00  0.00     0.048 C 
ATOM     11  C   UNL A   1      33.517  28.034  24.393  1.00  0.00    -0.007 A 
ATOM     12  C   UNL A   1      33.639  29.152  25.227  1.00  0.00     0.027 A 
ATOM     13  C   UNL A   1      32.852  26.901  24.883  1.00  0.00     0.131 A 
ATOM     14  C   UNL A   1      33.125  29.121  26.524  1.00  0.00     0.042 A 
ATOM     15  C   UNL A   1      32.342  26.863  26.186  1.00  0.00     0.019 A 
ATOM     16  O   UNL A   1      32.776  25.826  24.049  1.00  0.00    -0.475 OA
ATOM     17  Cl  UNL A   1      33.297  30.500  27.539  1.00  0.00    -0.084 Cl
ATOM     18  C   UNL A   1      32.480  27.983  27.009  1.00  0.00     0.032 A 
ATOM     19  C   UNL A   1      31.713  25.643  26.677  1.00  0.00     0.025 C 
ATOM     20  C   UNL A   1      31.796  24.806  24.358  1.00  0.00     0.314 C 
BRANCH  20  21
ATOM     21  C   UNL A   1      30.551  25.020  23.477  1.00  0.00     0.429 C 
ATOM     22  F   UNL A   1      29.589  25.681  24.165  1.00  0.00    -0.167 F 
ATOM     23  F   UNL A   1      30.814  25.762  22.376  1.00  0.00    -0.167 F 
ATOM     24  F   UNL A   1      30.019  23.854  23.047  1.00  0.00    -0.167 F 
ENDBRANCH  20  21
ENDBRANCH   6   9
ENDBRANCH   4   5
ENDBRANCH   3   4
ENDBRANCH   2   3
ENDBRANCH   1   2
BRANCH   1  25
ATOM     25  C   UNL A   1      35.224  23.543  24.992  1.00  0.00     0.021 C 
BRANCH  25  26
ATOM     26  C   UNL A   1      36.604  24.043  25.405  1.00  0.00     0.116 C 
BRANCH  26  27
ATOM     27  N   UNL A   1      37.520  22.941  25.651  1.00  0.00    -0.352 N 
ATOM     28  C   UNL A   1      38.783  22.971  26.181  1.00  0.00     0.251 C 
ATOM     29  H   UNL A   1      37.187  22.049  25.401  1.00  0.00     0.163 HD
ATOM     30  O   UNL A   1      39.510  21.984  26.098  1.00  0.00    -0.269 OA
BRANCH  28  31
ATOM     31  C   UNL A   1      39.264  24.199  26.842  1.00  0.00     0.039 A 
ATOM     32  C   UNL A   1      40.043  25.102  26.116  1.00  0.00     0.014 A 
ATOM     33  C   UNL A   1      38.949  24.451  28.181  1.00  0.00     0.014 A 
ATOM     34  C   UNL A   1      40.469  26.284  26.723  1.00  0.00     0.010 A 
ATOM     35  C   UNL A   1      39.312  25.663  28.761  1.00  0.00     0.010 A 
ATOM     36  C   UNL A   1      40.087  26.584  28.041  1.00  0.00    -0.014 A 
BRANCH  36  37
ATOM     37  C   UNL A   1      40.518  27.844  28.694  1.00  0.00     0.031 A 
ATOM     38  C   UNL A   1      41.919  27.970  29.225  1.00  0.00     0.074 A 
ATOM     39  C   UNL A   1      39.641  28.857  28.834  1.00  0.00     0.049 A 
ATOM     40  N   UNL A   1      42.475  28.976  29.849  1.00  0.00    -0.248 NA
ATOM     41  C   UNL A   1      42.807  26.808  29.049  1.00  0.00     0.031 C 
ATOM     42  C   UNL A   1      38.250  28.842  28.377  1.00  0.00     0.029 A 
ATOM     43  N   UNL A   1      39.792  30.100  29.396  1.00  0.00    -0.354 N 
ATOM     44  C   UNL A   1      43.772  28.569  30.140  1.00  0.00     0.074 A 
ATOM     45  C   UNL A   1      43.902  27.205  29.682  1.00  0.00     0.031 C 
ATOM     46  C   UNL A   1      37.688  30.034  28.641  1.00  0.00     0.029 A 
ATOM     47  C   UNL A   1      38.663  30.881  29.323  1.00  0.00     0.049 A 
ATOM     48  H   UNL A   1      40.631  30.403  29.813  1.00  0.00     0.167 HD
ATOM     49  C   UNL A   1      44.773  29.277  30.711  1.00  0.00     0.031 A 
ATOM     50  C   UNL A   1      38.438  32.137  29.755  1.00  0.00     0.031 A 
ATOM     51  C   UNL A   1      44.640  30.637  31.159  1.00  0.00     0.049 A 
ATOM     52  C   UNL A   1      39.553  32.887  30.429  1.00  0.00     0.074 A 
ATOM     53  C   UNL A   1      45.605  31.455  31.722  1.00  0.00     0.029 A 
ATOM     54  N   UNL A   1      43.471  31.381  31.095  1.00  0.00    -0.354 N 
ATOM     55  N   UNL A   1      40.788  32.501  30.655  1.00  0.00    -0.248 NA
ATOM     56  C   UNL A   1      39.250  34.245  30.901  1.00  0.00     0.031 C 
ATOM     57  C   UNL A   1      45.004  32.673  32.050  1.00  0.00     0.029 A 
ATOM     58  C   UNL A   1      43.683  32.639  31.634  1.00  0.00     0.049 A 
ATOM     59  H   UNL A   1      42.618  31.062  30.722  1.00  0.00     0.167 HD
ATOM     60  C   UNL A   1      41.413  33.576  31.278  1.00  0.00     0.074 A 
ATOM     61  C   UNL A   1      40.427  34.633  31.375  1.00  0.00     0.031 C 
ATOM     62  C   UNL A   1      42.687  33.678  31.728  1.00  0.00     0.031 A 
BRANCH  49  63
ATOM     63  C   UNL A   1      46.105  28.595  30.876  1.00  0.00    -0.014 A 
ATOM     64  C   UNL A   1      46.374  27.800  32.006  1.00  0.00     0.010 A 
ATOM     65  C   UNL A   1      47.082  28.706  29.869  1.00  0.00     0.010 A 
ATOM     66  C   UNL A   1      47.606  27.156  32.141  1.00  0.00     0.020 A 
ATOM     67  C   UNL A   1      48.305  28.039  29.987  1.00  0.00     0.020 A 
ATOM     68  C   UNL A   1      48.564  27.278  31.129  1.00  0.00     0.054 A 
BRANCH  68  69
ATOM     69  S   UNL A   1      50.140  26.402  31.320  1.00  0.00     0.124 S 
ATOM     70  O   UNL A   1      49.841  25.479  32.412  1.00  0.00    -0.237 OA
ATOM     71  O   UNL A   1      50.322  25.785  30.008  1.00  0.00    -0.237 OA
ATOM     72  O   UNL A   1      51.090  27.462  31.645  1.00  0.00    -0.744 OA
ENDBRANCH  68  69
ENDBRANCH  49  63
BRANCH  50  73
ATOM     73  C   UNL A   1      37.108  32.769  29.537  1.00  0.00    -0.014 A 
ATOM     74  C   UNL A   1      36.141  32.758  30.558  1.00  0.00     0.010 A 
ATOM     75  C   UNL A   1      36.808  33.406  28.319  1.00  0.00     0.010 A 
ATOM     76  C   UNL A   1      34.897  33.366  30.362  1.00  0.00     0.020 A 
ATOM     77  C   UNL A   1      35.576  34.039  28.129  1.00  0.00     0.020 A 
ATOM     78  C   UNL A   1      34.625  34.008  29.151  1.00  0.00     0.054 A 
BRANCH  78  79
ATOM     79  S   UNL A   1      33.025  34.840  28.945  1.00  0.00     0.124 S 
ATOM     80  O   UNL A   1      33.426  36.145  28.431  1.00  0.00    -0.237 OA
ATOM     81  O   UNL A   1      32.339  33.967  27.995  1.00  0.00    -0.237 OA
ATOM     82  O   UNL A   1      32.464  34.842  30.295  1.00  0.00    -0.744 OA
ENDBRANCH  78  79
ENDBRANCH  50  73
BRANCH  62  83
ATOM     83  C   UNL A   1      43.102  34.980  32.360  1.00  0.00    -0.014 A 
ATOM     84  C   UNL A   1      43.693  36.000  31.594  1.00  0.00     0.010 A 
ATOM     85  C   UNL A   1      42.823  35.216  33.719  1.00  0.00     0.010 A 
ATOM     86  C   UNL A   1      44.016  37.225  32.180  1.00  0.00     0.020 A 
ATOM     87  C   UNL A   1      43.116  36.451  34.301  1.00  0.00     0.020 A 
ATOM     88  C   UNL A   1      43.720  37.446  33.529  1.00  0.00     0.054 A 
BRANCH  88  89
ATOM     89  S   UNL A   1      44.096  39.067  34.248  1.00  0.00     0.124 S 
ATOM     90  O   UNL A   1      45.402  39.362  33.666  1.00  0.00    -0.237 OA
ATOM     91  O   UNL A   1      42.991  39.892  33.766  1.00  0.00    -0.237 OA
ATOM     92  O   UNL A   1      44.098  38.819  35.688  1.00  0.00    -0.744 OA
ENDBRANCH  88  89
ENDBRANCH  62  83
ENDBRANCH  36  37
ENDBRANCH  28  31
ENDBRANCH  26  27
ENDBRANCH  25  26
ENDBRANCH   1  25
TORSDOF 17
ENDMDL
MODEL 3
REMARK VINA RESULT:     -10.8      2.568      3.199
REMARK SMILES Cc1cc(Cl)cc2c1O[C@H](C(F)(F)F)C(C(=O)NCCCCCCNC(=O)c1ccc(-c3c4nc(c(-c5ccc(S(=O)(=O)[O-])cc5)c5ccc([nH]5)c(-c5ccc(S(=O)(=O)[O-])cc5)c5nc(c(-c6ccc(S(=O)(=O)[O-])cc6)c6ccc3[nH]6)C=C5)C=C4)cc1)=C2
REMARK SMILES IDX 22 1 21 2 20 3 19 4 18 5 16 6 17 7 15 9 1 10 2 11 3 12 8 13
REMARK SMILES IDX 4 14 7 15 9 16 5 17 6 18 88 19 10 20 11 21 12 22 13 23 14 24
REMARK SMILES IDX 23 25 24 26 25 27 26 28 27 30 28 31 29 32 87 33 30 34 86 35
REMARK SMILES IDX 31 36 32 37 33 38 80 39 34 40 85 41 79 42 81 43 35 44 84 45
REMARK SMILES IDX 78 46 77 47 36 49 66 50 47 51 65 52 48 53 51 54 64 55 82 56
REMARK SMILES IDX 49 57 50 58 63 60 83 61 52 62 37 63 38 64 46 65 39 66 45 67
REMARK SMILES IDX 40 68 41 69 42 70 43 71 44 72 67 73 68 74 76 75 69 76 75 77
REMARK SMILES IDX 70 78 71 79 72 80 73 81 74 82 53 83 54 84 62 85 55 86 61 87
REMARK SMILES IDX 56 88 57 89 58 90 59 91 60 92
REMARK H PARENT 18 8 25 29 81 48 51 59
REMARK Flexibility Score: inf
ROOT
ATOM      1  C   UNL A   1      32.340  27.386  25.748  1.00  0.00     0.002 C 
ENDROOT
BRANCH   1   2
ATOM      2  C   UNL A   1      31.131  27.983  25.015  1.00  0.00     0.002 C 
BRANCH   2   3
ATOM      3  C   UNL A   1      31.180  27.869  23.489  1.00  0.00     0.021 C 
BRANCH   3   4
ATOM      4  C   UNL A   1      32.597  27.901  22.926  1.00  0.00     0.116 C 
BRANCH   4   5
ATOM      5  N   UNL A   1      32.774  26.927  21.861  1.00  0.00    -0.352 N 
ATOM      6  C   UNL A   1      33.062  25.609  21.763  1.00  0.00     0.251 C 
ATOM      7  O   UNL A   1      33.088  25.157  20.613  1.00  0.00    -0.270 OA
ATOM      8  H   UNL A   1      32.652  27.337  20.975  1.00  0.00     0.163 HD
BRANCH   6   9
ATOM      9  C   UNL A   1      33.342  24.702  22.916  1.00  0.00     0.067 C 
ATOM     10  C   UNL A   1      33.539  22.260  27.457  1.00  0.00     0.048 C 
ATOM     11  C   UNL A   1      34.382  22.297  26.212  1.00  0.00    -0.007 A 
ATOM     12  C   UNL A   1      35.508  21.470  26.120  1.00  0.00     0.027 A 
ATOM     13  C   UNL A   1      34.058  23.113  25.119  1.00  0.00     0.131 A 
ATOM     14  C   UNL A   1      36.296  21.481  24.969  1.00  0.00     0.042 A 
ATOM     15  C   UNL A   1      34.851  23.133  23.966  1.00  0.00     0.019 A 
ATOM     16  O   UNL A   1      32.970  23.921  25.258  1.00  0.00    -0.475 OA
ATOM     17  Cl  UNL A   1      37.685  20.468  24.880  1.00  0.00    -0.084 Cl
ATOM     18  C   UNL A   1      35.977  22.310  23.894  1.00  0.00     0.032 A 
ATOM     19  C   UNL A   1      34.515  24.044  22.878  1.00  0.00     0.025 C 
ATOM     20  C   UNL A   1      32.391  24.478  24.054  1.00  0.00     0.314 C 
BRANCH  20  21
ATOM     21  C   UNL A   1      31.165  23.638  23.649  1.00  0.00     0.429 C 
ATOM     22  F   UNL A   1      31.524  22.662  22.780  1.00  0.00    -0.167 F 
ATOM     23  F   UNL A   1      30.586  23.019  24.704  1.00  0.00    -0.167 F 
ATOM     24  F   UNL A   1      30.205  24.382  23.055  1.00  0.00    -0.167 F 
ENDBRANCH  20  21
ENDBRANCH   6   9
ENDBRANCH   4   5
ENDBRANCH   3   4
ENDBRANCH   2   3
ENDBRANCH   1   2
BRANCH   1  25
ATOM     25  C   UNL A   1      32.936  28.270  26.848  1.00  0.00     0.021 C 
BRANCH  25  26
ATOM     26  C   UNL A   1      34.032  29.214  26.368  1.00  0.00     0.116 C 
BRANCH  26  27
ATOM     27  N   UNL A   1      33.756  30.591  26.747  1.00  0.00    -0.352 N 
ATOM     28  C   UNL A   1      34.359  31.358  27.708  1.00  0.00     0.251 C 
ATOM     29  H   UNL A   1      33.035  31.032  26.243  1.00  0.00     0.163 HD
ATOM     30  O   UNL A   1      33.846  32.417  28.062  1.00  0.00    -0.269 OA
BRANCH  28  31
ATOM     31  C   UNL A   1      35.621  30.899  28.319  1.00  0.00     0.039 A 
ATOM     32  C   UNL A   1      36.798  31.603  28.061  1.00  0.00     0.014 A 
ATOM     33  C   UNL A   1      35.637  29.768  29.142  1.00  0.00     0.014 A 
ATOM     34  C   UNL A   1      37.987  31.199  28.666  1.00  0.00     0.010 A 
ATOM     35  C   UNL A   1      36.809  29.410  29.802  1.00  0.00     0.010 A 
ATOM     36  C   UNL A   1      37.997  30.114  29.559  1.00  0.00    -0.014 A 
BRANCH  36  37
ATOM     37  C   UNL A   1      39.251  29.682  30.223  1.00  0.00     0.031 A 
ATOM     38  C   UNL A   1      39.705  30.366  31.484  1.00  0.00     0.074 A 
ATOM     39  C   UNL A   1      39.992  28.699  29.676  1.00  0.00     0.049 A 
ATOM     40  N   UNL A   1      40.781  30.151  32.194  1.00  0.00    -0.248 NA
ATOM     41  C   UNL A   1      38.847  31.444  32.003  1.00  0.00     0.031 C 
ATOM     42  C   UNL A   1      39.664  27.976  28.445  1.00  0.00     0.029 A 
ATOM     43  N   UNL A   1      41.172  28.133  30.088  1.00  0.00    -0.354 N 
ATOM     44  C   UNL A   1      40.730  31.065  33.240  1.00  0.00     0.074 A 
ATOM     45  C   UNL A   1      39.552  31.877  33.038  1.00  0.00     0.031 C 
ATOM     46  C   UNL A   1      40.599  27.037  28.225  1.00  0.00     0.029 A 
ATOM     47  C   UNL A   1      41.613  27.119  29.271  1.00  0.00     0.049 A 
ATOM     48  H   UNL A   1      41.658  28.427  30.892  1.00  0.00     0.167 HD
ATOM     49  C   UNL A   1      41.573  31.197  34.290  1.00  0.00     0.031 A 
ATOM     50  C   UNL A   1      42.710  26.340  29.357  1.00  0.00     0.031 A 
ATOM     51  C   UNL A   1      42.741  30.382  34.490  1.00  0.00     0.049 A 
ATOM     52  C   UNL A   1      43.657  26.538  30.508  1.00  0.00     0.074 A 
ATOM     53  C   UNL A   1      43.642  30.415  35.539  1.00  0.00     0.029 A 
ATOM     54  N   UNL A   1      43.168  29.387  33.624  1.00  0.00    -0.354 N 
ATOM     55  N   UNL A   1      43.568  27.378  31.513  1.00  0.00    -0.248 NA
ATOM     56  C   UNL A   1      44.848  25.680  30.543  1.00  0.00     0.031 C 
ATOM     57  C   UNL A   1      44.646  29.478  35.279  1.00  0.00     0.029 A 
ATOM     58  C   UNL A   1      44.336  28.817  34.101  1.00  0.00     0.049 A 
ATOM     59  H   UNL A   1      42.710  29.124  32.794  1.00  0.00     0.167 HD
ATOM     60  C   UNL A   1      44.682  27.135  32.310  1.00  0.00     0.074 A 
ATOM     61  C   UNL A   1      45.418  26.057  31.681  1.00  0.00     0.031 C 
ATOM     62  C   UNL A   1      45.060  27.748  33.458  1.00  0.00     0.031 A 
BRANCH  49  63
ATOM     63  C   UNL A   1      41.257  32.259  35.310  1.00  0.00    -0.014 A 
ATOM     64  C   UNL A   1      41.784  33.558  35.187  1.00  0.00     0.010 A 
ATOM     65  C   UNL A   1      40.384  31.973  36.376  1.00  0.00     0.010 A 
ATOM     66  C   UNL A   1      41.470  34.542  36.128  1.00  0.00     0.020 A 
ATOM     67  C   UNL A   1      40.044  32.963  37.303  1.00  0.00     0.020 A 
ATOM     68  C   UNL A   1      40.600  34.238  37.179  1.00  0.00     0.054 A 
BRANCH  68  69
ATOM     69  S   UNL A   1      40.187  35.547  38.364  1.00  0.00     0.124 S 
ATOM     70  O   UNL A   1      39.061  34.958  39.085  1.00  0.00    -0.237 OA
ATOM     71  O   UNL A   1      41.423  35.683  39.132  1.00  0.00    -0.237 OA
ATOM     72  O   UNL A   1      39.854  36.690  37.518  1.00  0.00    -0.744 OA
ENDBRANCH  68  69
ENDBRANCH  49  63
BRANCH  50  73
ATOM     73  C   UNL A   1      42.954  25.288  28.333  1.00  0.00    -0.014 A 
ATOM     74  C   UNL A   1      43.718  25.574  27.188  1.00  0.00     0.010 A 
ATOM     75  C   UNL A   1      42.446  23.987  28.508  1.00  0.00     0.010 A 
ATOM     76  C   UNL A   1      43.963  24.582  26.234  1.00  0.00     0.020 A 
ATOM     77  C   UNL A   1      42.711  22.985  27.570  1.00  0.00     0.020 A 
ATOM     78  C   UNL A   1      43.462  23.292  26.433  1.00  0.00     0.054 A 
BRANCH  78  79
ATOM     79  S   UNL A   1      43.845  22.008  25.209  1.00  0.00     0.124 S 
ATOM     80  O   UNL A   1      43.551  22.690  23.952  1.00  0.00    -0.237 OA
ATOM     81  O   UNL A   1      45.257  21.739  25.469  1.00  0.00    -0.237 OA
ATOM     82  O   UNL A   1      42.935  20.919  25.559  1.00  0.00    -0.744 OA
ENDBRANCH  78  79
ENDBRANCH  50  73
BRANCH  62  83
ATOM     83  C   UNL A   1      46.322  27.267  34.123  1.00  0.00    -0.014 A 
ATOM     84  C   UNL A   1      46.297  26.201  35.039  1.00  0.00     0.010 A 
ATOM     85  C   UNL A   1      47.559  27.836  33.765  1.00  0.00     0.010 A 
ATOM     86  C   UNL A   1      47.483  25.725  35.600  1.00  0.00     0.020 A 
ATOM     87  C   UNL A   1      48.750  27.342  34.301  1.00  0.00     0.020 A 
ATOM     88  C   UNL A   1      48.704  26.295  35.224  1.00  0.00     0.054 A 
BRANCH  88  89
ATOM     89  S   UNL A   1      50.232  25.616  35.925  1.00  0.00     0.124 S 
ATOM     90  O   UNL A   1      51.117  26.777  35.907  1.00  0.00    -0.237 OA
ATOM     91  O   UNL A   1      49.804  25.171  37.249  1.00  0.00    -0.237 OA
ATOM     92  O   UNL A   1      50.593  24.544  35.000  1.00  0.00    -0.744 OA
ENDBRANCH  88  89
ENDBRANCH  62  83
ENDBRANCH  36  37
ENDBRANCH  28  31
ENDBRANCH  26  27
ENDBRANCH  25  26
ENDBRANCH   1  25
TORSDOF 17
ENDMDL
