MODEL 1
REMARK VINA RESULT:     -10.9      0.000      0.000
REMARK SMILES N#Cc1ccc(C[N@H+]2CCCC[C@H]2C(=O)NCCCCCCNC(=O)c2ccc(-c3c4nc(c(-c5ccc(S(=O)(=O)[O-])cc5)c5ccc([nH]5)c(-c5ccc(S(=O)(=O)[O-])cc5)c5nc(c(-c6ccc(S(=O)(=O)[O-])cc6)c6ccc3[nH]6)C=C5)C=C4)cc2)c(F)c1
REMARK SMILES IDX 19 1 18 2 17 3 16 4 14 5 15 6 13 8 8 9 9 10 10 12 12 13
REMARK SMILES IDX 11 14 7 15 6 16 3 17 4 18 88 19 5 20 86 21 87 22 2 23 1 24
REMARK SMILES IDX 20 25 21 26 22 27 23 28 24 29 25 31 26 32 27 33 85 34 28 35
REMARK SMILES IDX 84 36 29 37 30 38 31 39 78 40 32 41 83 42 77 43 79 44 33 45
REMARK SMILES IDX 82 46 76 47 75 48 34 50 64 51 45 52 63 53 46 54 49 55 62 56
REMARK SMILES IDX 80 57 47 58 48 59 61 61 81 62 50 63 35 64 36 65 44 66 37 67
REMARK SMILES IDX 43 68 38 69 39 70 40 71 41 72 42 73 65 74 66 75 74 76 67 77
REMARK SMILES IDX 73 78 68 79 69 80 70 81 71 82 72 83 51 84 52 85 60 86 53 87
REMARK SMILES IDX 59 88 54 89 55 90 56 91 57 92 58 93
REMARK H PARENT 16 7 8 11 23 30 79 49 49 60
REMARK Flexibility Score: inf
ROOT
ATOM      1  C   UNL A   1      34.087  20.794  25.224  1.00  0.00     0.002 C 
ENDROOT
BRANCH   1   2
ATOM      2  C   UNL A   1      32.984  21.697  25.803  1.00  0.00     0.021 C 
BRANCH   2   3
ATOM      3  C   UNL A   1      32.065  22.282  24.726  1.00  0.00     0.116 C 
BRANCH   3   4
ATOM      4  N   UNL A   1      31.048  23.071  25.382  1.00  0.00    -0.351 N 
ATOM      5  C   UNL A   1      31.039  24.420  25.568  1.00  0.00     0.278 C 
ATOM      6  O   UNL A   1      30.518  24.825  26.608  1.00  0.00    -0.268 OA
ATOM      7  H   UNL A   1      30.273  22.576  25.733  1.00  0.00     0.163 HD
BRANCH   5   8
ATOM      8  C   UNL A   1      31.613  25.328  24.449  1.00  0.00     0.274 C 
ATOM      9  N   UNL A   1      31.008  26.683  24.416  1.00  0.00    -0.321 N 
ATOM     10  C   UNL A   1      31.292  27.485  25.608  1.00  0.00     0.263 C 
ATOM     11  H   UNL A   1      31.515  27.160  23.671  1.00  0.00     0.349 HD
ATOM     12  C   UNL A   1      32.796  27.553  25.921  1.00  0.00     0.062 C 
ATOM     13  C   UNL A   1      33.134  25.459  24.594  1.00  0.00     0.076 C 
ATOM     14  C   UNL A   1      33.500  26.201  25.871  1.00  0.00     0.012 C 
BRANCH   9  15
ATOM     15  C   UNL A   1      29.623  26.757  23.913  1.00  0.00     0.302 C 
BRANCH  15  16
ATOM     16  C   UNL A   1      29.212  27.995  23.151  1.00  0.00     0.042 A 
ATOM     17  C   UNL A   1      28.513  30.519  22.129  1.00  0.00     0.055 A 
ATOM     18  C   UNL A   1      29.798  30.008  21.923  1.00  0.00     0.020 A 
ATOM     19  C   UNL A   1      27.545  29.728  22.747  1.00  0.00     0.059 A 
ATOM     20  C   UNL A   1      30.150  28.755  22.437  1.00  0.00     0.014 A 
ATOM     21  C   UNL A   1      27.895  28.466  23.218  1.00  0.00     0.133 A 
ATOM     22  F   UNL A   1      26.959  27.737  23.843  1.00  0.00    -0.206 F 
BRANCH  17  23
ATOM     23  C   UNL A   1      28.203  31.868  21.750  1.00  0.00     0.099 C 
ATOM     24  N   UNL A   1      27.945  32.959  21.458  1.00  0.00    -0.192 NA
ENDBRANCH  17  23
ENDBRANCH  15  16
ENDBRANCH   9  15
ENDBRANCH   5   8
ENDBRANCH   3   4
ENDBRANCH   2   3
ENDBRANCH   1   2
BRANCH   1  25
ATOM     25  C   UNL A   1      35.502  21.357  25.384  1.00  0.00     0.002 C 
BRANCH  25  26
ATOM     26  C   UNL A   1      35.535  22.825  25.807  1.00  0.00     0.021 C 
BRANCH  26  27
ATOM     27  C   UNL A   1      36.941  23.348  26.060  1.00  0.00     0.116 C 
BRANCH  27  28
ATOM     28  N   UNL A   1      37.912  22.268  26.107  1.00  0.00    -0.352 N 
ATOM     29  C   UNL A   1      39.267  22.340  26.296  1.00  0.00     0.251 C 
ATOM     30  H   UNL A   1      37.546  21.362  25.988  1.00  0.00     0.163 HD
ATOM     31  O   UNL A   1      39.973  21.363  26.064  1.00  0.00    -0.269 OA
BRANCH  29  32
ATOM     32  C   UNL A   1      39.867  23.605  26.767  1.00  0.00     0.039 A 
ATOM     33  C   UNL A   1      39.846  24.719  25.927  1.00  0.00     0.014 A 
ATOM     34  C   UNL A   1      40.462  23.686  28.030  1.00  0.00     0.014 A 
ATOM     35  C   UNL A   1      40.405  25.919  26.366  1.00  0.00     0.010 A 
ATOM     36  C   UNL A   1      40.922  24.908  28.504  1.00  0.00     0.010 A 
ATOM     37  C   UNL A   1      40.933  26.028  27.663  1.00  0.00    -0.014 A 
BRANCH  37  38
ATOM     38  C   UNL A   1      41.551  27.294  28.131  1.00  0.00     0.031 A 
ATOM     39  C   UNL A   1      43.040  27.492  28.013  1.00  0.00     0.074 A 
ATOM     40  C   UNL A   1      40.780  28.256  28.675  1.00  0.00     0.049 A 
ATOM     41  N   UNL A   1      43.763  28.532  28.342  1.00  0.00    -0.248 NA
ATOM     42  C   UNL A   1      43.825  26.368  27.476  1.00  0.00     0.031 C 
ATOM     43  C   UNL A   1      39.331  28.169  28.871  1.00  0.00     0.029 A 
ATOM     44  N   UNL A   1      41.105  29.501  29.147  1.00  0.00    -0.354 N 
ATOM     45  C   UNL A   1      45.078  28.184  28.059  1.00  0.00     0.074 A 
ATOM     46  C   UNL A   1      45.065  26.812  27.607  1.00  0.00     0.031 C 
ATOM     47  C   UNL A   1      38.885  29.333  29.369  1.00  0.00     0.029 A 
ATOM     48  C   UNL A   1      40.019  30.230  29.573  1.00  0.00     0.049 A 
ATOM     49  H   UNL A   1      42.028  29.843  29.176  1.00  0.00     0.167 HD
ATOM     50  C   UNL A   1      46.197  28.945  28.135  1.00  0.00     0.031 A 
ATOM     51  C   UNL A   1      39.945  31.480  30.066  1.00  0.00     0.031 A 
ATOM     52  C   UNL A   1      46.206  30.309  28.595  1.00  0.00     0.049 A 
ATOM     53  C   UNL A   1      41.207  32.291  30.190  1.00  0.00     0.074 A 
ATOM     54  C   UNL A   1      47.276  31.181  28.683  1.00  0.00     0.029 A 
ATOM     55  N   UNL A   1      45.090  30.997  29.050  1.00  0.00    -0.354 N 
ATOM     56  N   UNL A   1      42.436  31.966  29.861  1.00  0.00    -0.248 NA
ATOM     57  C   UNL A   1      41.067  33.647  30.735  1.00  0.00     0.031 C 
ATOM     58  C   UNL A   1      46.822  32.372  29.260  1.00  0.00     0.029 A 
ATOM     59  C   UNL A   1      45.451  32.274  29.449  1.00  0.00     0.049 A 
ATOM     60  H   UNL A   1      44.177  30.632  29.086  1.00  0.00     0.167 HD
ATOM     61  C   UNL A   1      43.207  33.094  30.118  1.00  0.00     0.074 A 
ATOM     62  C   UNL A   1      42.303  34.110  30.617  1.00  0.00     0.031 C 
ATOM     63  C   UNL A   1      44.542  33.276  29.948  1.00  0.00     0.031 A 
BRANCH  50  64
ATOM     64  C   UNL A   1      47.501  28.305  27.727  1.00  0.00    -0.014 A 
ATOM     65  C   UNL A   1      47.872  28.199  26.372  1.00  0.00     0.010 A 
ATOM     66  C   UNL A   1      48.375  27.807  28.710  1.00  0.00     0.010 A 
ATOM     67  C   UNL A   1      49.057  27.556  26.007  1.00  0.00     0.020 A 
ATOM     68  C   UNL A   1      49.582  27.199  28.352  1.00  0.00     0.020 A 
ATOM     69  C   UNL A   1      49.903  27.056  27.000  1.00  0.00     0.054 A 
BRANCH  69  70
ATOM     70  S   UNL A   1      51.435  26.226  26.498  1.00  0.00     0.124 S 
ATOM     71  O   UNL A   1      52.410  26.817  27.411  1.00  0.00    -0.237 OA
ATOM     72  O   UNL A   1      51.127  24.818  26.732  1.00  0.00    -0.237 OA
ATOM     73  O   UNL A   1      51.591  26.602  25.095  1.00  0.00    -0.744 OA
ENDBRANCH  69  70
ENDBRANCH  50  64
BRANCH  51  74
ATOM     74  C   UNL A   1      38.625  32.057  30.443  1.00  0.00    -0.014 A 
ATOM     75  C   UNL A   1      37.939  32.910  29.558  1.00  0.00     0.010 A 
ATOM     76  C   UNL A   1      38.041  31.755  31.686  1.00  0.00     0.010 A 
ATOM     77  C   UNL A   1      36.708  33.465  29.917  1.00  0.00     0.020 A 
ATOM     78  C   UNL A   1      36.793  32.280  32.035  1.00  0.00     0.020 A 
ATOM     79  C   UNL A   1      36.140  33.142  31.152  1.00  0.00     0.054 A 
BRANCH  79  80
ATOM     80  S   UNL A   1      34.519  33.836  31.576  1.00  0.00     0.124 S 
ATOM     81  O   UNL A   1      34.884  35.097  32.213  1.00  0.00    -0.237 OA
ATOM     82  O   UNL A   1      33.877  33.949  30.267  1.00  0.00    -0.237 OA
ATOM     83  O   UNL A   1      33.936  32.832  32.462  1.00  0.00    -0.744 OA
ENDBRANCH  79  80
ENDBRANCH  51  74
BRANCH  63  84
ATOM     84  C   UNL A   1      45.098  34.645  30.248  1.00  0.00    -0.014 A 
ATOM     85  C   UNL A   1      45.150  35.657  29.271  1.00  0.00     0.010 A 
ATOM     86  C   UNL A   1      45.552  34.931  31.549  1.00  0.00     0.010 A 
ATOM     87  C   UNL A   1      45.693  36.907  29.578  1.00  0.00     0.020 A 
ATOM     88  C   UNL A   1      46.057  36.192  31.870  1.00  0.00     0.020 A 
ATOM     89  C   UNL A   1      46.144  37.167  30.876  1.00  0.00     0.054 A 
BRANCH  89  90
ATOM     90  S   UNL A   1      46.825  38.804  31.252  1.00  0.00     0.124 S 
ATOM     91  O   UNL A   1      45.740  39.689  30.837  1.00  0.00    -0.237 OA
ATOM     92  O   UNL A   1      47.059  38.728  32.691  1.00  0.00    -0.237 OA
ATOM     93  O   UNL A   1      48.034  38.874  30.432  1.00  0.00    -0.744 OA
ENDBRANCH  89  90
ENDBRANCH  63  84
ENDBRANCH  37  38
ENDBRANCH  29  32
ENDBRANCH  27  28
ENDBRANCH  26  27
ENDBRANCH  25  26
ENDBRANCH   1  25
TORSDOF 19
ENDMDL
MODEL 2
REMARK VINA RESULT:     -10.8      3.059      9.784
REMARK SMILES N#Cc1ccc(C[N@H+]2CCCC[C@H]2C(=O)NCCCCCCNC(=O)c2ccc(-c3c4nc(c(-c5ccc(S(=O)(=O)[O-])cc5)c5ccc([nH]5)c(-c5ccc(S(=O)(=O)[O-])cc5)c5nc(c(-c6ccc(S(=O)(=O)[O-])cc6)c6ccc3[nH]6)C=C5)C=C4)cc2)c(F)c1
REMARK SMILES IDX 19 1 18 2 17 3 16 4 14 5 15 6 13 8 8 9 9 10 10 12 12 13
REMARK SMILES IDX 11 14 7 15 6 16 3 17 4 18 88 19 5 20 86 21 87 22 2 23 1 24
REMARK SMILES IDX 20 25 21 26 22 27 23 28 24 29 25 31 26 32 27 33 85 34 28 35
REMARK SMILES IDX 84 36 29 37 30 38 31 39 78 40 32 41 83 42 77 43 79 44 33 45
REMARK SMILES IDX 82 46 76 47 75 48 34 50 64 51 45 52 63 53 46 54 49 55 62 56
REMARK SMILES IDX 80 57 47 58 48 59 61 61 81 62 50 63 35 64 36 65 44 66 37 67
REMARK SMILES IDX 43 68 38 69 39 70 40 71 41 72 42 73 65 74 66 75 74 76 67 77
REMARK SMILES IDX 73 78 68 79 69 80 70 81 71 82 72 83 51 84 52 85 60 86 53 87
REMARK SMILES IDX 59 88 54 89 55 90 56 91 57 92 58 93
REMARK H PARENT 16 7 8 11 23 30 79 49 49 60
REMARK Flexibility Score: inf
ROOT
ATOM      1  C   UNL A   1      34.583  32.067  27.953  1.00  0.00     0.002 C 
ENDROOT
BRANCH   1   2
ATOM      2  C   UNL A   1      34.700  30.534  27.889  1.00  0.00     0.021 C 
BRANCH   2   3
ATOM      3  C   UNL A   1      33.705  29.901  26.911  1.00  0.00     0.116 C 
BRANCH   3   4
ATOM      4  N   UNL A   1      32.857  28.997  27.653  1.00  0.00    -0.351 N 
ATOM      5  C   UNL A   1      32.074  28.000  27.156  1.00  0.00     0.278 C 
ATOM      6  O   UNL A   1      31.017  27.786  27.751  1.00  0.00    -0.268 OA
ATOM      7  H   UNL A   1      32.845  29.116  28.630  1.00  0.00     0.163 HD
BRANCH   5   8
ATOM      8  C   UNL A   1      32.593  27.183  25.944  1.00  0.00     0.274 C 
ATOM      9  N   UNL A   1      31.907  25.877  25.772  1.00  0.00    -0.321 N 
ATOM     10  C   UNL A   1      30.484  25.997  25.447  1.00  0.00     0.263 C 
ATOM     11  H   UNL A   1      32.323  25.492  24.923  1.00  0.00     0.349 HD
ATOM     12  C   UNL A   1      30.236  26.922  24.243  1.00  0.00     0.062 C 
ATOM     13  C   UNL A   1      32.457  27.997  24.651  1.00  0.00     0.076 C 
ATOM     14  C   UNL A   1      30.995  28.242  24.310  1.00  0.00     0.012 C 
BRANCH   9  15
ATOM     15  C   UNL A   1      32.250  24.835  26.758  1.00  0.00     0.302 C 
BRANCH  15  16
ATOM     16  C   UNL A   1      33.480  23.996  26.500  1.00  0.00     0.042 A 
ATOM     17  C   UNL A   1      35.498  22.192  25.739  1.00  0.00     0.055 A 
ATOM     18  C   UNL A   1      35.418  23.453  25.139  1.00  0.00     0.020 A 
ATOM     19  C   UNL A   1      34.644  21.873  26.793  1.00  0.00     0.059 A 
ATOM     20  C   UNL A   1      34.409  24.349  25.512  1.00  0.00     0.014 A 
ATOM     21  C   UNL A   1      33.671  22.788  27.184  1.00  0.00     0.133 A 
ATOM     22  F   UNL A   1      32.835  22.446  28.175  1.00  0.00    -0.206 F 
BRANCH  17  23
ATOM     23  C   UNL A   1      36.423  21.215  25.242  1.00  0.00     0.099 C 
ATOM     24  N   UNL A   1      37.178  20.426  24.856  1.00  0.00    -0.192 NA
ENDBRANCH  17  23
ENDBRANCH  15  16
ENDBRANCH   9  15
ENDBRANCH   5   8
ENDBRANCH   3   4
ENDBRANCH   2   3
ENDBRANCH   1   2
BRANCH   1  25
ATOM     25  C   UNL A   1      35.930  32.795  27.978  1.00  0.00     0.002 C 
BRANCH  25  26
ATOM     26  C   UNL A   1      36.125  33.686  29.205  1.00  0.00     0.021 C 
BRANCH  26  27
ATOM     27  C   UNL A   1      37.100  33.109  30.220  1.00  0.00     0.116 C 
BRANCH  27  28
ATOM     28  N   UNL A   1      36.504  32.020  30.975  1.00  0.00    -0.352 N 
ATOM     29  C   UNL A   1      36.875  30.702  31.017  1.00  0.00     0.251 C 
ATOM     30  H   UNL A   1      35.728  32.262  31.531  1.00  0.00     0.163 HD
ATOM     31  O   UNL A   1      36.121  29.867  31.508  1.00  0.00    -0.269 OA
BRANCH  29  32
ATOM     32  C   UNL A   1      38.181  30.298  30.458  1.00  0.00     0.039 A 
ATOM     33  C   UNL A   1      39.233  30.016  31.330  1.00  0.00     0.014 A 
ATOM     34  C   UNL A   1      38.369  30.210  29.075  1.00  0.00     0.014 A 
ATOM     35  C   UNL A   1      40.467  29.627  30.811  1.00  0.00     0.010 A 
ATOM     36  C   UNL A   1      39.566  29.722  28.567  1.00  0.00     0.010 A 
ATOM     37  C   UNL A   1      40.640  29.461  29.427  1.00  0.00    -0.014 A 
BRANCH  37  38
ATOM     38  C   UNL A   1      41.956  29.070  28.863  1.00  0.00     0.031 A 
ATOM     39  C   UNL A   1      43.077  30.076  28.803  1.00  0.00     0.074 A 
ATOM     40  C   UNL A   1      42.141  27.821  28.394  1.00  0.00     0.049 A 
ATOM     41  N   UNL A   1      44.302  29.922  28.370  1.00  0.00    -0.248 NA
ATOM     42  C   UNL A   1      42.777  31.441  29.268  1.00  0.00     0.031 C 
ATOM     43  C   UNL A   1      41.124  26.767  28.370  1.00  0.00     0.029 A 
ATOM     44  N   UNL A   1      43.253  27.222  27.862  1.00  0.00    -0.354 N 
ATOM     45  C   UNL A   1      44.910  31.164  28.504  1.00  0.00     0.074 A 
ATOM     46  C   UNL A   1      43.901  32.080  28.982  1.00  0.00     0.031 C 
ATOM     47  C   UNL A   1      41.675  25.635  27.905  1.00  0.00     0.029 A 
ATOM     48  C   UNL A   1      43.068  25.895  27.551  1.00  0.00     0.049 A 
ATOM     49  H   UNL A   1      44.104  27.695  27.717  1.00  0.00     0.167 HD
ATOM     50  C   UNL A   1      46.202  31.510  28.281  1.00  0.00     0.031 A 
ATOM     51  C   UNL A   1      43.925  24.988  27.043  1.00  0.00     0.031 A 
ATOM     52  C   UNL A   1      47.201  30.595  27.796  1.00  0.00     0.049 A 
ATOM     53  C   UNL A   1      45.342  25.406  26.756  1.00  0.00     0.074 A 
ATOM     54  C   UNL A   1      48.544  30.831  27.565  1.00  0.00     0.029 A 
ATOM     55  N   UNL A   1      46.964  29.270  27.460  1.00  0.00    -0.354 N 
ATOM     56  N   UNL A   1      45.916  26.572  26.946  1.00  0.00    -0.248 NA
ATOM     57  C   UNL A   1      46.232  24.378  26.203  1.00  0.00     0.031 C 
ATOM     58  C   UNL A   1      49.104  29.670  27.021  1.00  0.00     0.029 A 
ATOM     59  C   UNL A   1      48.129  28.683  26.995  1.00  0.00     0.049 A 
ATOM     60  H   UNL A   1      46.096  28.814  27.539  1.00  0.00     0.167 HD
ATOM     61  C   UNL A   1      47.246  26.402  26.576  1.00  0.00     0.074 A 
ATOM     62  C   UNL A   1      47.391  25.021  26.166  1.00  0.00     0.031 C 
ATOM     63  C   UNL A   1      48.259  27.306  26.586  1.00  0.00     0.031 A 
BRANCH  50  64
ATOM     64  C   UNL A   1      46.592  32.943  28.548  1.00  0.00    -0.014 A 
ATOM     65  C   UNL A   1      46.269  33.971  27.641  1.00  0.00     0.010 A 
ATOM     66  C   UNL A   1      47.286  33.272  29.726  1.00  0.00     0.010 A 
ATOM     67  C   UNL A   1      46.685  35.284  27.876  1.00  0.00     0.020 A 
ATOM     68  C   UNL A   1      47.669  34.591  29.986  1.00  0.00     0.020 A 
ATOM     69  C   UNL A   1      47.386  35.585  29.046  1.00  0.00     0.054 A 
BRANCH  69  70
ATOM     70  S   UNL A   1      47.913  37.298  29.326  1.00  0.00     0.124 S 
ATOM     71  O   UNL A   1      47.462  37.954  28.101  1.00  0.00    -0.237 OA
ATOM     72  O   UNL A   1      47.184  37.661  30.538  1.00  0.00    -0.237 OA
ATOM     73  O   UNL A   1      49.362  37.196  29.480  1.00  0.00    -0.744 OA
ENDBRANCH  69  70
ENDBRANCH  50  64
BRANCH  51  74
ATOM     74  C   UNL A   1      43.479  23.587  26.812  1.00  0.00    -0.014 A 
ATOM     75  C   UNL A   1      43.133  22.759  27.896  1.00  0.00     0.010 A 
ATOM     76  C   UNL A   1      43.390  23.071  25.506  1.00  0.00     0.010 A 
ATOM     77  C   UNL A   1      42.730  21.438  27.681  1.00  0.00     0.020 A 
ATOM     78  C   UNL A   1      42.954  21.762  25.284  1.00  0.00     0.020 A 
ATOM     79  C   UNL A   1      42.638  20.949  26.375  1.00  0.00     0.054 A 
BRANCH  79  80
ATOM     80  S   UNL A   1      42.066  19.248  26.119  1.00  0.00     0.124 S 
ATOM     81  O   UNL A   1      42.835  18.840  24.948  1.00  0.00    -0.237 OA
ATOM     82  O   UNL A   1      42.436  18.602  27.377  1.00  0.00    -0.237 OA
ATOM     83  O   UNL A   1      40.628  19.397  25.904  1.00  0.00    -0.744 OA
ENDBRANCH  79  80
ENDBRANCH  51  74
BRANCH  63  84
ATOM     84  C   UNL A   1      49.630  26.814  26.194  1.00  0.00    -0.014 A 
ATOM     85  C   UNL A   1      50.486  26.184  27.117  1.00  0.00     0.010 A 
ATOM     86  C   UNL A   1      50.057  26.961  24.861  1.00  0.00     0.010 A 
ATOM     87  C   UNL A   1      51.758  25.761  26.726  1.00  0.00     0.020 A 
ATOM     88  C   UNL A   1      51.311  26.503  24.456  1.00  0.00     0.020 A 
ATOM     89  C   UNL A   1      52.164  25.923  25.397  1.00  0.00     0.054 A 
BRANCH  89  90
ATOM     90  S   UNL A   1      53.812  25.347  24.911  1.00  0.00     0.124 S 
ATOM     91  O   UNL A   1      53.974  25.960  23.595  1.00  0.00    -0.237 OA
ATOM     92  O   UNL A   1      54.663  25.890  25.966  1.00  0.00    -0.237 OA
ATOM     93  O   UNL A   1      53.685  23.891  24.908  1.00  0.00    -0.744 OA
ENDBRANCH  89  90
ENDBRANCH  63  84
ENDBRANCH  37  38
ENDBRANCH  29  32
ENDBRANCH  27  28
ENDBRANCH  26  27
ENDBRANCH  25  26
ENDBRANCH   1  25
TORSDOF 19
ENDMDL
MODEL 3
REMARK VINA RESULT:     -10.7      1.972      2.522
REMARK SMILES N#Cc1ccc(C[N@H+]2CCCC[C@H]2C(=O)NCCCCCCNC(=O)c2ccc(-c3c4nc(c(-c5ccc(S(=O)(=O)[O-])cc5)c5ccc([nH]5)c(-c5ccc(S(=O)(=O)[O-])cc5)c5nc(c(-c6ccc(S(=O)(=O)[O-])cc6)c6ccc3[nH]6)C=C5)C=C4)cc2)c(F)c1
REMARK SMILES IDX 19 1 18 2 17 3 16 4 14 5 15 6 13 8 8 9 9 10 10 12 12 13
REMARK SMILES IDX 11 14 7 15 6 16 3 17 4 18 88 19 5 20 86 21 87 22 2 23 1 24
REMARK SMILES IDX 20 25 21 26 22 27 23 28 24 29 25 31 26 32 27 33 85 34 28 35
REMARK SMILES IDX 84 36 29 37 30 38 31 39 78 40 32 41 83 42 77 43 79 44 33 45
REMARK SMILES IDX 82 46 76 47 75 48 34 50 64 51 45 52 63 53 46 54 49 55 62 56
REMARK SMILES IDX 80 57 47 58 48 59 61 61 81 62 50 63 35 64 36 65 44 66 37 67
REMARK SMILES IDX 43 68 38 69 39 70 40 71 41 72 42 73 65 74 66 75 74 76 67 77
REMARK SMILES IDX 73 78 68 79 69 80 70 81 71 82 72 83 51 84 52 85 60 86 53 87
REMARK SMILES IDX 59 88 54 89 55 90 56 91 57 92 58 93
REMARK H PARENT 16 7 8 11 23 30 79 49 49 60
REMARK Flexibility Score: inf
ROOT
ATOM      1  C   UNL A   1      33.645  22.241  26.156  1.00  0.00     0.002 C 
ENDROOT
BRANCH   1   2
ATOM      2  C   UNL A   1      32.192  21.995  25.714  1.00  0.00     0.021 C 
BRANCH   2   3
ATOM      3  C   UNL A   1      31.198  22.960  26.367  1.00  0.00     0.116 C 
BRANCH   3   4
ATOM      4  N   UNL A   1      31.733  24.297  26.261  1.00  0.00    -0.351 N 
ATOM      5  C   UNL A   1      31.939  25.018  25.124  1.00  0.00     0.278 C 
ATOM      6  O   UNL A   1      32.912  25.775  25.125  1.00  0.00    -0.268 OA
ATOM      7  H   UNL A   1      31.975  24.737  27.107  1.00  0.00     0.163 HD
BRANCH   5   8
ATOM      8  C   UNL A   1      30.918  24.886  23.965  1.00  0.00     0.274 C 
ATOM      9  N   UNL A   1      30.730  26.140  23.192  1.00  0.00    -0.321 N 
ATOM     10  C   UNL A   1      31.928  26.572  22.469  1.00  0.00     0.263 C 
ATOM     11  H   UNL A   1      30.077  25.879  22.454  1.00  0.00     0.349 HD
ATOM     12  C   UNL A   1      32.513  25.456  21.587  1.00  0.00     0.062 C 
ATOM     13  C   UNL A   1      31.338  23.764  23.007  1.00  0.00     0.076 C 
ATOM     14  C   UNL A   1      32.636  24.110  22.293  1.00  0.00     0.012 C 
BRANCH   9  15
ATOM     15  C   UNL A   1      29.978  27.209  23.876  1.00  0.00     0.302 C 
BRANCH  15  16
ATOM     16  C   UNL A   1      29.464  28.358  23.040  1.00  0.00     0.042 A 
ATOM     17  C   UNL A   1      28.521  30.735  21.872  1.00  0.00     0.055 A 
ATOM     18  C   UNL A   1      29.869  30.381  21.757  1.00  0.00     0.020 A 
ATOM     19  C   UNL A   1      27.623  29.853  22.472  1.00  0.00     0.059 A 
ATOM     20  C   UNL A   1      30.341  29.202  22.344  1.00  0.00     0.014 A 
ATOM     21  C   UNL A   1      28.097  28.663  23.016  1.00  0.00     0.133 A 
ATOM     22  F   UNL A   1      27.223  27.846  23.622  1.00  0.00    -0.206 F 
BRANCH  17  23
ATOM     23  C   UNL A   1      28.070  32.020  21.418  1.00  0.00     0.099 C 
ATOM     24  N   UNL A   1      27.696  33.057  21.064  1.00  0.00    -0.192 NA
ENDBRANCH  17  23
ENDBRANCH  15  16
ENDBRANCH   9  15
ENDBRANCH   5   8
ENDBRANCH   3   4
ENDBRANCH   2   3
ENDBRANCH   1   2
BRANCH   1  25
ATOM     25  C   UNL A   1      34.664  22.178  25.014  1.00  0.00     0.002 C 
BRANCH  25  26
ATOM     26  C   UNL A   1      35.456  23.472  24.825  1.00  0.00     0.021 C 
BRANCH  26  27
ATOM     27  C   UNL A   1      36.448  23.741  25.947  1.00  0.00     0.116 C 
BRANCH  27  28
ATOM     28  N   UNL A   1      37.506  22.746  25.974  1.00  0.00    -0.352 N 
ATOM     29  C   UNL A   1      38.831  22.911  26.277  1.00  0.00     0.251 C 
ATOM     30  H   UNL A   1      37.233  21.828  25.743  1.00  0.00     0.163 HD
ATOM     31  O   UNL A   1      39.637  22.023  26.015  1.00  0.00    -0.269 OA
BRANCH  29  32
ATOM     32  C   UNL A   1      39.279  24.169  26.909  1.00  0.00     0.039 A 
ATOM     33  C   UNL A   1      39.977  25.101  26.141  1.00  0.00     0.014 A 
ATOM     34  C   UNL A   1      39.022  24.420  28.261  1.00  0.00     0.014 A 
ATOM     35  C   UNL A   1      40.398  26.294  26.728  1.00  0.00     0.010 A 
ATOM     36  C   UNL A   1      39.350  25.651  28.813  1.00  0.00     0.010 A 
ATOM     37  C   UNL A   1      40.075  26.587  28.063  1.00  0.00    -0.014 A 
BRANCH  37  38
ATOM     38  C   UNL A   1      40.539  27.843  28.703  1.00  0.00     0.031 A 
ATOM     39  C   UNL A   1      41.966  27.966  29.170  1.00  0.00     0.074 A 
ATOM     40  C   UNL A   1      39.677  28.864  28.878  1.00  0.00     0.049 A 
ATOM     41  N   UNL A   1      42.567  28.986  29.729  1.00  0.00    -0.248 NA
ATOM     42  C   UNL A   1      42.827  26.782  29.010  1.00  0.00     0.031 C 
ATOM     43  C   UNL A   1      38.264  28.854  28.496  1.00  0.00     0.029 A 
ATOM     44  N   UNL A   1      39.870  30.114  29.408  1.00  0.00    -0.354 N 
ATOM     45  C   UNL A   1      43.865  28.564  29.990  1.00  0.00     0.074 A 
ATOM     46  C   UNL A   1      43.944  27.174  29.604  1.00  0.00     0.031 C 
ATOM     47  C   UNL A   1      37.732  30.060  28.750  1.00  0.00     0.029 A 
ATOM     48  C   UNL A   1      38.750  30.911  29.358  1.00  0.00     0.049 A 
ATOM     49  H   UNL A   1      40.728  30.413  29.787  1.00  0.00     0.167 HD
ATOM     50  C   UNL A   1      44.911  29.275  30.478  1.00  0.00     0.031 A 
ATOM     51  C   UNL A   1      38.566  32.186  29.752  1.00  0.00     0.031 A 
ATOM     52  C   UNL A   1      44.823  30.657  30.870  1.00  0.00     0.049 A 
ATOM     53  C   UNL A   1      39.729  32.942  30.338  1.00  0.00     0.074 A 
ATOM     54  C   UNL A   1      45.826  31.481  31.347  1.00  0.00     0.029 A 
ATOM     55  N   UNL A   1      43.663  31.417  30.837  1.00  0.00    -0.354 N 
ATOM     56  N   UNL A   1      40.966  32.544  30.523  1.00  0.00    -0.248 NA
ATOM     57  C   UNL A   1      39.472  34.327  30.750  1.00  0.00     0.031 C 
ATOM     58  C   UNL A   1      45.258  32.718  31.670  1.00  0.00     0.029 A 
ATOM     59  C   UNL A   1      43.918  32.692  31.312  1.00  0.00     0.049 A 
ATOM     60  H   UNL A   1      42.787  31.097  30.522  1.00  0.00     0.167 HD
ATOM     61  C   UNL A   1      41.645  33.646  31.032  1.00  0.00     0.074 A 
ATOM     62  C   UNL A   1      40.682  34.726  31.113  1.00  0.00     0.031 C 
ATOM     63  C   UNL A   1      42.949  33.758  31.391  1.00  0.00     0.031 A 
BRANCH  50  64
ATOM     64  C   UNL A   1      46.229  28.556  30.627  1.00  0.00    -0.014 A 
ATOM     65  C   UNL A   1      47.178  28.544  29.586  1.00  0.00     0.010 A 
ATOM     66  C   UNL A   1      46.531  27.888  31.828  1.00  0.00     0.010 A 
ATOM     67  C   UNL A   1      48.371  27.829  29.719  1.00  0.00     0.020 A 
ATOM     68  C   UNL A   1      47.742  27.206  31.981  1.00  0.00     0.020 A 
ATOM     69  C   UNL A   1      48.643  27.161  30.916  1.00  0.00     0.054 A 
BRANCH  69  70
ATOM     70  S   UNL A   1      50.200  26.242  31.061  1.00  0.00     0.124 S 
ATOM     71  O   UNL A   1      51.080  27.236  31.670  1.00  0.00    -0.237 OA
ATOM     72  O   UNL A   1      49.829  25.120  31.920  1.00  0.00    -0.237 OA
ATOM     73  O   UNL A   1      50.524  25.886  29.682  1.00  0.00    -0.744 OA
ENDBRANCH  69  70
ENDBRANCH  50  64
BRANCH  51  74
ATOM     74  C   UNL A   1      37.242  32.841  29.569  1.00  0.00    -0.014 A 
ATOM     75  C   UNL A   1      36.409  33.088  30.676  1.00  0.00     0.010 A 
ATOM     76  C   UNL A   1      36.805  33.226  28.289  1.00  0.00     0.010 A 
ATOM     77  C   UNL A   1      35.158  33.688  30.504  1.00  0.00     0.020 A 
ATOM     78  C   UNL A   1      35.570  33.858  28.116  1.00  0.00     0.020 A 
ATOM     79  C   UNL A   1      34.749  34.074  29.224  1.00  0.00     0.054 A 
BRANCH  79  80
ATOM     80  S   UNL A   1      33.143  34.894  29.033  1.00  0.00     0.124 S 
ATOM     81  O   UNL A   1      32.501  34.073  28.011  1.00  0.00    -0.237 OA
ATOM     82  O   UNL A   1      32.578  34.790  30.377  1.00  0.00    -0.237 OA
ATOM     83  O   UNL A   1      33.497  36.249  28.617  1.00  0.00    -0.744 OA
ENDBRANCH  79  80
ENDBRANCH  51  74
BRANCH  63  84
ATOM     84  C   UNL A   1      43.429  35.113  31.850  1.00  0.00    -0.014 A 
ATOM     85  C   UNL A   1      43.909  36.077  30.945  1.00  0.00     0.010 A 
ATOM     86  C   UNL A   1      43.365  35.435  33.219  1.00  0.00     0.010 A 
ATOM     87  C   UNL A   1      44.366  37.313  31.407  1.00  0.00     0.020 A 
ATOM     88  C   UNL A   1      43.782  36.685  33.680  1.00  0.00     0.020 A 
ATOM     89  C   UNL A   1      44.300  37.610  32.772  1.00  0.00     0.054 A 
BRANCH  89  90
ATOM     90  S   UNL A   1      44.881  39.230  33.343  1.00  0.00     0.124 S 
ATOM     91  O   UNL A   1      43.781  40.104  32.948  1.00  0.00    -0.237 OA
ATOM     92  O   UNL A   1      45.036  39.023  34.781  1.00  0.00    -0.237 OA
ATOM     93  O   UNL A   1      46.130  39.429  32.610  1.00  0.00    -0.744 OA
ENDBRANCH  89  90
ENDBRANCH  63  84
ENDBRANCH  37  38
ENDBRANCH  29  32
ENDBRANCH  27  28
ENDBRANCH  26  27
ENDBRANCH  25  26
ENDBRANCH   1  25
TORSDOF 19
ENDMDL
