MODEL 1
REMARK VINA RESULT:     -11.0      0.000      0.000
REMARK SMILES O=C(NCCCCCCNC(=O)c1[nH]ncc1C[N@H+]1CCC[C@@H](C(=O)c2ccc(Oc3ccccc3)cc2)C1)c1ccc(-c2c3nc(c(-c4ccc(S(=O)(=O)[O-])cc4)c4ccc([nH]4)c(-c4ccc(S(=O)(=O)[O-])cc4)c4nc(c(-c5ccc(S(=O)(=O)[O-])cc5)c5ccc2[nH]5)C=C4)C=C3)cc1
REMARK SMILES IDX 8 1 7 2 6 3 5 4 4 5 3 6 1 7 2 8 40 10 41 11 99 12 42 13
REMARK SMILES IDX 98 14 43 15 44 16 45 17 92 18 46 19 97 20 91 21 93 22 47 23
REMARK SMILES IDX 96 24 90 25 89 26 48 28 78 29 59 30 77 31 60 32 63 33 76 34
REMARK SMILES IDX 94 35 61 36 62 37 75 39 95 40 64 41 49 42 50 43 58 44 51 45
REMARK SMILES IDX 57 46 52 47 53 48 54 49 55 50 56 51 79 52 80 53 88 54 81 55
REMARK SMILES IDX 87 56 82 57 83 58 84 59 85 60 86 61 65 62 66 63 74 64 67 65
REMARK SMILES IDX 73 66 68 67 69 68 70 69 71 70 72 71 9 72 10 73 11 74 12 76
REMARK SMILES IDX 13 77 14 78 17 79 15 80 16 82 18 83 19 84 20 85 39 86 21 88
REMARK SMILES IDX 23 89 22 90 24 91 25 92 26 93 27 94 38 95 28 96 37 97 29 98
REMARK SMILES IDX 30 99 31 100 32 101 36 102 33 103 35 104 34 105
REMARK H PARENT 3 9 93 27 63 38 10 75 14 81 19 87
REMARK Flexibility Score: inf
ROOT
ATOM      1  C   UNL A   1      39.474  23.936  27.272  1.00  0.00     0.021 C 
ENDROOT
BRANCH   1   2
ATOM      2  C   UNL A   1      40.662  23.021  26.969  1.00  0.00     0.002 C 
BRANCH   2   3
ATOM      3  C   UNL A   1      41.019  22.010  28.062  1.00  0.00     0.002 C 
BRANCH   3   4
ATOM      4  C   UNL A   1      41.271  20.579  27.586  1.00  0.00     0.021 C 
BRANCH   4   5
ATOM      5  C   UNL A   1      41.020  20.339  26.104  1.00  0.00     0.116 C 
BRANCH   5   6
ATOM      6  N   UNL A   1      42.122  19.651  25.457  1.00  0.00    -0.352 N 
ATOM      7  O   UNL A   1      44.122  19.469  24.431  1.00  0.00    -0.269 OA
ATOM      8  C   UNL A   1      43.360  20.140  25.119  1.00  0.00     0.251 C 
ATOM      9  H   UNL A   1      41.960  18.706  25.230  1.00  0.00     0.163 HD
BRANCH   8  10
ATOM     10  C   UNL A   1      43.756  21.490  25.575  1.00  0.00     0.039 A 
ATOM     11  C   UNL A   1      44.466  21.657  26.768  1.00  0.00     0.014 A 
ATOM     12  C   UNL A   1      43.421  22.601  24.796  1.00  0.00     0.014 A 
ATOM     13  C   UNL A   1      44.736  22.935  27.239  1.00  0.00     0.010 A 
ATOM     14  C   UNL A   1      43.769  23.883  25.230  1.00  0.00     0.010 A 
ATOM     15  C   UNL A   1      44.419  24.061  26.462  1.00  0.00    -0.014 A 
BRANCH  15  16
ATOM     16  C   UNL A   1      44.884  25.399  26.905  1.00  0.00     0.031 A 
ATOM     17  C   UNL A   1      44.031  26.283  27.770  1.00  0.00     0.074 A 
ATOM     18  C   UNL A   1      46.111  25.801  26.516  1.00  0.00     0.049 A 
ATOM     19  N   UNL A   1      44.308  27.471  28.246  1.00  0.00    -0.248 NA
ATOM     20  C   UNL A   1      42.700  25.782  28.147  1.00  0.00     0.031 C 
ATOM     21  C   UNL A   1      47.020  25.029  25.662  1.00  0.00     0.029 A 
ATOM     22  N   UNL A   1      46.815  26.944  26.795  1.00  0.00    -0.354 N 
ATOM     23  C   UNL A   1      43.183  27.869  28.959  1.00  0.00     0.074 A 
ATOM     24  C   UNL A   1      42.212  26.801  28.844  1.00  0.00     0.031 C 
ATOM     25  C   UNL A   1      48.172  25.699  25.522  1.00  0.00     0.029 A 
ATOM     26  C   UNL A   1      48.062  26.975  26.214  1.00  0.00     0.049 A 
ATOM     27  H   UNL A   1      46.462  27.671  27.356  1.00  0.00     0.167 HD
ATOM     28  C   UNL A   1      42.985  29.021  29.646  1.00  0.00     0.031 A 
ATOM     29  C   UNL A   1      49.004  27.935  26.214  1.00  0.00     0.031 A 
ATOM     30  C   UNL A   1      43.961  30.075  29.756  1.00  0.00     0.049 A 
ATOM     31  C   UNL A   1      48.740  29.211  26.960  1.00  0.00     0.074 A 
ATOM     32  C   UNL A   1      43.869  31.257  30.470  1.00  0.00     0.029 A 
ATOM     33  N   UNL A   1      45.199  30.082  29.131  1.00  0.00    -0.354 N 
ATOM     34  N   UNL A   1      47.692  29.541  27.675  1.00  0.00    -0.248 NA
ATOM     35  C   UNL A   1      49.782  30.242  26.897  1.00  0.00     0.031 C 
ATOM     36  C   UNL A   1      45.026  32.006  30.230  1.00  0.00     0.029 A 
ATOM     37  C   UNL A   1      45.865  31.263  29.416  1.00  0.00     0.049 A 
ATOM     38  H   UNL A   1      45.552  29.356  28.569  1.00  0.00     0.167 HD
ATOM     39  C   UNL A   1      47.955  30.815  28.159  1.00  0.00     0.074 A 
ATOM     40  C   UNL A   1      49.272  31.182  27.680  1.00  0.00     0.031 C 
ATOM     41  C   UNL A   1      47.173  31.614  28.926  1.00  0.00     0.031 A 
BRANCH  28  42
ATOM     42  C   UNL A   1      41.655  29.227  30.323  1.00  0.00    -0.014 A 
ATOM     43  C   UNL A   1      40.531  29.666  29.603  1.00  0.00     0.010 A 
ATOM     44  C   UNL A   1      41.504  28.870  31.676  1.00  0.00     0.010 A 
ATOM     45  C   UNL A   1      39.282  29.756  30.226  1.00  0.00     0.020 A 
ATOM     46  C   UNL A   1      40.254  28.938  32.299  1.00  0.00     0.020 A 
ATOM     47  C   UNL A   1      39.151  29.388  31.569  1.00  0.00     0.054 A 
BRANCH  47  48
ATOM     48  S   UNL A   1      37.505  29.453  32.331  1.00  0.00     0.124 S 
ATOM     49  O   UNL A   1      36.632  29.468  31.160  1.00  0.00    -0.237 OA
ATOM     50  O   UNL A   1      37.471  28.225  33.122  1.00  0.00    -0.237 OA
ATOM     51  O   UNL A   1      37.529  30.691  33.106  1.00  0.00    -0.744 OA
ENDBRANCH  47  48
ENDBRANCH  28  42
BRANCH  29  52
ATOM     52  C   UNL A   1      50.264  27.741  25.447  1.00  0.00    -0.014 A 
ATOM     53  C   UNL A   1      50.308  27.974  24.061  1.00  0.00     0.010 A 
ATOM     54  C   UNL A   1      51.432  27.315  26.107  1.00  0.00     0.010 A 
ATOM     55  C   UNL A   1      51.488  27.753  23.345  1.00  0.00     0.020 A 
ATOM     56  C   UNL A   1      52.622  27.127  25.401  1.00  0.00     0.020 A 
ATOM     57  C   UNL A   1      52.636  27.328  24.021  1.00  0.00     0.054 A 
BRANCH  57  58
ATOM     58  S   UNL A   1      54.164  27.067  23.077  1.00  0.00     0.124 S 
ATOM     59  O   UNL A   1      54.633  28.434  22.881  1.00  0.00    -0.237 OA
ATOM     60  O   UNL A   1      54.962  26.248  23.987  1.00  0.00    -0.237 OA
ATOM     61  O   UNL A   1      53.706  26.380  21.872  1.00  0.00    -0.744 OA
ENDBRANCH  57  58
ENDBRANCH  29  52
BRANCH  41  62
ATOM     62  C   UNL A   1      47.737  32.954  29.313  1.00  0.00    -0.014 A 
ATOM     63  C   UNL A   1      47.502  34.095  28.524  1.00  0.00     0.010 A 
ATOM     64  C   UNL A   1      48.484  33.079  30.498  1.00  0.00     0.010 A 
ATOM     65  C   UNL A   1      48.035  35.331  28.896  1.00  0.00     0.020 A 
ATOM     66  C   UNL A   1      48.993  34.319  30.888  1.00  0.00     0.020 A 
ATOM     67  C   UNL A   1      48.779  35.435  30.077  1.00  0.00     0.054 A 
BRANCH  67  68
ATOM     68  S   UNL A   1      49.429  37.058  30.557  1.00  0.00     0.124 S 
ATOM     69  O   UNL A   1      50.521  36.692  31.455  1.00  0.00    -0.237 OA
ATOM     70  O   UNL A   1      49.833  37.634  29.278  1.00  0.00    -0.237 OA
ATOM     71  O   UNL A   1      48.289  37.711  31.197  1.00  0.00    -0.744 OA
ENDBRANCH  67  68
ENDBRANCH  41  62
ENDBRANCH  15  16
ENDBRANCH   8  10
ENDBRANCH   5   6
ENDBRANCH   4   5
ENDBRANCH   3   4
ENDBRANCH   2   3
ENDBRANCH   1   2
BRANCH   1  72
ATOM     72  C   UNL A   1      38.239  23.693  26.413  1.00  0.00     0.116 C 
BRANCH  72  73
ATOM     73  N   UNL A   1      37.963  22.279  26.218  1.00  0.00    -0.351 N 
ATOM     74  C   UNL A   1      37.012  21.699  25.422  1.00  0.00     0.269 C 
ATOM     75  H   UNL A   1      38.535  21.658  26.724  1.00  0.00     0.163 HD
ATOM     76  O   UNL A   1      36.784  20.494  25.546  1.00  0.00    -0.268 OA
BRANCH  74  77
ATOM     77  C   UNL A   1      36.267  22.534  24.531  1.00  0.00     0.131 A 
ATOM     78  N   UNL A   1      36.628  22.691  23.222  1.00  0.00    -0.272 N 
ATOM     79  C   UNL A   1      35.144  23.335  24.710  1.00  0.00     0.057 A 
ATOM     80  N   UNL A   1      35.718  23.346  22.487  1.00  0.00    -0.183 NA
ATOM     81  H   UNL A   1      37.477  22.356  22.854  1.00  0.00     0.190 HD
ATOM     82  C   UNL A   1      34.810  23.724  23.388  1.00  0.00     0.145 A 
BRANCH  79  83
ATOM     83  C   UNL A   1      34.411  23.637  25.983  1.00  0.00     0.303 C 
BRANCH  83  84
ATOM     84  N   UNL A   1      32.945  23.572  25.878  1.00  0.00    -0.330 N 
ATOM     85  C   UNL A   1      32.298  23.026  27.072  1.00  0.00     0.262 C 
ATOM     86  C   UNL A   1      32.350  24.831  25.432  1.00  0.00     0.274 C 
ATOM     87  H   UNL A   1      32.757  22.897  25.137  1.00  0.00     0.348 HD
ATOM     88  C   UNL A   1      30.798  22.846  26.840  1.00  0.00     0.062 C 
ATOM     89  C   UNL A   1      30.839  24.746  25.182  1.00  0.00     0.116 C 
ATOM     90  C   UNL A   1      30.143  24.157  26.417  1.00  0.00     0.023 C 
BRANCH  89  91
ATOM     91  C   UNL A   1      30.318  26.154  24.881  1.00  0.00     0.171 C 
ATOM     92  O   UNL A   1      29.354  26.378  24.153  1.00  0.00    -0.294 OA
BRANCH  91  93
ATOM     93  C   UNL A   1      30.974  27.305  25.554  1.00  0.00     0.018 A 
ATOM     94  C   UNL A   1      31.370  28.394  24.773  1.00  0.00     0.015 A 
ATOM     95  C   UNL A   1      31.142  27.336  26.941  1.00  0.00     0.015 A 
ATOM     96  C   UNL A   1      31.939  29.513  25.383  1.00  0.00     0.048 A 
ATOM     97  C   UNL A   1      31.707  28.463  27.547  1.00  0.00     0.048 A 
ATOM     98  C   UNL A   1      32.128  29.546  26.768  1.00  0.00     0.127 A 
BRANCH  98  99
ATOM     99  O   UNL A   1      32.685  30.710  27.253  1.00  0.00    -0.457 OA
BRANCH  99 100
ATOM    100  C   UNL A   1      34.034  30.753  27.508  1.00  0.00     0.127 A 
ATOM    101  C   UNL A   1      34.576  31.989  27.860  1.00  0.00     0.047 A 
ATOM    102  C   UNL A   1      34.863  29.639  27.346  1.00  0.00     0.047 A 
ATOM    103  C   UNL A   1      35.944  32.099  28.112  1.00  0.00     0.004 A 
ATOM    104  C   UNL A   1      36.228  29.751  27.612  1.00  0.00     0.004 A 
ATOM    105  C   UNL A   1      36.766  30.979  28.001  1.00  0.00     0.000 A 
ENDBRANCH  99 100
ENDBRANCH  98  99
ENDBRANCH  91  93
ENDBRANCH  89  91
ENDBRANCH  83  84
ENDBRANCH  79  83
ENDBRANCH  74  77
ENDBRANCH  72  73
ENDBRANCH   1  72
TORSDOF 22
ENDMDL
MODEL 2
REMARK VINA RESULT:     -10.7      2.703      5.548
REMARK SMILES O=C(NCCCCCCNC(=O)c1[nH]ncc1C[N@H+]1CCC[C@@H](C(=O)c2ccc(Oc3ccccc3)cc2)C1)c1ccc(-c2c3nc(c(-c4ccc(S(=O)(=O)[O-])cc4)c4ccc([nH]4)c(-c4ccc(S(=O)(=O)[O-])cc4)c4nc(c(-c5ccc(S(=O)(=O)[O-])cc5)c5ccc2[nH]5)C=C4)C=C3)cc1
REMARK SMILES IDX 8 1 7 2 6 3 5 4 4 5 3 6 1 7 2 8 40 10 41 11 99 12 42 13
REMARK SMILES IDX 98 14 43 15 44 16 45 17 92 18 46 19 97 20 91 21 93 22 47 23
REMARK SMILES IDX 96 24 90 25 89 26 48 28 78 29 59 30 77 31 60 32 63 33 76 34
REMARK SMILES IDX 94 35 61 36 62 37 75 39 95 40 64 41 49 42 50 43 58 44 51 45
REMARK SMILES IDX 57 46 52 47 53 48 54 49 55 50 56 51 79 52 80 53 88 54 81 55
REMARK SMILES IDX 87 56 82 57 83 58 84 59 85 60 86 61 65 62 66 63 74 64 67 65
REMARK SMILES IDX 73 66 68 67 69 68 70 69 71 70 72 71 9 72 10 73 11 74 12 76
REMARK SMILES IDX 13 77 14 78 17 79 15 80 16 82 18 83 19 84 20 85 39 86 21 88
REMARK SMILES IDX 23 89 22 90 24 91 25 92 26 93 27 94 38 95 28 96 37 97 29 98
REMARK SMILES IDX 30 99 31 100 32 101 36 102 33 103 35 104 34 105
REMARK H PARENT 3 9 93 27 63 38 10 75 14 81 19 87
REMARK Flexibility Score: inf
ROOT
ATOM      1  C   UNL A   1      35.224  24.476  25.580  1.00  0.00     0.021 C 
ENDROOT
BRANCH   1   2
ATOM      2  C   UNL A   1      34.633  23.356  26.438  1.00  0.00     0.002 C 
BRANCH   2   3
ATOM      3  C   UNL A   1      35.238  21.965  26.225  1.00  0.00     0.002 C 
BRANCH   3   4
ATOM      4  C   UNL A   1      36.397  21.890  25.231  1.00  0.00     0.021 C 
BRANCH   4   5
ATOM      5  C   UNL A   1      37.727  22.416  25.750  1.00  0.00     0.116 C 
BRANCH   5   6
ATOM      6  N   UNL A   1      38.641  21.351  26.119  1.00  0.00    -0.352 N 
ATOM      7  O   UNL A   1      40.616  20.447  26.725  1.00  0.00    -0.269 OA
ATOM      8  C   UNL A   1      39.919  21.450  26.614  1.00  0.00     0.251 C 
ATOM      9  H   UNL A   1      38.300  20.436  25.999  1.00  0.00     0.163 HD
BRANCH   8  10
ATOM     10  C   UNL A   1      40.451  22.777  26.992  1.00  0.00     0.039 A 
ATOM     11  C   UNL A   1      41.242  22.926  28.135  1.00  0.00     0.014 A 
ATOM     12  C   UNL A   1      40.162  23.884  26.189  1.00  0.00     0.014 A 
ATOM     13  C   UNL A   1      41.644  24.194  28.538  1.00  0.00     0.010 A 
ATOM     14  C   UNL A   1      40.639  25.147  26.550  1.00  0.00     0.010 A 
ATOM     15  C   UNL A   1      41.374  25.313  27.734  1.00  0.00    -0.014 A 
BRANCH  15  16
ATOM     16  C   UNL A   1      41.972  26.622  28.096  1.00  0.00     0.031 A 
ATOM     17  C   UNL A   1      41.135  27.752  28.626  1.00  0.00     0.074 A 
ATOM     18  C   UNL A   1      43.304  26.771  27.944  1.00  0.00     0.049 A 
ATOM     19  N   UNL A   1      41.519  28.947  28.997  1.00  0.00    -0.248 NA
ATOM     20  C   UNL A   1      39.688  27.520  28.756  1.00  0.00     0.031 C 
ATOM     21  C   UNL A   1      44.212  25.744  27.422  1.00  0.00     0.029 A 
ATOM     22  N   UNL A   1      44.130  27.828  28.226  1.00  0.00    -0.354 N 
ATOM     23  C   UNL A   1      40.364  29.618  29.383  1.00  0.00     0.074 A 
ATOM     24  C   UNL A   1      39.261  28.700  29.190  1.00  0.00     0.031 C 
ATOM     25  C   UNL A   1      45.469  26.205  27.460  1.00  0.00     0.029 A 
ATOM     26  C   UNL A   1      45.453  27.580  27.941  1.00  0.00     0.049 A 
ATOM     27  H   UNL A   1      43.808  28.681  28.596  1.00  0.00     0.167 HD
ATOM     28  C   UNL A   1      40.241  30.883  29.854  1.00  0.00     0.031 A 
ATOM     29  C   UNL A   1      46.533  28.377  28.030  1.00  0.00     0.031 A 
ATOM     30  C   UNL A   1      41.348  31.786  30.045  1.00  0.00     0.049 A 
ATOM     31  C   UNL A   1      46.357  29.782  28.527  1.00  0.00     0.074 A 
ATOM     32  C   UNL A   1      41.328  33.069  30.564  1.00  0.00     0.029 A 
ATOM     33  N   UNL A   1      42.667  31.508  29.719  1.00  0.00    -0.354 N 
ATOM     34  N   UNL A   1      45.263  30.375  28.941  1.00  0.00    -0.248 NA
ATOM     35  C   UNL A   1      47.558  30.625  28.570  1.00  0.00     0.031 C 
ATOM     36  C   UNL A   1      42.624  33.590  30.496  1.00  0.00     0.029 A 
ATOM     37  C   UNL A   1      43.463  32.609  29.992  1.00  0.00     0.049 A 
ATOM     38  H   UNL A   1      42.990  30.656  29.347  1.00  0.00     0.167 HD
ATOM     39  C   UNL A   1      45.647  31.659  29.305  1.00  0.00     0.074 A 
ATOM     40  C   UNL A   1      47.078  31.745  29.091  1.00  0.00     0.031 C 
ATOM     41  C   UNL A   1      44.884  32.679  29.768  1.00  0.00     0.031 A 
BRANCH  28  42
ATOM     42  C   UNL A   1      38.861  31.390  30.183  1.00  0.00    -0.014 A 
ATOM     43  C   UNL A   1      38.361  31.341  31.496  1.00  0.00     0.010 A 
ATOM     44  C   UNL A   1      38.100  32.024  29.183  1.00  0.00     0.010 A 
ATOM     45  C   UNL A   1      37.119  31.906  31.800  1.00  0.00     0.020 A 
ATOM     46  C   UNL A   1      36.867  32.609  29.488  1.00  0.00     0.020 A 
ATOM     47  C   UNL A   1      36.382  32.540  30.795  1.00  0.00     0.054 A 
BRANCH  47  48
ATOM     48  S   UNL A   1      34.804  33.322  31.237  1.00  0.00     0.124 S 
ATOM     49  O   UNL A   1      34.263  32.378  32.211  1.00  0.00    -0.237 OA
ATOM     50  O   UNL A   1      35.228  34.610  31.781  1.00  0.00    -0.237 OA
ATOM     51  O   UNL A   1      34.083  33.391  29.968  1.00  0.00    -0.744 OA
ENDBRANCH  47  48
ENDBRANCH  28  42
BRANCH  29  52
ATOM     52  C   UNL A   1      47.865  27.877  27.596  1.00  0.00    -0.014 A 
ATOM     53  C   UNL A   1      48.728  27.242  28.504  1.00  0.00     0.010 A 
ATOM     54  C   UNL A   1      48.277  28.041  26.259  1.00  0.00     0.010 A 
ATOM     55  C   UNL A   1      49.992  26.808  28.093  1.00  0.00     0.020 A 
ATOM     56  C   UNL A   1      49.525  27.578  25.836  1.00  0.00     0.020 A 
ATOM     57  C   UNL A   1      50.382  26.983  26.761  1.00  0.00     0.054 A 
BRANCH  57  58
ATOM     58  S   UNL A   1      52.018  26.396  26.241  1.00  0.00     0.124 S 
ATOM     59  O   UNL A   1      51.998  26.678  24.810  1.00  0.00    -0.237 OA
ATOM     60  O   UNL A   1      52.920  27.224  27.038  1.00  0.00    -0.237 OA
ATOM     61  O   UNL A   1      52.003  24.981  26.603  1.00  0.00    -0.744 OA
ENDBRANCH  57  58
ENDBRANCH  29  52
BRANCH  41  62
ATOM     62  C   UNL A   1      45.589  33.966  30.097  1.00  0.00    -0.014 A 
ATOM     63  C   UNL A   1      45.727  34.984  29.136  1.00  0.00     0.010 A 
ATOM     64  C   UNL A   1      46.092  34.172  31.394  1.00  0.00     0.010 A 
ATOM     65  C   UNL A   1      46.386  36.172  29.457  1.00  0.00     0.020 A 
ATOM     66  C   UNL A   1      46.726  35.371  31.727  1.00  0.00     0.020 A 
ATOM     67  C   UNL A   1      46.883  36.358  30.752  1.00  0.00     0.054 A 
BRANCH  67  68
ATOM     68  S   UNL A   1      47.703  37.924  31.155  1.00  0.00     0.124 S 
ATOM     69  O   UNL A   1      47.428  38.051  32.583  1.00  0.00    -0.237 OA
ATOM     70  O   UNL A   1      49.096  37.656  30.805  1.00  0.00    -0.237 OA
ATOM     71  O   UNL A   1      47.028  38.898  30.301  1.00  0.00    -0.744 OA
ENDBRANCH  67  68
ENDBRANCH  41  62
ENDBRANCH  15  16
ENDBRANCH   8  10
ENDBRANCH   5   6
ENDBRANCH   4   5
ENDBRANCH   3   4
ENDBRANCH   2   3
ENDBRANCH   1   2
BRANCH   1  72
ATOM     72  C   UNL A   1      34.236  25.560  25.166  1.00  0.00     0.116 C 
BRANCH  72  73
ATOM     73  N   UNL A   1      34.038  26.562  26.201  1.00  0.00    -0.351 N 
ATOM     74  C   UNL A   1      32.862  27.009  26.740  1.00  0.00     0.269 C 
ATOM     75  H   UNL A   1      34.858  26.973  26.560  1.00  0.00     0.163 HD
ATOM     76  O   UNL A   1      32.877  28.014  27.454  1.00  0.00    -0.268 OA
BRANCH  74  77
ATOM     77  C   UNL A   1      31.652  26.332  26.390  1.00  0.00     0.131 A 
ATOM     78  N   UNL A   1      31.378  25.070  26.837  1.00  0.00    -0.272 N 
ATOM     79  C   UNL A   1      30.571  26.690  25.591  1.00  0.00     0.057 A 
ATOM     80  N   UNL A   1      30.127  24.665  26.578  1.00  0.00    -0.183 NA
ATOM     81  H   UNL A   1      32.039  24.509  27.304  1.00  0.00     0.190 HD
ATOM     82  C   UNL A   1      29.632  25.656  25.834  1.00  0.00     0.145 A 
BRANCH  79  83
ATOM     83  C   UNL A   1      30.405  27.920  24.748  1.00  0.00     0.303 C 
BRANCH  83  84
ATOM     84  N   UNL A   1      31.366  28.039  23.641  1.00  0.00    -0.330 N 
ATOM     85  C   UNL A   1      32.615  28.700  24.022  1.00  0.00     0.262 C 
ATOM     86  C   UNL A   1      31.581  26.777  22.935  1.00  0.00     0.274 C 
ATOM     87  H   UNL A   1      30.925  28.664  22.967  1.00  0.00     0.348 HD
ATOM     88  C   UNL A   1      33.502  28.926  22.797  1.00  0.00     0.062 C 
ATOM     89  C   UNL A   1      32.470  26.907  21.692  1.00  0.00     0.116 C 
ATOM     90  C   UNL A   1      33.780  27.616  22.066  1.00  0.00     0.023 C 
BRANCH  89  91
ATOM     91  C   UNL A   1      32.746  25.505  21.145  1.00  0.00     0.171 C 
ATOM     92  O   UNL A   1      33.091  25.286  19.985  1.00  0.00    -0.294 OA
BRANCH  91  93
ATOM     93  C   UNL A   1      32.652  24.353  22.079  1.00  0.00     0.018 A 
ATOM     94  C   UNL A   1      31.491  24.209  22.842  1.00  0.00     0.015 A 
ATOM     95  C   UNL A   1      33.669  23.398  22.159  1.00  0.00     0.015 A 
ATOM     96  C   UNL A   1      31.350  23.108  23.689  1.00  0.00     0.048 A 
ATOM     97  C   UNL A   1      33.520  22.294  23.005  1.00  0.00     0.048 A 
ATOM     98  C   UNL A   1      32.370  22.157  23.789  1.00  0.00     0.127 A 
BRANCH  98  99
ATOM     99  O   UNL A   1      32.109  21.110  24.646  1.00  0.00    -0.457 OA
BRANCH  99 100
ATOM    100  C   UNL A   1      32.513  19.843  24.302  1.00  0.00     0.127 A 
ATOM    101  C   UNL A   1      32.164  19.387  23.031  1.00  0.00     0.047 A 
ATOM    102  C   UNL A   1      33.174  18.998  25.198  1.00  0.00     0.047 A 
ATOM    103  C   UNL A   1      32.531  18.102  22.630  1.00  0.00     0.004 A 
ATOM    104  C   UNL A   1      33.550  17.718  24.789  1.00  0.00     0.004 A 
ATOM    105  C   UNL A   1      33.235  17.274  23.504  1.00  0.00     0.000 A 
ENDBRANCH  99 100
ENDBRANCH  98  99
ENDBRANCH  91  93
ENDBRANCH  89  91
ENDBRANCH  83  84
ENDBRANCH  79  83
ENDBRANCH  74  77
ENDBRANCH  72  73
ENDBRANCH   1  72
TORSDOF 22
ENDMDL
MODEL 3
REMARK VINA RESULT:     -10.5      6.153     10.733
REMARK SMILES O=C(NCCCCCCNC(=O)c1[nH]ncc1C[N@H+]1CCC[C@@H](C(=O)c2ccc(Oc3ccccc3)cc2)C1)c1ccc(-c2c3nc(c(-c4ccc(S(=O)(=O)[O-])cc4)c4ccc([nH]4)c(-c4ccc(S(=O)(=O)[O-])cc4)c4nc(c(-c5ccc(S(=O)(=O)[O-])cc5)c5ccc2[nH]5)C=C4)C=C3)cc1
REMARK SMILES IDX 8 1 7 2 6 3 5 4 4 5 3 6 1 7 2 8 40 10 41 11 99 12 42 13
REMARK SMILES IDX 98 14 43 15 44 16 45 17 92 18 46 19 97 20 91 21 93 22 47 23
REMARK SMILES IDX 96 24 90 25 89 26 48 28 78 29 59 30 77 31 60 32 63 33 76 34
REMARK SMILES IDX 94 35 61 36 62 37 75 39 95 40 64 41 49 42 50 43 58 44 51 45
REMARK SMILES IDX 57 46 52 47 53 48 54 49 55 50 56 51 79 52 80 53 88 54 81 55
REMARK SMILES IDX 87 56 82 57 83 58 84 59 85 60 86 61 65 62 66 63 74 64 67 65
REMARK SMILES IDX 73 66 68 67 69 68 70 69 71 70 72 71 9 72 10 73 11 74 12 76
REMARK SMILES IDX 13 77 14 78 17 79 15 80 16 82 18 83 19 84 20 85 39 86 21 88
REMARK SMILES IDX 23 89 22 90 24 91 25 92 26 93 27 94 38 95 28 96 37 97 29 98
REMARK SMILES IDX 30 99 31 100 32 101 36 102 33 103 35 104 34 105
REMARK H PARENT 3 9 93 27 63 38 10 75 14 81 19 87
REMARK Flexibility Score: inf
ROOT
ATOM      1  C   UNL A   1      35.635  24.473  24.905  1.00  0.00     0.021 C 
ENDROOT
BRANCH   1   2
ATOM      2  C   UNL A   1      36.010  23.035  25.271  1.00  0.00     0.002 C 
BRANCH   2   3
ATOM      3  C   UNL A   1      37.475  22.806  25.652  1.00  0.00     0.002 C 
BRANCH   3   4
ATOM      4  C   UNL A   1      38.179  23.987  26.322  1.00  0.00     0.021 C 
BRANCH   4   5
ATOM      5  C   UNL A   1      39.489  23.645  27.018  1.00  0.00     0.116 C 
BRANCH   5   6
ATOM      6  N   UNL A   1      40.650  23.968  26.210  1.00  0.00    -0.352 N 
ATOM      7  O   UNL A   1      42.312  25.269  25.415  1.00  0.00    -0.269 OA
ATOM      8  C   UNL A   1      41.464  25.073  26.279  1.00  0.00     0.251 C 
ATOM      9  H   UNL A   1      40.886  23.307  25.519  1.00  0.00     0.163 HD
BRANCH   8  10
ATOM     10  C   UNL A   1      41.295  26.031  27.394  1.00  0.00     0.039 A 
ATOM     11  C   UNL A   1      40.374  25.778  28.414  1.00  0.00     0.014 A 
ATOM     12  C   UNL A   1      42.074  27.191  27.421  1.00  0.00     0.014 A 
ATOM     13  C   UNL A   1      40.148  26.736  29.394  1.00  0.00     0.010 A 
ATOM     14  C   UNL A   1      41.905  28.115  28.456  1.00  0.00     0.010 A 
ATOM     15  C   UNL A   1      40.931  27.900  29.445  1.00  0.00    -0.014 A 
BRANCH  15  16
ATOM     16  C   UNL A   1      40.793  28.814  30.605  1.00  0.00     0.031 A 
ATOM     17  C   UNL A   1      41.680  28.696  31.812  1.00  0.00     0.074 A 
ATOM     18  C   UNL A   1      39.845  29.772  30.544  1.00  0.00     0.049 A 
ATOM     19  N   UNL A   1      41.686  29.431  32.895  1.00  0.00    -0.248 NA
ATOM     20  C   UNL A   1      42.686  27.622  31.812  1.00  0.00     0.031 C 
ATOM     21  C   UNL A   1      38.916  29.968  29.426  1.00  0.00     0.029 A 
ATOM     22  N   UNL A   1      39.513  30.768  31.426  1.00  0.00    -0.354 N 
ATOM     23  C   UNL A   1      42.675  28.898  33.715  1.00  0.00     0.074 A 
ATOM     24  C   UNL A   1      43.242  27.769  33.008  1.00  0.00     0.031 C 
ATOM     25  C   UNL A   1      38.150  31.040  29.670  1.00  0.00     0.029 A 
ATOM     26  C   UNL A   1      38.482  31.567  30.987  1.00  0.00     0.049 A 
ATOM     27  H   UNL A   1      39.968  30.898  32.289  1.00  0.00     0.167 HD
ATOM     28  C   UNL A   1      43.069  29.318  34.941  1.00  0.00     0.031 A 
ATOM     29  C   UNL A   1      37.853  32.593  31.587  1.00  0.00     0.031 A 
ATOM     30  C   UNL A   1      42.500  30.446  35.632  1.00  0.00     0.049 A 
ATOM     31  C   UNL A   1      38.296  33.013  32.959  1.00  0.00     0.074 A 
ATOM     32  C   UNL A   1      42.867  30.977  36.857  1.00  0.00     0.029 A 
ATOM     33  N   UNL A   1      41.440  31.211  35.169  1.00  0.00    -0.354 N 
ATOM     34  N   UNL A   1      39.272  32.531  33.689  1.00  0.00    -0.248 NA
ATOM     35  C   UNL A   1      37.553  34.112  33.586  1.00  0.00     0.031 C 
ATOM     36  C   UNL A   1      41.992  32.025  37.162  1.00  0.00     0.029 A 
ATOM     37  C   UNL A   1      41.119  32.187  36.098  1.00  0.00     0.049 A 
ATOM     38  H   UNL A   1      40.983  31.081  34.306  1.00  0.00     0.167 HD
ATOM     39  C   UNL A   1      39.268  33.277  34.860  1.00  0.00     0.074 A 
ATOM     40  C   UNL A   1      38.214  34.262  34.726  1.00  0.00     0.031 C 
ATOM     41  C   UNL A   1      40.063  33.155  35.951  1.00  0.00     0.031 A 
BRANCH  28  42
ATOM     42  C   UNL A   1      44.159  28.548  35.641  1.00  0.00    -0.014 A 
ATOM     43  C   UNL A   1      43.880  27.361  36.339  1.00  0.00     0.010 A 
ATOM     44  C   UNL A   1      45.498  28.963  35.504  1.00  0.00     0.010 A 
ATOM     45  C   UNL A   1      44.918  26.608  36.898  1.00  0.00     0.020 A 
ATOM     46  C   UNL A   1      46.540  28.203  36.042  1.00  0.00     0.020 A 
ATOM     47  C   UNL A   1      46.242  27.032  36.742  1.00  0.00     0.054 A 
BRANCH  47  48
ATOM     48  S   UNL A   1      47.570  25.998  37.422  1.00  0.00     0.124 S 
ATOM     49  O   UNL A   1      47.175  25.884  38.823  1.00  0.00    -0.237 OA
ATOM     50  O   UNL A   1      47.454  24.772  36.635  1.00  0.00    -0.237 OA
ATOM     51  O   UNL A   1      48.779  26.780  37.177  1.00  0.00    -0.744 OA
ENDBRANCH  47  48
ENDBRANCH  28  42
BRANCH  29  52
ATOM     52  C   UNL A   1      36.710  33.263  30.910  1.00  0.00    -0.014 A 
ATOM     53  C   UNL A   1      36.926  34.182  29.870  1.00  0.00     0.010 A 
ATOM     54  C   UNL A   1      35.391  32.981  31.313  1.00  0.00     0.010 A 
ATOM     55  C   UNL A   1      35.845  34.832  29.266  1.00  0.00     0.020 A 
ATOM     56  C   UNL A   1      34.307  33.602  30.689  1.00  0.00     0.020 A 
ATOM     57  C   UNL A   1      34.542  34.539  29.683  1.00  0.00     0.054 A 
BRANCH  57  58
ATOM     58  S   UNL A   1      33.152  35.377  28.874  1.00  0.00     0.124 S 
ATOM     59  O   UNL A   1      32.500  34.273  28.176  1.00  0.00    -0.237 OA
ATOM     60  O   UNL A   1      32.415  35.934  30.006  1.00  0.00    -0.237 OA
ATOM     61  O   UNL A   1      33.802  36.366  28.017  1.00  0.00    -0.744 OA
ENDBRANCH  57  58
ENDBRANCH  29  52
BRANCH  41  62
ATOM     62  C   UNL A   1      39.833  34.127  37.076  1.00  0.00    -0.014 A 
ATOM     63  C   UNL A   1      38.920  33.842  38.107  1.00  0.00     0.010 A 
ATOM     64  C   UNL A   1      40.565  35.328  37.117  1.00  0.00     0.010 A 
ATOM     65  C   UNL A   1      38.717  34.757  39.142  1.00  0.00     0.020 A 
ATOM     66  C   UNL A   1      40.386  36.231  38.167  1.00  0.00     0.020 A 
ATOM     67  C   UNL A   1      39.451  35.948  39.165  1.00  0.00     0.054 A 
BRANCH  67  68
ATOM     68  S   UNL A   1      39.197  37.103  40.539  1.00  0.00     0.124 S 
ATOM     69  O   UNL A   1      38.645  36.230  41.571  1.00  0.00    -0.237 OA
ATOM     70  O   UNL A   1      40.546  37.602  40.793  1.00  0.00    -0.237 OA
ATOM     71  O   UNL A   1      38.266  38.089  39.994  1.00  0.00    -0.744 OA
ENDBRANCH  67  68
ENDBRANCH  41  62
ENDBRANCH  15  16
ENDBRANCH   8  10
ENDBRANCH   5   6
ENDBRANCH   4   5
ENDBRANCH   3   4
ENDBRANCH   2   3
ENDBRANCH   1   2
BRANCH   1  72
ATOM     72  C   UNL A   1      34.212  24.880  25.267  1.00  0.00     0.116 C 
BRANCH  72  73
ATOM     73  N   UNL A   1      34.168  26.031  26.154  1.00  0.00    -0.351 N 
ATOM     74  C   UNL A   1      33.073  26.726  26.594  1.00  0.00     0.269 C 
ATOM     75  H   UNL A   1      35.039  26.353  26.481  1.00  0.00     0.163 HD
ATOM     76  O   UNL A   1      33.242  27.803  27.169  1.00  0.00    -0.268 OA
BRANCH  74  77
ATOM     77  C   UNL A   1      31.773  26.207  26.298  1.00  0.00     0.131 A 
ATOM     78  N   UNL A   1      31.390  24.957  26.697  1.00  0.00    -0.272 N 
ATOM     79  C   UNL A   1      30.688  26.728  25.601  1.00  0.00     0.057 A 
ATOM     80  N   UNL A   1      30.087  24.707  26.510  1.00  0.00    -0.183 NA
ATOM     81  H   UNL A   1      32.014  24.300  27.084  1.00  0.00     0.190 HD
ATOM     82  C   UNL A   1      29.658  25.788  25.858  1.00  0.00     0.145 A 
BRANCH  79  83
ATOM     83  C   UNL A   1      30.605  28.017  24.839  1.00  0.00     0.303 C 
BRANCH  83  84
ATOM     84  N   UNL A   1      31.548  28.128  23.716  1.00  0.00    -0.330 N 
ATOM     85  C   UNL A   1      32.850  28.675  24.100  1.00  0.00     0.262 C 
ATOM     86  C   UNL A   1      31.654  26.894  22.938  1.00  0.00     0.274 C 
ATOM     87  H   UNL A   1      31.140  28.820  23.088  1.00  0.00     0.348 HD
ATOM     88  C   UNL A   1      33.725  28.904  22.867  1.00  0.00     0.062 C 
ATOM     89  C   UNL A   1      32.524  27.029  21.681  1.00  0.00     0.116 C 
ATOM     90  C   UNL A   1      33.890  27.620  22.060  1.00  0.00     0.023 C 
BRANCH  89  91
ATOM     91  C   UNL A   1      32.684  25.643  21.053  1.00  0.00     0.171 C 
ATOM     92  O   UNL A   1      32.935  25.464  19.863  1.00  0.00    -0.294 OA
BRANCH  91  93
ATOM     93  C   UNL A   1      32.592  24.453  21.939  1.00  0.00     0.018 A 
ATOM     94  C   UNL A   1      31.455  24.305  22.737  1.00  0.00     0.015 A 
ATOM     95  C   UNL A   1      33.585  23.470  21.938  1.00  0.00     0.015 A 
ATOM     96  C   UNL A   1      31.315  23.171  23.539  1.00  0.00     0.048 A 
ATOM     97  C   UNL A   1      33.436  22.333  22.739  1.00  0.00     0.048 A 
ATOM     98  C   UNL A   1      32.312  22.190  23.559  1.00  0.00     0.127 A 
BRANCH  98  99
ATOM     99  O   UNL A   1      32.053  21.112  24.378  1.00  0.00    -0.457 OA
BRANCH  99 100
ATOM    100  C   UNL A   1      32.767  19.952  24.207  1.00  0.00     0.127 A 
ATOM    101  C   UNL A   1      32.189  18.959  23.416  1.00  0.00     0.047 A 
ATOM    102  C   UNL A   1      33.984  19.719  24.855  1.00  0.00     0.047 A 
ATOM    103  C   UNL A   1      32.858  17.751  23.220  1.00  0.00     0.004 A 
ATOM    104  C   UNL A   1      34.656  18.513  24.645  1.00  0.00     0.004 A 
ATOM    105  C   UNL A   1      34.096  17.534  23.823  1.00  0.00     0.000 A 
ENDBRANCH  99 100
ENDBRANCH  98  99
ENDBRANCH  91  93
ENDBRANCH  89  91
ENDBRANCH  83  84
ENDBRANCH  79  83
ENDBRANCH  74  77
ENDBRANCH  72  73
ENDBRANCH   1  72
TORSDOF 22
ENDMDL
