MODEL 1
REMARK VINA RESULT:     -10.2      0.000      0.000
REMARK SMILES CCCN1C(=O)C[C@H](C(=O)NCCCCCCNC(=O)c2ccc(-c3c4nc(c(-c5ccc(S(=O)(=O)[O-])cc5)c5ccc([nH]5)c(-c5ccc(S(=O)(=O)[O-])cc5)c5nc(c(-c6ccc(S(=O)(=O)[O-])cc6)c6ccc3[nH]6)C=C5)C=C4)cc2)[C@@H]1c1cncn1C1CC1
REMARK SMILES IDX 15 1 14 2 13 3 12 4 11 5 9 6 10 7 8 9 4 10 5 11 81 12 6 13
REMARK SMILES IDX 7 14 3 15 2 16 1 17 82 18 83 19 86 20 84 21 85 22 87 23
REMARK SMILES IDX 88 24 89 25 16 26 17 27 18 28 19 29 20 31 21 32 22 33 80 34
REMARK SMILES IDX 23 35 79 36 24 37 25 38 26 39 73 40 27 41 78 42 72 43 74 44
REMARK SMILES IDX 28 45 77 46 71 47 70 48 29 50 59 51 40 52 58 53 41 54 44 55
REMARK SMILES IDX 57 56 75 57 42 58 43 59 56 61 76 62 45 63 30 64 31 65 39 66
REMARK SMILES IDX 32 67 38 68 33 69 34 70 35 71 36 72 37 73 60 74 61 75 69 76
REMARK SMILES IDX 62 77 68 78 63 79 64 80 65 81 66 82 67 83 46 84 47 85 55 86
REMARK SMILES IDX 48 87 54 88 49 89 50 90 51 91 52 92 53 93
REMARK H PARENT 11 8 18 30 74 49 44 60
REMARK Flexibility Score: inf
ROOT
ATOM      1  C   UNL A   1      32.200  29.852  26.694  1.00  0.00     0.002 C 
ENDROOT
BRANCH   1   2
ATOM      2  C   UNL A   1      32.175  29.420  25.222  1.00  0.00     0.002 C 
BRANCH   2   3
ATOM      3  C   UNL A   1      31.451  28.103  24.938  1.00  0.00     0.021 C 
BRANCH   3   4
ATOM      4  C   UNL A   1      31.397  27.168  26.132  1.00  0.00     0.116 C 
BRANCH   4   5
ATOM      5  N   UNL A   1      30.716  25.923  25.872  1.00  0.00    -0.356 N 
ATOM      6  C   UNL A   1      31.106  24.658  26.167  1.00  0.00     0.226 C 
ATOM      7  O   UNL A   1      30.247  23.772  26.097  1.00  0.00    -0.275 OA
ATOM      8  H   UNL A   1      29.847  26.003  25.416  1.00  0.00     0.163 HD
BRANCH   6   9
ATOM      9  C   UNL A   1      32.528  24.286  26.553  1.00  0.00     0.116 C 
ATOM     10  N   UNL A   1      34.711  23.596  26.026  1.00  0.00    -0.333 N 
ATOM     11  C   UNL A   1      34.178  22.606  26.838  1.00  0.00     0.224 C 
ATOM     12  C   UNL A   1      33.684  24.498  25.571  1.00  0.00     0.146 C 
ATOM     13  O   UNL A   1      34.739  21.623  27.298  1.00  0.00    -0.275 OA
ATOM     14  C   UNL A   1      32.725  22.892  27.116  1.00  0.00     0.116 C 
BRANCH  10  15
ATOM     15  C   UNL A   1      36.115  23.847  25.668  1.00  0.00     0.120 C 
BRANCH  15  16
ATOM     16  C   UNL A   1      36.879  22.863  24.772  1.00  0.00     0.018 C 
ATOM     17  C   UNL A   1      36.608  22.890  23.275  1.00  0.00     0.006 C 
ENDBRANCH  15  16
ENDBRANCH  10  15
BRANCH  12  18
ATOM     18  C   UNL A   1      33.384  24.510  24.102  1.00  0.00     0.061 A 
ATOM     19  C   UNL A   1      33.822  25.562  23.290  1.00  0.00     0.136 A 
ATOM     20  N   UNL A   1      32.782  23.646  23.189  1.00  0.00    -0.330 N 
ATOM     21  N   UNL A   1      33.505  25.396  21.984  1.00  0.00    -0.245 NA
ATOM     22  C   UNL A   1      32.911  24.234  21.944  1.00  0.00     0.199 A 
BRANCH  20  23
ATOM     23  C   UNL A   1      32.048  22.387  23.221  1.00  0.00     0.088 C 
ATOM     24  C   UNL A   1      32.003  21.223  22.277  1.00  0.00     0.027 C 
ATOM     25  C   UNL A   1      32.677  21.056  23.589  1.00  0.00     0.027 C 
ENDBRANCH  20  23
ENDBRANCH  12  18
ENDBRANCH   6   9
ENDBRANCH   4   5
ENDBRANCH   3   4
ENDBRANCH   2   3
ENDBRANCH   1   2
BRANCH   1  26
ATOM     26  C   UNL A   1      31.888  31.329  26.953  1.00  0.00     0.021 C 
BRANCH  26  27
ATOM     27  C   UNL A   1      33.112  32.214  27.143  1.00  0.00     0.116 C 
BRANCH  27  28
ATOM     28  N   UNL A   1      32.766  33.529  27.658  1.00  0.00    -0.352 N 
ATOM     29  C   UNL A   1      33.330  34.230  28.693  1.00  0.00     0.251 C 
ATOM     30  H   UNL A   1      32.020  33.979  27.199  1.00  0.00     0.163 HD
ATOM     31  O   UNL A   1      32.792  35.252  29.111  1.00  0.00    -0.269 OA
BRANCH  29  32
ATOM     32  C   UNL A   1      34.577  33.737  29.311  1.00  0.00     0.039 A 
ATOM     33  C   UNL A   1      35.796  34.281  28.903  1.00  0.00     0.014 A 
ATOM     34  C   UNL A   1      34.539  32.749  30.299  1.00  0.00     0.014 A 
ATOM     35  C   UNL A   1      36.976  33.872  29.526  1.00  0.00     0.010 A 
ATOM     36  C   UNL A   1      35.704  32.403  30.973  1.00  0.00     0.010 A 
ATOM     37  C   UNL A   1      36.936  32.955  30.589  1.00  0.00    -0.014 A 
BRANCH  37  38
ATOM     38  C   UNL A   1      38.169  32.554  31.311  1.00  0.00     0.031 A 
ATOM     39  C   UNL A   1      39.056  31.477  30.749  1.00  0.00     0.074 A 
ATOM     40  C   UNL A   1      38.449  33.103  32.509  1.00  0.00     0.049 A 
ATOM     41  N   UNL A   1      40.129  30.939  31.268  1.00  0.00    -0.248 NA
ATOM     42  C   UNL A   1      38.667  30.911  29.449  1.00  0.00     0.031 C 
ATOM     43  C   UNL A   1      37.640  34.122  33.181  1.00  0.00     0.029 A 
ATOM     44  N   UNL A   1      39.480  32.869  33.382  1.00  0.00    -0.354 N 
ATOM     45  C   UNL A   1      40.532  29.960  30.368  1.00  0.00     0.074 A 
ATOM     46  C   UNL A   1      39.554  29.938  29.303  1.00  0.00     0.031 C 
ATOM     47  C   UNL A   1      38.214  34.435  34.353  1.00  0.00     0.029 A 
ATOM     48  C   UNL A   1      39.402  33.607  34.538  1.00  0.00     0.049 A 
ATOM     49  H   UNL A   1      40.208  32.231  33.198  1.00  0.00     0.167 HD
ATOM     50  C   UNL A   1      41.627  29.162  30.413  1.00  0.00     0.031 A 
ATOM     51  C   UNL A   1      40.186  33.609  35.635  1.00  0.00     0.031 A 
ATOM     52  C   UNL A   1      42.591  29.184  31.482  1.00  0.00     0.049 A 
ATOM     53  C   UNL A   1      41.388  32.709  35.677  1.00  0.00     0.074 A 
ATOM     54  C   UNL A   1      43.762  28.457  31.600  1.00  0.00     0.029 A 
ATOM     55  N   UNL A   1      42.487  29.964  32.626  1.00  0.00    -0.354 N 
ATOM     56  N   UNL A   1      41.798  31.843  34.780  1.00  0.00    -0.248 NA
ATOM     57  C   UNL A   1      42.242  32.796  36.868  1.00  0.00     0.031 C 
ATOM     58  C   UNL A   1      44.331  28.747  32.844  1.00  0.00     0.029 A 
ATOM     59  C   UNL A   1      43.556  29.712  33.470  1.00  0.00     0.049 A 
ATOM     60  H   UNL A   1      41.760  30.601  32.810  1.00  0.00     0.167 HD
ATOM     61  C   UNL A   1      42.971  31.296  35.290  1.00  0.00     0.074 A 
ATOM     62  C   UNL A   1      43.211  31.941  36.566  1.00  0.00     0.031 C 
ATOM     63  C   UNL A   1      43.778  30.352  34.745  1.00  0.00     0.031 A 
BRANCH  50  64
ATOM     64  C   UNL A   1      41.815  28.184  29.280  1.00  0.00    -0.014 A 
ATOM     65  C   UNL A   1      41.221  26.907  29.309  1.00  0.00     0.010 A 
ATOM     66  C   UNL A   1      42.607  28.541  28.174  1.00  0.00     0.010 A 
ATOM     67  C   UNL A   1      41.476  25.983  28.292  1.00  0.00     0.020 A 
ATOM     68  C   UNL A   1      42.834  27.633  27.136  1.00  0.00     0.020 A 
ATOM     69  C   UNL A   1      42.291  26.349  27.217  1.00  0.00     0.054 A 
BRANCH  69  70
ATOM     70  S   UNL A   1      42.629  25.121  25.926  1.00  0.00     0.124 S 
ATOM     71  O   UNL A   1      42.468  25.914  24.710  1.00  0.00    -0.237 OA
ATOM     72  O   UNL A   1      43.995  24.706  26.227  1.00  0.00    -0.237 OA
ATOM     73  O   UNL A   1      41.607  24.101  26.142  1.00  0.00    -0.744 OA
ENDBRANCH  69  70
ENDBRANCH  50  64
BRANCH  51  74
ATOM     74  C   UNL A   1      39.839  34.502  36.773  1.00  0.00    -0.014 A 
ATOM     75  C   UNL A   1      39.093  34.025  37.864  1.00  0.00     0.010 A 
ATOM     76  C   UNL A   1      40.320  35.826  36.800  1.00  0.00     0.010 A 
ATOM     77  C   UNL A   1      38.839  34.852  38.963  1.00  0.00     0.020 A 
ATOM     78  C   UNL A   1      40.093  36.645  37.909  1.00  0.00     0.020 A 
ATOM     79  C   UNL A   1      39.351  36.154  38.983  1.00  0.00     0.054 A 
BRANCH  79  80
ATOM     80  S   UNL A   1      39.092  37.173  40.462  1.00  0.00     0.124 S 
ATOM     81  O   UNL A   1      38.429  36.238  41.364  1.00  0.00    -0.237 OA
ATOM     82  O   UNL A   1      40.457  37.547  40.827  1.00  0.00    -0.237 OA
ATOM     83  O   UNL A   1      38.263  38.274  39.976  1.00  0.00    -0.744 OA
ENDBRANCH  79  80
ENDBRANCH  51  74
BRANCH  63  84
ATOM     84  C   UNL A   1      45.019  29.969  35.508  1.00  0.00    -0.014 A 
ATOM     85  C   UNL A   1      46.139  30.817  35.560  1.00  0.00     0.010 A 
ATOM     86  C   UNL A   1      45.031  28.773  36.251  1.00  0.00     0.010 A 
ATOM     87  C   UNL A   1      47.256  30.465  36.322  1.00  0.00     0.020 A 
ATOM     88  C   UNL A   1      46.133  28.432  37.038  1.00  0.00     0.020 A 
ATOM     89  C   UNL A   1      47.245  29.277  37.061  1.00  0.00     0.054 A 
BRANCH  89  90
ATOM     90  S   UNL A   1      48.683  28.875  38.091  1.00  0.00     0.124 S 
ATOM     91  O   UNL A   1      49.776  28.933  37.123  1.00  0.00    -0.237 OA
ATOM     92  O   UNL A   1      48.669  29.942  39.089  1.00  0.00    -0.237 OA
ATOM     93  O   UNL A   1      48.378  27.542  38.607  1.00  0.00    -0.744 OA
ENDBRANCH  89  90
ENDBRANCH  63  84
ENDBRANCH  37  38
ENDBRANCH  29  32
ENDBRANCH  27  28
ENDBRANCH  26  27
ENDBRANCH   1  26
TORSDOF 20
ENDMDL
MODEL 2
REMARK VINA RESULT:     -10.0      1.428      8.414
REMARK SMILES CCCN1C(=O)C[C@H](C(=O)NCCCCCCNC(=O)c2ccc(-c3c4nc(c(-c5ccc(S(=O)(=O)[O-])cc5)c5ccc([nH]5)c(-c5ccc(S(=O)(=O)[O-])cc5)c5nc(c(-c6ccc(S(=O)(=O)[O-])cc6)c6ccc3[nH]6)C=C5)C=C4)cc2)[C@@H]1c1cncn1C1CC1
REMARK SMILES IDX 15 1 14 2 13 3 12 4 11 5 9 6 10 7 8 9 4 10 5 11 81 12 6 13
REMARK SMILES IDX 7 14 3 15 2 16 1 17 82 18 83 19 86 20 84 21 85 22 87 23
REMARK SMILES IDX 88 24 89 25 16 26 17 27 18 28 19 29 20 31 21 32 22 33 80 34
REMARK SMILES IDX 23 35 79 36 24 37 25 38 26 39 73 40 27 41 78 42 72 43 74 44
REMARK SMILES IDX 28 45 77 46 71 47 70 48 29 50 59 51 40 52 58 53 41 54 44 55
REMARK SMILES IDX 57 56 75 57 42 58 43 59 56 61 76 62 45 63 30 64 31 65 39 66
REMARK SMILES IDX 32 67 38 68 33 69 34 70 35 71 36 72 37 73 60 74 61 75 69 76
REMARK SMILES IDX 62 77 68 78 63 79 64 80 65 81 66 82 67 83 46 84 47 85 55 86
REMARK SMILES IDX 48 87 54 88 49 89 50 90 51 91 52 92 53 93
REMARK H PARENT 11 8 18 30 74 49 44 60
REMARK Flexibility Score: inf
ROOT
ATOM      1  C   UNL A   1      31.774  30.677  26.762  1.00  0.00     0.002 C 
ENDROOT
BRANCH   1   2
ATOM      2  C   UNL A   1      32.175  30.078  25.407  1.00  0.00     0.002 C 
BRANCH   2   3
ATOM      3  C   UNL A   1      31.037  29.438  24.611  1.00  0.00     0.021 C 
BRANCH   3   4
ATOM      4  C   UNL A   1      31.082  27.921  24.595  1.00  0.00     0.116 C 
BRANCH   4   5
ATOM      5  N   UNL A   1      32.123  27.356  25.417  1.00  0.00    -0.356 N 
ATOM      6  C   UNL A   1      32.893  26.263  25.191  1.00  0.00     0.226 C 
ATOM      7  O   UNL A   1      33.898  26.124  25.897  1.00  0.00    -0.275 OA
ATOM      8  H   UNL A   1      32.300  27.831  26.262  1.00  0.00     0.163 HD
BRANCH   6   9
ATOM      9  C   UNL A   1      32.570  25.212  24.143  1.00  0.00     0.116 C 
ATOM     10  N   UNL A   1      32.554  22.998  23.355  1.00  0.00    -0.333 N 
ATOM     11  C   UNL A   1      33.336  23.719  22.465  1.00  0.00     0.224 C 
ATOM     12  C   UNL A   1      32.296  23.761  24.550  1.00  0.00     0.146 C 
ATOM     13  O   UNL A   1      33.831  23.339  21.415  1.00  0.00    -0.275 OA
ATOM     14  C   UNL A   1      33.521  25.129  22.964  1.00  0.00     0.116 C 
BRANCH  10  15
ATOM     15  C   UNL A   1      31.947  21.669  23.192  1.00  0.00     0.120 C 
BRANCH  15  16
ATOM     16  C   UNL A   1      32.484  20.465  23.977  1.00  0.00     0.018 C 
ATOM     17  C   UNL A   1      32.440  19.096  23.315  1.00  0.00     0.006 C 
ENDBRANCH  15  16
ENDBRANCH  10  15
BRANCH  12  18
ATOM     18  C   UNL A   1      32.889  23.252  25.829  1.00  0.00     0.061 A 
ATOM     19  C   UNL A   1      32.092  23.075  26.967  1.00  0.00     0.136 A 
ATOM     20  N   UNL A   1      34.133  22.786  26.249  1.00  0.00    -0.330 N 
ATOM     21  N   UNL A   1      32.774  22.568  28.022  1.00  0.00    -0.245 NA
ATOM     22  C   UNL A   1      33.981  22.378  27.561  1.00  0.00     0.199 A 
BRANCH  20  23
ATOM     23  C   UNL A   1      35.482  22.680  25.707  1.00  0.00     0.088 C 
ATOM     24  C   UNL A   1      36.486  21.566  25.713  1.00  0.00     0.027 C 
ATOM     25  C   UNL A   1      35.821  21.923  24.435  1.00  0.00     0.027 C 
ENDBRANCH  20  23
ENDBRANCH  12  18
ENDBRANCH   6   9
ENDBRANCH   4   5
ENDBRANCH   3   4
ENDBRANCH   2   3
ENDBRANCH   1   2
BRANCH   1  26
ATOM     26  C   UNL A   1      31.791  32.206  26.838  1.00  0.00     0.021 C 
BRANCH  26  27
ATOM     27  C   UNL A   1      33.018  32.796  27.518  1.00  0.00     0.116 C 
BRANCH  27  28
ATOM     28  N   UNL A   1      32.871  34.218  27.784  1.00  0.00    -0.352 N 
ATOM     29  C   UNL A   1      33.456  34.983  28.760  1.00  0.00     0.251 C 
ATOM     30  H   UNL A   1      32.263  34.699  27.177  1.00  0.00     0.163 HD
ATOM     31  O   UNL A   1      33.076  36.134  28.952  1.00  0.00    -0.269 OA
BRANCH  29  32
ATOM     32  C   UNL A   1      34.532  34.404  29.590  1.00  0.00     0.039 A 
ATOM     33  C   UNL A   1      34.192  33.724  30.761  1.00  0.00     0.014 A 
ATOM     34  C   UNL A   1      35.870  34.525  29.205  1.00  0.00     0.014 A 
ATOM     35  C   UNL A   1      35.193  33.115  31.519  1.00  0.00     0.010 A 
ATOM     36  C   UNL A   1      36.856  33.850  29.916  1.00  0.00     0.010 A 
ATOM     37  C   UNL A   1      36.529  33.145  31.085  1.00  0.00    -0.014 A 
BRANCH  37  38
ATOM     38  C   UNL A   1      37.602  32.449  31.838  1.00  0.00     0.031 A 
ATOM     39  C   UNL A   1      38.078  32.999  33.155  1.00  0.00     0.074 A 
ATOM     40  C   UNL A   1      38.201  31.369  31.301  1.00  0.00     0.049 A 
ATOM     41  N   UNL A   1      39.051  32.578  33.920  1.00  0.00    -0.248 NA
ATOM     42  C   UNL A   1      37.388  34.197  33.659  1.00  0.00     0.031 C 
ATOM     43  C   UNL A   1      37.862  30.769  30.009  1.00  0.00     0.029 A 
ATOM     44  N   UNL A   1      39.234  30.594  31.766  1.00  0.00    -0.354 N 
ATOM     45  C   UNL A   1      39.103  33.469  34.986  1.00  0.00     0.074 A 
ATOM     46  C   UNL A   1      38.104  34.485  34.736  1.00  0.00     0.031 C 
ATOM     47  C   UNL A   1      38.661  29.712  29.793  1.00  0.00     0.029 A 
ATOM     48  C   UNL A   1      39.598  29.588  30.904  1.00  0.00     0.049 A 
ATOM     49  H   UNL A   1      39.671  30.745  32.635  1.00  0.00     0.167 HD
ATOM     50  C   UNL A   1      39.896  33.436  36.084  1.00  0.00     0.031 A 
ATOM     51  C   UNL A   1      40.588  28.676  30.986  1.00  0.00     0.031 A 
ATOM     52  C   UNL A   1      40.895  32.426  36.321  1.00  0.00     0.049 A 
ATOM     53  C   UNL A   1      41.469  28.660  32.203  1.00  0.00     0.074 A 
ATOM     54  C   UNL A   1      41.715  32.268  37.423  1.00  0.00     0.029 A 
ATOM     55  N   UNL A   1      41.218  31.409  35.433  1.00  0.00    -0.354 N 
ATOM     56  N   UNL A   1      41.454  29.464  33.240  1.00  0.00    -0.248 NA
ATOM     57  C   UNL A   1      42.491  27.607  32.270  1.00  0.00     0.031 C 
ATOM     58  C   UNL A   1      42.580  31.198  37.174  1.00  0.00     0.029 A 
ATOM     59  C   UNL A   1      42.249  30.640  35.948  1.00  0.00     0.049 A 
ATOM     60  H   UNL A   1      40.781  31.258  34.564  1.00  0.00     0.167 HD
ATOM     61  C   UNL A   1      42.448  29.000  34.095  1.00  0.00     0.074 A 
ATOM     62  C   UNL A   1      43.036  27.838  33.458  1.00  0.00     0.031 C 
ATOM     63  C   UNL A   1      42.833  29.491  35.299  1.00  0.00     0.031 A 
BRANCH  50  64
ATOM     64  C   UNL A   1      39.726  34.545  37.092  1.00  0.00    -0.014 A 
ATOM     65  C   UNL A   1      40.391  35.777  36.945  1.00  0.00     0.010 A 
ATOM     66  C   UNL A   1      38.897  34.349  38.212  1.00  0.00     0.010 A 
ATOM     67  C   UNL A   1      40.290  36.761  37.933  1.00  0.00     0.020 A 
ATOM     68  C   UNL A   1      38.762  35.345  39.183  1.00  0.00     0.020 A 
ATOM     69  C   UNL A   1      39.484  36.533  39.052  1.00  0.00     0.054 A 
BRANCH  69  70
ATOM     70  S   UNL A   1      39.393  37.814  40.332  1.00  0.00     0.124 S 
ATOM     71  O   UNL A   1      39.291  37.013  41.550  1.00  0.00    -0.237 OA
ATOM     72  O   UNL A   1      40.652  38.532  40.158  1.00  0.00    -0.237 OA
ATOM     73  O   UNL A   1      38.193  38.570  39.982  1.00  0.00    -0.744 OA
ENDBRANCH  69  70
ENDBRANCH  50  64
BRANCH  51  74
ATOM     74  C   UNL A   1      40.779  27.711  29.871  1.00  0.00    -0.014 A 
ATOM     75  C   UNL A   1      39.747  26.838  29.486  1.00  0.00     0.010 A 
ATOM     76  C   UNL A   1      41.983  27.710  29.140  1.00  0.00     0.010 A 
ATOM     77  C   UNL A   1      39.912  25.988  28.388  1.00  0.00     0.020 A 
ATOM     78  C   UNL A   1      42.141  26.884  28.024  1.00  0.00     0.020 A 
ATOM     79  C   UNL A   1      41.105  26.025  27.657  1.00  0.00     0.054 A 
BRANCH  79  80
ATOM     80  S   UNL A   1      41.257  24.986  26.177  1.00  0.00     0.124 S 
ATOM     81  O   UNL A   1      41.266  25.978  25.108  1.00  0.00    -0.237 OA
ATOM     82  O   UNL A   1      42.521  24.292  26.411  1.00  0.00    -0.237 OA
ATOM     83  O   UNL A   1      40.069  24.135  26.234  1.00  0.00    -0.744 OA
ENDBRANCH  79  80
ENDBRANCH  51  74
BRANCH  63  84
ATOM     84  C   UNL A   1      43.927  28.759  36.033  1.00  0.00    -0.014 A 
ATOM     85  C   UNL A   1      43.650  27.642  36.839  1.00  0.00     0.010 A 
ATOM     86  C   UNL A   1      45.266  29.154  35.846  1.00  0.00     0.010 A 
ATOM     87  C   UNL A   1      44.689  26.947  37.464  1.00  0.00     0.020 A 
ATOM     88  C   UNL A   1      46.310  28.442  36.443  1.00  0.00     0.020 A 
ATOM     89  C   UNL A   1      46.013  27.348  37.258  1.00  0.00     0.054 A 
BRANCH  89  90
ATOM     90  S   UNL A   1      47.346  26.390  38.029  1.00  0.00     0.124 S 
ATOM     91  O   UNL A   1      47.656  27.194  39.208  1.00  0.00    -0.237 OA
ATOM     92  O   UNL A   1      46.702  25.105  38.296  1.00  0.00    -0.237 OA
ATOM     93  O   UNL A   1      48.388  26.358  37.005  1.00  0.00    -0.744 OA
ENDBRANCH  89  90
ENDBRANCH  63  84
ENDBRANCH  37  38
ENDBRANCH  29  32
ENDBRANCH  27  28
ENDBRANCH  26  27
ENDBRANCH   1  26
TORSDOF 20
ENDMDL
MODEL 3
REMARK VINA RESULT:      -9.4      1.276      2.069
REMARK SMILES CCCN1C(=O)C[C@H](C(=O)NCCCCCCNC(=O)c2ccc(-c3c4nc(c(-c5ccc(S(=O)(=O)[O-])cc5)c5ccc([nH]5)c(-c5ccc(S(=O)(=O)[O-])cc5)c5nc(c(-c6ccc(S(=O)(=O)[O-])cc6)c6ccc3[nH]6)C=C5)C=C4)cc2)[C@@H]1c1cncn1C1CC1
REMARK SMILES IDX 15 1 14 2 13 3 12 4 11 5 9 6 10 7 8 9 4 10 5 11 81 12 6 13
REMARK SMILES IDX 7 14 3 15 2 16 1 17 82 18 83 19 86 20 84 21 85 22 87 23
REMARK SMILES IDX 88 24 89 25 16 26 17 27 18 28 19 29 20 31 21 32 22 33 80 34
REMARK SMILES IDX 23 35 79 36 24 37 25 38 26 39 73 40 27 41 78 42 72 43 74 44
REMARK SMILES IDX 28 45 77 46 71 47 70 48 29 50 59 51 40 52 58 53 41 54 44 55
REMARK SMILES IDX 57 56 75 57 42 58 43 59 56 61 76 62 45 63 30 64 31 65 39 66
REMARK SMILES IDX 32 67 38 68 33 69 34 70 35 71 36 72 37 73 60 74 61 75 69 76
REMARK SMILES IDX 62 77 68 78 63 79 64 80 65 81 66 82 67 83 46 84 47 85 55 86
REMARK SMILES IDX 48 87 54 88 49 89 50 90 51 91 52 92 53 93
REMARK H PARENT 11 8 18 30 74 49 44 60
REMARK Flexibility Score: inf
ROOT
ATOM      1  C   UNL A   1      31.336  31.191  26.759  1.00  0.00     0.002 C 
ENDROOT
BRANCH   1   2
ATOM      2  C   UNL A   1      32.224  30.172  26.032  1.00  0.00     0.002 C 
BRANCH   2   3
ATOM      3  C   UNL A   1      33.530  29.816  26.744  1.00  0.00     0.021 C 
BRANCH   3   4
ATOM      4  C   UNL A   1      33.948  28.367  26.563  1.00  0.00     0.116 C 
BRANCH   4   5
ATOM      5  N   UNL A   1      33.576  27.804  25.289  1.00  0.00    -0.356 N 
ATOM      6  C   UNL A   1      32.830  26.702  25.027  1.00  0.00     0.226 C 
ATOM      7  O   UNL A   1      32.415  26.565  23.871  1.00  0.00    -0.275 OA
ATOM      8  H   UNL A   1      33.910  28.288  24.499  1.00  0.00     0.163 HD
BRANCH   6   9
ATOM      9  C   UNL A   1      32.506  25.642  26.065  1.00  0.00     0.116 C 
ATOM     10  N   UNL A   1      32.636  23.453  26.911  1.00  0.00    -0.333 N 
ATOM     11  C   UNL A   1      31.293  23.692  26.661  1.00  0.00     0.224 C 
ATOM     12  C   UNL A   1      33.461  24.469  26.308  1.00  0.00     0.146 C 
ATOM     13  O   UNL A   1      30.337  22.978  26.925  1.00  0.00    -0.275 OA
ATOM     14  C   UNL A   1      31.122  25.027  25.983  1.00  0.00     0.116 C 
BRANCH  10  15
ATOM     15  C   UNL A   1      33.256  22.398  27.725  1.00  0.00     0.120 C 
BRANCH  15  16
ATOM     16  C   UNL A   1      33.795  21.120  27.065  1.00  0.00     0.018 C 
ATOM     17  C   UNL A   1      33.175  20.672  25.750  1.00  0.00     0.006 C 
ENDBRANCH  15  16
ENDBRANCH  10  15
BRANCH  12  18
ATOM     18  C   UNL A   1      34.369  24.042  25.194  1.00  0.00     0.061 A 
ATOM     19  C   UNL A   1      35.747  23.915  25.402  1.00  0.00     0.136 A 
ATOM     20  N   UNL A   1      34.217  23.622  23.873  1.00  0.00    -0.330 N 
ATOM     21  N   UNL A   1      36.415  23.478  24.308  1.00  0.00    -0.245 NA
ATOM     22  C   UNL A   1      35.478  23.284  23.418  1.00  0.00     0.199 A 
BRANCH  20  23
ATOM     23  C   UNL A   1      33.141  23.510  22.897  1.00  0.00     0.088 C 
ATOM     24  C   UNL A   1      33.066  22.851  21.552  1.00  0.00     0.027 C 
ATOM     25  C   UNL A   1      32.323  22.249  22.687  1.00  0.00     0.027 C 
ENDBRANCH  20  23
ENDBRANCH  12  18
ENDBRANCH   6   9
ENDBRANCH   4   5
ENDBRANCH   3   4
ENDBRANCH   2   3
ENDBRANCH   1   2
BRANCH   1  26
ATOM     26  C   UNL A   1      31.767  32.654  26.625  1.00  0.00     0.021 C 
BRANCH  26  27
ATOM     27  C   UNL A   1      32.931  33.059  27.520  1.00  0.00     0.116 C 
BRANCH  27  28
ATOM     28  N   UNL A   1      32.832  34.442  27.959  1.00  0.00    -0.352 N 
ATOM     29  C   UNL A   1      33.499  35.079  28.974  1.00  0.00     0.251 C 
ATOM     30  H   UNL A   1      32.195  34.999  27.456  1.00  0.00     0.163 HD
ATOM     31  O   UNL A   1      33.158  36.205  29.325  1.00  0.00    -0.269 OA
BRANCH  29  32
ATOM     32  C   UNL A   1      34.616  34.392  29.654  1.00  0.00     0.039 A 
ATOM     33  C   UNL A   1      35.893  34.461  29.095  1.00  0.00     0.014 A 
ATOM     34  C   UNL A   1      34.402  33.693  30.845  1.00  0.00     0.014 A 
ATOM     35  C   UNL A   1      36.969  33.874  29.761  1.00  0.00     0.010 A 
ATOM     36  C   UNL A   1      35.486  33.179  31.547  1.00  0.00     0.010 A 
ATOM     37  C   UNL A   1      36.780  33.257  31.009  1.00  0.00    -0.014 A 
BRANCH  37  38
ATOM     38  C   UNL A   1      37.919  32.684  31.768  1.00  0.00     0.031 A 
ATOM     39  C   UNL A   1      38.635  31.467  31.249  1.00  0.00     0.074 A 
ATOM     40  C   UNL A   1      38.258  33.209  32.961  1.00  0.00     0.049 A 
ATOM     41  N   UNL A   1      39.599  30.778  31.804  1.00  0.00    -0.248 NA
ATOM     42  C   UNL A   1      38.187  30.939  29.951  1.00  0.00     0.031 C 
ATOM     43  C   UNL A   1      37.607  34.359  33.594  1.00  0.00     0.029 A 
ATOM     44  N   UNL A   1      39.221  32.835  33.864  1.00  0.00    -0.354 N 
ATOM     45  C   UNL A   1      39.859  29.727  30.933  1.00  0.00     0.074 A 
ATOM     46  C   UNL A   1      38.912  29.835  29.846  1.00  0.00     0.031 C 
ATOM     47  C   UNL A   1      38.200  34.604  34.773  1.00  0.00     0.029 A 
ATOM     48  C   UNL A   1      39.238  33.603  35.002  1.00  0.00     0.049 A 
ATOM     49  H   UNL A   1      39.842  32.086  33.709  1.00  0.00     0.167 HD
ATOM     50  C   UNL A   1      40.812  28.767  31.020  1.00  0.00     0.031 A 
ATOM     51  C   UNL A   1      39.989  33.507  36.117  1.00  0.00     0.031 A 
ATOM     52  C   UNL A   1      41.745  28.661  32.111  1.00  0.00     0.049 A 
ATOM     53  C   UNL A   1      41.032  32.429  36.206  1.00  0.00     0.074 A 
ATOM     54  C   UNL A   1      42.783  27.761  32.272  1.00  0.00     0.029 A 
ATOM     55  N   UNL A   1      41.743  29.474  33.237  1.00  0.00    -0.354 N 
ATOM     56  N   UNL A   1      41.317  31.488  35.337  1.00  0.00    -0.248 NA
ATOM     57  C   UNL A   1      41.864  32.407  37.415  1.00  0.00     0.031 C 
ATOM     58  C   UNL A   1      43.366  27.986  33.523  1.00  0.00     0.029 A 
ATOM     59  C   UNL A   1      42.741  29.075  34.111  1.00  0.00     0.049 A 
ATOM     60  H   UNL A   1      41.123  30.222  33.391  1.00  0.00     0.167 HD
ATOM     61  C   UNL A   1      42.378  30.775  35.884  1.00  0.00     0.074 A 
ATOM     62  C   UNL A   1      42.691  31.402  37.153  1.00  0.00     0.031 C 
ATOM     63  C   UNL A   1      43.035  29.702  35.378  1.00  0.00     0.031 A 
BRANCH  50  64
ATOM     64  C   UNL A   1      40.865  27.745  29.912  1.00  0.00    -0.014 A 
ATOM     65  C   UNL A   1      42.037  27.543  29.157  1.00  0.00     0.010 A 
ATOM     66  C   UNL A   1      39.723  26.982  29.611  1.00  0.00     0.010 A 
ATOM     67  C   UNL A   1      42.042  26.654  28.079  1.00  0.00     0.020 A 
ATOM     68  C   UNL A   1      39.734  26.064  28.557  1.00  0.00     0.020 A 
ATOM     69  C   UNL A   1      40.885  25.928  27.779  1.00  0.00     0.054 A 
BRANCH  69  70
ATOM     70  S   UNL A   1      40.910  24.804  26.357  1.00  0.00     0.124 S 
ATOM     71  O   UNL A   1      39.896  23.822  26.734  1.00  0.00    -0.237 OA
ATOM     72  O   UNL A   1      40.551  25.681  25.247  1.00  0.00    -0.237 OA
ATOM     73  O   UNL A   1      42.282  24.302  26.334  1.00  0.00    -0.744 OA
ENDBRANCH  69  70
ENDBRANCH  50  64
BRANCH  51  74
ATOM     74  C   UNL A   1      39.765  34.469  37.229  1.00  0.00    -0.014 A 
ATOM     75  C   UNL A   1      38.987  34.117  38.344  1.00  0.00     0.010 A 
ATOM     76  C   UNL A   1      40.395  35.729  37.206  1.00  0.00     0.010 A 
ATOM     77  C   UNL A   1      38.846  35.002  39.418  1.00  0.00     0.020 A 
ATOM     78  C   UNL A   1      40.282  36.604  38.289  1.00  0.00     0.020 A 
ATOM     79  C   UNL A   1      39.505  36.236  39.388  1.00  0.00     0.054 A 
BRANCH  79  80
ATOM     80  S   UNL A   1      39.389  37.325  40.835  1.00  0.00     0.124 S 
ATOM     81  O   UNL A   1      40.767  37.779  40.985  1.00  0.00    -0.237 OA
ATOM     82  O   UNL A   1      38.433  38.336  40.390  1.00  0.00    -0.237 OA
ATOM     83  O   UNL A   1      38.901  36.439  41.890  1.00  0.00    -0.744 OA
ENDBRANCH  79  80
ENDBRANCH  51  74
BRANCH  63  84
ATOM     84  C   UNL A   1      44.185  29.146  36.178  1.00  0.00    -0.014 A 
ATOM     85  C   UNL A   1      44.020  28.036  37.025  1.00  0.00     0.010 A 
ATOM     86  C   UNL A   1      45.469  29.699  36.017  1.00  0.00     0.010 A 
ATOM     87  C   UNL A   1      45.114  27.505  37.713  1.00  0.00     0.020 A 
ATOM     88  C   UNL A   1      46.571  29.151  36.678  1.00  0.00     0.020 A 
ATOM     89  C   UNL A   1      46.384  28.062  37.531  1.00  0.00     0.054 A 
BRANCH  89  90
ATOM     90  S   UNL A   1      47.797  27.313  38.387  1.00  0.00     0.124 S 
ATOM     91  O   UNL A   1      48.524  26.688  37.285  1.00  0.00    -0.237 OA
ATOM     92  O   UNL A   1      48.451  28.469  38.996  1.00  0.00    -0.237 OA
ATOM     93  O   UNL A   1      47.178  26.385  39.331  1.00  0.00    -0.744 OA
ENDBRANCH  89  90
ENDBRANCH  63  84
ENDBRANCH  37  38
ENDBRANCH  29  32
ENDBRANCH  27  28
ENDBRANCH  26  27
ENDBRANCH   1  26
TORSDOF 20
ENDMDL
