MODEL 1
REMARK VINA RESULT:     -11.1      0.000      0.000
REMARK SMILES O=C(NCCCCCCNC(=O)c1ccc(-c2c3nc(c(-c4ccc(S(=O)(=O)[O-])cc4)c4ccc([nH]4)c(-c4ccc(S(=O)(=O)[O-])cc4)c4nc(c(-c5ccc(S(=O)(=O)[O-])cc5)c5ccc2[nH]5)C=C4)C=C3)cc1)C1=Cc2ccc(Cl)c(Cl)c2O[C@@H]1C(F)(F)F
REMARK SMILES IDX 7 1 6 2 5 3 4 4 3 5 1 6 2 7 73 9 74 10 84 11 75 12 83 13
REMARK SMILES IDX 76 14 82 15 77 16 80 17 78 18 81 19 79 20 85 21 86 22 87 23
REMARK SMILES IDX 88 24 8 25 9 26 10 27 11 28 12 30 13 31 14 32 72 33 15 34
REMARK SMILES IDX 71 35 16 36 17 37 18 38 65 39 19 40 70 41 64 42 66 43 20 44
REMARK SMILES IDX 69 45 63 46 62 47 21 49 51 50 32 51 50 52 33 53 36 54 49 55
REMARK SMILES IDX 67 56 34 57 35 58 48 60 68 61 37 62 22 63 23 64 31 65 24 66
REMARK SMILES IDX 30 67 25 68 26 69 27 70 28 71 29 72 52 73 53 74 61 75 54 76
REMARK SMILES IDX 60 77 55 78 56 79 57 80 58 81 59 82 38 83 39 84 47 85 40 86
REMARK SMILES IDX 46 87 41 88 42 89 43 90 44 91 45 92
REMARK H PARENT 3 8 10 29 66 48 36 59
REMARK Flexibility Score: inf
ROOT
ATOM      1  C   UNL A   1      33.461  27.992  24.516  1.00  0.00     0.002 C 
ENDROOT
BRANCH   1   2
ATOM      2  C   UNL A   1      32.637  27.495  23.321  1.00  0.00     0.002 C 
BRANCH   2   3
ATOM      3  C   UNL A   1      31.515  26.502  23.619  1.00  0.00     0.021 C 
BRANCH   3   4
ATOM      4  C   UNL A   1      31.142  25.534  22.497  1.00  0.00     0.116 C 
BRANCH   4   5
ATOM      5  N   UNL A   1      32.270  24.867  21.858  1.00  0.00    -0.352 N 
ATOM      6  O   UNL A   1      33.921  23.357  21.592  1.00  0.00    -0.270 OA
ATOM      7  C   UNL A   1      33.128  23.913  22.350  1.00  0.00     0.251 C 
ATOM      8  H   UNL A   1      32.444  25.142  20.929  1.00  0.00     0.163 HD
BRANCH   7   9
ATOM      9  C   UNL A   1      33.025  23.430  23.760  1.00  0.00     0.067 C 
ATOM     10  C   UNL A   1      32.213  22.417  24.087  1.00  0.00     0.025 C 
ATOM     11  C   UNL A   1      34.288  23.625  24.552  1.00  0.00     0.314 C 
ATOM     12  C   UNL A   1      32.887  21.205  24.555  1.00  0.00     0.019 A 
ATOM     13  O   UNL A   1      35.010  22.387  24.743  1.00  0.00    -0.474 OA
ATOM     14  C   UNL A   1      32.196  19.992  24.484  1.00  0.00     0.013 A 
ATOM     15  C   UNL A   1      34.282  21.218  24.737  1.00  0.00     0.148 A 
ATOM     16  C   UNL A   1      32.903  18.791  24.519  1.00  0.00     0.023 A 
ATOM     17  C   UNL A   1      34.990  20.007  24.785  1.00  0.00     0.102 A 
ATOM     18  C   UNL A   1      34.297  18.797  24.646  1.00  0.00     0.063 A 
ATOM     19  Cl  UNL A   1      36.720  20.045  24.898  1.00  0.00    -0.079 Cl
ATOM     20  Cl  UNL A   1      35.106  17.274  24.535  1.00  0.00    -0.083 Cl
BRANCH  11  21
ATOM     21  C   UNL A   1      33.975  24.315  25.897  1.00  0.00     0.429 C 
ATOM     22  F   UNL A   1      34.744  25.413  26.083  1.00  0.00    -0.167 F 
ATOM     23  F   UNL A   1      32.684  24.727  25.961  1.00  0.00    -0.167 F 
ATOM     24  F   UNL A   1      34.178  23.497  26.959  1.00  0.00    -0.167 F 
ENDBRANCH  11  21
ENDBRANCH   7   9
ENDBRANCH   4   5
ENDBRANCH   3   4
ENDBRANCH   2   3
ENDBRANCH   1   2
BRANCH   1  25
ATOM     25  C   UNL A   1      32.787  27.969  25.894  1.00  0.00     0.021 C 
BRANCH  25  26
ATOM     26  C   UNL A   1      33.652  28.368  27.087  1.00  0.00     0.116 C 
BRANCH  26  27
ATOM     27  N   UNL A   1      33.519  29.766  27.450  1.00  0.00    -0.352 N 
ATOM     28  C   UNL A   1      34.406  30.613  28.071  1.00  0.00     0.251 C 
ATOM     29  H   UNL A   1      32.655  30.175  27.215  1.00  0.00     0.163 HD
ATOM     30  O   UNL A   1      34.037  31.738  28.390  1.00  0.00    -0.269 OA
BRANCH  28  31
ATOM     31  C   UNL A   1      35.792  30.181  28.381  1.00  0.00     0.039 A 
ATOM     32  C   UNL A   1      36.750  30.241  27.362  1.00  0.00     0.014 A 
ATOM     33  C   UNL A   1      36.147  29.672  29.633  1.00  0.00     0.014 A 
ATOM     34  C   UNL A   1      38.066  29.842  27.611  1.00  0.00     0.010 A 
ATOM     35  C   UNL A   1      37.475  29.330  29.898  1.00  0.00     0.010 A 
ATOM     36  C   UNL A   1      38.449  29.406  28.890  1.00  0.00    -0.014 A 
BRANCH  36  37
ATOM     37  C   UNL A   1      39.856  29.024  29.181  1.00  0.00     0.031 A 
ATOM     38  C   UNL A   1      40.808  30.019  29.789  1.00  0.00     0.074 A 
ATOM     39  C   UNL A   1      40.295  27.792  28.853  1.00  0.00     0.049 A 
ATOM     40  N   UNL A   1      42.080  29.881  30.068  1.00  0.00    -0.248 NA
ATOM     41  C   UNL A   1      40.265  31.349  30.105  1.00  0.00     0.031 C 
ATOM     42  C   UNL A   1      39.486  26.745  28.225  1.00  0.00     0.029 A 
ATOM     43  N   UNL A   1      41.533  27.215  28.995  1.00  0.00    -0.354 N 
ATOM     44  C   UNL A   1      42.491  31.105  30.580  1.00  0.00     0.074 A 
ATOM     45  C   UNL A   1      41.346  31.990  30.527  1.00  0.00     0.031 C 
ATOM     46  C   UNL A   1      40.243  25.650  28.051  1.00  0.00     0.029 A 
ATOM     47  C   UNL A   1      41.597  25.926  28.520  1.00  0.00     0.049 A 
ATOM     48  H   UNL A   1      42.301  27.680  29.397  1.00  0.00     0.167 HD
ATOM     49  C   UNL A   1      43.705  31.461  31.070  1.00  0.00     0.031 A 
ATOM     50  C   UNL A   1      42.631  25.063  28.460  1.00  0.00     0.031 A 
ATOM     51  C   UNL A   1      44.844  30.582  31.123  1.00  0.00     0.049 A 
ATOM     52  C   UNL A   1      43.970  25.477  29.002  1.00  0.00     0.074 A 
ATOM     53  C   UNL A   1      46.105  30.837  31.635  1.00  0.00     0.029 A 
ATOM     54  N   UNL A   1      44.863  29.279  30.648  1.00  0.00    -0.354 N 
ATOM     55  N   UNL A   1      44.325  26.623  29.531  1.00  0.00    -0.248 NA
ATOM     56  C   UNL A   1      45.046  24.477  28.950  1.00  0.00     0.031 C 
ATOM     57  C   UNL A   1      46.899  29.703  31.428  1.00  0.00     0.029 A 
ATOM     58  C   UNL A   1      46.118  28.723  30.837  1.00  0.00     0.049 A 
ATOM     59  H   UNL A   1      44.097  28.817  30.237  1.00  0.00     0.167 HD
ATOM     60  C   UNL A   1      45.659  26.476  29.895  1.00  0.00     0.074 A 
ATOM     61  C   UNL A   1      46.042  25.125  29.540  1.00  0.00     0.031 C 
ATOM     62  C   UNL A   1      46.490  27.379  30.473  1.00  0.00     0.031 A 
BRANCH  49  63
ATOM     63  C   UNL A   1      43.859  32.871  31.578  1.00  0.00    -0.014 A 
ATOM     64  C   UNL A   1      44.296  33.904  30.728  1.00  0.00     0.010 A 
ATOM     65  C   UNL A   1      43.548  33.174  32.916  1.00  0.00     0.010 A 
ATOM     66  C   UNL A   1      44.476  35.199  31.219  1.00  0.00     0.020 A 
ATOM     67  C   UNL A   1      43.699  34.475  33.405  1.00  0.00     0.020 A 
ATOM     68  C   UNL A   1      44.184  35.474  32.559  1.00  0.00     0.054 A 
BRANCH  68  69
ATOM     69  S   UNL A   1      44.433  37.162  33.175  1.00  0.00     0.124 S 
ATOM     70  O   UNL A   1      45.698  37.034  33.894  1.00  0.00    -0.237 OA
ATOM     71  O   UNL A   1      44.486  37.950  31.946  1.00  0.00    -0.237 OA
ATOM     72  O   UNL A   1      43.261  37.402  34.014  1.00  0.00    -0.744 OA
ENDBRANCH  68  69
ENDBRANCH  49  63
BRANCH  50  73
ATOM     73  C   UNL A   1      42.425  23.711  27.870  1.00  0.00    -0.014 A 
ATOM     74  C   UNL A   1      42.585  23.500  26.490  1.00  0.00     0.010 A 
ATOM     75  C   UNL A   1      42.103  22.619  28.698  1.00  0.00     0.010 A 
ATOM     76  C   UNL A   1      42.419  22.224  25.946  1.00  0.00     0.020 A 
ATOM     77  C   UNL A   1      41.962  21.337  28.161  1.00  0.00     0.020 A 
ATOM     78  C   UNL A   1      42.113  21.149  26.786  1.00  0.00     0.054 A 
BRANCH  78  79
ATOM     79  S   UNL A   1      41.973  19.488  26.067  1.00  0.00     0.124 S 
ATOM     80  O   UNL A   1      42.835  19.592  24.893  1.00  0.00    -0.237 OA
ATOM     81  O   UNL A   1      42.468  18.635  27.144  1.00  0.00    -0.237 OA
ATOM     82  O   UNL A   1      40.544  19.358  25.786  1.00  0.00    -0.744 OA
ENDBRANCH  78  79
ENDBRANCH  50  73
BRANCH  62  83
ATOM     83  C   UNL A   1      47.894  26.931  30.781  1.00  0.00    -0.014 A 
ATOM     84  C   UNL A   1      48.933  27.100  29.850  1.00  0.00     0.010 A 
ATOM     85  C   UNL A   1      48.186  26.381  32.043  1.00  0.00     0.010 A 
ATOM     86  C   UNL A   1      50.235  26.702  30.164  1.00  0.00     0.020 A 
ATOM     87  C   UNL A   1      49.492  26.005  32.371  1.00  0.00     0.020 A 
ATOM     88  C   UNL A   1      50.507  26.156  31.423  1.00  0.00     0.054 A 
BRANCH  88  89
ATOM     89  S   UNL A   1      52.212  25.688  31.825  1.00  0.00     0.124 S 
ATOM     90  O   UNL A   1      52.067  24.275  32.167  1.00  0.00    -0.237 OA
ATOM     91  O   UNL A   1      52.923  25.964  30.580  1.00  0.00    -0.237 OA
ATOM     92  O   UNL A   1      52.559  26.567  32.940  1.00  0.00    -0.744 OA
ENDBRANCH  88  89
ENDBRANCH  62  83
ENDBRANCH  36  37
ENDBRANCH  28  31
ENDBRANCH  26  27
ENDBRANCH  25  26
ENDBRANCH   1  25
TORSDOF 17
ENDMDL
MODEL 2
REMARK VINA RESULT:     -11.1      2.685      3.547
REMARK SMILES O=C(NCCCCCCNC(=O)c1ccc(-c2c3nc(c(-c4ccc(S(=O)(=O)[O-])cc4)c4ccc([nH]4)c(-c4ccc(S(=O)(=O)[O-])cc4)c4nc(c(-c5ccc(S(=O)(=O)[O-])cc5)c5ccc2[nH]5)C=C4)C=C3)cc1)C1=Cc2ccc(Cl)c(Cl)c2O[C@@H]1C(F)(F)F
REMARK SMILES IDX 7 1 6 2 5 3 4 4 3 5 1 6 2 7 73 9 74 10 84 11 75 12 83 13
REMARK SMILES IDX 76 14 82 15 77 16 80 17 78 18 81 19 79 20 85 21 86 22 87 23
REMARK SMILES IDX 88 24 8 25 9 26 10 27 11 28 12 30 13 31 14 32 72 33 15 34
REMARK SMILES IDX 71 35 16 36 17 37 18 38 65 39 19 40 70 41 64 42 66 43 20 44
REMARK SMILES IDX 69 45 63 46 62 47 21 49 51 50 32 51 50 52 33 53 36 54 49 55
REMARK SMILES IDX 67 56 34 57 35 58 48 60 68 61 37 62 22 63 23 64 31 65 24 66
REMARK SMILES IDX 30 67 25 68 26 69 27 70 28 71 29 72 52 73 53 74 61 75 54 76
REMARK SMILES IDX 60 77 55 78 56 79 57 80 58 81 59 82 38 83 39 84 47 85 40 86
REMARK SMILES IDX 46 87 41 88 42 89 43 90 44 91 45 92
REMARK H PARENT 3 8 10 29 66 48 36 59
REMARK Flexibility Score: inf
ROOT
ATOM      1  C   UNL A   1      31.985  27.024  24.905  1.00  0.00     0.002 C 
ENDROOT
BRANCH   1   2
ATOM      2  C   UNL A   1      31.574  26.309  26.198  1.00  0.00     0.002 C 
BRANCH   2   3
ATOM      3  C   UNL A   1      30.400  25.336  26.108  1.00  0.00     0.021 C 
BRANCH   3   4
ATOM      4  C   UNL A   1      30.742  23.875  25.821  1.00  0.00     0.116 C 
BRANCH   4   5
ATOM      5  N   UNL A   1      31.572  23.226  26.829  1.00  0.00    -0.352 N 
ATOM      6  O   UNL A   1      33.460  22.550  27.855  1.00  0.00    -0.270 OA
ATOM      7  C   UNL A   1      32.920  22.965  26.831  1.00  0.00     0.251 C 
ATOM      8  H   UNL A   1      31.090  22.928  27.635  1.00  0.00     0.163 HD
BRANCH   7   9
ATOM      9  C   UNL A   1      33.778  23.309  25.657  1.00  0.00     0.067 C 
ATOM     10  C   UNL A   1      34.830  24.128  25.785  1.00  0.00     0.025 C 
ATOM     11  C   UNL A   1      33.833  22.223  24.618  1.00  0.00     0.314 C 
ATOM     12  C   UNL A   1      36.135  23.506  25.555  1.00  0.00     0.019 A 
ATOM     13  O   UNL A   1      35.086  21.502  24.647  1.00  0.00    -0.474 OA
ATOM     14  C   UNL A   1      37.268  24.125  26.091  1.00  0.00     0.013 A 
ATOM     15  C   UNL A   1      36.196  22.171  25.117  1.00  0.00     0.148 A 
ATOM     16  C   UNL A   1      38.442  23.391  26.260  1.00  0.00     0.023 A 
ATOM     17  C   UNL A   1      37.382  21.438  25.276  1.00  0.00     0.102 A 
ATOM     18  C   UNL A   1      38.493  22.046  25.876  1.00  0.00     0.063 A 
ATOM     19  Cl  UNL A   1      37.404  19.762  24.832  1.00  0.00    -0.079 Cl
ATOM     20  Cl  UNL A   1      39.936  21.173  26.252  1.00  0.00    -0.083 Cl
BRANCH  11  21
ATOM     21  C   UNL A   1      33.545  22.807  23.219  1.00  0.00     0.429 C 
ATOM     22  F   UNL A   1      34.689  23.060  22.541  1.00  0.00    -0.167 F 
ATOM     23  F   UNL A   1      32.821  21.950  22.457  1.00  0.00    -0.167 F 
ATOM     24  F   UNL A   1      32.846  23.967  23.275  1.00  0.00    -0.167 F 
ENDBRANCH  11  21
ENDBRANCH   7   9
ENDBRANCH   4   5
ENDBRANCH   3   4
ENDBRANCH   2   3
ENDBRANCH   1   2
BRANCH   1  25
ATOM     25  C   UNL A   1      33.405  27.600  24.839  1.00  0.00     0.021 C 
BRANCH  25  26
ATOM     26  C   UNL A   1      34.007  28.095  26.152  1.00  0.00     0.116 C 
BRANCH  26  27
ATOM     27  N   UNL A   1      33.630  29.457  26.478  1.00  0.00    -0.352 N 
ATOM     28  C   UNL A   1      34.231  30.372  27.310  1.00  0.00     0.251 C 
ATOM     29  H   UNL A   1      32.813  29.779  26.032  1.00  0.00     0.163 HD
ATOM     30  O   UNL A   1      33.669  31.439  27.531  1.00  0.00    -0.269 OA
BRANCH  28  31
ATOM     31  C   UNL A   1      35.534  30.080  27.960  1.00  0.00     0.039 A 
ATOM     32  C   UNL A   1      35.526  29.560  29.258  1.00  0.00     0.014 A 
ATOM     33  C   UNL A   1      36.752  30.358  27.334  1.00  0.00     0.014 A 
ATOM     34  C   UNL A   1      36.731  29.273  29.907  1.00  0.00     0.010 A 
ATOM     35  C   UNL A   1      37.953  30.016  27.959  1.00  0.00     0.010 A 
ATOM     36  C   UNL A   1      37.957  29.474  29.254  1.00  0.00    -0.014 A 
BRANCH  36  37
ATOM     37  C   UNL A   1      39.244  29.128  29.914  1.00  0.00     0.031 A 
ATOM     38  C   UNL A   1      39.728  29.914  31.103  1.00  0.00     0.074 A 
ATOM     39  C   UNL A   1      40.004  28.134  29.414  1.00  0.00     0.049 A 
ATOM     40  N   UNL A   1      40.844  29.789  31.777  1.00  0.00    -0.248 NA
ATOM     41  C   UNL A   1      38.855  30.996  31.584  1.00  0.00     0.031 C 
ATOM     42  C   UNL A   1      39.669  27.318  28.245  1.00  0.00     0.029 A 
ATOM     43  N   UNL A   1      41.221  27.646  29.821  1.00  0.00    -0.354 N 
ATOM     44  C   UNL A   1      40.812  30.779  32.752  1.00  0.00     0.074 A 
ATOM     45  C   UNL A   1      39.590  31.528  32.550  1.00  0.00     0.031 C 
ATOM     46  C   UNL A   1      40.648  26.422  28.040  1.00  0.00     0.029 A 
ATOM     47  C   UNL A   1      41.695  26.620  29.036  1.00  0.00     0.049 A 
ATOM     48  H   UNL A   1      41.710  27.997  30.601  1.00  0.00     0.167 HD
ATOM     49  C   UNL A   1      41.706  31.033  33.739  1.00  0.00     0.031 A 
ATOM     50  C   UNL A   1      42.846  25.922  29.104  1.00  0.00     0.031 A 
ATOM     51  C   UNL A   1      42.922  30.287  33.940  1.00  0.00     0.049 A 
ATOM     52  C   UNL A   1      43.828  26.222  30.201  1.00  0.00     0.074 A 
ATOM     53  C   UNL A   1      43.873  30.443  34.934  1.00  0.00     0.029 A 
ATOM     54  N   UNL A   1      43.356  29.246  33.134  1.00  0.00    -0.354 N 
ATOM     55  N   UNL A   1      43.754  27.129  31.146  1.00  0.00    -0.248 NA
ATOM     56  C   UNL A   1      45.042  25.396  30.250  1.00  0.00     0.031 C 
ATOM     57  C   UNL A   1      44.904  29.526  34.701  1.00  0.00     0.029 A 
ATOM     58  C   UNL A   1      44.569  28.762  33.595  1.00  0.00     0.049 A 
ATOM     59  H   UNL A   1      42.872  28.900  32.349  1.00  0.00     0.167 HD
ATOM     60  C   UNL A   1      44.902  26.970  31.914  1.00  0.00     0.074 A 
ATOM     61  C   UNL A   1      45.644  25.870  31.334  1.00  0.00     0.031 C 
ATOM     62  C   UNL A   1      45.302  27.671  33.003  1.00  0.00     0.031 A 
BRANCH  49  63
ATOM     63  C   UNL A   1      41.400  32.176  34.671  1.00  0.00    -0.014 A 
ATOM     64  C   UNL A   1      41.858  33.478  34.395  1.00  0.00     0.010 A 
ATOM     65  C   UNL A   1      40.633  31.953  35.828  1.00  0.00     0.010 A 
ATOM     66  C   UNL A   1      41.605  34.523  35.287  1.00  0.00     0.020 A 
ATOM     67  C   UNL A   1      40.352  33.002  36.709  1.00  0.00     0.020 A 
ATOM     68  C   UNL A   1      40.860  34.275  36.444  1.00  0.00     0.054 A 
BRANCH  68  69
ATOM     69  S   UNL A   1      40.551  35.648  37.590  1.00  0.00     0.124 S 
ATOM     70  O   UNL A   1      41.910  36.060  37.936  1.00  0.00    -0.237 OA
ATOM     71  O   UNL A   1      39.799  36.592  36.768  1.00  0.00    -0.237 OA
ATOM     72  O   UNL A   1      39.792  35.029  38.675  1.00  0.00    -0.744 OA
ENDBRANCH  68  69
ENDBRANCH  49  63
BRANCH  50  73
ATOM     73  C   UNL A   1      43.118  24.858  28.099  1.00  0.00    -0.014 A 
ATOM     74  C   UNL A   1      43.853  25.143  26.936  1.00  0.00     0.010 A 
ATOM     75  C   UNL A   1      42.671  23.542  28.322  1.00  0.00     0.010 A 
ATOM     76  C   UNL A   1      44.131  24.133  26.009  1.00  0.00     0.020 A 
ATOM     77  C   UNL A   1      42.969  22.526  27.411  1.00  0.00     0.020 A 
ATOM     78  C   UNL A   1      43.691  22.830  26.255  1.00  0.00     0.054 A 
BRANCH  78  79
ATOM     79  S   UNL A   1      44.124  21.522  25.075  1.00  0.00     0.124 S 
ATOM     80  O   UNL A   1      44.029  22.222  23.797  1.00  0.00    -0.237 OA
ATOM     81  O   UNL A   1      45.473  21.150  25.494  1.00  0.00    -0.237 OA
ATOM     82  O   UNL A   1      43.104  20.500  25.307  1.00  0.00    -0.744 OA
ENDBRANCH  78  79
ENDBRANCH  50  73
BRANCH  62  83
ATOM     83  C   UNL A   1      46.594  27.257  33.658  1.00  0.00    -0.014 A 
ATOM     84  C   UNL A   1      46.611  26.325  34.710  1.00  0.00     0.010 A 
ATOM     85  C   UNL A   1      47.813  27.767  33.175  1.00  0.00     0.010 A 
ATOM     86  C   UNL A   1      47.822  25.933  35.288  1.00  0.00     0.020 A 
ATOM     87  C   UNL A   1      49.027  27.358  33.732  1.00  0.00     0.020 A 
ATOM     88  C   UNL A   1      49.023  26.452  34.795  1.00  0.00     0.054 A 
BRANCH  88  89
ATOM     89  S   UNL A   1      50.584  25.894  35.530  1.00  0.00     0.124 S 
ATOM     90  O   UNL A   1      51.544  26.833  34.954  1.00  0.00    -0.237 OA
ATOM     91  O   UNL A   1      50.339  26.046  36.961  1.00  0.00    -0.237 OA
ATOM     92  O   UNL A   1      50.710  24.514  35.069  1.00  0.00    -0.744 OA
ENDBRANCH  88  89
ENDBRANCH  62  83
ENDBRANCH  36  37
ENDBRANCH  28  31
ENDBRANCH  26  27
ENDBRANCH  25  26
ENDBRANCH   1  25
TORSDOF 17
ENDMDL
MODEL 3
REMARK VINA RESULT:     -10.8      2.717      3.404
REMARK SMILES O=C(NCCCCCCNC(=O)c1ccc(-c2c3nc(c(-c4ccc(S(=O)(=O)[O-])cc4)c4ccc([nH]4)c(-c4ccc(S(=O)(=O)[O-])cc4)c4nc(c(-c5ccc(S(=O)(=O)[O-])cc5)c5ccc2[nH]5)C=C4)C=C3)cc1)C1=Cc2ccc(Cl)c(Cl)c2O[C@@H]1C(F)(F)F
REMARK SMILES IDX 7 1 6 2 5 3 4 4 3 5 1 6 2 7 73 9 74 10 84 11 75 12 83 13
REMARK SMILES IDX 76 14 82 15 77 16 80 17 78 18 81 19 79 20 85 21 86 22 87 23
REMARK SMILES IDX 88 24 8 25 9 26 10 27 11 28 12 30 13 31 14 32 72 33 15 34
REMARK SMILES IDX 71 35 16 36 17 37 18 38 65 39 19 40 70 41 64 42 66 43 20 44
REMARK SMILES IDX 69 45 63 46 62 47 21 49 51 50 32 51 50 52 33 53 36 54 49 55
REMARK SMILES IDX 67 56 34 57 35 58 48 60 68 61 37 62 22 63 23 64 31 65 24 66
REMARK SMILES IDX 30 67 25 68 26 69 27 70 28 71 29 72 52 73 53 74 61 75 54 76
REMARK SMILES IDX 60 77 55 78 56 79 57 80 58 81 59 82 38 83 39 84 47 85 40 86
REMARK SMILES IDX 46 87 41 88 42 89 43 90 44 91 45 92
REMARK H PARENT 3 8 10 29 66 48 36 59
REMARK Flexibility Score: inf
ROOT
ATOM      1  C   UNL A   1      31.961  28.878  24.505  1.00  0.00     0.002 C 
ENDROOT
BRANCH   1   2
ATOM      2  C   UNL A   1      30.957  27.787  24.110  1.00  0.00     0.002 C 
BRANCH   2   3
ATOM      3  C   UNL A   1      31.172  27.105  22.760  1.00  0.00     0.021 C 
BRANCH   3   4
ATOM      4  C   UNL A   1      31.164  25.577  22.757  1.00  0.00     0.116 C 
BRANCH   4   5
ATOM      5  N   UNL A   1      32.268  24.956  22.035  1.00  0.00    -0.352 N 
ATOM      6  O   UNL A   1      33.945  23.504  21.638  1.00  0.00    -0.270 OA
ATOM      7  C   UNL A   1      33.187  24.024  22.455  1.00  0.00     0.251 C 
ATOM      8  H   UNL A   1      32.372  25.249  21.101  1.00  0.00     0.163 HD
BRANCH   7   9
ATOM      9  C   UNL A   1      33.192  23.520  23.861  1.00  0.00     0.067 C 
ATOM     10  C   UNL A   1      33.435  22.231  24.134  1.00  0.00     0.025 C 
ATOM     11  C   UNL A   1      33.606  24.559  24.867  1.00  0.00     0.314 C 
ATOM     12  C   UNL A   1      34.673  21.974  24.871  1.00  0.00     0.019 A 
ATOM     13  O   UNL A   1      34.953  24.347  25.349  1.00  0.00    -0.474 OA
ATOM     14  C   UNL A   1      35.229  20.693  24.806  1.00  0.00     0.013 A 
ATOM     15  C   UNL A   1      35.440  23.058  25.333  1.00  0.00     0.148 A 
ATOM     16  C   UNL A   1      36.573  20.506  25.128  1.00  0.00     0.023 A 
ATOM     17  C   UNL A   1      36.789  22.865  25.670  1.00  0.00     0.102 A 
ATOM     18  C   UNL A   1      37.357  21.591  25.537  1.00  0.00     0.063 A 
ATOM     19  Cl  UNL A   1      37.747  24.235  26.131  1.00  0.00    -0.079 Cl
ATOM     20  Cl  UNL A   1      39.043  21.300  25.777  1.00  0.00    -0.083 Cl
BRANCH  11  21
ATOM     21  C   UNL A   1      32.589  24.615  26.026  1.00  0.00     0.429 C 
ATOM     22  F   UNL A   1      32.966  23.823  27.057  1.00  0.00    -0.167 F 
ATOM     23  F   UNL A   1      32.465  25.871  26.524  1.00  0.00    -0.167 F 
ATOM     24  F   UNL A   1      31.349  24.220  25.648  1.00  0.00    -0.167 F 
ENDBRANCH  11  21
ENDBRANCH   7   9
ENDBRANCH   4   5
ENDBRANCH   3   4
ENDBRANCH   2   3
ENDBRANCH   1   2
BRANCH   1  25
ATOM     25  C   UNL A   1      33.421  28.454  24.700  1.00  0.00     0.021 C 
BRANCH  25  26
ATOM     26  C   UNL A   1      34.090  28.875  26.007  1.00  0.00     0.116 C 
BRANCH  26  27
ATOM     27  N   UNL A   1      33.661  30.179  26.476  1.00  0.00    -0.352 N 
ATOM     28  C   UNL A   1      34.187  30.989  27.455  1.00  0.00     0.251 C 
ATOM     29  H   UNL A   1      32.867  30.542  26.022  1.00  0.00     0.163 HD
ATOM     30  O   UNL A   1      33.587  32.011  27.771  1.00  0.00    -0.269 OA
BRANCH  28  31
ATOM     31  C   UNL A   1      35.452  30.637  28.147  1.00  0.00     0.039 A 
ATOM     32  C   UNL A   1      35.408  29.670  29.158  1.00  0.00     0.014 A 
ATOM     33  C   UNL A   1      36.659  31.276  27.854  1.00  0.00     0.014 A 
ATOM     34  C   UNL A   1      36.577  29.311  29.837  1.00  0.00     0.010 A 
ATOM     35  C   UNL A   1      37.836  30.874  28.490  1.00  0.00     0.010 A 
ATOM     36  C   UNL A   1      37.808  29.891  29.491  1.00  0.00    -0.014 A 
BRANCH  36  37
ATOM     37  C   UNL A   1      39.066  29.483  30.172  1.00  0.00     0.031 A 
ATOM     38  C   UNL A   1      39.537  30.206  31.405  1.00  0.00     0.074 A 
ATOM     39  C   UNL A   1      39.813  28.489  29.652  1.00  0.00     0.049 A 
ATOM     40  N   UNL A   1      40.629  30.022  32.103  1.00  0.00    -0.248 NA
ATOM     41  C   UNL A   1      38.679  31.291  31.906  1.00  0.00     0.031 C 
ATOM     42  C   UNL A   1      39.490  27.732  28.441  1.00  0.00     0.029 A 
ATOM     43  N   UNL A   1      41.005  27.952  30.071  1.00  0.00    -0.354 N 
ATOM     44  C   UNL A   1      40.596  30.972  33.117  1.00  0.00     0.074 A 
ATOM     45  C   UNL A   1      39.400  31.763  32.913  1.00  0.00     0.031 C 
ATOM     46  C   UNL A   1      40.450  26.818  28.225  1.00  0.00     0.029 A 
ATOM     47  C   UNL A   1      41.474  26.947  29.258  1.00  0.00     0.049 A 
ATOM     48  H   UNL A   1      41.481  28.258  30.878  1.00  0.00     0.167 HD
ATOM     49  C   UNL A   1      41.468  31.161  34.138  1.00  0.00     0.031 A 
ATOM     50  C   UNL A   1      42.603  26.214  29.327  1.00  0.00     0.031 A 
ATOM     51  C   UNL A   1      42.657  30.375  34.341  1.00  0.00     0.049 A 
ATOM     52  C   UNL A   1      43.561  26.443  30.463  1.00  0.00     0.074 A 
ATOM     53  C   UNL A   1      43.584  30.464  35.366  1.00  0.00     0.029 A 
ATOM     54  N   UNL A   1      43.086  29.356  33.504  1.00  0.00    -0.354 N 
ATOM     55  N   UNL A   1      43.484  27.311  31.442  1.00  0.00    -0.248 NA
ATOM     56  C   UNL A   1      44.752  25.582  30.510  1.00  0.00     0.031 C 
ATOM     57  C   UNL A   1      44.596  29.529  35.124  1.00  0.00     0.029 A 
ATOM     58  C   UNL A   1      44.273  28.820  33.978  1.00  0.00     0.049 A 
ATOM     59  H   UNL A   1      42.616  29.056  32.693  1.00  0.00     0.167 HD
ATOM     60  C   UNL A   1      44.605  27.089  32.234  1.00  0.00     0.074 A 
ATOM     61  C   UNL A   1      45.335  25.994  31.629  1.00  0.00     0.031 C 
ATOM     62  C   UNL A   1      44.993  27.734  33.362  1.00  0.00     0.031 A 
BRANCH  49  63
ATOM     63  C   UNL A   1      41.166  32.273  35.108  1.00  0.00    -0.014 A 
ATOM     64  C   UNL A   1      40.424  32.032  36.280  1.00  0.00     0.010 A 
ATOM     65  C   UNL A   1      41.641  33.573  34.857  1.00  0.00     0.010 A 
ATOM     66  C   UNL A   1      40.113  33.079  37.151  1.00  0.00     0.020 A 
ATOM     67  C   UNL A   1      41.357  34.619  35.741  1.00  0.00     0.020 A 
ATOM     68  C   UNL A   1      40.575  34.368  36.870  1.00  0.00     0.054 A 
BRANCH  68  69
ATOM     69  S   UNL A   1      40.152  35.712  38.014  1.00  0.00     0.124 S 
ATOM     70  O   UNL A   1      39.946  36.831  37.097  1.00  0.00    -0.237 OA
ATOM     71  O   UNL A   1      38.948  35.209  38.671  1.00  0.00    -0.237 OA
ATOM     72  O   UNL A   1      41.328  35.819  38.874  1.00  0.00    -0.744 OA
ENDBRANCH  68  69
ENDBRANCH  49  63
BRANCH  50  73
ATOM     73  C   UNL A   1      42.876  25.185  28.287  1.00  0.00    -0.014 A 
ATOM     74  C   UNL A   1      43.629  25.504  27.144  1.00  0.00     0.010 A 
ATOM     75  C   UNL A   1      42.411  23.867  28.455  1.00  0.00     0.010 A 
ATOM     76  C   UNL A   1      43.907  24.527  26.184  1.00  0.00     0.020 A 
ATOM     77  C   UNL A   1      42.708  22.882  27.511  1.00  0.00     0.020 A 
ATOM     78  C   UNL A   1      43.448  23.220  26.376  1.00  0.00     0.054 A 
BRANCH  78  79
ATOM     79  S   UNL A   1      43.881  21.951  25.153  1.00  0.00     0.124 S 
ATOM     80  O   UNL A   1      43.732  22.679  23.896  1.00  0.00    -0.237 OA
ATOM     81  O   UNL A   1      45.250  21.606  25.526  1.00  0.00    -0.237 OA
ATOM     82  O   UNL A   1      42.894  20.899  25.389  1.00  0.00    -0.744 OA
ENDBRANCH  78  79
ENDBRANCH  50  73
BRANCH  62  83
ATOM     83  C   UNL A   1      46.254  27.258  34.034  1.00  0.00    -0.014 A 
ATOM     84  C   UNL A   1      47.516  27.737  33.637  1.00  0.00     0.010 A 
ATOM     85  C   UNL A   1      46.170  26.359  35.113  1.00  0.00     0.010 A 
ATOM     86  C   UNL A   1      48.673  27.303  34.290  1.00  0.00     0.020 A 
ATOM     87  C   UNL A   1      47.323  25.943  35.785  1.00  0.00     0.020 A 
ATOM     88  C   UNL A   1      48.569  26.408  35.360  1.00  0.00     0.054 A 
BRANCH  88  89
ATOM     89  S   UNL A   1      50.081  25.895  36.221  1.00  0.00     0.124 S 
ATOM     90  O   UNL A   1      49.549  25.344  37.465  1.00  0.00    -0.237 OA
ATOM     91  O   UNL A   1      50.661  24.921  35.300  1.00  0.00    -0.237 OA
ATOM     92  O   UNL A   1      50.838  27.136  36.362  1.00  0.00    -0.744 OA
ENDBRANCH  88  89
ENDBRANCH  62  83
ENDBRANCH  36  37
ENDBRANCH  28  31
ENDBRANCH  26  27
ENDBRANCH  25  26
ENDBRANCH   1  25
TORSDOF 17
ENDMDL
