MODEL 1
REMARK VINA RESULT:     -11.0      0.000      0.000
REMARK SMILES CC1=C(C)C[C@@H](C(=O)NCCCCCCNC(=O)c2ccc(-c3c4nc(c(-c5ccc(S(=O)(=O)[O-])cc5)c5ccc([nH]5)c(-c5ccc(S(=O)(=O)[O-])cc5)c5nc(c(-c6ccc(S(=O)(=O)[O-])cc6)c6ccc3[nH]6)C=C5)C=C4)cc2)[C@@H](C(=O)NCC[NH+]2CCOCC2)C1
REMARK SMILES IDX 12 1 11 2 10 3 9 4 7 5 8 6 6 8 1 9 2 10 3 11 91 12 4 13 5 14
REMARK SMILES IDX 79 15 80 16 81 17 82 18 83 20 84 21 85 22 86 23 90 24 87 26
REMARK SMILES IDX 89 27 88 28 13 29 14 30 15 31 16 32 17 33 18 35 19 36 20 37
REMARK SMILES IDX 78 38 21 39 77 40 22 41 23 42 24 43 71 44 25 45 76 46 70 47
REMARK SMILES IDX 72 48 26 49 75 50 69 51 68 52 27 54 57 55 38 56 56 57 39 58
REMARK SMILES IDX 42 59 55 60 73 61 40 62 41 63 54 65 74 66 43 67 28 68 29 69
REMARK SMILES IDX 37 70 30 71 36 72 31 73 32 74 33 75 34 76 35 77 58 78 59 79
REMARK SMILES IDX 67 80 60 81 66 82 61 83 62 84 63 85 64 86 65 87 44 88 45 89
REMARK SMILES IDX 53 90 46 91 52 92 47 93 48 94 49 95 50 96 51 97
REMARK H PARENT 9 7 82 19 85 25 16 34 72 53 42 64
REMARK Flexibility Score: inf
ROOT
ATOM      1  C   UNL A   1      31.592  27.503  24.231  1.00  0.00     0.002 C 
ENDROOT
BRANCH   1   2
ATOM      2  C   UNL A   1      30.505  26.547  23.746  1.00  0.00     0.021 C 
BRANCH   2   3
ATOM      3  C   UNL A   1      30.499  25.198  24.465  1.00  0.00     0.116 C 
BRANCH   3   4
ATOM      4  N   UNL A   1      31.124  24.118  23.738  1.00  0.00    -0.356 N 
ATOM      5  C   UNL A   1      32.359  23.560  23.831  1.00  0.00     0.224 C 
ATOM      6  O   UNL A   1      32.605  22.611  23.072  1.00  0.00    -0.275 OA
ATOM      7  H   UNL A   1      30.549  23.711  23.049  1.00  0.00     0.163 HD
BRANCH   5   8
ATOM      8  C   UNL A   1      33.437  24.002  24.837  1.00  0.00     0.095 C 
ATOM      9  C   UNL A   1      36.836  21.221  25.357  1.00  0.00     0.039 C 
ATOM     10  C   UNL A   1      35.844  22.356  25.239  1.00  0.00    -0.074 C 
ATOM     11  C   UNL A   1      35.845  23.273  24.246  1.00  0.00    -0.074 C 
ATOM     12  C   UNL A   1      34.748  22.290  26.291  1.00  0.00     0.045 C 
ATOM     13  C   UNL A   1      36.819  23.324  23.092  1.00  0.00     0.039 C 
ATOM     14  C   UNL A   1      34.760  24.315  24.135  1.00  0.00     0.045 C 
ATOM     15  C   UNL A   1      33.564  23.278  26.194  1.00  0.00     0.095 C 
BRANCH  15  16
ATOM     16  C   UNL A   1      32.285  22.548  26.586  1.00  0.00     0.224 C 
ATOM     17  O   UNL A   1      31.395  23.049  27.269  1.00  0.00    -0.275 OA
ATOM     18  N   UNL A   1      31.960  21.335  26.106  1.00  0.00    -0.350 N 
ATOM     19  H   UNL A   1      31.010  21.253  25.865  1.00  0.00     0.163 HD
BRANCH  18  20
ATOM     20  C   UNL A   1      32.713  20.129  25.869  1.00  0.00     0.177 C 
BRANCH  20  21
ATOM     21  C   UNL A   1      32.359  19.525  24.483  1.00  0.00     0.283 C 
BRANCH  21  22
ATOM     22  N   UNL A   1      32.330  18.075  24.281  1.00  0.00    -0.330 N 
ATOM     23  C   UNL A   1      32.410  17.104  25.370  1.00  0.00     0.291 C 
ATOM     24  C   UNL A   1      32.823  17.550  23.007  1.00  0.00     0.291 C 
ATOM     25  H   UNL A   1      31.314  18.153  24.250  1.00  0.00     0.348 HD
ATOM     26  C   UNL A   1      33.677  16.202  25.375  1.00  0.00     0.221 C 
ATOM     27  C   UNL A   1      34.177  16.854  23.155  1.00  0.00     0.221 C 
ATOM     28  O   UNL A   1      34.062  15.756  24.069  1.00  0.00    -0.370 OA
ENDBRANCH  21  22
ENDBRANCH  20  21
ENDBRANCH  18  20
ENDBRANCH  15  16
ENDBRANCH   5   8
ENDBRANCH   3   4
ENDBRANCH   2   3
ENDBRANCH   1   2
BRANCH   1  29
ATOM     29  C   UNL A   1      31.591  27.717  25.747  1.00  0.00     0.002 C 
BRANCH  29  30
ATOM     30  C   UNL A   1      32.760  27.051  26.482  1.00  0.00     0.021 C 
BRANCH  30  31
ATOM     31  C   UNL A   1      34.009  27.919  26.581  1.00  0.00     0.116 C 
BRANCH  31  32
ATOM     32  N   UNL A   1      33.664  29.311  26.822  1.00  0.00    -0.352 N 
ATOM     33  C   UNL A   1      34.322  30.231  27.593  1.00  0.00     0.251 C 
ATOM     34  H   UNL A   1      32.849  29.635  26.373  1.00  0.00     0.163 HD
ATOM     35  O   UNL A   1      33.765  31.277  27.927  1.00  0.00    -0.269 OA
BRANCH  33  36
ATOM     36  C   UNL A   1      35.705  29.953  28.025  1.00  0.00     0.039 A 
ATOM     37  C   UNL A   1      35.944  29.539  29.337  1.00  0.00     0.014 A 
ATOM     38  C   UNL A   1      36.766  30.103  27.125  1.00  0.00     0.014 A 
ATOM     39  C   UNL A   1      37.246  29.229  29.735  1.00  0.00     0.010 A 
ATOM     40  C   UNL A   1      38.050  29.726  27.503  1.00  0.00     0.010 A 
ATOM     41  C   UNL A   1      38.305  29.294  28.814  1.00  0.00    -0.014 A 
BRANCH  41  42
ATOM     42  C   UNL A   1      39.689  28.919  29.199  1.00  0.00     0.031 A 
ATOM     43  C   UNL A   1      40.591  29.938  29.843  1.00  0.00     0.074 A 
ATOM     44  C   UNL A   1      40.155  27.690  28.901  1.00  0.00     0.049 A 
ATOM     45  N   UNL A   1      41.853  29.830  30.168  1.00  0.00    -0.248 NA
ATOM     46  C   UNL A   1      40.007  31.259  30.134  1.00  0.00     0.031 C 
ATOM     47  C   UNL A   1      39.389  26.629  28.241  1.00  0.00     0.029 A 
ATOM     48  N   UNL A   1      41.393  27.129  29.097  1.00  0.00    -0.354 N 
ATOM     49  C   UNL A   1      42.220  31.072  30.676  1.00  0.00     0.074 A 
ATOM     50  C   UNL A   1      41.060  31.930  30.581  1.00  0.00     0.031 C 
ATOM     51  C   UNL A   1      40.168  25.545  28.100  1.00  0.00     0.029 A 
ATOM     52  C   UNL A   1      41.500  25.845  28.614  1.00  0.00     0.049 A 
ATOM     53  H   UNL A   1      42.133  27.601  29.543  1.00  0.00     0.167 HD
ATOM     54  C   UNL A   1      43.414  31.457  31.186  1.00  0.00     0.031 A 
ATOM     55  C   UNL A   1      42.557  25.010  28.570  1.00  0.00     0.031 A 
ATOM     56  C   UNL A   1      44.557  30.590  31.297  1.00  0.00     0.049 A 
ATOM     57  C   UNL A   1      43.872  25.464  29.145  1.00  0.00     0.074 A 
ATOM     58  C   UNL A   1      45.786  30.864  31.869  1.00  0.00     0.029 A 
ATOM     59  N   UNL A   1      44.614  29.288  30.825  1.00  0.00    -0.354 N 
ATOM     60  N   UNL A   1      44.177  26.615  29.695  1.00  0.00    -0.248 NA
ATOM     61  C   UNL A   1      44.984  24.503  29.107  1.00  0.00     0.031 C 
ATOM     62  C   UNL A   1      46.610  29.751  31.684  1.00  0.00     0.029 A 
ATOM     63  C   UNL A   1      45.870  28.757  31.065  1.00  0.00     0.049 A 
ATOM     64  H   UNL A   1      43.873  28.813  30.385  1.00  0.00     0.167 HD
ATOM     65  C   UNL A   1      45.503  26.504  30.098  1.00  0.00     0.074 A 
ATOM     66  C   UNL A   1      45.939  25.171  29.739  1.00  0.00     0.031 C 
ATOM     67  C   UNL A   1      46.287  27.423  30.713  1.00  0.00     0.031 A 
BRANCH  54  68
ATOM     68  C   UNL A   1      43.558  32.881  31.653  1.00  0.00    -0.014 A 
ATOM     69  C   UNL A   1      43.223  33.260  32.965  1.00  0.00     0.010 A 
ATOM     70  C   UNL A   1      44.114  33.841  30.786  1.00  0.00     0.010 A 
ATOM     71  C   UNL A   1      43.417  34.576  33.393  1.00  0.00     0.020 A 
ATOM     72  C   UNL A   1      44.337  35.150  31.219  1.00  0.00     0.020 A 
ATOM     73  C   UNL A   1      43.976  35.512  32.518  1.00  0.00     0.054 A 
BRANCH  73  74
ATOM     74  S   UNL A   1      44.265  37.199  33.119  1.00  0.00     0.124 S 
ATOM     75  O   UNL A   1      45.605  37.090  33.689  1.00  0.00    -0.237 OA
ATOM     76  O   UNL A   1      44.165  37.994  31.898  1.00  0.00    -0.237 OA
ATOM     77  O   UNL A   1      43.192  37.411  34.088  1.00  0.00    -0.744 OA
ENDBRANCH  73  74
ENDBRANCH  54  68
BRANCH  55  78
ATOM     78  C   UNL A   1      42.419  23.664  27.946  1.00  0.00    -0.014 A 
ATOM     79  C   UNL A   1      41.931  22.572  28.686  1.00  0.00     0.010 A 
ATOM     80  C   UNL A   1      42.784  23.468  26.601  1.00  0.00     0.010 A 
ATOM     81  C   UNL A   1      41.841  21.305  28.101  1.00  0.00     0.020 A 
ATOM     82  C   UNL A   1      42.664  22.210  26.004  1.00  0.00     0.020 A 
ATOM     83  C   UNL A   1      42.209  21.132  26.764  1.00  0.00     0.054 A 
BRANCH  83  84
ATOM     84  S   UNL A   1      42.058  19.485  26.019  1.00  0.00     0.124 S 
ATOM     85  O   UNL A   1      42.609  18.628  27.062  1.00  0.00    -0.237 OA
ATOM     86  O   UNL A   1      40.618  19.370  25.797  1.00  0.00    -0.237 OA
ATOM     87  O   UNL A   1      42.861  19.587  24.802  1.00  0.00    -0.744 OA
ENDBRANCH  83  84
ENDBRANCH  55  78
BRANCH  67  88
ATOM     88  C   UNL A   1      47.685  27.012  31.093  1.00  0.00    -0.014 A 
ATOM     89  C   UNL A   1      47.971  26.458  32.352  1.00  0.00     0.010 A 
ATOM     90  C   UNL A   1      48.712  27.106  30.135  1.00  0.00     0.010 A 
ATOM     91  C   UNL A   1      49.264  26.022  32.652  1.00  0.00     0.020 A 
ATOM     92  C   UNL A   1      49.998  26.644  30.421  1.00  0.00     0.020 A 
ATOM     93  C   UNL A   1      50.269  26.113  31.683  1.00  0.00     0.054 A 
BRANCH  93  94
ATOM     94  S   UNL A   1      51.921  25.478  32.076  1.00  0.00     0.124 S 
ATOM     95  O   UNL A   1      52.715  25.986  30.962  1.00  0.00    -0.237 OA
ATOM     96  O   UNL A   1      52.197  26.088  33.374  1.00  0.00    -0.237 OA
ATOM     97  O   UNL A   1      51.739  24.028  32.101  1.00  0.00    -0.744 OA
ENDBRANCH  93  94
ENDBRANCH  67  88
ENDBRANCH  41  42
ENDBRANCH  33  36
ENDBRANCH  31  32
ENDBRANCH  30  31
ENDBRANCH  29  30
ENDBRANCH   1  29
TORSDOF 20
ENDMDL
MODEL 2
REMARK VINA RESULT:     -10.8      2.816      3.423
REMARK SMILES CC1=C(C)C[C@@H](C(=O)NCCCCCCNC(=O)c2ccc(-c3c4nc(c(-c5ccc(S(=O)(=O)[O-])cc5)c5ccc([nH]5)c(-c5ccc(S(=O)(=O)[O-])cc5)c5nc(c(-c6ccc(S(=O)(=O)[O-])cc6)c6ccc3[nH]6)C=C5)C=C4)cc2)[C@@H](C(=O)NCC[NH+]2CCOCC2)C1
REMARK SMILES IDX 12 1 11 2 10 3 9 4 7 5 8 6 6 8 1 9 2 10 3 11 91 12 4 13 5 14
REMARK SMILES IDX 79 15 80 16 81 17 82 18 83 20 84 21 85 22 86 23 90 24 87 26
REMARK SMILES IDX 89 27 88 28 13 29 14 30 15 31 16 32 17 33 18 35 19 36 20 37
REMARK SMILES IDX 78 38 21 39 77 40 22 41 23 42 24 43 71 44 25 45 76 46 70 47
REMARK SMILES IDX 72 48 26 49 75 50 69 51 68 52 27 54 57 55 38 56 56 57 39 58
REMARK SMILES IDX 42 59 55 60 73 61 40 62 41 63 54 65 74 66 43 67 28 68 29 69
REMARK SMILES IDX 37 70 30 71 36 72 31 73 32 74 33 75 34 76 35 77 58 78 59 79
REMARK SMILES IDX 67 80 60 81 66 82 61 83 62 84 63 85 64 86 65 87 44 88 45 89
REMARK SMILES IDX 53 90 46 91 52 92 47 93 48 94 49 95 50 96 51 97
REMARK H PARENT 9 7 82 19 85 25 16 34 72 53 42 64
REMARK Flexibility Score: inf
ROOT
ATOM      1  C   UNL A   1      33.114  27.827  24.906  1.00  0.00     0.002 C 
ENDROOT
BRANCH   1   2
ATOM      2  C   UNL A   1      31.726  27.224  25.115  1.00  0.00     0.021 C 
BRANCH   2   3
ATOM      3  C   UNL A   1      31.734  25.897  25.874  1.00  0.00     0.116 C 
BRANCH   3   4
ATOM      4  N   UNL A   1      31.878  24.723  25.046  1.00  0.00    -0.356 N 
ATOM      5  C   UNL A   1      32.893  23.830  24.908  1.00  0.00     0.224 C 
ATOM      6  O   UNL A   1      32.712  22.892  24.119  1.00  0.00    -0.275 OA
ATOM      7  H   UNL A   1      31.096  24.533  24.477  1.00  0.00     0.163 HD
BRANCH   5   8
ATOM      8  C   UNL A   1      34.215  23.894  25.695  1.00  0.00     0.095 C 
ATOM      9  C   UNL A   1      37.155  20.723  24.765  1.00  0.00     0.039 C 
ATOM     10  C   UNL A   1      36.356  21.952  25.138  1.00  0.00    -0.074 C 
ATOM     11  C   UNL A   1      36.296  23.080  24.396  1.00  0.00    -0.074 C 
ATOM     12  C   UNL A   1      35.509  21.745  26.384  1.00  0.00     0.045 C 
ATOM     13  C   UNL A   1      37.001  23.309  23.079  1.00  0.00     0.039 C 
ATOM     14  C   UNL A   1      35.393  24.226  24.778  1.00  0.00     0.045 C 
ATOM     15  C   UNL A   1      34.506  22.848  26.792  1.00  0.00     0.095 C 
BRANCH  15  16
ATOM     16  C   UNL A   1      33.238  22.184  27.314  1.00  0.00     0.224 C 
ATOM     17  O   UNL A   1      32.549  22.648  28.220  1.00  0.00    -0.275 OA
ATOM     18  N   UNL A   1      32.689  21.101  26.738  1.00  0.00    -0.350 N 
ATOM     19  H   UNL A   1      31.708  21.148  26.675  1.00  0.00     0.163 HD
BRANCH  18  20
ATOM     20  C   UNL A   1      33.237  19.886  26.191  1.00  0.00     0.177 C 
BRANCH  20  21
ATOM     21  C   UNL A   1      32.489  19.484  24.890  1.00  0.00     0.283 C 
BRANCH  21  22
ATOM     22  N   UNL A   1      32.378  18.079  24.492  1.00  0.00    -0.330 N 
ATOM     23  C   UNL A   1      32.486  16.962  25.426  1.00  0.00     0.291 C 
ATOM     24  C   UNL A   1      32.757  17.722  23.124  1.00  0.00     0.291 C 
ATOM     25  H   UNL A   1      31.367  18.199  24.548  1.00  0.00     0.348 HD
ATOM     26  C   UNL A   1      33.707  16.022  25.212  1.00  0.00     0.221 C 
ATOM     27  C   UNL A   1      34.084  16.963  23.073  1.00  0.00     0.221 C 
ATOM     28  O   UNL A   1      33.980  15.751  23.832  1.00  0.00    -0.370 OA
ENDBRANCH  21  22
ENDBRANCH  20  21
ENDBRANCH  18  20
ENDBRANCH  15  16
ENDBRANCH   5   8
ENDBRANCH   3   4
ENDBRANCH   2   3
ENDBRANCH   1   2
BRANCH   1  29
ATOM     29  C   UNL A   1      34.008  27.755  26.147  1.00  0.00     0.002 C 
BRANCH  29  30
ATOM     30  C   UNL A   1      34.128  29.074  26.920  1.00  0.00     0.021 C 
BRANCH  30  31
ATOM     31  C   UNL A   1      35.486  29.288  27.578  1.00  0.00     0.116 C 
BRANCH  31  32
ATOM     32  N   UNL A   1      35.355  30.021  28.827  1.00  0.00    -0.352 N 
ATOM     33  C   UNL A   1      36.284  30.185  29.819  1.00  0.00     0.251 C 
ATOM     34  H   UNL A   1      34.485  30.455  28.981  1.00  0.00     0.163 HD
ATOM     35  O   UNL A   1      35.943  30.586  30.933  1.00  0.00    -0.269 OA
BRANCH  33  36
ATOM     36  C   UNL A   1      37.699  29.872  29.543  1.00  0.00     0.039 A 
ATOM     37  C   UNL A   1      38.535  29.491  30.594  1.00  0.00     0.014 A 
ATOM     38  C   UNL A   1      38.195  29.955  28.237  1.00  0.00     0.014 A 
ATOM     39  C   UNL A   1      39.862  29.147  30.328  1.00  0.00     0.010 A 
ATOM     40  C   UNL A   1      39.495  29.545  27.966  1.00  0.00     0.010 A 
ATOM     41  C   UNL A   1      40.345  29.145  29.009  1.00  0.00    -0.014 A 
BRANCH  41  42
ATOM     42  C   UNL A   1      41.737  28.733  28.695  1.00  0.00     0.031 A 
ATOM     43  C   UNL A   1      42.833  29.765  28.650  1.00  0.00     0.074 A 
ATOM     44  C   UNL A   1      41.998  27.449  28.378  1.00  0.00     0.049 A 
ATOM     45  N   UNL A   1      44.086  29.617  28.309  1.00  0.00    -0.248 NA
ATOM     46  C   UNL A   1      42.466  31.146  29.006  1.00  0.00     0.031 C 
ATOM     47  C   UNL A   1      41.011  26.366  28.348  1.00  0.00     0.029 A 
ATOM     48  N   UNL A   1      43.169  26.839  28.003  1.00  0.00    -0.354 N 
ATOM     49  C   UNL A   1      44.650  30.887  28.384  1.00  0.00     0.074 A 
ATOM     50  C   UNL A   1      43.595  31.799  28.766  1.00  0.00     0.031 C 
ATOM     51  C   UNL A   1      41.620  25.225  27.987  1.00  0.00     0.029 A 
ATOM     52  C   UNL A   1      43.027  25.501  27.715  1.00  0.00     0.049 A 
ATOM     53  H   UNL A   1      44.029  27.315  27.946  1.00  0.00     0.167 HD
ATOM     54  C   UNL A   1      45.935  31.255  28.167  1.00  0.00     0.031 A 
ATOM     55  C   UNL A   1      43.922  24.601  27.264  1.00  0.00     0.031 A 
ATOM     56  C   UNL A   1      46.984  30.337  27.808  1.00  0.00     0.049 A 
ATOM     57  C   UNL A   1      45.344  25.037  27.032  1.00  0.00     0.074 A 
ATOM     58  C   UNL A   1      48.331  30.602  27.641  1.00  0.00     0.029 A 
ATOM     59  N   UNL A   1      46.805  28.986  27.558  1.00  0.00    -0.354 N 
ATOM     60  N   UNL A   1      45.876  26.227  27.187  1.00  0.00    -0.248 NA
ATOM     61  C   UNL A   1      46.292  24.010  26.575  1.00  0.00     0.031 C 
ATOM     62  C   UNL A   1      48.957  29.424  27.225  1.00  0.00     0.029 A 
ATOM     63  C   UNL A   1      48.013  28.409  27.207  1.00  0.00     0.049 A 
ATOM     64  H   UNL A   1      45.947  28.508  27.622  1.00  0.00     0.167 HD
ATOM     65  C   UNL A   1      47.225  26.082  26.881  1.00  0.00     0.074 A 
ATOM     66  C   UNL A   1      47.430  24.689  26.542  1.00  0.00     0.031 C 
ATOM     67  C   UNL A   1      48.205  27.018  26.884  1.00  0.00     0.031 A 
BRANCH  54  68
ATOM     68  C   UNL A   1      46.284  32.714  28.294  1.00  0.00    -0.014 A 
ATOM     69  C   UNL A   1      46.789  33.245  29.494  1.00  0.00     0.010 A 
ATOM     70  C   UNL A   1      46.180  33.552  27.167  1.00  0.00     0.010 A 
ATOM     71  C   UNL A   1      47.159  34.590  29.573  1.00  0.00     0.020 A 
ATOM     72  C   UNL A   1      46.576  34.889  27.233  1.00  0.00     0.020 A 
ATOM     73  C   UNL A   1      47.053  35.404  28.440  1.00  0.00     0.054 A 
BRANCH  73  74
ATOM     74  S   UNL A   1      47.590  37.132  28.559  1.00  0.00     0.124 S 
ATOM     75  O   UNL A   1      46.487  37.835  27.907  1.00  0.00    -0.237 OA
ATOM     76  O   UNL A   1      47.698  37.334  30.001  1.00  0.00    -0.237 OA
ATOM     77  O   UNL A   1      48.857  37.153  27.832  1.00  0.00    -0.744 OA
ENDBRANCH  73  74
ENDBRANCH  54  68
BRANCH  55  78
ATOM     78  C   UNL A   1      43.499  23.199  26.989  1.00  0.00    -0.014 A 
ATOM     79  C   UNL A   1      42.915  22.411  27.996  1.00  0.00     0.010 A 
ATOM     80  C   UNL A   1      43.685  22.644  25.709  1.00  0.00     0.010 A 
ATOM     81  C   UNL A   1      42.556  21.084  27.737  1.00  0.00     0.020 A 
ATOM     82  C   UNL A   1      43.296  21.329  25.438  1.00  0.00     0.020 A 
ATOM     83  C   UNL A   1      42.748  20.552  26.459  1.00  0.00     0.054 A 
BRANCH  83  84
ATOM     84  S   UNL A   1      42.249  18.838  26.138  1.00  0.00     0.124 S 
ATOM     85  O   UNL A   1      40.842  18.993  25.784  1.00  0.00    -0.237 OA
ATOM     86  O   UNL A   1      43.139  18.449  25.047  1.00  0.00    -0.237 OA
ATOM     87  O   UNL A   1      42.505  18.164  27.410  1.00  0.00    -0.744 OA
ENDBRANCH  83  84
ENDBRANCH  55  78
BRANCH  67  88
ATOM     88  C   UNL A   1      49.606  26.569  26.564  1.00  0.00    -0.014 A 
ATOM     89  C   UNL A   1      50.485  26.131  27.569  1.00  0.00     0.010 A 
ATOM     90  C   UNL A   1      50.016  26.506  25.218  1.00  0.00     0.010 A 
ATOM     91  C   UNL A   1      51.755  25.655  27.236  1.00  0.00     0.020 A 
ATOM     92  C   UNL A   1      51.273  26.003  24.880  1.00  0.00     0.020 A 
ATOM     93  C   UNL A   1      52.140  25.589  25.892  1.00  0.00     0.054 A 
BRANCH  93  94
ATOM     94  S   UNL A   1      53.768  24.904  25.483  1.00  0.00     0.124 S 
ATOM     95  O   UNL A   1      54.207  25.785  24.405  1.00  0.00    -0.237 OA
ATOM     96  O   UNL A   1      54.497  25.040  26.742  1.00  0.00    -0.237 OA
ATOM     97  O   UNL A   1      53.477  23.529  25.084  1.00  0.00    -0.744 OA
ENDBRANCH  93  94
ENDBRANCH  67  88
ENDBRANCH  41  42
ENDBRANCH  33  36
ENDBRANCH  31  32
ENDBRANCH  30  31
ENDBRANCH  29  30
ENDBRANCH   1  29
TORSDOF 20
ENDMDL
MODEL 3
REMARK VINA RESULT:     -10.5      3.408      8.924
REMARK SMILES CC1=C(C)C[C@@H](C(=O)NCCCCCCNC(=O)c2ccc(-c3c4nc(c(-c5ccc(S(=O)(=O)[O-])cc5)c5ccc([nH]5)c(-c5ccc(S(=O)(=O)[O-])cc5)c5nc(c(-c6ccc(S(=O)(=O)[O-])cc6)c6ccc3[nH]6)C=C5)C=C4)cc2)[C@@H](C(=O)NCC[NH+]2CCOCC2)C1
REMARK SMILES IDX 12 1 11 2 10 3 9 4 7 5 8 6 6 8 1 9 2 10 3 11 91 12 4 13 5 14
REMARK SMILES IDX 79 15 80 16 81 17 82 18 83 20 84 21 85 22 86 23 90 24 87 26
REMARK SMILES IDX 89 27 88 28 13 29 14 30 15 31 16 32 17 33 18 35 19 36 20 37
REMARK SMILES IDX 78 38 21 39 77 40 22 41 23 42 24 43 71 44 25 45 76 46 70 47
REMARK SMILES IDX 72 48 26 49 75 50 69 51 68 52 27 54 57 55 38 56 56 57 39 58
REMARK SMILES IDX 42 59 55 60 73 61 40 62 41 63 54 65 74 66 43 67 28 68 29 69
REMARK SMILES IDX 37 70 30 71 36 72 31 73 32 74 33 75 34 76 35 77 58 78 59 79
REMARK SMILES IDX 67 80 60 81 66 82 61 83 62 84 63 85 64 86 65 87 44 88 45 89
REMARK SMILES IDX 53 90 46 91 52 92 47 93 48 94 49 95 50 96 51 97
REMARK H PARENT 9 7 82 19 85 25 16 34 72 53 42 64
REMARK Flexibility Score: inf
ROOT
ATOM      1  C   UNL A   1      36.993  22.063  25.813  1.00  0.00     0.002 C 
ENDROOT
BRANCH   1   2
ATOM      2  C   UNL A   1      36.888  23.459  25.203  1.00  0.00     0.021 C 
BRANCH   2   3
ATOM      3  C   UNL A   1      35.521  23.770  24.596  1.00  0.00     0.116 C 
BRANCH   3   4
ATOM      4  N   UNL A   1      34.709  24.687  25.362  1.00  0.00    -0.356 N 
ATOM      5  C   UNL A   1      33.517  25.282  25.094  1.00  0.00     0.224 C 
ATOM      6  O   UNL A   1      33.046  26.017  25.975  1.00  0.00    -0.275 OA
ATOM      7  H   UNL A   1      35.088  24.923  26.240  1.00  0.00     0.163 HD
BRANCH   5   8
ATOM      8  C   UNL A   1      32.712  25.065  23.800  1.00  0.00     0.095 C 
ATOM      9  C   UNL A   1      28.778  27.080  23.628  1.00  0.00     0.039 C 
ATOM     10  C   UNL A   1      30.124  26.419  23.430  1.00  0.00    -0.074 C 
ATOM     11  C   UNL A   1      31.253  27.072  23.076  1.00  0.00    -0.074 C 
ATOM     12  C   UNL A   1      30.114  24.944  23.802  1.00  0.00     0.045 C 
ATOM     13  C   UNL A   1      31.371  28.557  22.823  1.00  0.00     0.039 C 
ATOM     14  C   UNL A   1      32.582  26.363  23.001  1.00  0.00     0.045 C 
ATOM     15  C   UNL A   1      31.453  24.173  23.820  1.00  0.00     0.095 C 
BRANCH  15  16
ATOM     16  C   UNL A   1      31.443  23.207  24.998  1.00  0.00     0.224 C 
ATOM     17  O   UNL A   1      31.003  23.491  26.110  1.00  0.00    -0.275 OA
ATOM     18  N   UNL A   1      31.793  21.914  24.886  1.00  0.00    -0.350 N 
ATOM     19  H   UNL A   1      31.201  21.305  25.384  1.00  0.00     0.163 HD
BRANCH  18  20
ATOM     20  C   UNL A   1      32.853  21.232  24.188  1.00  0.00     0.177 C 
BRANCH  20  21
ATOM     21  C   UNL A   1      33.336  19.996  24.995  1.00  0.00     0.283 C 
BRANCH  21  22
ATOM     22  N   UNL A   1      32.772  18.668  24.743  1.00  0.00    -0.330 N 
ATOM     23  C   UNL A   1      32.725  17.606  25.744  1.00  0.00     0.291 C 
ATOM     24  C   UNL A   1      32.798  18.162  23.370  1.00  0.00     0.291 C 
ATOM     25  H   UNL A   1      31.859  19.076  24.942  1.00  0.00     0.348 HD
ATOM     26  C   UNL A   1      33.581  16.346  25.429  1.00  0.00     0.221 C 
ATOM     27  C   UNL A   1      33.833  17.051  23.184  1.00  0.00     0.221 C 
ATOM     28  O   UNL A   1      33.528  15.953  24.053  1.00  0.00    -0.370 OA
ENDBRANCH  21  22
ENDBRANCH  20  21
ENDBRANCH  18  20
ENDBRANCH  15  16
ENDBRANCH   5   8
ENDBRANCH   3   4
ENDBRANCH   2   3
ENDBRANCH   1   2
BRANCH   1  29
ATOM     29  C   UNL A   1      37.108  20.945  24.773  1.00  0.00     0.002 C 
BRANCH  29  30
ATOM     30  C   UNL A   1      38.240  19.947  25.038  1.00  0.00     0.021 C 
BRANCH  30  31
ATOM     31  C   UNL A   1      39.398  20.519  25.849  1.00  0.00     0.116 C 
BRANCH  31  32
ATOM     32  N   UNL A   1      40.364  19.486  26.187  1.00  0.00    -0.352 N 
ATOM     33  C   UNL A   1      41.717  19.608  26.360  1.00  0.00     0.251 C 
ATOM     34  H   UNL A   1      39.999  18.579  26.306  1.00  0.00     0.163 HD
ATOM     35  O   UNL A   1      42.438  18.610  26.364  1.00  0.00    -0.269 OA
BRANCH  33  36
ATOM     36  C   UNL A   1      42.303  20.951  26.536  1.00  0.00     0.039 A 
ATOM     37  C   UNL A   1      42.562  21.739  25.414  1.00  0.00     0.014 A 
ATOM     38  C   UNL A   1      42.596  21.426  27.819  1.00  0.00     0.014 A 
ATOM     39  C   UNL A   1      43.072  23.028  25.581  1.00  0.00     0.010 A 
ATOM     40  C   UNL A   1      43.036  22.734  27.986  1.00  0.00     0.010 A 
ATOM     41  C   UNL A   1      43.287  23.546  26.869  1.00  0.00    -0.014 A 
BRANCH  41  42
ATOM     42  C   UNL A   1      43.779  24.932  27.073  1.00  0.00     0.031 A 
ATOM     43  C   UNL A   1      45.223  25.263  26.801  1.00  0.00     0.074 A 
ATOM     44  C   UNL A   1      42.949  25.868  27.574  1.00  0.00     0.049 A 
ATOM     45  N   UNL A   1      45.860  26.388  27.003  1.00  0.00    -0.248 NA
ATOM     46  C   UNL A   1      46.066  24.185  26.258  1.00  0.00     0.031 C 
ATOM     47  C   UNL A   1      41.540  25.656  27.916  1.00  0.00     0.029 A 
ATOM     48  N   UNL A   1      43.173  27.183  27.900  1.00  0.00    -0.354 N 
ATOM     49  C   UNL A   1      47.179  26.144  26.637  1.00  0.00     0.074 A 
ATOM     50  C   UNL A   1      47.262  24.758  26.238  1.00  0.00     0.031 C 
ATOM     51  C   UNL A   1      41.024  26.801  28.391  1.00  0.00     0.029 A 
ATOM     52  C   UNL A   1      42.073  27.815  28.432  1.00  0.00     0.049 A 
ATOM     53  H   UNL A   1      44.039  27.630  27.766  1.00  0.00     0.167 HD
ATOM     54  C   UNL A   1      48.225  27.005  26.625  1.00  0.00     0.031 A 
ATOM     55  C   UNL A   1      41.928  29.063  28.918  1.00  0.00     0.031 A 
ATOM     56  C   UNL A   1      48.130  28.390  27.005  1.00  0.00     0.049 A 
ATOM     57  C   UNL A   1      43.107  30.000  28.891  1.00  0.00     0.074 A 
ATOM     58  C   UNL A   1      49.114  29.360  26.953  1.00  0.00     0.029 A 
ATOM     59  N   UNL A   1      46.990  28.999  27.506  1.00  0.00    -0.354 N 
ATOM     60  N   UNL A   1      44.327  29.774  28.466  1.00  0.00    -0.248 NA
ATOM     61  C   UNL A   1      42.889  31.362  29.398  1.00  0.00     0.031 C 
ATOM     62  C   UNL A   1      48.590  30.540  27.487  1.00  0.00     0.029 A 
ATOM     63  C   UNL A   1      47.257  30.325  27.799  1.00  0.00     0.049 A 
ATOM     64  H   UNL A   1      46.122  28.555  27.635  1.00  0.00     0.167 HD
ATOM     65  C   UNL A   1      45.011  30.976  28.621  1.00  0.00     0.074 A 
ATOM     66  C   UNL A   1      44.067  31.926  29.170  1.00  0.00     0.031 C 
ATOM     67  C   UNL A   1      46.303  31.264  28.333  1.00  0.00     0.031 A 
BRANCH  54  68
ATOM     68  C   UNL A   1      49.571  26.478  26.203  1.00  0.00    -0.014 A 
ATOM     69  C   UNL A   1      50.062  26.683  24.902  1.00  0.00     0.010 A 
ATOM     70  C   UNL A   1      50.390  25.835  27.150  1.00  0.00     0.010 A 
ATOM     71  C   UNL A   1      51.338  26.233  24.548  1.00  0.00     0.020 A 
ATOM     72  C   UNL A   1      51.676  25.410  26.809  1.00  0.00     0.020 A 
ATOM     73  C   UNL A   1      52.138  25.602  25.506  1.00  0.00     0.054 A 
BRANCH  73  74
ATOM     74  S   UNL A   1      53.808  25.076  25.032  1.00  0.00     0.124 S 
ATOM     75  O   UNL A   1      54.606  25.556  26.158  1.00  0.00    -0.237 OA
ATOM     76  O   UNL A   1      53.670  23.626  24.933  1.00  0.00    -0.237 OA
ATOM     77  O   UNL A   1      54.043  25.766  23.765  1.00  0.00    -0.744 OA
ENDBRANCH  73  74
ENDBRANCH  54  68
BRANCH  55  78
ATOM     78  C   UNL A   1      40.620  29.498  29.484  1.00  0.00    -0.014 A 
ATOM     79  C   UNL A   1      40.382  29.453  30.868  1.00  0.00     0.010 A 
ATOM     80  C   UNL A   1      39.599  29.957  28.630  1.00  0.00     0.010 A 
ATOM     81  C   UNL A   1      39.138  29.827  31.385  1.00  0.00     0.020 A 
ATOM     82  C   UNL A   1      38.366  30.364  29.147  1.00  0.00     0.020 A 
ATOM     83  C   UNL A   1      38.137  30.281  30.521  1.00  0.00     0.054 A 
BRANCH  83  84
ATOM     84  S   UNL A   1      36.541  30.788  31.216  1.00  0.00     0.124 S 
ATOM     85  O   UNL A   1      36.333  29.790  32.260  1.00  0.00    -0.237 OA
ATOM     86  O   UNL A   1      36.816  32.145  31.681  1.00  0.00    -0.237 OA
ATOM     87  O   UNL A   1      35.629  30.701  30.076  1.00  0.00    -0.744 OA
ENDBRANCH  83  84
ENDBRANCH  55  78
BRANCH  67  88
ATOM     88  C   UNL A   1      46.772  32.679  28.549  1.00  0.00    -0.014 A 
ATOM     89  C   UNL A   1      47.259  33.109  29.795  1.00  0.00     0.010 A 
ATOM     90  C   UNL A   1      46.803  33.566  27.457  1.00  0.00     0.010 A 
ATOM     91  C   UNL A   1      47.750  34.407  29.949  1.00  0.00     0.020 A 
ATOM     92  C   UNL A   1      47.322  34.854  27.600  1.00  0.00     0.020 A 
ATOM     93  C   UNL A   1      47.784  35.271  28.849  1.00  0.00     0.054 A 
BRANCH  93  94
ATOM     94  S   UNL A   1      48.490  36.927  29.060  1.00  0.00     0.124 S 
ATOM     95  O   UNL A   1      47.297  37.744  29.263  1.00  0.00    -0.237 OA
ATOM     96  O   UNL A   1      49.345  36.763  30.233  1.00  0.00    -0.237 OA
ATOM     97  O   UNL A   1      49.202  37.165  27.807  1.00  0.00    -0.744 OA
ENDBRANCH  93  94
ENDBRANCH  67  88
ENDBRANCH  41  42
ENDBRANCH  33  36
ENDBRANCH  31  32
ENDBRANCH  30  31
ENDBRANCH  29  30
ENDBRANCH   1  29
TORSDOF 20
ENDMDL
