MODEL 1
REMARK VINA RESULT:     -10.5      0.000      0.000
REMARK SMILES CC(C)(C)N(CC(=O)NCCCCCCNC(=O)c1ccc(-c2c3nc(c(-c4ccc(S(=O)(=O)[O-])cc4)c4ccc([nH]4)c(-c4ccc(S(=O)(=O)[O-])cc4)c4nc(c(-c5ccc(S(=O)(=O)[O-])cc5)c5ccc2[nH]5)C=C4)C=C3)cc1)C(=O)C[NH2+]C1CCCC1
REMARK SMILES IDX 11 1 10 2 9 3 7 4 8 5 6 7 5 8 2 9 1 10 3 11 4 12 79 13 80 14
REMARK SMILES IDX 81 15 82 16 83 19 84 20 87 21 85 22 86 23 12 24 13 25 14 26
REMARK SMILES IDX 15 27 16 28 17 29 18 31 19 32 20 33 78 34 21 35 77 36 22 37
REMARK SMILES IDX 23 38 24 39 71 40 25 41 76 42 70 43 72 44 26 45 75 46 69 47
REMARK SMILES IDX 68 48 27 50 57 51 38 52 56 53 39 54 42 55 55 56 73 57 40 58
REMARK SMILES IDX 41 59 54 61 74 62 43 63 28 64 29 65 37 66 30 67 36 68 31 69
REMARK SMILES IDX 32 70 33 71 34 72 35 73 58 74 59 75 67 76 60 77 66 78 61 79
REMARK SMILES IDX 62 80 63 81 64 82 65 83 44 84 45 85 53 86 46 87 52 88 47 89
REMARK SMILES IDX 48 90 49 91 50 92 51 93
REMARK H PARENT 9 6 82 17 82 18 16 30 72 49 42 60
REMARK Flexibility Score: inf
ROOT
ATOM      1  C   UNL A   1      33.471  27.103  25.928  1.00  0.00     0.021 C 
ENDROOT
BRANCH   1   2
ATOM      2  C   UNL A   1      32.167  26.420  25.528  1.00  0.00     0.116 C 
BRANCH   2   3
ATOM      3  N   UNL A   1      31.706  25.478  26.522  1.00  0.00    -0.355 N 
ATOM      4  C   UNL A   1      31.747  24.115  26.491  1.00  0.00     0.239 C 
ATOM      5  O   UNL A   1      31.540  23.521  27.554  1.00  0.00    -0.273 OA
ATOM      6  H   UNL A   1      31.308  25.874  27.331  1.00  0.00     0.163 HD
BRANCH   4   7
ATOM      7  C   UNL A   1      32.180  23.347  25.223  1.00  0.00     0.220 C 
BRANCH   7   8
ATOM      8  N   UNL A   1      33.507  22.685  25.211  1.00  0.00    -0.324 N 
BRANCH   8   9
ATOM      9  C   UNL A   1      34.705  23.373  24.576  1.00  0.00     0.035 C 
ATOM     10  C   UNL A   1      34.345  24.398  23.469  1.00  0.00     0.034 C 
ATOM     11  C   UNL A   1      35.661  22.351  23.913  1.00  0.00     0.034 C 
ATOM     12  C   UNL A   1      35.486  24.180  25.643  1.00  0.00     0.034 C 
ENDBRANCH   8   9
BRANCH   8  13
ATOM     13  C   UNL A   1      33.754  21.611  26.094  1.00  0.00     0.278 C 
ATOM     14  O   UNL A   1      33.869  21.764  27.314  1.00  0.00    -0.268 OA
BRANCH  13  15
ATOM     15  C   UNL A   1      33.858  20.174  25.550  1.00  0.00     0.362 C 
BRANCH  15  16
ATOM     16  N   UNL A   1      32.728  19.903  24.646  1.00  0.00    -0.336 N 
ATOM     17  H   UNL A   1      32.900  20.368  23.755  1.00  0.00     0.346 HD
ATOM     18  H   UNL A   1      31.879  20.254  25.090  1.00  0.00     0.346 HD
BRANCH  16  19
ATOM     19  C   UNL A   1      32.548  18.475  24.402  1.00  0.00     0.182 C 
ATOM     20  C   UNL A   1      33.637  17.818  23.554  1.00  0.00     0.065 C 
ATOM     21  C   UNL A   1      32.630  17.677  25.706  1.00  0.00     0.065 C 
ATOM     22  C   UNL A   1      33.448  16.333  23.832  1.00  0.00     0.006 C 
ATOM     23  C   UNL A   1      32.967  16.248  25.280  1.00  0.00     0.006 C 
ENDBRANCH  16  19
ENDBRANCH  15  16
ENDBRANCH  13  15
ENDBRANCH   8  13
ENDBRANCH   7   8
ENDBRANCH   4   7
ENDBRANCH   2   3
ENDBRANCH   1   2
BRANCH   1  24
ATOM     24  C   UNL A   1      33.310  28.220  26.964  1.00  0.00     0.002 C 
BRANCH  24  25
ATOM     25  C   UNL A   1      34.584  29.012  27.284  1.00  0.00     0.002 C 
BRANCH  25  26
ATOM     26  C   UNL A   1      34.389  30.497  27.613  1.00  0.00     0.021 C 
BRANCH  26  27
ATOM     27  C   UNL A   1      35.534  31.163  28.375  1.00  0.00     0.116 C 
BRANCH  27  28
ATOM     28  N   UNL A   1      35.538  30.808  29.783  1.00  0.00    -0.352 N 
ATOM     29  C   UNL A   1      36.464  30.127  30.525  1.00  0.00     0.251 C 
ATOM     30  H   UNL A   1      34.746  31.106  30.285  1.00  0.00     0.163 HD
ATOM     31  O   UNL A   1      36.168  29.783  31.675  1.00  0.00    -0.269 OA
BRANCH  29  32
ATOM     32  C   UNL A   1      37.798  29.786  29.982  1.00  0.00     0.039 A 
ATOM     33  C   UNL A   1      38.847  29.575  30.883  1.00  0.00     0.014 A 
ATOM     34  C   UNL A   1      38.048  29.737  28.606  1.00  0.00     0.014 A 
ATOM     35  C   UNL A   1      40.127  29.279  30.410  1.00  0.00     0.010 A 
ATOM     36  C   UNL A   1      39.315  29.382  28.136  1.00  0.00     0.010 A 
ATOM     37  C   UNL A   1      40.370  29.161  29.032  1.00  0.00    -0.014 A 
BRANCH  37  38
ATOM     38  C   UNL A   1      41.722  28.792  28.540  1.00  0.00     0.031 A 
ATOM     39  C   UNL A   1      42.815  29.819  28.429  1.00  0.00     0.074 A 
ATOM     40  C   UNL A   1      41.959  27.521  28.158  1.00  0.00     0.049 A 
ATOM     41  N   UNL A   1      44.068  29.653  28.084  1.00  0.00    -0.248 NA
ATOM     42  C   UNL A   1      42.452  31.214  28.718  1.00  0.00     0.031 C 
ATOM     43  C   UNL A   1      40.965  26.446  28.142  1.00  0.00     0.029 A 
ATOM     44  N   UNL A   1      43.109  26.920  27.712  1.00  0.00    -0.354 N 
ATOM     45  C   UNL A   1      44.637  30.921  28.098  1.00  0.00     0.074 A 
ATOM     46  C   UNL A   1      43.582  31.849  28.443  1.00  0.00     0.031 C 
ATOM     47  C   UNL A   1      41.553  25.312  27.729  1.00  0.00     0.029 A 
ATOM     48  C   UNL A   1      42.958  25.581  27.440  1.00  0.00     0.049 A 
ATOM     49  H   UNL A   1      43.959  27.402  27.595  1.00  0.00     0.167 HD
ATOM     50  C   UNL A   1      45.923  31.281  27.860  1.00  0.00     0.031 A 
ATOM     51  C   UNL A   1      43.851  24.666  27.020  1.00  0.00     0.031 A 
ATOM     52  C   UNL A   1      46.974  30.356  27.521  1.00  0.00     0.049 A 
ATOM     53  C   UNL A   1      45.285  25.067  26.831  1.00  0.00     0.074 A 
ATOM     54  C   UNL A   1      48.322  30.610  27.337  1.00  0.00     0.029 A 
ATOM     55  N   UNL A   1      46.793  28.998  27.302  1.00  0.00    -0.354 N 
ATOM     56  N   UNL A   1      45.829  26.256  26.952  1.00  0.00    -0.248 NA
ATOM     57  C   UNL A   1      46.230  24.001  26.478  1.00  0.00     0.031 C 
ATOM     58  C   UNL A   1      48.949  29.413  26.969  1.00  0.00     0.029 A 
ATOM     59  C   UNL A   1      48.000  28.404  26.968  1.00  0.00     0.049 A 
ATOM     60  H   UNL A   1      45.933  28.525  27.376  1.00  0.00     0.167 HD
ATOM     61  C   UNL A   1      47.184  26.078  26.703  1.00  0.00     0.074 A 
ATOM     62  C   UNL A   1      47.379  24.663  26.447  1.00  0.00     0.031 C 
ATOM     63  C   UNL A   1      48.178  27.001  26.690  1.00  0.00     0.031 A 
BRANCH  50  64
ATOM     64  C   UNL A   1      46.252  32.749  27.945  1.00  0.00    -0.014 A 
ATOM     65  C   UNL A   1      46.639  33.339  29.163  1.00  0.00     0.010 A 
ATOM     66  C   UNL A   1      46.174  33.550  26.792  1.00  0.00     0.010 A 
ATOM     67  C   UNL A   1      46.878  34.715  29.238  1.00  0.00     0.020 A 
ATOM     68  C   UNL A   1      46.439  34.921  26.858  1.00  0.00     0.020 A 
ATOM     69  C   UNL A   1      46.765  35.500  28.088  1.00  0.00     0.054 A 
BRANCH  69  70
ATOM     70  S   UNL A   1      47.061  37.284  28.213  1.00  0.00     0.124 S 
ATOM     71  O   UNL A   1      46.780  37.731  26.851  1.00  0.00    -0.237 OA
ATOM     72  O   UNL A   1      46.092  37.704  29.223  1.00  0.00    -0.237 OA
ATOM     73  O   UNL A   1      48.460  37.375  28.622  1.00  0.00    -0.744 OA
ENDBRANCH  69  70
ENDBRANCH  50  64
BRANCH  51  74
ATOM     74  C   UNL A   1      43.402  23.266  26.799  1.00  0.00    -0.014 A 
ATOM     75  C   UNL A   1      43.235  22.767  25.496  1.00  0.00     0.010 A 
ATOM     76  C   UNL A   1      43.211  22.406  27.895  1.00  0.00     0.010 A 
ATOM     77  C   UNL A   1      42.889  21.428  25.292  1.00  0.00     0.020 A 
ATOM     78  C   UNL A   1      42.887  21.062  27.694  1.00  0.00     0.020 A 
ATOM     79  C   UNL A   1      42.726  20.581  26.393  1.00  0.00     0.054 A 
BRANCH  79  80
ATOM     80  S   UNL A   1      42.383  18.822  26.105  1.00  0.00     0.124 S 
ATOM     81  O   UNL A   1      40.988  18.851  25.676  1.00  0.00    -0.237 OA
ATOM     82  O   UNL A   1      43.356  18.474  25.073  1.00  0.00    -0.237 OA
ATOM     83  O   UNL A   1      42.628  18.211  27.410  1.00  0.00    -0.744 OA
ENDBRANCH  79  80
ENDBRANCH  51  74
BRANCH  63  84
ATOM     84  C   UNL A   1      49.567  26.503  26.393  1.00  0.00    -0.014 A 
ATOM     85  C   UNL A   1      50.080  26.517  25.084  1.00  0.00     0.010 A 
ATOM     86  C   UNL A   1      50.372  26.019  27.440  1.00  0.00     0.010 A 
ATOM     87  C   UNL A   1      51.353  26.008  24.818  1.00  0.00     0.020 A 
ATOM     88  C   UNL A   1      51.656  25.532  27.182  1.00  0.00     0.020 A 
ATOM     89  C   UNL A   1      52.130  25.507  25.868  1.00  0.00     0.054 A 
BRANCH  89  90
ATOM     90  S   UNL A   1      53.780  24.849  25.505  1.00  0.00     0.124 S 
ATOM     91  O   UNL A   1      54.212  25.708  24.405  1.00  0.00    -0.237 OA
ATOM     92  O   UNL A   1      54.491  25.040  26.767  1.00  0.00    -0.237 OA
ATOM     93  O   UNL A   1      53.525  23.456  25.146  1.00  0.00    -0.744 OA
ENDBRANCH  89  90
ENDBRANCH  63  84
ENDBRANCH  37  38
ENDBRANCH  29  32
ENDBRANCH  27  28
ENDBRANCH  26  27
ENDBRANCH  25  26
ENDBRANCH  24  25
ENDBRANCH   1  24
TORSDOF 22
ENDMDL
MODEL 2
REMARK VINA RESULT:     -10.3      0.920      8.175
REMARK SMILES CC(C)(C)N(CC(=O)NCCCCCCNC(=O)c1ccc(-c2c3nc(c(-c4ccc(S(=O)(=O)[O-])cc4)c4ccc([nH]4)c(-c4ccc(S(=O)(=O)[O-])cc4)c4nc(c(-c5ccc(S(=O)(=O)[O-])cc5)c5ccc2[nH]5)C=C4)C=C3)cc1)C(=O)C[NH2+]C1CCCC1
REMARK SMILES IDX 11 1 10 2 9 3 7 4 8 5 6 7 5 8 2 9 1 10 3 11 4 12 79 13 80 14
REMARK SMILES IDX 81 15 82 16 83 19 84 20 87 21 85 22 86 23 12 24 13 25 14 26
REMARK SMILES IDX 15 27 16 28 17 29 18 31 19 32 20 33 78 34 21 35 77 36 22 37
REMARK SMILES IDX 23 38 24 39 71 40 25 41 76 42 70 43 72 44 26 45 75 46 69 47
REMARK SMILES IDX 68 48 27 50 57 51 38 52 56 53 39 54 42 55 55 56 73 57 40 58
REMARK SMILES IDX 41 59 54 61 74 62 43 63 28 64 29 65 37 66 30 67 36 68 31 69
REMARK SMILES IDX 32 70 33 71 34 72 35 73 58 74 59 75 67 76 60 77 66 78 61 79
REMARK SMILES IDX 62 80 63 81 64 82 65 83 44 84 45 85 53 86 46 87 52 88 47 89
REMARK SMILES IDX 48 90 49 91 50 92 51 93
REMARK H PARENT 9 6 82 17 82 18 16 30 72 49 42 60
REMARK Flexibility Score: inf
ROOT
ATOM      1  C   UNL A   1      31.287  27.647  24.801  1.00  0.00     0.021 C 
ENDROOT
BRANCH   1   2
ATOM      2  C   UNL A   1      30.249  26.534  24.901  1.00  0.00     0.116 C 
BRANCH   2   3
ATOM      3  N   UNL A   1      30.383  25.756  26.111  1.00  0.00    -0.355 N 
ATOM      4  C   UNL A   1      30.843  24.481  26.260  1.00  0.00     0.239 C 
ATOM      5  O   UNL A   1      31.117  24.112  27.407  1.00  0.00    -0.273 OA
ATOM      6  H   UNL A   1      30.103  26.208  26.940  1.00  0.00     0.163 HD
BRANCH   4   7
ATOM      7  C   UNL A   1      31.155  23.585  25.042  1.00  0.00     0.220 C 
BRANCH   7   8
ATOM      8  N   UNL A   1      32.533  23.062  24.877  1.00  0.00    -0.324 N 
BRANCH   8   9
ATOM      9  C   UNL A   1      33.650  23.971  24.392  1.00  0.00     0.035 C 
ATOM     10  C   UNL A   1      34.276  24.864  25.496  1.00  0.00     0.034 C 
ATOM     11  C   UNL A   1      33.155  24.941  23.292  1.00  0.00     0.034 C 
ATOM     12  C   UNL A   1      34.823  23.128  23.835  1.00  0.00     0.034 C 
ENDBRANCH   8   9
BRANCH   8  13
ATOM     13  C   UNL A   1      32.894  21.852  25.511  1.00  0.00     0.278 C 
ATOM     14  O   UNL A   1      33.619  21.813  26.510  1.00  0.00    -0.268 OA
BRANCH  13  15
ATOM     15  C   UNL A   1      32.353  20.512  24.978  1.00  0.00     0.362 C 
BRANCH  15  16
ATOM     16  N   UNL A   1      32.985  19.397  25.702  1.00  0.00    -0.336 N 
ATOM     17  H   UNL A   1      32.462  19.222  26.559  1.00  0.00     0.346 HD
ATOM     18  H   UNL A   1      33.950  19.662  25.903  1.00  0.00     0.346 HD
BRANCH  16  19
ATOM     19  C   UNL A   1      33.013  18.171  24.910  1.00  0.00     0.182 C 
ATOM     20  C   UNL A   1      34.391  17.766  24.388  1.00  0.00     0.065 C 
ATOM     21  C   UNL A   1      32.620  16.957  25.757  1.00  0.00     0.065 C 
ATOM     22  C   UNL A   1      34.206  16.302  24.013  1.00  0.00     0.006 C 
ATOM     23  C   UNL A   1      33.193  15.750  25.015  1.00  0.00     0.006 C 
ENDBRANCH  16  19
ENDBRANCH  15  16
ENDBRANCH  13  15
ENDBRANCH   8  13
ENDBRANCH   7   8
ENDBRANCH   4   7
ENDBRANCH   2   3
ENDBRANCH   1   2
BRANCH   1  24
ATOM     24  C   UNL A   1      31.930  28.037  26.136  1.00  0.00     0.002 C 
BRANCH  24  25
ATOM     25  C   UNL A   1      33.335  28.647  26.039  1.00  0.00     0.002 C 
BRANCH  25  26
ATOM     26  C   UNL A   1      34.206  28.531  27.295  1.00  0.00     0.021 C 
BRANCH  26  27
ATOM     27  C   UNL A   1      35.319  29.569  27.427  1.00  0.00     0.116 C 
BRANCH  27  28
ATOM     28  N   UNL A   1      35.372  30.154  28.755  1.00  0.00    -0.352 N 
ATOM     29  C   UNL A   1      36.409  30.247  29.643  1.00  0.00     0.251 C 
ATOM     30  H   UNL A   1      34.526  30.546  29.066  1.00  0.00     0.163 HD
ATOM     31  O   UNL A   1      36.172  30.628  30.795  1.00  0.00    -0.269 OA
BRANCH  29  32
ATOM     32  C   UNL A   1      37.795  29.894  29.262  1.00  0.00     0.039 A 
ATOM     33  C   UNL A   1      38.728  29.680  30.282  1.00  0.00     0.014 A 
ATOM     34  C   UNL A   1      38.205  29.836  27.927  1.00  0.00     0.014 A 
ATOM     35  C   UNL A   1      40.053  29.373  29.965  1.00  0.00     0.010 A 
ATOM     36  C   UNL A   1      39.515  29.470  27.610  1.00  0.00     0.010 A 
ATOM     37  C   UNL A   1      40.456  29.246  28.626  1.00  0.00    -0.014 A 
BRANCH  37  38
ATOM     38  C   UNL A   1      41.854  28.865  28.299  1.00  0.00     0.031 A 
ATOM     39  C   UNL A   1      42.200  27.459  27.890  1.00  0.00     0.074 A 
ATOM     40  C   UNL A   1      42.830  29.788  28.403  1.00  0.00     0.049 A 
ATOM     41  N   UNL A   1      43.355  26.974  27.507  1.00  0.00    -0.248 NA
ATOM     42  C   UNL A   1      41.119  26.464  27.941  1.00  0.00     0.031 C 
ATOM     43  C   UNL A   1      42.641  31.166  28.864  1.00  0.00     0.029 A 
ATOM     44  N   UNL A   1      44.171  29.709  28.128  1.00  0.00    -0.354 N 
ATOM     45  C   UNL A   1      43.145  25.618  27.286  1.00  0.00     0.074 A 
ATOM     46  C   UNL A   1      41.762  25.350  27.621  1.00  0.00     0.031 C 
ATOM     47  C   UNL A   1      43.819  31.808  28.818  1.00  0.00     0.029 A 
ATOM     48  C   UNL A   1      44.846  30.887  28.338  1.00  0.00     0.049 A 
ATOM     49  H   UNL A   1      44.609  28.886  27.811  1.00  0.00     0.167 HD
ATOM     50  C   UNL A   1      44.016  24.683  26.834  1.00  0.00     0.031 A 
ATOM     51  C   UNL A   1      46.142  31.201  28.153  1.00  0.00     0.031 A 
ATOM     52  C   UNL A   1      45.390  24.951  26.496  1.00  0.00     0.049 A 
ATOM     53  C   UNL A   1      47.075  30.174  27.584  1.00  0.00     0.074 A 
ATOM     54  C   UNL A   1      46.330  24.091  25.956  1.00  0.00     0.029 A 
ATOM     55  N   UNL A   1      46.025  26.171  26.677  1.00  0.00    -0.354 N 
ATOM     56  N   UNL A   1      46.832  28.920  27.281  1.00  0.00    -0.248 NA
ATOM     57  C   UNL A   1      48.449  30.610  27.304  1.00  0.00     0.031 C 
ATOM     58  C   UNL A   1      47.545  24.779  25.847  1.00  0.00     0.029 A 
ATOM     59  C   UNL A   1      47.349  26.082  26.277  1.00  0.00     0.049 A 
ATOM     60  H   UNL A   1      45.598  26.982  27.035  1.00  0.00     0.167 HD
ATOM     61  C   UNL A   1      48.019  28.420  26.761  1.00  0.00     0.074 A 
ATOM     62  C   UNL A   1      48.972  29.514  26.770  1.00  0.00     0.031 C 
ATOM     63  C   UNL A   1      48.296  27.169  26.314  1.00  0.00     0.031 A 
BRANCH  50  64
ATOM     64  C   UNL A   1      43.499  23.274  26.695  1.00  0.00    -0.014 A 
ATOM     65  C   UNL A   1      43.005  22.567  27.808  1.00  0.00     0.010 A 
ATOM     66  C   UNL A   1      43.508  22.647  25.437  1.00  0.00     0.010 A 
ATOM     67  C   UNL A   1      42.590  21.239  27.675  1.00  0.00     0.020 A 
ATOM     68  C   UNL A   1      43.067  21.328  25.295  1.00  0.00     0.020 A 
ATOM     69  C   UNL A   1      42.635  20.623  26.421  1.00  0.00     0.054 A 
BRANCH  69  70
ATOM     70  S   UNL A   1      42.110  18.894  26.276  1.00  0.00     0.124 S 
ATOM     71  O   UNL A   1      42.239  18.424  27.653  1.00  0.00    -0.237 OA
ATOM     72  O   UNL A   1      40.741  19.011  25.779  1.00  0.00    -0.237 OA
ATOM     73  O   UNL A   1      43.064  18.320  25.330  1.00  0.00    -0.744 OA
ENDBRANCH  69  70
ENDBRANCH  50  64
BRANCH  51  74
ATOM     74  C   UNL A   1      46.606  32.577  28.475  1.00  0.00    -0.014 A 
ATOM     75  C   UNL A   1      46.365  33.638  27.587  1.00  0.00     0.010 A 
ATOM     76  C   UNL A   1      47.229  32.839  29.709  1.00  0.00     0.010 A 
ATOM     77  C   UNL A   1      46.733  34.943  27.929  1.00  0.00     0.020 A 
ATOM     78  C   UNL A   1      47.578  34.145  30.064  1.00  0.00     0.020 A 
ATOM     79  C   UNL A   1      47.330  35.189  29.170  1.00  0.00     0.054 A 
BRANCH  79  80
ATOM     80  S   UNL A   1      47.702  36.901  29.641  1.00  0.00     0.124 S 
ATOM     81  O   UNL A   1      49.150  36.957  29.465  1.00  0.00    -0.237 OA
ATOM     82  O   UNL A   1      46.917  37.673  28.681  1.00  0.00    -0.237 OA
ATOM     83  O   UNL A   1      47.233  36.983  31.022  1.00  0.00    -0.744 OA
ENDBRANCH  79  80
ENDBRANCH  51  74
BRANCH  63  84
ATOM     84  C   UNL A   1      49.686  26.923  25.794  1.00  0.00    -0.014 A 
ATOM     85  C   UNL A   1      50.703  26.437  26.635  1.00  0.00     0.010 A 
ATOM     86  C   UNL A   1      49.978  27.176  24.441  1.00  0.00     0.010 A 
ATOM     87  C   UNL A   1      52.000  26.259  26.147  1.00  0.00     0.020 A 
ATOM     88  C   UNL A   1      51.268  26.975  23.943  1.00  0.00     0.020 A 
ATOM     89  C   UNL A   1      52.277  26.540  24.806  1.00  0.00     0.054 A 
BRANCH  89  90
ATOM     90  S   UNL A   1      53.966  26.304  24.189  1.00  0.00     0.124 S 
ATOM     91  O   UNL A   1      53.752  26.213  22.748  1.00  0.00    -0.237 OA
ATOM     92  O   UNL A   1      54.651  27.511  24.647  1.00  0.00    -0.237 OA
ATOM     93  O   UNL A   1      54.400  25.068  24.836  1.00  0.00    -0.744 OA
ENDBRANCH  89  90
ENDBRANCH  63  84
ENDBRANCH  37  38
ENDBRANCH  29  32
ENDBRANCH  27  28
ENDBRANCH  26  27
ENDBRANCH  25  26
ENDBRANCH  24  25
ENDBRANCH   1  24
TORSDOF 22
ENDMDL
MODEL 3
REMARK VINA RESULT:     -10.2      5.100      9.549
REMARK SMILES CC(C)(C)N(CC(=O)NCCCCCCNC(=O)c1ccc(-c2c3nc(c(-c4ccc(S(=O)(=O)[O-])cc4)c4ccc([nH]4)c(-c4ccc(S(=O)(=O)[O-])cc4)c4nc(c(-c5ccc(S(=O)(=O)[O-])cc5)c5ccc2[nH]5)C=C4)C=C3)cc1)C(=O)C[NH2+]C1CCCC1
REMARK SMILES IDX 11 1 10 2 9 3 7 4 8 5 6 7 5 8 2 9 1 10 3 11 4 12 79 13 80 14
REMARK SMILES IDX 81 15 82 16 83 19 84 20 87 21 85 22 86 23 12 24 13 25 14 26
REMARK SMILES IDX 15 27 16 28 17 29 18 31 19 32 20 33 78 34 21 35 77 36 22 37
REMARK SMILES IDX 23 38 24 39 71 40 25 41 76 42 70 43 72 44 26 45 75 46 69 47
REMARK SMILES IDX 68 48 27 50 57 51 38 52 56 53 39 54 42 55 55 56 73 57 40 58
REMARK SMILES IDX 41 59 54 61 74 62 43 63 28 64 29 65 37 66 30 67 36 68 31 69
REMARK SMILES IDX 32 70 33 71 34 72 35 73 58 74 59 75 67 76 60 77 66 78 61 79
REMARK SMILES IDX 62 80 63 81 64 82 65 83 44 84 45 85 53 86 46 87 52 88 47 89
REMARK SMILES IDX 48 90 49 91 50 92 51 93
REMARK H PARENT 9 6 82 17 82 18 16 30 72 49 42 60
REMARK Flexibility Score: inf
ROOT
ATOM      1  C   UNL A   1      30.695  26.762  24.762  1.00  0.00     0.021 C 
ENDROOT
BRANCH   1   2
ATOM      2  C   UNL A   1      31.689  25.649  24.448  1.00  0.00     0.116 C 
BRANCH   2   3
ATOM      3  N   UNL A   1      32.578  25.988  23.361  1.00  0.00    -0.355 N 
ATOM      4  C   UNL A   1      33.074  25.182  22.379  1.00  0.00     0.239 C 
ATOM      5  O   UNL A   1      33.601  25.736  21.408  1.00  0.00    -0.273 OA
ATOM      6  H   UNL A   1      32.866  26.929  23.326  1.00  0.00     0.163 HD
BRANCH   4   7
ATOM      7  C   UNL A   1      32.854  23.654  22.399  1.00  0.00     0.220 C 
BRANCH   7   8
ATOM      8  N   UNL A   1      33.506  22.854  23.464  1.00  0.00    -0.324 N 
BRANCH   8   9
ATOM      9  C   UNL A   1      32.879  21.557  23.946  1.00  0.00     0.035 C 
ATOM     10  C   UNL A   1      31.839  21.731  25.085  1.00  0.00     0.034 C 
ATOM     11  C   UNL A   1      33.947  20.579  24.494  1.00  0.00     0.034 C 
ATOM     12  C   UNL A   1      32.109  20.871  22.790  1.00  0.00     0.034 C 
ENDBRANCH   8   9
BRANCH   8  13
ATOM     13  C   UNL A   1      34.868  23.082  23.765  1.00  0.00     0.278 C 
ATOM     14  O   UNL A   1      35.765  22.965  22.925  1.00  0.00    -0.268 OA
BRANCH  13  15
ATOM     15  C   UNL A   1      35.279  23.525  25.182  1.00  0.00     0.362 C 
BRANCH  15  16
ATOM     16  N   UNL A   1      36.635  24.097  25.149  1.00  0.00    -0.336 N 
ATOM     17  H   UNL A   1      36.576  25.096  25.345  1.00  0.00     0.346 HD
ATOM     18  H   UNL A   1      37.027  23.923  24.223  1.00  0.00     0.346 HD
BRANCH  16  19
ATOM     19  C   UNL A   1      37.518  23.477  26.133  1.00  0.00     0.182 C 
ATOM     20  C   UNL A   1      38.346  22.302  25.613  1.00  0.00     0.065 C 
ATOM     21  C   UNL A   1      38.601  24.455  26.597  1.00  0.00     0.065 C 
ATOM     22  C   UNL A   1      39.442  22.158  26.660  1.00  0.00     0.006 C 
ATOM     23  C   UNL A   1      39.719  23.576  27.158  1.00  0.00     0.006 C 
ENDBRANCH  16  19
ENDBRANCH  15  16
ENDBRANCH  13  15
ENDBRANCH   8  13
ENDBRANCH   7   8
ENDBRANCH   4   7
ENDBRANCH   2   3
ENDBRANCH   1   2
BRANCH   1  24
ATOM     24  C   UNL A   1      31.334  28.058  25.273  1.00  0.00     0.002 C 
BRANCH  24  25
ATOM     25  C   UNL A   1      31.924  27.990  26.687  1.00  0.00     0.002 C 
BRANCH  25  26
ATOM     26  C   UNL A   1      33.440  27.776  26.773  1.00  0.00     0.021 C 
BRANCH  26  27
ATOM     27  C   UNL A   1      34.300  28.876  26.152  1.00  0.00     0.116 C 
BRANCH  27  28
ATOM     28  N   UNL A   1      33.881  30.202  26.568  1.00  0.00    -0.352 N 
ATOM     29  C   UNL A   1      34.386  31.032  27.532  1.00  0.00     0.251 C 
ATOM     30  H   UNL A   1      33.110  30.564  26.076  1.00  0.00     0.163 HD
ATOM     31  O   UNL A   1      33.749  32.047  27.835  1.00  0.00    -0.269 OA
BRANCH  29  32
ATOM     32  C   UNL A   1      35.660  30.736  28.224  1.00  0.00     0.039 A 
ATOM     33  C   UNL A   1      35.688  29.675  29.136  1.00  0.00     0.014 A 
ATOM     34  C   UNL A   1      36.802  31.522  28.044  1.00  0.00     0.014 A 
ATOM     35  C   UNL A   1      36.862  29.380  29.832  1.00  0.00     0.010 A 
ATOM     36  C   UNL A   1      37.993  31.190  28.695  1.00  0.00     0.010 A 
ATOM     37  C   UNL A   1      38.032  30.123  29.604  1.00  0.00    -0.014 A 
BRANCH  37  38
ATOM     38  C   UNL A   1      39.292  29.768  30.307  1.00  0.00     0.031 A 
ATOM     39  C   UNL A   1      40.190  28.678  29.790  1.00  0.00     0.074 A 
ATOM     40  C   UNL A   1      39.614  30.414  31.446  1.00  0.00     0.049 A 
ATOM     41  N   UNL A   1      41.355  28.288  30.242  1.00  0.00    -0.248 NA
ATOM     42  C   UNL A   1      39.709  27.912  28.631  1.00  0.00     0.031 C 
ATOM     43  C   UNL A   1      38.792  31.435  32.098  1.00  0.00     0.029 A 
ATOM     44  N   UNL A   1      40.718  30.307  32.254  1.00  0.00    -0.354 N 
ATOM     45  C   UNL A   1      41.739  27.223  29.437  1.00  0.00     0.074 A 
ATOM     46  C   UNL A   1      40.662  27.001  28.495  1.00  0.00     0.031 C 
ATOM     47  C   UNL A   1      39.430  31.877  33.193  1.00  0.00     0.029 A 
ATOM     48  C   UNL A   1      40.697  31.164  33.328  1.00  0.00     0.049 A 
ATOM     49  H   UNL A   1      41.453  29.676  32.082  1.00  0.00     0.167 HD
ATOM     50  C   UNL A   1      42.888  26.502  29.466  1.00  0.00     0.031 A 
ATOM     51  C   UNL A   1      41.600  31.368  34.305  1.00  0.00     0.031 A 
ATOM     52  C   UNL A   1      43.962  26.726  30.399  1.00  0.00     0.049 A 
ATOM     53  C   UNL A   1      42.896  30.612  34.280  1.00  0.00     0.074 A 
ATOM     54  C   UNL A   1      45.196  26.104  30.460  1.00  0.00     0.029 A 
ATOM     55  N   UNL A   1      43.924  27.638  31.444  1.00  0.00    -0.354 N 
ATOM     56  N   UNL A   1      43.288  29.679  33.445  1.00  0.00    -0.248 NA
ATOM     57  C   UNL A   1      43.883  30.958  35.310  1.00  0.00     0.031 C 
ATOM     58  C   UNL A   1      45.890  26.612  31.566  1.00  0.00     0.029 A 
ATOM     59  C   UNL A   1      45.105  27.583  32.166  1.00  0.00     0.049 A 
ATOM     60  H   UNL A   1      43.170  28.238  31.641  1.00  0.00     0.167 HD
ATOM     61  C   UNL A   1      44.575  29.334  33.840  1.00  0.00     0.074 A 
ATOM     62  C   UNL A   1      44.901  30.176  34.976  1.00  0.00     0.031 C 
ATOM     63  C   UNL A   1      45.410  28.407  33.310  1.00  0.00     0.031 A 
BRANCH  50  64
ATOM     64  C   UNL A   1      43.026  25.390  28.458  1.00  0.00    -0.014 A 
ATOM     65  C   UNL A   1      42.838  24.045  28.828  1.00  0.00     0.010 A 
ATOM     66  C   UNL A   1      43.348  25.692  27.123  1.00  0.00     0.010 A 
ATOM     67  C   UNL A   1      43.033  23.021  27.897  1.00  0.00     0.020 A 
ATOM     68  C   UNL A   1      43.517  24.672  26.183  1.00  0.00     0.020 A 
ATOM     69  C   UNL A   1      43.384  23.340  26.583  1.00  0.00     0.054 A 
BRANCH  69  70
ATOM     70  S   UNL A   1      43.651  21.995  25.396  1.00  0.00     0.124 S 
ATOM     71  O   UNL A   1      43.481  22.683  24.119  1.00  0.00    -0.237 OA
ATOM     72  O   UNL A   1      45.013  21.561  25.698  1.00  0.00    -0.237 OA
ATOM     73  O   UNL A   1      42.606  21.029  25.727  1.00  0.00    -0.744 OA
ENDBRANCH  69  70
ENDBRANCH  50  64
BRANCH  51  74
ATOM     74  C   UNL A   1      41.308  32.372  35.362  1.00  0.00    -0.014 A 
ATOM     75  C   UNL A   1      41.643  33.724  35.175  1.00  0.00     0.010 A 
ATOM     76  C   UNL A   1      40.627  31.988  36.531  1.00  0.00     0.010 A 
ATOM     77  C   UNL A   1      41.296  34.677  36.137  1.00  0.00     0.020 A 
ATOM     78  C   UNL A   1      40.258  32.941  37.483  1.00  0.00     0.020 A 
ATOM     79  C   UNL A   1      40.598  34.280  37.282  1.00  0.00     0.054 A 
BRANCH  79  80
ATOM     80  S   UNL A   1      40.062  35.547  38.466  1.00  0.00     0.124 S 
ATOM     81  O   UNL A   1      38.848  34.953  39.017  1.00  0.00    -0.237 OA
ATOM     82  O   UNL A   1      41.198  35.629  39.380  1.00  0.00    -0.237 OA
ATOM     83  O   UNL A   1      39.861  36.728  37.630  1.00  0.00    -0.744 OA
ENDBRANCH  79  80
ENDBRANCH  51  74
BRANCH  63  84
ATOM     84  C   UNL A   1      46.762  28.260  33.954  1.00  0.00    -0.014 A 
ATOM     85  C   UNL A   1      47.872  28.990  33.491  1.00  0.00     0.010 A 
ATOM     86  C   UNL A   1      46.925  27.383  35.042  1.00  0.00     0.010 A 
ATOM     87  C   UNL A   1      49.130  28.807  34.070  1.00  0.00     0.020 A 
ATOM     88  C   UNL A   1      48.176  27.216  35.640  1.00  0.00     0.020 A 
ATOM     89  C   UNL A   1      49.277  27.912  35.134  1.00  0.00     0.054 A 
BRANCH  89  90
ATOM     90  S   UNL A   1      50.918  27.686  35.873  1.00  0.00     0.124 S 
ATOM     91  O   UNL A   1      51.561  28.962  35.574  1.00  0.00    -0.237 OA
ATOM     92  O   UNL A   1      50.611  27.452  37.282  1.00  0.00    -0.237 OA
ATOM     93  O   UNL A   1      51.460  26.531  35.161  1.00  0.00    -0.744 OA
ENDBRANCH  89  90
ENDBRANCH  63  84
ENDBRANCH  37  38
ENDBRANCH  29  32
ENDBRANCH  27  28
ENDBRANCH  26  27
ENDBRANCH  25  26
ENDBRANCH  24  25
ENDBRANCH   1  24
TORSDOF 22
ENDMDL
