MODEL 1
REMARK VINA RESULT:     -13.6      0.000      0.000
REMARK SMILES Cc1ccccc1C(=O)Nc1ccc(N2CCC(n3c(C)nc4cccnc43)CC2)c(C(=O)NCCCCCCNC(=O)c2ccc(-c3c4nc(c(-c5ccc(S(=O)(=O)[O-])cc5)c5ccc([nH]5)c(-c5ccc(S(=O)(=O)[O-])cc5)c5nc(c(-c6ccc(S(=O)(=O)[O-])cc6)c6ccc3[nH]6)C=C5)C=C4)cc2)c1
REMARK SMILES IDX 38 1 37 2 36 3 35 4 34 5 32 6 33 7 31 9 11 10 12 11 104 12
REMARK SMILES IDX 13 13 14 14 10 15 8 16 9 17 7 19 1 20 2 21 3 22 4 23 6 24
REMARK SMILES IDX 5 25 15 26 16 27 30 28 17 29 29 30 18 31 19 32 20 33 28 34
REMARK SMILES IDX 21 35 22 36 23 37 27 38 24 39 26 40 25 41 39 42 40 43 41 44
REMARK SMILES IDX 42 45 43 47 44 48 45 49 103 50 46 51 102 52 47 53 48 54
REMARK SMILES IDX 49 55 96 56 50 57 101 58 95 59 97 60 51 61 100 62 94 63
REMARK SMILES IDX 93 64 52 66 82 67 63 68 81 69 64 70 67 71 80 72 98 73 65 74
REMARK SMILES IDX 66 75 79 77 99 78 68 79 53 80 54 81 62 82 55 83 61 84 56 85
REMARK SMILES IDX 57 86 58 87 59 88 60 89 83 90 84 91 92 92 85 93 91 94 86 95
REMARK SMILES IDX 87 96 88 97 89 98 90 99 69 100 70 101 78 102 71 103 77 104
REMARK SMILES IDX 72 105 73 106 74 107 75 108 76 109
REMARK H PARENT 34 8 10 18 41 46 97 65 67 76
REMARK Flexibility Score: inf
ROOT
ATOM      1  C   UNL A   1      35.223  23.665  24.902  1.00  0.00     0.002 C 
ENDROOT
BRANCH   1   2
ATOM      2  C   UNL A   1      34.539  24.495  26.058  1.00  0.00     0.002 C 
BRANCH   2   3
ATOM      3  C   UNL A   1      33.083  25.019  26.100  1.00  0.00     0.021 C 
BRANCH   3   4
ATOM      4  C   UNL A   1      32.841  26.497  26.346  1.00  0.00     0.116 C 
BRANCH   4   5
ATOM      5  N   UNL A   1      33.961  27.388  26.141  1.00  0.00    -0.352 N 
ATOM      6  C   UNL A   1      34.018  28.762  26.116  1.00  0.00     0.253 C 
ATOM      7  O   UNL A   1      35.152  29.256  26.037  1.00  0.00    -0.269 OA
ATOM      8  H   UNL A   1      34.825  26.936  25.997  1.00  0.00     0.163 HD
BRANCH   6   9
ATOM      9  C   UNL A   1      32.837  29.705  26.126  1.00  0.00     0.065 A 
ATOM     10  C   UNL A   1      30.908  30.383  24.760  1.00  0.00     0.042 A 
ATOM     11  C   UNL A   1      30.568  31.355  25.677  1.00  0.00     0.028 A 
ATOM     12  C   UNL A   1      31.918  29.462  25.070  1.00  0.00     0.042 A 
ATOM     13  C   UNL A   1      31.405  31.560  26.771  1.00  0.00     0.029 A 
ATOM     14  C   UNL A   1      32.636  30.863  26.915  1.00  0.00     0.050 A 
BRANCH  10  15
ATOM     15  N   UNL A   1      30.385  30.365  23.461  1.00  0.00    -0.322 N 
ATOM     16  C   UNL A   1      30.209  29.318  22.572  1.00  0.00     0.255 C 
ATOM     17  O   UNL A   1      29.870  29.612  21.420  1.00  0.00    -0.269 OA
ATOM     18  H   UNL A   1      30.093  31.243  23.124  1.00  0.00     0.170 HD
BRANCH  16  19
ATOM     19  C   UNL A   1      30.319  27.850  22.908  1.00  0.00     0.043 A 
ATOM     20  C   UNL A   1      32.774  27.423  22.220  1.00  0.00     0.045 C 
ATOM     21  C   UNL A   1      31.427  27.000  22.714  1.00  0.00    -0.038 A 
ATOM     22  C   UNL A   1      31.332  25.631  23.053  1.00  0.00     0.004 A 
ATOM     23  C   UNL A   1      30.233  25.131  23.739  1.00  0.00     0.000 A 
ATOM     24  C   UNL A   1      29.234  27.325  23.643  1.00  0.00     0.014 A 
ATOM     25  C   UNL A   1      29.201  25.993  24.076  1.00  0.00     0.001 A 
ENDBRANCH  16  19
ENDBRANCH  10  15
BRANCH  14  26
ATOM     26  N   UNL A   1      33.622  31.567  27.614  1.00  0.00    -0.371 N 
ATOM     27  C   UNL A   1      34.740  30.823  28.187  1.00  0.00     0.118 C 
ATOM     28  C   UNL A   1      33.605  33.021  27.556  1.00  0.00     0.118 C 
ATOM     29  C   UNL A   1      35.442  31.547  29.321  1.00  0.00     0.047 C 
ATOM     30  C   UNL A   1      34.263  33.665  28.757  1.00  0.00     0.047 C 
ATOM     31  C   UNL A   1      35.619  33.066  29.135  1.00  0.00     0.094 C 
BRANCH  31  32
ATOM     32  N   UNL A   1      36.265  33.703  30.307  1.00  0.00    -0.310 N 
ATOM     33  C   UNL A   1      37.553  34.206  30.493  1.00  0.00     0.108 A 
ATOM     34  C   UNL A   1      35.664  33.745  31.553  1.00  0.00     0.160 A 
ATOM     35  C   UNL A   1      38.610  34.408  29.471  1.00  0.00     0.088 C 
ATOM     36  N   UNL A   1      37.778  34.511  31.761  1.00  0.00    -0.232 NA
ATOM     37  C   UNL A   1      36.642  34.173  32.432  1.00  0.00     0.108 A 
ATOM     38  N   UNL A   1      34.405  33.397  31.868  1.00  0.00    -0.237 NA
ATOM     39  C   UNL A   1      36.342  34.186  33.799  1.00  0.00     0.034 A 
ATOM     40  C   UNL A   1      34.168  33.377  33.194  1.00  0.00     0.113 A 
ATOM     41  C   UNL A   1      35.074  33.745  34.179  1.00  0.00     0.022 A 
ENDBRANCH  31  32
ENDBRANCH  14  26
ENDBRANCH   6   9
ENDBRANCH   4   5
ENDBRANCH   3   4
ENDBRANCH   2   3
ENDBRANCH   1   2
BRANCH   1  42
ATOM     42  C   UNL A   1      36.846  23.448  24.540  1.00  0.00     0.021 C 
BRANCH  42  43
ATOM     43  C   UNL A   1      37.891  23.494  25.773  1.00  0.00     0.116 C 
BRANCH  43  44
ATOM     44  N   UNL A   1      39.119  24.476  26.376  1.00  0.00    -0.352 N 
ATOM     45  C   UNL A   1      39.627  25.441  27.482  1.00  0.00     0.251 C 
ATOM     46  H   UNL A   1      39.856  24.405  25.728  1.00  0.00     0.163 HD
ATOM     47  O   UNL A   1      40.819  25.165  27.758  1.00  0.00    -0.269 OA
BRANCH  45  48
ATOM     48  C   UNL A   1      39.061  26.674  28.537  1.00  0.00     0.039 A 
ATOM     49  C   UNL A   1      38.702  27.990  28.083  1.00  0.00     0.014 A 
ATOM     50  C   UNL A   1      38.992  26.663  29.919  1.00  0.00     0.014 A 
ATOM     51  C   UNL A   1      39.133  29.168  28.828  1.00  0.00     0.010 A 
ATOM     52  C   UNL A   1      39.421  27.800  30.667  1.00  0.00     0.010 A 
ATOM     53  C   UNL A   1      39.762  29.002  30.063  1.00  0.00    -0.014 A 
BRANCH  53  54
ATOM     54  C   UNL A   1      40.778  29.896  30.737  1.00  0.00     0.031 A 
ATOM     55  C   UNL A   1      40.332  30.970  31.621  1.00  0.00     0.074 A 
ATOM     56  C   UNL A   1      42.138  29.750  30.754  1.00  0.00     0.049 A 
ATOM     57  N   UNL A   1      40.602  32.226  31.482  1.00  0.00    -0.248 NA
ATOM     58  C   UNL A   1      39.581  30.638  32.824  1.00  0.00     0.031 C 
ATOM     59  C   UNL A   1      43.215  30.511  31.422  1.00  0.00     0.029 A 
ATOM     60  N   UNL A   1      42.892  28.848  30.034  1.00  0.00    -0.354 N 
ATOM     61  C   UNL A   1      40.343  32.786  32.718  1.00  0.00     0.074 A 
ATOM     62  C   UNL A   1      39.518  31.828  33.425  1.00  0.00     0.031 C 
ATOM     63  C   UNL A   1      44.388  30.291  30.781  1.00  0.00     0.029 A 
ATOM     64  C   UNL A   1      44.104  29.433  29.653  1.00  0.00     0.049 A 
ATOM     65  H   UNL A   1      42.618  27.926  29.820  1.00  0.00     0.167 HD
ATOM     66  C   UNL A   1      41.085  33.822  33.206  1.00  0.00     0.031 A 
ATOM     67  C   UNL A   1      44.324  29.703  28.325  1.00  0.00     0.031 A 
ATOM     68  C   UNL A   1      42.285  34.052  32.396  1.00  0.00     0.049 A 
ATOM     69  C   UNL A   1      44.319  31.158  28.002  1.00  0.00     0.074 A 
ATOM     70  C   UNL A   1      43.622  33.772  32.637  1.00  0.00     0.029 A 
ATOM     71  N   UNL A   1      42.184  34.323  31.039  1.00  0.00    -0.354 N 
ATOM     72  N   UNL A   1      43.972  32.060  28.864  1.00  0.00    -0.248 NA
ATOM     73  C   UNL A   1      44.635  31.717  26.693  1.00  0.00     0.031 C 
ATOM     74  C   UNL A   1      44.314  33.819  31.402  1.00  0.00     0.029 A 
ATOM     75  C   UNL A   1      43.408  34.164  30.416  1.00  0.00     0.049 A 
ATOM     76  H   UNL A   1      41.354  34.590  30.582  1.00  0.00     0.167 HD
ATOM     77  C   UNL A   1      43.958  33.283  28.271  1.00  0.00     0.074 A 
ATOM     78  C   UNL A   1      44.422  33.027  26.919  1.00  0.00     0.031 C 
ATOM     79  C   UNL A   1      43.540  34.369  28.976  1.00  0.00     0.031 A 
BRANCH  66  80
ATOM     80  C   UNL A   1      40.922  34.376  34.608  1.00  0.00    -0.014 A 
ATOM     81  C   UNL A   1      39.958  35.370  34.872  1.00  0.00     0.010 A 
ATOM     82  C   UNL A   1      41.657  33.916  35.722  1.00  0.00     0.010 A 
ATOM     83  C   UNL A   1      39.784  35.926  36.147  1.00  0.00     0.020 A 
ATOM     84  C   UNL A   1      41.522  34.489  36.997  1.00  0.00     0.020 A 
ATOM     85  C   UNL A   1      40.579  35.491  37.203  1.00  0.00     0.054 A 
BRANCH  85  86
ATOM     86  S   UNL A   1      40.317  36.207  38.846  1.00  0.00     0.124 S 
ATOM     87  O   UNL A   1      41.649  36.696  39.195  1.00  0.00    -0.237 OA
ATOM     88  O   UNL A   1      39.317  37.236  38.581  1.00  0.00    -0.237 OA
ATOM     89  O   UNL A   1      39.846  35.078  39.647  1.00  0.00    -0.744 OA
ENDBRANCH  85  86
ENDBRANCH  66  80
BRANCH  67  90
ATOM     90  C   UNL A   1      43.768  28.682  27.390  1.00  0.00    -0.014 A 
ATOM     91  C   UNL A   1      44.522  28.483  26.252  1.00  0.00     0.010 A 
ATOM     92  C   UNL A   1      43.287  27.513  27.950  1.00  0.00     0.010 A 
ATOM     93  C   UNL A   1      45.284  27.322  26.155  1.00  0.00     0.020 A 
ATOM     94  C   UNL A   1      44.079  26.357  27.801  1.00  0.00     0.020 A 
ATOM     95  C   UNL A   1      45.286  26.347  27.137  1.00  0.00     0.054 A 
BRANCH  95  96
ATOM     96  S   UNL A   1      47.077  25.371  27.659  1.00  0.00     0.124 S 
ATOM     97  O   UNL A   1      46.985  25.173  29.093  1.00  0.00    -0.237 OA
ATOM     98  O   UNL A   1      46.996  24.095  26.949  1.00  0.00    -0.237 OA
ATOM     99  O   UNL A   1      48.197  26.232  27.340  1.00  0.00    -0.744 OA
ENDBRANCH  95  96
ENDBRANCH  67  90
BRANCH  79 100
ATOM    100  C   UNL A   1      43.308  35.743  28.419  1.00  0.00    -0.014 A 
ATOM    101  C   UNL A   1      42.536  36.021  27.284  1.00  0.00     0.010 A 
ATOM    102  C   UNL A   1      43.851  36.849  29.114  1.00  0.00     0.010 A 
ATOM    103  C   UNL A   1      42.396  37.328  26.810  1.00  0.00     0.020 A 
ATOM    104  C   UNL A   1      43.663  38.161  28.690  1.00  0.00     0.020 A 
ATOM    105  C   UNL A   1      42.968  38.388  27.513  1.00  0.00     0.054 A 
BRANCH 105 106
ATOM    106  S   UNL A   1      42.768  40.063  26.880  1.00  0.00     0.124 S 
ATOM    107  O   UNL A   1      41.353  40.078  26.517  1.00  0.00    -0.237 OA
ATOM    108  O   UNL A   1      43.128  40.885  28.034  1.00  0.00    -0.237 OA
ATOM    109  O   UNL A   1      43.703  40.127  25.760  1.00  0.00    -0.744 OA
ENDBRANCH 105 106
ENDBRANCH  79 100
ENDBRANCH  53  54
ENDBRANCH  45  48
ENDBRANCH  43  44
ENDBRANCH  42  43
ENDBRANCH   1  42
TORSDOF 20
ENDMDL
MODEL 2
REMARK VINA RESULT:     -13.5      2.142      3.091
REMARK SMILES Cc1ccccc1C(=O)Nc1ccc(N2CCC(n3c(C)nc4cccnc43)CC2)c(C(=O)NCCCCCCNC(=O)c2ccc(-c3c4nc(c(-c5ccc(S(=O)(=O)[O-])cc5)c5ccc([nH]5)c(-c5ccc(S(=O)(=O)[O-])cc5)c5nc(c(-c6ccc(S(=O)(=O)[O-])cc6)c6ccc3[nH]6)C=C5)C=C4)cc2)c1
REMARK SMILES IDX 38 1 37 2 36 3 35 4 34 5 32 6 33 7 31 9 11 10 12 11 104 12
REMARK SMILES IDX 13 13 14 14 10 15 8 16 9 17 7 19 1 20 2 21 3 22 4 23 6 24
REMARK SMILES IDX 5 25 15 26 16 27 30 28 17 29 29 30 18 31 19 32 20 33 28 34
REMARK SMILES IDX 21 35 22 36 23 37 27 38 24 39 26 40 25 41 39 42 40 43 41 44
REMARK SMILES IDX 42 45 43 47 44 48 45 49 103 50 46 51 102 52 47 53 48 54
REMARK SMILES IDX 49 55 96 56 50 57 101 58 95 59 97 60 51 61 100 62 94 63
REMARK SMILES IDX 93 64 52 66 82 67 63 68 81 69 64 70 67 71 80 72 98 73 65 74
REMARK SMILES IDX 66 75 79 77 99 78 68 79 53 80 54 81 62 82 55 83 61 84 56 85
REMARK SMILES IDX 57 86 58 87 59 88 60 89 83 90 84 91 92 92 85 93 91 94 86 95
REMARK SMILES IDX 87 96 88 97 89 98 90 99 69 100 70 101 78 102 71 103 77 104
REMARK SMILES IDX 72 105 73 106 74 107 75 108 76 109
REMARK H PARENT 34 8 10 18 41 46 97 65 67 76
REMARK Flexibility Score: inf
ROOT
ATOM      1  C   UNL A   1      37.002  22.537  24.266  1.00  0.00     0.002 C 
ENDROOT
BRANCH   1   2
ATOM      2  C   UNL A   1      36.647  23.727  25.242  1.00  0.00     0.002 C 
BRANCH   2   3
ATOM      3  C   UNL A   1      35.325  23.940  26.018  1.00  0.00     0.021 C 
BRANCH   3   4
ATOM      4  C   UNL A   1      34.382  25.044  25.575  1.00  0.00     0.116 C 
BRANCH   4   5
ATOM      5  N   UNL A   1      33.268  25.344  26.446  1.00  0.00    -0.352 N 
ATOM      6  C   UNL A   1      32.240  26.248  26.305  1.00  0.00     0.253 C 
ATOM      7  O   UNL A   1      31.354  26.200  27.169  1.00  0.00    -0.269 OA
ATOM      8  H   UNL A   1      33.240  24.814  27.276  1.00  0.00     0.163 HD
BRANCH   6   9
ATOM      9  C   UNL A   1      32.126  27.311  25.236  1.00  0.00     0.065 A 
ATOM     10  C   UNL A   1      32.015  27.573  22.794  1.00  0.00     0.042 A 
ATOM     11  C   UNL A   1      32.018  28.946  22.916  1.00  0.00     0.028 A 
ATOM     12  C   UNL A   1      31.892  26.777  23.940  1.00  0.00     0.042 A 
ATOM     13  C   UNL A   1      32.160  29.502  24.186  1.00  0.00     0.029 A 
ATOM     14  C   UNL A   1      32.393  28.697  25.334  1.00  0.00     0.050 A 
BRANCH  10  15
ATOM     15  N   UNL A   1      32.279  26.931  21.578  1.00  0.00    -0.322 N 
ATOM     16  C   UNL A   1      32.617  25.616  21.305  1.00  0.00     0.255 C 
ATOM     17  O   UNL A   1      32.956  25.353  20.145  1.00  0.00    -0.269 OA
ATOM     18  H   UNL A   1      32.215  27.511  20.785  1.00  0.00     0.170 HD
BRANCH  16  19
ATOM     19  C   UNL A   1      32.532  24.464  22.278  1.00  0.00     0.043 A 
ATOM     20  C   UNL A   1      30.051  24.662  22.977  1.00  0.00     0.045 C 
ATOM     21  C   UNL A   1      31.421  24.067  23.050  1.00  0.00    -0.038 A 
ATOM     22  C   UNL A   1      31.540  22.980  23.946  1.00  0.00     0.004 A 
ATOM     23  C   UNL A   1      32.672  22.176  23.960  1.00  0.00     0.000 A 
ATOM     24  C   UNL A   1      33.652  23.605  22.282  1.00  0.00     0.014 A 
ATOM     25  C   UNL A   1      33.712  22.463  23.091  1.00  0.00     0.001 A 
ENDBRANCH  16  19
ENDBRANCH  10  15
BRANCH  14  26
ATOM     26  N   UNL A   1      33.129  29.326  26.343  1.00  0.00    -0.371 N 
ATOM     27  C   UNL A   1      32.686  30.633  26.821  1.00  0.00     0.118 C 
ATOM     28  C   UNL A   1      34.171  28.566  27.015  1.00  0.00     0.118 C 
ATOM     29  C   UNL A   1      33.778  31.442  27.496  1.00  0.00     0.047 C 
ATOM     30  C   UNL A   1      35.257  29.444  27.599  1.00  0.00     0.047 C 
ATOM     31  C   UNL A   1      34.742  30.645  28.394  1.00  0.00     0.094 C 
BRANCH  31  32
ATOM     32  N   UNL A   1      35.807  31.499  28.971  1.00  0.00    -0.310 N 
ATOM     33  C   UNL A   1      37.197  31.394  28.936  1.00  0.00     0.108 A 
ATOM     34  C   UNL A   1      35.533  32.536  29.846  1.00  0.00     0.160 A 
ATOM     35  C   UNL A   1      38.022  30.460  28.129  1.00  0.00     0.088 C 
ATOM     36  N   UNL A   1      37.773  32.264  29.750  1.00  0.00    -0.232 NA
ATOM     37  C   UNL A   1      36.754  32.931  30.361  1.00  0.00     0.108 A 
ATOM     38  N   UNL A   1      34.329  33.035  30.175  1.00  0.00    -0.237 NA
ATOM     39  C   UNL A   1      36.762  33.891  31.379  1.00  0.00     0.034 A 
ATOM     40  C   UNL A   1      34.372  33.921  31.189  1.00  0.00     0.113 A 
ATOM     41  C   UNL A   1      35.527  34.370  31.816  1.00  0.00     0.022 A 
ENDBRANCH  31  32
ENDBRANCH  14  26
ENDBRANCH   6   9
ENDBRANCH   4   5
ENDBRANCH   3   4
ENDBRANCH   2   3
ENDBRANCH   1   2
BRANCH   1  42
ATOM     42  C   UNL A   1      37.422  20.949  24.605  1.00  0.00     0.021 C 
BRANCH  42  43
ATOM     43  C   UNL A   1      38.803  20.705  25.410  1.00  0.00     0.116 C 
BRANCH  43  44
ATOM     44  N   UNL A   1      40.013  21.591  26.176  1.00  0.00    -0.352 N 
ATOM     45  C   UNL A   1      40.441  22.878  26.932  1.00  0.00     0.251 C 
ATOM     46  H   UNL A   1      40.823  21.036  26.119  1.00  0.00     0.163 HD
ATOM     47  O   UNL A   1      41.184  22.567  27.894  1.00  0.00    -0.269 OA
BRANCH  45  48
ATOM     48  C   UNL A   1      40.135  24.569  26.963  1.00  0.00     0.039 A 
ATOM     49  C   UNL A   1      40.943  25.525  26.257  1.00  0.00     0.014 A 
ATOM     50  C   UNL A   1      39.216  25.266  27.728  1.00  0.00     0.014 A 
ATOM     51  C   UNL A   1      41.352  26.766  26.906  1.00  0.00     0.010 A 
ATOM     52  C   UNL A   1      39.598  26.476  28.382  1.00  0.00     0.010 A 
ATOM     53  C   UNL A   1      40.824  27.087  28.157  1.00  0.00    -0.014 A 
BRANCH  53  54
ATOM     54  C   UNL A   1      41.442  27.910  29.264  1.00  0.00     0.031 A 
ATOM     55  C   UNL A   1      40.592  28.727  30.128  1.00  0.00     0.074 A 
ATOM     56  C   UNL A   1      42.741  27.894  29.693  1.00  0.00     0.049 A 
ATOM     57  N   UNL A   1      40.692  30.003  30.299  1.00  0.00    -0.248 NA
ATOM     58  C   UNL A   1      39.580  28.080  30.950  1.00  0.00     0.031 C 
ATOM     59  C   UNL A   1      43.439  28.595  30.791  1.00  0.00     0.029 A 
ATOM     60  N   UNL A   1      43.806  27.240  29.111  1.00  0.00    -0.354 N 
ATOM     61  C   UNL A   1      39.993  30.264  31.463  1.00  0.00     0.074 A 
ATOM     62  C   UNL A   1      39.156  29.104  31.692  1.00  0.00     0.031 C 
ATOM     63  C   UNL A   1      44.768  28.628  30.533  1.00  0.00     0.029 A 
ATOM     64  C   UNL A   1      44.970  28.003  29.244  1.00  0.00     0.049 A 
ATOM     65  H   UNL A   1      43.755  26.362  28.666  1.00  0.00     0.167 HD
ATOM     66  C   UNL A   1      40.387  31.239  32.332  1.00  0.00     0.031 A 
ATOM     67  C   UNL A   1      45.528  28.567  28.125  1.00  0.00     0.031 A 
ATOM     68  C   UNL A   1      41.721  31.747  32.002  1.00  0.00     0.049 A 
ATOM     69  C   UNL A   1      45.393  30.050  28.070  1.00  0.00     0.074 A 
ATOM     70  C   UNL A   1      42.953  31.551  32.609  1.00  0.00     0.029 A 
ATOM     71  N   UNL A   1      41.987  32.287  30.752  1.00  0.00    -0.354 N 
ATOM     72  N   UNL A   1      44.670  30.713  28.915  1.00  0.00    -0.248 NA
ATOM     73  C   UNL A   1      45.991  30.900  27.047  1.00  0.00     0.031 C 
ATOM     74  C   UNL A   1      43.964  31.923  31.690  1.00  0.00     0.029 A 
ATOM     75  C   UNL A   1      43.350  32.380  30.538  1.00  0.00     0.049 A 
ATOM     76  H   UNL A   1      41.299  32.565  30.105  1.00  0.00     0.167 HD
ATOM     77  C   UNL A   1      44.642  32.027  28.567  1.00  0.00     0.074 A 
ATOM     78  C   UNL A   1      45.519  32.106  27.413  1.00  0.00     0.031 C 
ATOM     79  C   UNL A   1      43.869  32.896  29.275  1.00  0.00     0.031 A 
BRANCH  66  80
ATOM     80  C   UNL A   1      39.731  31.467  33.680  1.00  0.00    -0.014 A 
ATOM     81  C   UNL A   1      38.736  32.455  33.829  1.00  0.00     0.010 A 
ATOM     82  C   UNL A   1      40.016  30.700  34.829  1.00  0.00     0.010 A 
ATOM     83  C   UNL A   1      38.116  32.715  35.058  1.00  0.00     0.020 A 
ATOM     84  C   UNL A   1      39.433  30.972  36.077  1.00  0.00     0.020 A 
ATOM     85  C   UNL A   1      38.478  31.980  36.182  1.00  0.00     0.054 A 
BRANCH  85  86
ATOM     86  S   UNL A   1      37.644  32.318  37.754  1.00  0.00     0.124 S 
ATOM     87  O   UNL A   1      36.542  33.188  37.347  1.00  0.00    -0.237 OA
ATOM     88  O   UNL A   1      37.261  30.982  38.197  1.00  0.00    -0.237 OA
ATOM     89  O   UNL A   1      38.675  32.967  38.563  1.00  0.00    -0.744 OA
ENDBRANCH  85  86
ENDBRANCH  66  80
BRANCH  67  90
ATOM     90  C   UNL A   1      45.442  27.718  26.901  1.00  0.00    -0.014 A 
ATOM     91  C   UNL A   1      46.319  28.074  25.898  1.00  0.00     0.010 A 
ATOM     92  C   UNL A   1      45.338  26.352  27.090  1.00  0.00     0.010 A 
ATOM     93  C   UNL A   1      47.436  27.274  25.677  1.00  0.00     0.020 A 
ATOM     94  C   UNL A   1      46.486  25.580  26.827  1.00  0.00     0.020 A 
ATOM     95  C   UNL A   1      47.680  26.118  26.400  1.00  0.00     0.054 A 
BRANCH  95  96
ATOM     96  S   UNL A   1      49.640  25.634  26.995  1.00  0.00     0.124 S 
ATOM     97  O   UNL A   1      50.412  25.645  25.767  1.00  0.00    -0.237 OA
ATOM     98  O   UNL A   1      50.024  26.746  27.864  1.00  0.00    -0.237 OA
ATOM     99  O   UNL A   1      49.645  24.310  27.581  1.00  0.00    -0.744 OA
ENDBRANCH  95  96
ENDBRANCH  67  90
BRANCH  79 100
ATOM    100  C   UNL A   1      43.602  34.328  28.915  1.00  0.00    -0.014 A 
ATOM    101  C   UNL A   1      42.397  34.802  28.382  1.00  0.00     0.010 A 
ATOM    102  C   UNL A   1      44.607  35.286  29.185  1.00  0.00     0.010 A 
ATOM    103  C   UNL A   1      42.239  36.148  28.043  1.00  0.00     0.020 A 
ATOM    104  C   UNL A   1      44.437  36.640  28.914  1.00  0.00     0.020 A 
ATOM    105  C   UNL A   1      43.265  37.056  28.303  1.00  0.00     0.054 A 
BRANCH 105 106
ATOM    106  S   UNL A   1      43.032  38.787  27.859  1.00  0.00     0.124 S 
ATOM    107  O   UNL A   1      41.624  38.808  27.471  1.00  0.00    -0.237 OA
ATOM    108  O   UNL A   1      43.350  39.482  29.104  1.00  0.00    -0.237 OA
ATOM    109  O   UNL A   1      43.985  38.999  26.772  1.00  0.00    -0.744 OA
ENDBRANCH 105 106
ENDBRANCH  79 100
ENDBRANCH  53  54
ENDBRANCH  45  48
ENDBRANCH  43  44
ENDBRANCH  42  43
ENDBRANCH   1  42
TORSDOF 20
ENDMDL
MODEL 3
REMARK VINA RESULT:     -13.5      2.909      7.242
REMARK SMILES Cc1ccccc1C(=O)Nc1ccc(N2CCC(n3c(C)nc4cccnc43)CC2)c(C(=O)NCCCCCCNC(=O)c2ccc(-c3c4nc(c(-c5ccc(S(=O)(=O)[O-])cc5)c5ccc([nH]5)c(-c5ccc(S(=O)(=O)[O-])cc5)c5nc(c(-c6ccc(S(=O)(=O)[O-])cc6)c6ccc3[nH]6)C=C5)C=C4)cc2)c1
REMARK SMILES IDX 38 1 37 2 36 3 35 4 34 5 32 6 33 7 31 9 11 10 12 11 104 12
REMARK SMILES IDX 13 13 14 14 10 15 8 16 9 17 7 19 1 20 2 21 3 22 4 23 6 24
REMARK SMILES IDX 5 25 15 26 16 27 30 28 17 29 29 30 18 31 19 32 20 33 28 34
REMARK SMILES IDX 21 35 22 36 23 37 27 38 24 39 26 40 25 41 39 42 40 43 41 44
REMARK SMILES IDX 42 45 43 47 44 48 45 49 103 50 46 51 102 52 47 53 48 54
REMARK SMILES IDX 49 55 96 56 50 57 101 58 95 59 97 60 51 61 100 62 94 63
REMARK SMILES IDX 93 64 52 66 82 67 63 68 81 69 64 70 67 71 80 72 98 73 65 74
REMARK SMILES IDX 66 75 79 77 99 78 68 79 53 80 54 81 62 82 55 83 61 84 56 85
REMARK SMILES IDX 57 86 58 87 59 88 60 89 83 90 84 91 92 92 85 93 91 94 86 95
REMARK SMILES IDX 87 96 88 97 89 98 90 99 69 100 70 101 78 102 71 103 77 104
REMARK SMILES IDX 72 105 73 106 74 107 75 108 76 109
REMARK H PARENT 34 8 10 18 41 46 97 65 67 76
REMARK Flexibility Score: inf
ROOT
ATOM      1  C   UNL A   1      30.825  24.823  26.588  1.00  0.00     0.002 C 
ENDROOT
BRANCH   1   2
ATOM      2  C   UNL A   1      30.684  23.728  25.459  1.00  0.00     0.002 C 
BRANCH   2   3
ATOM      3  C   UNL A   1      30.693  22.190  25.638  1.00  0.00     0.021 C 
BRANCH   3   4
ATOM      4  C   UNL A   1      32.010  21.445  25.517  1.00  0.00     0.116 C 
BRANCH   4   5
ATOM      5  N   UNL A   1      32.907  21.511  26.648  1.00  0.00    -0.352 N 
ATOM      6  C   UNL A   1      34.267  21.716  26.701  1.00  0.00     0.253 C 
ATOM      7  O   UNL A   1      34.753  21.842  27.833  1.00  0.00    -0.269 OA
ATOM      8  H   UNL A   1      32.474  21.391  27.525  1.00  0.00     0.163 HD
BRANCH   6   9
ATOM      9  C   UNL A   1      35.211  21.749  25.520  1.00  0.00     0.065 A 
ATOM     10  C   UNL A   1      37.519  21.185  24.889  1.00  0.00     0.042 A 
ATOM     11  C   UNL A   1      37.329  21.708  23.628  1.00  0.00     0.028 A 
ATOM     12  C   UNL A   1      36.426  21.049  25.754  1.00  0.00     0.042 A 
ATOM     13  C   UNL A   1      36.116  22.327  23.339  1.00  0.00     0.029 A 
ATOM     14  C   UNL A   1      35.113  22.511  24.331  1.00  0.00     0.050 A 
BRANCH  10  15
ATOM     15  N   UNL A   1      38.794  20.914  25.402  1.00  0.00    -0.322 N 
ATOM     16  C   UNL A   1      39.663  21.710  26.130  1.00  0.00     0.255 C 
ATOM     17  O   UNL A   1      40.803  21.270  26.318  1.00  0.00    -0.269 OA
ATOM     18  H   UNL A   1      39.129  20.008  25.213  1.00  0.00     0.170 HD
BRANCH  16  19
ATOM     19  C   UNL A   1      39.316  23.029  26.779  1.00  0.00     0.043 A 
ATOM     20  C   UNL A   1      41.398  23.346  28.276  1.00  0.00     0.045 C 
ATOM     21  C   UNL A   1      40.051  23.731  27.755  1.00  0.00    -0.038 A 
ATOM     22  C   UNL A   1      39.545  24.942  28.281  1.00  0.00     0.004 A 
ATOM     23  C   UNL A   1      38.425  25.554  27.736  1.00  0.00     0.000 A 
ATOM     24  C   UNL A   1      38.206  23.695  26.214  1.00  0.00     0.014 A 
ATOM     25  C   UNL A   1      37.781  24.951  26.668  1.00  0.00     0.001 A 
ENDBRANCH  16  19
ENDBRANCH  10  15
BRANCH  14  26
ATOM     26  N   UNL A   1      34.304  23.635  24.135  1.00  0.00    -0.371 N 
ATOM     27  C   UNL A   1      33.283  23.587  23.092  1.00  0.00     0.118 C 
ATOM     28  C   UNL A   1      34.370  24.713  25.109  1.00  0.00     0.118 C 
ATOM     29  C   UNL A   1      32.833  24.954  22.611  1.00  0.00     0.047 C 
ATOM     30  C   UNL A   1      33.974  26.054  24.529  1.00  0.00     0.047 C 
ATOM     31  C   UNL A   1      32.688  26.032  23.701  1.00  0.00     0.094 C 
BRANCH  31  32
ATOM     32  N   UNL A   1      32.297  27.347  23.141  1.00  0.00    -0.310 N 
ATOM     33  C   UNL A   1      33.056  28.461  22.781  1.00  0.00     0.108 A 
ATOM     34  C   UNL A   1      30.976  27.746  23.038  1.00  0.00     0.160 A 
ATOM     35  C   UNL A   1      34.534  28.568  22.692  1.00  0.00     0.088 C 
ATOM     36  N   UNL A   1      32.290  29.504  22.506  1.00  0.00    -0.232 NA
ATOM     37  C   UNL A   1      31.010  29.092  22.720  1.00  0.00     0.108 A 
ATOM     38  N   UNL A   1      29.876  27.004  23.247  1.00  0.00    -0.237 NA
ATOM     39  C   UNL A   1      29.798  29.791  22.678  1.00  0.00     0.034 A 
ATOM     40  C   UNL A   1      28.735  27.719  23.245  1.00  0.00     0.113 A 
ATOM     41  C   UNL A   1      28.638  29.078  22.980  1.00  0.00     0.022 A 
ENDBRANCH  31  32
ENDBRANCH  14  26
ENDBRANCH   6   9
ENDBRANCH   4   5
ENDBRANCH   3   4
ENDBRANCH   2   3
ENDBRANCH   1   2
BRANCH   1  42
ATOM     42  C   UNL A   1      30.660  26.490  26.504  1.00  0.00     0.021 C 
BRANCH  42  43
ATOM     43  C   UNL A   1      31.798  27.382  27.228  1.00  0.00     0.116 C 
BRANCH  43  44
ATOM     44  N   UNL A   1      32.129  28.995  27.582  1.00  0.00    -0.352 N 
ATOM     45  C   UNL A   1      33.072  30.220  27.437  1.00  0.00     0.251 C 
ATOM     46  H   UNL A   1      31.379  29.303  28.138  1.00  0.00     0.163 HD
ATOM     47  O   UNL A   1      32.385  31.250  27.232  1.00  0.00    -0.269 OA
BRANCH  45  48
ATOM     48  C   UNL A   1      34.743  30.612  27.339  1.00  0.00     0.039 A 
ATOM     49  C   UNL A   1      35.742  29.679  26.894  1.00  0.00     0.014 A 
ATOM     50  C   UNL A   1      35.387  31.758  27.770  1.00  0.00     0.014 A 
ATOM     51  C   UNL A   1      37.007  29.558  27.612  1.00  0.00     0.010 A 
ATOM     52  C   UNL A   1      36.619  31.661  28.485  1.00  0.00     0.010 A 
ATOM     53  C   UNL A   1      37.299  30.461  28.635  1.00  0.00    -0.014 A 
BRANCH  53  54
ATOM     54  C   UNL A   1      38.160  30.259  29.861  1.00  0.00     0.031 A 
ATOM     55  C   UNL A   1      37.825  30.941  31.108  1.00  0.00     0.074 A 
ATOM     56  C   UNL A   1      39.186  29.368  30.024  1.00  0.00     0.049 A 
ATOM     57  N   UNL A   1      38.596  31.746  31.762  1.00  0.00    -0.248 NA
ATOM     58  C   UNL A   1      36.550  30.661  31.754  1.00  0.00     0.031 C 
ATOM     59  C   UNL A   1      40.046  29.038  31.180  1.00  0.00     0.029 A 
ATOM     60  N   UNL A   1      39.762  28.568  29.060  1.00  0.00    -0.354 N 
ATOM     61  C   UNL A   1      38.051  31.814  33.029  1.00  0.00     0.074 A 
ATOM     62  C   UNL A   1      36.695  31.319  32.906  1.00  0.00     0.031 C 
ATOM     63  C   UNL A   1      41.189  28.459  30.741  1.00  0.00     0.029 A 
ATOM     64  C   UNL A   1      41.134  28.445  29.296  1.00  0.00     0.049 A 
ATOM     65  H   UNL A   1      39.277  28.145  28.314  1.00  0.00     0.167 HD
ATOM     66  C   UNL A   1      38.833  31.943  34.141  1.00  0.00     0.031 A 
ATOM     67  C   UNL A   1      42.015  29.034  28.424  1.00  0.00     0.031 A 
ATOM     68  C   UNL A   1      40.250  31.740  33.828  1.00  0.00     0.049 A 
ATOM     69  C   UNL A   1      42.728  30.211  28.996  1.00  0.00     0.074 A 
ATOM     70  C   UNL A   1      41.103  30.678  34.090  1.00  0.00     0.029 A 
ATOM     71  N   UNL A   1      40.887  32.524  32.877  1.00  0.00    -0.354 N 
ATOM     72  N   UNL A   1      42.415  30.721  30.144  1.00  0.00    -0.248 NA
ATOM     73  C   UNL A   1      43.791  30.946  28.320  1.00  0.00     0.031 C 
ATOM     74  C   UNL A   1      42.233  30.799  33.245  1.00  0.00     0.029 A 
ATOM     75  C   UNL A   1      42.087  31.952  32.496  1.00  0.00     0.049 A 
ATOM     76  H   UNL A   1      40.533  33.371  32.521  1.00  0.00     0.167 HD
ATOM     77  C   UNL A   1      43.150  31.842  30.366  1.00  0.00     0.074 A 
ATOM     78  C   UNL A   1      44.032  31.922  29.214  1.00  0.00     0.031 C 
ATOM     79  C   UNL A   1      42.924  32.589  31.482  1.00  0.00     0.031 A 
BRANCH  66  80
ATOM     80  C   UNL A   1      38.287  31.887  35.554  1.00  0.00    -0.014 A 
ATOM     81  C   UNL A   1      37.891  33.070  36.211  1.00  0.00     0.010 A 
ATOM     82  C   UNL A   1      38.089  30.687  36.269  1.00  0.00     0.010 A 
ATOM     83  C   UNL A   1      37.400  33.070  37.523  1.00  0.00     0.020 A 
ATOM     84  C   UNL A   1      37.634  30.672  37.597  1.00  0.00     0.020 A 
ATOM     85  C   UNL A   1      37.286  31.869  38.217  1.00  0.00     0.054 A 
BRANCH  85  86
ATOM     86  S   UNL A   1      36.624  31.892  39.903  1.00  0.00     0.124 S 
ATOM     87  O   UNL A   1      37.390  30.835  40.559  1.00  0.00    -0.237 OA
ATOM     88  O   UNL A   1      36.927  33.252  40.337  1.00  0.00    -0.237 OA
ATOM     89  O   UNL A   1      35.202  31.602  39.723  1.00  0.00    -0.744 OA
ENDBRANCH  85  86
ENDBRANCH  66  80
BRANCH  67  90
ATOM     90  C   UNL A   1      41.591  28.982  26.994  1.00  0.00    -0.014 A 
ATOM     91  C   UNL A   1      42.623  29.124  26.089  1.00  0.00     0.010 A 
ATOM     92  C   UNL A   1      40.676  28.007  26.645  1.00  0.00     0.010 A 
ATOM     93  C   UNL A   1      43.063  27.997  25.403  1.00  0.00     0.020 A 
ATOM     94  C   UNL A   1      41.163  26.898  25.926  1.00  0.00     0.020 A 
ATOM     95  C   UNL A   1      42.484  26.750  25.566  1.00  0.00     0.054 A 
BRANCH  95  96
ATOM     96  S   UNL A   1      43.684  25.021  25.613  1.00  0.00     0.124 S 
ATOM     97  O   UNL A   1      44.779  25.307  24.707  1.00  0.00    -0.237 OA
ATOM     98  O   UNL A   1      44.153  24.961  26.997  1.00  0.00    -0.237 OA
ATOM     99  O   UNL A   1      42.913  23.894  25.130  1.00  0.00    -0.744 OA
ENDBRANCH  95  96
ENDBRANCH  67  90
BRANCH  79 100
ATOM    100  C   UNL A   1      43.527  33.929  31.781  1.00  0.00    -0.014 A 
ATOM    101  C   UNL A   1      44.535  34.155  32.726  1.00  0.00     0.010 A 
ATOM    102  C   UNL A   1      43.100  35.042  31.018  1.00  0.00     0.010 A 
ATOM    103  C   UNL A   1      45.022  35.442  32.968  1.00  0.00     0.020 A 
ATOM    104  C   UNL A   1      43.624  36.318  31.204  1.00  0.00     0.020 A 
ATOM    105  C   UNL A   1      44.555  36.516  32.211  1.00  0.00     0.054 A 
BRANCH 105 106
ATOM    106  S   UNL A   1      45.203  38.164  32.542  1.00  0.00     0.124 S 
ATOM    107  O   UNL A   1      46.173  38.327  31.462  1.00  0.00    -0.237 OA
ATOM    108  O   UNL A   1      44.009  39.001  32.444  1.00  0.00    -0.237 OA
ATOM    109  O   UNL A   1      45.771  38.052  33.883  1.00  0.00    -0.744 OA
ENDBRANCH 105 106
ENDBRANCH  79 100
ENDBRANCH  53  54
ENDBRANCH  45  48
ENDBRANCH  43  44
ENDBRANCH  42  43
ENDBRANCH   1  42
TORSDOF 20
ENDMDL
