MODEL 1
REMARK VINA RESULT:     -10.5      0.000      0.000
REMARK SMILES CC(C)C[C@@H](NC(=O)Cn1nc(O)ccc1=O)C(=O)NCCCCCCNC(=O)c1ccc(-c2c3nc(c(-c4ccc(S(=O)(=O)[O-])cc4)c4ccc([nH]4)c(-c4ccc(S(=O)(=O)[O-])cc4)c4nc(c(-c5ccc(S(=O)(=O)[O-])cc5)c5ccc2[nH]5)C=C4)C=C3)cc1
REMARK SMILES IDX 23 1 22 2 21 3 20 4 18 5 19 6 5 8 4 9 2 10 1 11 3 12 6 13
REMARK SMILES IDX 7 14 8 16 9 17 10 18 11 19 16 20 12 21 15 22 17 23 14 24
REMARK SMILES IDX 13 25 24 27 25 28 26 29 27 30 28 31 29 33 30 34 31 35 89 36
REMARK SMILES IDX 32 37 88 38 33 39 34 40 35 41 82 42 36 43 87 44 81 45 83 46
REMARK SMILES IDX 37 47 86 48 80 49 79 50 38 52 68 53 49 54 67 55 50 56 53 57
REMARK SMILES IDX 66 58 84 59 51 60 52 61 65 63 85 64 54 65 39 66 40 67 48 68
REMARK SMILES IDX 41 69 47 70 42 71 43 72 44 73 45 74 46 75 69 76 70 77 78 78
REMARK SMILES IDX 71 79 77 80 72 81 73 82 74 83 75 84 76 85 55 86 56 87 64 88
REMARK SMILES IDX 57 89 63 90 58 91 59 92 60 93 61 94 62 95
REMARK H PARENT 20 7 6 15 13 26 27 32 83 51 53 62
REMARK Flexibility Score: inf
ROOT
ATOM      1  C   UNL A   1      36.327  20.098  24.944  1.00  0.00     0.002 C 
ENDROOT
BRANCH   1   2
ATOM      2  C   UNL A   1      35.249  19.037  24.705  1.00  0.00     0.021 C 
BRANCH   2   3
ATOM      3  C   UNL A   1      33.708  19.601  25.079  1.00  0.00     0.116 C 
BRANCH   3   4
ATOM      4  N   UNL A   1      33.002  21.190  26.232  1.00  0.00    -0.354 N 
ATOM      5  C   UNL A   1      32.289  22.447  26.318  1.00  0.00     0.242 C 
ATOM      6  O   UNL A   1      31.998  22.726  27.499  1.00  0.00    -0.273 OA
ATOM      7  H   UNL A   1      33.291  20.992  27.152  1.00  0.00     0.163 HD
BRANCH   5   8
ATOM      8  C   UNL A   1      31.715  23.461  25.157  1.00  0.00     0.171 C 
BRANCH   8   9
ATOM      9  C   UNL A   1      31.798  23.063  23.678  1.00  0.00     0.038 C 
BRANCH   9  10
ATOM     10  C   UNL A   1      32.991  23.296  22.733  1.00  0.00    -0.015 C 
ATOM     11  C   UNL A   1      32.924  24.541  21.875  1.00  0.00     0.007 C 
ATOM     12  C   UNL A   1      34.258  23.319  23.619  1.00  0.00     0.007 C 
ENDBRANCH   9  10
ENDBRANCH   8   9
BRANCH   8  13
ATOM     13  N   UNL A   1      30.409  24.058  25.403  1.00  0.00    -0.343 N 
ATOM     14  C   UNL A   1      30.156  25.392  25.533  1.00  0.00     0.242 C 
ATOM     15  H   UNL A   1      29.641  23.446  25.484  1.00  0.00     0.164 HD
ATOM     16  O   UNL A   1      29.219  25.732  26.260  1.00  0.00    -0.273 OA
BRANCH  14  17
ATOM     17  C   UNL A   1      30.842  26.396  24.628  1.00  0.00     0.248 C 
BRANCH  17  18
ATOM     18  N   UNL A   1      30.144  27.607  24.243  1.00  0.00    -0.217 N 
ATOM     19  N   UNL A   1      28.430  27.259  23.630  1.00  0.00    -0.131 NA
ATOM     20  C   UNL A   1      30.714  29.374  24.317  1.00  0.00     0.267 A 
ATOM     21  C   UNL A   1      27.570  28.372  23.234  1.00  0.00     0.229 A 
ATOM     22  C   UNL A   1      29.467  30.632  23.475  1.00  0.00     0.079 A 
ATOM     23  O   UNL A   1      31.550  29.835  25.098  1.00  0.00    -0.268 OA
ATOM     24  C   UNL A   1      28.072  30.193  23.066  1.00  0.00     0.075 A 
BRANCH  21  25
ATOM     25  O   UNL A   1      26.234  28.295  23.128  1.00  0.00    -0.492 OA
ATOM     26  H   UNL A   1      25.821  28.438  22.299  1.00  0.00     0.295 HD
ENDBRANCH  21  25
ENDBRANCH  17  18
ENDBRANCH  14  17
ENDBRANCH   8  13
ENDBRANCH   5   8
ENDBRANCH   3   4
ENDBRANCH   2   3
ENDBRANCH   1   2
BRANCH   1  27
ATOM     27  C   UNL A   1      37.782  19.613  24.841  1.00  0.00     0.002 C 
BRANCH  27  28
ATOM     28  C   UNL A   1      38.820  20.634  25.293  1.00  0.00     0.021 C 
BRANCH  28  29
ATOM     29  C   UNL A   1      39.665  20.153  26.459  1.00  0.00     0.116 C 
BRANCH  29  30
ATOM     30  N   UNL A   1      40.893  19.467  26.043  1.00  0.00    -0.352 N 
ATOM     31  C   UNL A   1      42.170  19.958  26.003  1.00  0.00     0.251 C 
ATOM     32  H   UNL A   1      40.784  18.532  25.754  1.00  0.00     0.163 HD
ATOM     33  O   UNL A   1      43.111  19.290  25.597  1.00  0.00    -0.269 OA
BRANCH  31  34
ATOM     34  C   UNL A   1      42.330  21.342  26.445  1.00  0.00     0.039 A 
ATOM     35  C   UNL A   1      42.326  22.335  25.466  1.00  0.00     0.014 A 
ATOM     36  C   UNL A   1      42.766  21.583  27.747  1.00  0.00     0.014 A 
ATOM     37  C   UNL A   1      42.953  23.531  25.746  1.00  0.00     0.010 A 
ATOM     38  C   UNL A   1      43.270  22.840  28.058  1.00  0.00     0.010 A 
ATOM     39  C   UNL A   1      43.412  23.805  27.047  1.00  0.00    -0.014 A 
BRANCH  39  40
ATOM     40  C   UNL A   1      43.996  25.133  27.332  1.00  0.00     0.031 A 
ATOM     41  C   UNL A   1      43.199  26.206  28.017  1.00  0.00     0.074 A 
ATOM     42  C   UNL A   1      45.285  25.330  26.994  1.00  0.00     0.049 A 
ATOM     43  N   UNL A   1      43.560  27.431  28.296  1.00  0.00    -0.248 NA
ATOM     44  C   UNL A   1      41.825  25.878  28.434  1.00  0.00     0.031 C 
ATOM     45  C   UNL A   1      46.145  24.329  26.352  1.00  0.00     0.029 A 
ATOM     46  N   UNL A   1      46.110  26.405  27.174  1.00  0.00    -0.354 N 
ATOM     47  C   UNL A   1      42.454  28.030  28.887  1.00  0.00     0.074 A 
ATOM     48  C   UNL A   1      41.399  27.041  28.912  1.00  0.00     0.031 C 
ATOM     49  C   UNL A   1      47.393  24.802  26.279  1.00  0.00     0.029 A 
ATOM     50  C   UNL A   1      47.398  26.179  26.750  1.00  0.00     0.049 A 
ATOM     51  H   UNL A   1      45.812  27.257  27.568  1.00  0.00     0.167 HD
ATOM     52  C   UNL A   1      42.343  29.291  29.366  1.00  0.00     0.031 A 
ATOM     53  C   UNL A   1      48.466  26.998  26.709  1.00  0.00     0.031 A 
ATOM     54  C   UNL A   1      43.426  30.244  29.350  1.00  0.00     0.049 A 
ATOM     55  C   UNL A   1      48.301  28.400  27.205  1.00  0.00     0.074 A 
ATOM     56  C   UNL A   1      43.426  31.543  29.826  1.00  0.00     0.029 A 
ATOM     57  N   UNL A   1      44.696  30.002  28.846  1.00  0.00    -0.354 N 
ATOM     58  N   UNL A   1      47.241  28.956  27.743  1.00  0.00    -0.248 NA
ATOM     59  C   UNL A   1      49.460  29.288  27.083  1.00  0.00     0.031 C 
ATOM     60  C   UNL A   1      44.671  32.109  29.544  1.00  0.00     0.029 A 
ATOM     61  C   UNL A   1      45.478  31.139  28.970  1.00  0.00     0.049 A 
ATOM     62  H   UNL A   1      44.997  29.149  28.458  1.00  0.00     0.167 HD
ATOM     63  C   UNL A   1      47.608  30.264  28.029  1.00  0.00     0.074 A 
ATOM     64  C   UNL A   1      48.995  30.404  27.632  1.00  0.00     0.031 C 
ATOM     65  C   UNL A   1      46.857  31.259  28.561  1.00  0.00     0.031 A 
BRANCH  52  66
ATOM     66  C   UNL A   1      41.023  29.741  29.941  1.00  0.00    -0.014 A 
ATOM     67  C   UNL A   1      40.828  29.713  31.336  1.00  0.00     0.010 A 
ATOM     68  C   UNL A   1      39.932  30.054  29.111  1.00  0.00     0.010 A 
ATOM     69  C   UNL A   1      39.564  29.943  31.886  1.00  0.00     0.020 A 
ATOM     70  C   UNL A   1      38.672  30.317  29.659  1.00  0.00     0.020 A 
ATOM     71  C   UNL A   1      38.490  30.232  31.042  1.00  0.00     0.054 A 
BRANCH  71  72
ATOM     72  S   UNL A   1      36.847  30.479  31.771  1.00  0.00     0.124 S 
ATOM     73  O   UNL A   1      36.734  29.337  32.673  1.00  0.00    -0.237 OA
ATOM     74  O   UNL A   1      36.978  31.783  32.417  1.00  0.00    -0.237 OA
ATOM     75  O   UNL A   1      35.953  30.455  30.615  1.00  0.00    -0.744 OA
ENDBRANCH  71  72
ENDBRANCH  52  66
BRANCH  53  76
ATOM     76  C   UNL A   1      49.754  26.473  26.180  1.00  0.00    -0.014 A 
ATOM     77  C   UNL A   1      50.628  25.754  27.018  1.00  0.00     0.010 A 
ATOM     78  C   UNL A   1      50.172  26.804  24.880  1.00  0.00     0.010 A 
ATOM     79  C   UNL A   1      51.924  25.450  26.599  1.00  0.00     0.020 A 
ATOM     80  C   UNL A   1      51.456  26.463  24.442  1.00  0.00     0.020 A 
ATOM     81  C   UNL A   1      52.334  25.821  25.318  1.00  0.00     0.054 A 
BRANCH  81  82
ATOM     82  S   UNL A   1      54.044  25.477  24.821  1.00  0.00     0.124 S 
ATOM     83  O   UNL A   1      54.803  26.184  25.851  1.00  0.00    -0.237 OA
ATOM     84  O   UNL A   1      54.107  24.020  24.883  1.00  0.00    -0.237 OA
ATOM     85  O   UNL A   1      54.131  26.046  23.479  1.00  0.00    -0.744 OA
ENDBRANCH  81  82
ENDBRANCH  53  76
BRANCH  65  86
ATOM     86  C   UNL A   1      47.510  32.602  28.746  1.00  0.00    -0.014 A 
ATOM     87  C   UNL A   1      48.140  32.909  29.966  1.00  0.00     0.010 A 
ATOM     88  C   UNL A   1      47.391  33.600  27.763  1.00  0.00     0.010 A 
ATOM     89  C   UNL A   1      48.603  34.202  30.218  1.00  0.00     0.020 A 
ATOM     90  C   UNL A   1      47.884  34.885  27.998  1.00  0.00     0.020 A 
ATOM     91  C   UNL A   1      48.461  35.185  29.235  1.00  0.00     0.054 A 
BRANCH  91  92
ATOM     92  S   UNL A   1      49.030  36.867  29.596  1.00  0.00     0.124 S 
ATOM     93  O   UNL A   1      50.134  36.626  30.521  1.00  0.00    -0.237 OA
ATOM     94  O   UNL A   1      49.412  37.366  28.276  1.00  0.00    -0.237 OA
ATOM     95  O   UNL A   1      47.855  37.510  30.180  1.00  0.00    -0.744 OA
ENDBRANCH  91  92
ENDBRANCH  65  86
ENDBRANCH  39  40
ENDBRANCH  31  34
ENDBRANCH  29  30
ENDBRANCH  28  29
ENDBRANCH  27  28
ENDBRANCH   1  27
TORSDOF 22
ENDMDL
MODEL 2
REMARK VINA RESULT:     -10.3      1.937      2.822
REMARK SMILES CC(C)C[C@@H](NC(=O)Cn1nc(O)ccc1=O)C(=O)NCCCCCCNC(=O)c1ccc(-c2c3nc(c(-c4ccc(S(=O)(=O)[O-])cc4)c4ccc([nH]4)c(-c4ccc(S(=O)(=O)[O-])cc4)c4nc(c(-c5ccc(S(=O)(=O)[O-])cc5)c5ccc2[nH]5)C=C4)C=C3)cc1
REMARK SMILES IDX 23 1 22 2 21 3 20 4 18 5 19 6 5 8 4 9 2 10 1 11 3 12 6 13
REMARK SMILES IDX 7 14 8 16 9 17 10 18 11 19 16 20 12 21 15 22 17 23 14 24
REMARK SMILES IDX 13 25 24 27 25 28 26 29 27 30 28 31 29 33 30 34 31 35 89 36
REMARK SMILES IDX 32 37 88 38 33 39 34 40 35 41 82 42 36 43 87 44 81 45 83 46
REMARK SMILES IDX 37 47 86 48 80 49 79 50 38 52 68 53 49 54 67 55 50 56 53 57
REMARK SMILES IDX 66 58 84 59 51 60 52 61 65 63 85 64 54 65 39 66 40 67 48 68
REMARK SMILES IDX 41 69 47 70 42 71 43 72 44 73 45 74 46 75 69 76 70 77 78 78
REMARK SMILES IDX 71 79 77 80 72 81 73 82 74 83 75 84 76 85 55 86 56 87 64 88
REMARK SMILES IDX 57 89 63 90 58 91 59 92 60 93 61 94 62 95
REMARK H PARENT 20 7 6 15 13 26 27 32 83 51 53 62
REMARK Flexibility Score: inf
ROOT
ATOM      1  C   UNL A   1      40.526  24.375  26.767  1.00  0.00     0.002 C 
ENDROOT
BRANCH   1   2
ATOM      2  C   UNL A   1      39.103  24.925  26.908  1.00  0.00     0.021 C 
BRANCH   2   3
ATOM      3  C   UNL A   1      37.942  23.836  26.362  1.00  0.00     0.116 C 
BRANCH   3   4
ATOM      4  N   UNL A   1      37.281  23.275  24.464  1.00  0.00    -0.354 N 
ATOM      5  C   UNL A   1      36.209  23.175  23.497  1.00  0.00     0.242 C 
ATOM      6  O   UNL A   1      36.647  22.954  22.350  1.00  0.00    -0.273 OA
ATOM      7  H   UNL A   1      38.072  22.901  24.013  1.00  0.00     0.163 HD
BRANCH   5   8
ATOM      8  C   UNL A   1      34.587  23.419  23.633  1.00  0.00     0.171 C 
BRANCH   8   9
ATOM      9  C   UNL A   1      33.651  22.235  23.904  1.00  0.00     0.038 C 
BRANCH   9  10
ATOM     10  C   UNL A   1      33.986  20.970  24.716  1.00  0.00    -0.015 C 
ATOM     11  C   UNL A   1      34.046  21.142  26.218  1.00  0.00     0.007 C 
ATOM     12  C   UNL A   1      32.928  19.909  24.336  1.00  0.00     0.007 C 
ENDBRANCH   9  10
ENDBRANCH   8   9
BRANCH   8  13
ATOM     13  N   UNL A   1      34.166  24.542  24.461  1.00  0.00    -0.343 N 
ATOM     14  C   UNL A   1      33.556  25.676  24.012  1.00  0.00     0.242 C 
ATOM     15  H   UNL A   1      34.336  24.477  25.429  1.00  0.00     0.164 HD
ATOM     16  O   UNL A   1      33.756  26.722  24.636  1.00  0.00    -0.273 OA
BRANCH  14  17
ATOM     17  C   UNL A   1      32.486  25.601  22.942  1.00  0.00     0.248 C 
BRANCH  17  18
ATOM     18  N   UNL A   1      31.373  26.531  22.975  1.00  0.00    -0.217 N 
ATOM     19  N   UNL A   1      29.812  25.728  23.568  1.00  0.00    -0.131 NA
ATOM     20  C   UNL A   1      31.331  28.340  22.551  1.00  0.00     0.267 A 
ATOM     21  C   UNL A   1      28.598  26.531  23.698  1.00  0.00     0.229 A 
ATOM     22  C   UNL A   1      29.524  29.100  22.556  1.00  0.00     0.079 A 
ATOM     23  O   UNL A   1      32.282  29.123  22.619  1.00  0.00    -0.268 OA
ATOM     24  C   UNL A   1      28.349  28.320  23.122  1.00  0.00     0.075 A 
BRANCH  21  25
ATOM     25  O   UNL A   1      27.535  26.178  24.438  1.00  0.00    -0.492 OA
ATOM     26  H   UNL A   1      27.555  26.286  25.368  1.00  0.00     0.295 HD
ENDBRANCH  21  25
ENDBRANCH  17  18
ENDBRANCH  14  17
ENDBRANCH   8  13
ENDBRANCH   5   8
ENDBRANCH   3   4
ENDBRANCH   2   3
ENDBRANCH   1   2
BRANCH   1  27
ATOM     27  C   UNL A   1      41.012  23.469  27.910  1.00  0.00     0.002 C 
BRANCH  27  28
ATOM     28  C   UNL A   1      40.894  21.977  27.623  1.00  0.00     0.021 C 
BRANCH  28  29
ATOM     29  C   UNL A   1      42.218  21.241  27.729  1.00  0.00     0.116 C 
BRANCH  29  30
ATOM     30  N   UNL A   1      42.485  20.357  26.589  1.00  0.00    -0.352 N 
ATOM     31  C   UNL A   1      43.328  20.565  25.531  1.00  0.00     0.251 C 
ATOM     32  H   UNL A   1      41.994  19.503  26.585  1.00  0.00     0.163 HD
ATOM     33  O   UNL A   1      43.435  19.758  24.618  1.00  0.00    -0.269 OA
BRANCH  31  34
ATOM     34  C   UNL A   1      44.066  21.827  25.547  1.00  0.00     0.039 A 
ATOM     35  C   UNL A   1      45.173  21.914  26.390  1.00  0.00     0.014 A 
ATOM     36  C   UNL A   1      43.481  22.951  24.967  1.00  0.00     0.014 A 
ATOM     37  C   UNL A   1      45.573  23.164  26.814  1.00  0.00     0.010 A 
ATOM     38  C   UNL A   1      43.983  24.205  25.294  1.00  0.00     0.010 A 
ATOM     39  C   UNL A   1      45.000  24.321  26.256  1.00  0.00    -0.014 A 
BRANCH  39  40
ATOM     40  C   UNL A   1      45.518  25.643  26.668  1.00  0.00     0.031 A 
ATOM     41  C   UNL A   1      44.731  26.542  27.578  1.00  0.00     0.074 A 
ATOM     42  C   UNL A   1      46.743  25.994  26.230  1.00  0.00     0.049 A 
ATOM     43  N   UNL A   1      45.034  27.744  27.993  1.00  0.00    -0.248 NA
ATOM     44  C   UNL A   1      43.440  26.043  28.084  1.00  0.00     0.031 C 
ATOM     45  C   UNL A   1      47.592  25.167  25.365  1.00  0.00     0.029 A 
ATOM     46  N   UNL A   1      47.505  27.102  26.477  1.00  0.00    -0.354 N 
ATOM     47  C   UNL A   1      43.963  28.160  28.775  1.00  0.00     0.074 A 
ATOM     48  C   UNL A   1      42.990  27.090  28.765  1.00  0.00     0.031 C 
ATOM     49  C   UNL A   1      48.787  25.751  25.233  1.00  0.00     0.029 A 
ATOM     50  C   UNL A   1      48.749  27.047  25.894  1.00  0.00     0.049 A 
ATOM     51  H   UNL A   1      47.195  27.863  27.018  1.00  0.00     0.167 HD
ATOM     52  C   UNL A   1      43.819  29.330  29.439  1.00  0.00     0.031 A 
ATOM     53  C   UNL A   1      49.745  27.952  25.862  1.00  0.00     0.031 A 
ATOM     54  C   UNL A   1      44.823  30.366  29.449  1.00  0.00     0.049 A 
ATOM     55  C   UNL A   1      49.539  29.254  26.569  1.00  0.00     0.074 A 
ATOM     56  C   UNL A   1      44.786  31.583  30.105  1.00  0.00     0.029 A 
ATOM     57  N   UNL A   1      46.042  30.304  28.787  1.00  0.00    -0.354 N 
ATOM     58  N   UNL A   1      48.511  29.640  27.288  1.00  0.00    -0.248 NA
ATOM     59  C   UNL A   1      50.611  30.247  26.457  1.00  0.00     0.031 C 
ATOM     60  C   UNL A   1      45.948  32.287  29.780  1.00  0.00     0.029 A 
ATOM     61  C   UNL A   1      46.751  31.476  28.992  1.00  0.00     0.049 A 
ATOM     62  H   UNL A   1      46.355  29.541  28.251  1.00  0.00     0.167 HD
ATOM     63  C   UNL A   1      48.815  30.924  27.720  1.00  0.00     0.074 A 
ATOM     64  C   UNL A   1      50.135  31.234  27.206  1.00  0.00     0.031 C 
ATOM     65  C   UNL A   1      48.062  31.769  28.464  1.00  0.00     0.031 A 
BRANCH  52  66
ATOM     66  C   UNL A   1      42.545  29.583  30.206  1.00  0.00    -0.014 A 
ATOM     67  C   UNL A   1      42.427  29.113  31.529  1.00  0.00     0.010 A 
ATOM     68  C   UNL A   1      41.419  30.152  29.586  1.00  0.00     0.010 A 
ATOM     69  C   UNL A   1      41.202  29.166  32.200  1.00  0.00     0.020 A 
ATOM     70  C   UNL A   1      40.198  30.235  30.265  1.00  0.00     0.020 A 
ATOM     71  C   UNL A   1      40.091  29.716  31.558  1.00  0.00     0.054 A 
BRANCH  71  72
ATOM     72  S   UNL A   1      38.498  29.729  32.426  1.00  0.00     0.124 S 
ATOM     73  O   UNL A   1      38.061  31.111  32.250  1.00  0.00    -0.237 OA
ATOM     74  O   UNL A   1      37.727  28.726  31.695  1.00  0.00    -0.237 OA
ATOM     75  O   UNL A   1      38.850  29.354  33.794  1.00  0.00    -0.744 OA
ENDBRANCH  71  72
ENDBRANCH  52  66
BRANCH  53  76
ATOM     76  C   UNL A   1      50.997  27.617  25.132  1.00  0.00    -0.014 A 
ATOM     77  C   UNL A   1      52.172  27.299  25.842  1.00  0.00     0.010 A 
ATOM     78  C   UNL A   1      51.058  27.744  23.734  1.00  0.00     0.010 A 
ATOM     79  C   UNL A   1      53.397  27.199  25.181  1.00  0.00     0.020 A 
ATOM     80  C   UNL A   1      52.277  27.603  23.063  1.00  0.00     0.020 A 
ATOM     81  C   UNL A   1      53.443  27.367  23.797  1.00  0.00     0.054 A 
BRANCH  81  82
ATOM     82  S   UNL A   1      55.055  27.302  22.968  1.00  0.00     0.124 S 
ATOM     83  O   UNL A   1      55.828  26.465  23.884  1.00  0.00    -0.237 OA
ATOM     84  O   UNL A   1      54.728  26.692  21.683  1.00  0.00    -0.237 OA
ATOM     85  O   UNL A   1      55.464  28.703  22.905  1.00  0.00    -0.744 OA
ENDBRANCH  81  82
ENDBRANCH  53  76
BRANCH  65  86
ATOM     86  C   UNL A   1      48.635  33.126  28.772  1.00  0.00    -0.014 A 
ATOM     87  C   UNL A   1      49.354  33.324  29.966  1.00  0.00     0.010 A 
ATOM     88  C   UNL A   1      48.357  34.227  27.945  1.00  0.00     0.010 A 
ATOM     89  C   UNL A   1      49.747  34.607  30.350  1.00  0.00     0.020 A 
ATOM     90  C   UNL A   1      48.780  35.508  28.309  1.00  0.00     0.020 A 
ATOM     91  C   UNL A   1      49.448  35.693  29.522  1.00  0.00     0.054 A 
BRANCH  91  92
ATOM     92  S   UNL A   1      49.931  37.356  30.056  1.00  0.00     0.124 S 
ATOM     93  O   UNL A   1      50.250  37.145  31.466  1.00  0.00    -0.237 OA
ATOM     94  O   UNL A   1      51.071  37.651  29.191  1.00  0.00    -0.237 OA
ATOM     95  O   UNL A   1      48.739  38.160  29.799  1.00  0.00    -0.744 OA
ENDBRANCH  91  92
ENDBRANCH  65  86
ENDBRANCH  39  40
ENDBRANCH  31  34
ENDBRANCH  29  30
ENDBRANCH  28  29
ENDBRANCH  27  28
ENDBRANCH   1  27
TORSDOF 22
ENDMDL
MODEL 3
REMARK VINA RESULT:     -10.3      2.414      9.090
REMARK SMILES CC(C)C[C@@H](NC(=O)Cn1nc(O)ccc1=O)C(=O)NCCCCCCNC(=O)c1ccc(-c2c3nc(c(-c4ccc(S(=O)(=O)[O-])cc4)c4ccc([nH]4)c(-c4ccc(S(=O)(=O)[O-])cc4)c4nc(c(-c5ccc(S(=O)(=O)[O-])cc5)c5ccc2[nH]5)C=C4)C=C3)cc1
REMARK SMILES IDX 23 1 22 2 21 3 20 4 18 5 19 6 5 8 4 9 2 10 1 11 3 12 6 13
REMARK SMILES IDX 7 14 8 16 9 17 10 18 11 19 16 20 12 21 15 22 17 23 14 24
REMARK SMILES IDX 13 25 24 27 25 28 26 29 27 30 28 31 29 33 30 34 31 35 89 36
REMARK SMILES IDX 32 37 88 38 33 39 34 40 35 41 82 42 36 43 87 44 81 45 83 46
REMARK SMILES IDX 37 47 86 48 80 49 79 50 38 52 68 53 49 54 67 55 50 56 53 57
REMARK SMILES IDX 66 58 84 59 51 60 52 61 65 63 85 64 54 65 39 66 40 67 48 68
REMARK SMILES IDX 41 69 47 70 42 71 43 72 44 73 45 74 46 75 69 76 70 77 78 78
REMARK SMILES IDX 71 79 77 80 72 81 73 82 74 83 75 84 76 85 55 86 56 87 64 88
REMARK SMILES IDX 57 89 63 90 58 91 59 92 60 93 61 94 62 95
REMARK H PARENT 20 7 6 15 13 26 27 32 83 51 53 62
REMARK Flexibility Score: inf
ROOT
ATOM      1  C   UNL A   1      34.412  31.241  28.028  1.00  0.00     0.002 C 
ENDROOT
BRANCH   1   2
ATOM      2  C   UNL A   1      34.206  29.875  27.365  1.00  0.00     0.021 C 
BRANCH   2   3
ATOM      3  C   UNL A   1      33.055  29.930  26.138  1.00  0.00     0.116 C 
BRANCH   3   4
ATOM      4  N   UNL A   1      33.115  29.513  24.094  1.00  0.00    -0.354 N 
ATOM      5  C   UNL A   1      32.580  28.806  22.951  1.00  0.00     0.242 C 
ATOM      6  O   UNL A   1      32.989  29.297  21.879  1.00  0.00    -0.273 OA
ATOM      7  H   UNL A   1      33.861  30.050  23.742  1.00  0.00     0.163 HD
BRANCH   5   8
ATOM      8  C   UNL A   1      31.472  27.596  22.834  1.00  0.00     0.171 C 
BRANCH   8   9
ATOM      9  C   UNL A   1      29.973  27.917  22.881  1.00  0.00     0.038 C 
BRANCH   9  10
ATOM     10  C   UNL A   1      29.334  29.317  22.813  1.00  0.00    -0.015 C 
ATOM     11  C   UNL A   1      29.682  30.147  21.597  1.00  0.00     0.007 C 
ATOM     12  C   UNL A   1      27.805  29.109  22.906  1.00  0.00     0.007 C 
ENDBRANCH   9  10
ENDBRANCH   8   9
BRANCH   8  13
ATOM     13  N   UNL A   1      31.700  26.605  21.790  1.00  0.00    -0.343 N 
ATOM     14  C   UNL A   1      32.850  25.895  21.605  1.00  0.00     0.242 C 
ATOM     15  H   UNL A   1      30.960  26.432  21.163  1.00  0.00     0.164 HD
ATOM     16  O   UNL A   1      33.135  25.551  20.454  1.00  0.00    -0.273 OA
BRANCH  14  17
ATOM     17  C   UNL A   1      33.612  25.343  22.792  1.00  0.00     0.248 C 
BRANCH  17  18
ATOM     18  N   UNL A   1      33.017  24.296  23.601  1.00  0.00    -0.217 N 
ATOM     19  N   UNL A   1      33.944  22.697  23.460  1.00  0.00    -0.131 NA
ATOM     20  C   UNL A   1      31.541  24.366  24.727  1.00  0.00     0.267 A 
ATOM     21  C   UNL A   1      33.502  21.542  24.239  1.00  0.00     0.229 A 
ATOM     22  C   UNL A   1      31.014  22.614  25.432  1.00  0.00     0.079 A 
ATOM     23  O   UNL A   1      31.122  25.368  25.312  1.00  0.00    -0.268 OA
ATOM     24  C   UNL A   1      31.915  21.402  25.267  1.00  0.00     0.075 A 
BRANCH  21  25
ATOM     25  O   UNL A   1      34.269  20.473  24.506  1.00  0.00    -0.492 OA
ATOM     26  H   UNL A   1      34.225  19.716  23.957  1.00  0.00     0.295 HD
ENDBRANCH  21  25
ENDBRANCH  17  18
ENDBRANCH  14  17
ENDBRANCH   8  13
ENDBRANCH   5   8
ENDBRANCH   3   4
ENDBRANCH   2   3
ENDBRANCH   1   2
BRANCH   1  27
ATOM     27  C   UNL A   1      35.872  31.670  28.241  1.00  0.00     0.002 C 
BRANCH  27  28
ATOM     28  C   UNL A   1      36.867  30.516  28.280  1.00  0.00     0.021 C 
BRANCH  28  29
ATOM     29  C   UNL A   1      36.749  29.667  29.533  1.00  0.00     0.116 C 
BRANCH  29  30
ATOM     30  N   UNL A   1      36.400  30.440  30.730  1.00  0.00    -0.352 N 
ATOM     31  C   UNL A   1      37.238  30.978  31.670  1.00  0.00     0.251 C 
ATOM     32  H   UNL A   1      35.438  30.593  30.875  1.00  0.00     0.163 HD
ATOM     33  O   UNL A   1      36.816  31.576  32.649  1.00  0.00    -0.269 OA
BRANCH  31  34
ATOM     34  C   UNL A   1      38.666  30.761  31.443  1.00  0.00     0.039 A 
ATOM     35  C   UNL A   1      39.259  31.443  30.381  1.00  0.00     0.014 A 
ATOM     36  C   UNL A   1      39.291  29.693  32.084  1.00  0.00     0.014 A 
ATOM     37  C   UNL A   1      40.408  30.917  29.828  1.00  0.00     0.010 A 
ATOM     38  C   UNL A   1      40.520  29.257  31.604  1.00  0.00     0.010 A 
ATOM     39  C   UNL A   1      41.062  29.835  30.445  1.00  0.00    -0.014 A 
BRANCH  39  40
ATOM     40  C   UNL A   1      42.340  29.356  29.876  1.00  0.00     0.031 A 
ATOM     41  C   UNL A   1      42.451  28.004  29.231  1.00  0.00     0.074 A 
ATOM     42  C   UNL A   1      43.392  30.196  29.918  1.00  0.00     0.049 A 
ATOM     43  N   UNL A   1      43.511  27.429  28.727  1.00  0.00    -0.248 NA
ATOM     44  C   UNL A   1      41.229  27.183  29.147  1.00  0.00     0.031 C 
ATOM     45  C   UNL A   1      43.365  31.544  30.499  1.00  0.00     0.029 A 
ATOM     46  N   UNL A   1      44.666  30.071  29.436  1.00  0.00    -0.354 N 
ATOM     47  C   UNL A   1      43.098  26.174  28.298  1.00  0.00     0.074 A 
ATOM     48  C   UNL A   1      41.692  26.058  28.617  1.00  0.00     0.031 C 
ATOM     49  C   UNL A   1      44.530  32.151  30.256  1.00  0.00     0.029 A 
ATOM     50  C   UNL A   1      45.429  31.201  29.617  1.00  0.00     0.049 A 
ATOM     51  H   UNL A   1      45.003  29.255  29.002  1.00  0.00     0.167 HD
ATOM     52  C   UNL A   1      43.835  25.215  27.691  1.00  0.00     0.031 A 
ATOM     53  C   UNL A   1      46.722  31.442  29.333  1.00  0.00     0.031 A 
ATOM     54  C   UNL A   1      45.230  25.375  27.362  1.00  0.00     0.049 A 
ATOM     55  C   UNL A   1      47.523  30.347  28.702  1.00  0.00     0.074 A 
ATOM     56  C   UNL A   1      46.067  24.473  26.729  1.00  0.00     0.029 A 
ATOM     57  N   UNL A   1      45.989  26.507  27.627  1.00  0.00    -0.354 N 
ATOM     58  N   UNL A   1      47.121  29.157  28.321  1.00  0.00    -0.248 NA
ATOM     59  C   UNL A   1      48.945  30.613  28.470  1.00  0.00     0.031 C 
ATOM     60  C   UNL A   1      47.346  25.029  26.678  1.00  0.00     0.029 A 
ATOM     61  C   UNL A   1      47.292  26.313  27.199  1.00  0.00     0.049 A 
ATOM     62  H   UNL A   1      45.651  27.326  28.055  1.00  0.00     0.167 HD
ATOM     63  C   UNL A   1      48.244  28.531  27.798  1.00  0.00     0.074 A 
ATOM     64  C   UNL A   1      49.332  29.486  27.884  1.00  0.00     0.031 C 
ATOM     65  C   UNL A   1      48.363  27.275  27.302  1.00  0.00     0.031 A 
BRANCH  52  66
ATOM     66  C   UNL A   1      43.179  23.902  27.340  1.00  0.00    -0.014 A 
ATOM     67  C   UNL A   1      42.878  22.981  28.363  1.00  0.00     0.010 A 
ATOM     68  C   UNL A   1      42.990  23.514  26.001  1.00  0.00     0.010 A 
ATOM     69  C   UNL A   1      42.446  21.689  28.056  1.00  0.00     0.020 A 
ATOM     70  C   UNL A   1      42.527  22.231  25.691  1.00  0.00     0.020 A 
ATOM     71  C   UNL A   1      42.285  21.317  26.720  1.00  0.00     0.054 A 
BRANCH  71  72
ATOM     72  S   UNL A   1      41.770  19.619  26.341  1.00  0.00     0.124 S 
ATOM     73  O   UNL A   1      42.285  18.876  27.487  1.00  0.00    -0.237 OA
ATOM     74  O   UNL A   1      40.316  19.736  26.265  1.00  0.00    -0.237 OA
ATOM     75  O   UNL A   1      42.429  19.338  25.066  1.00  0.00    -0.744 OA
ENDBRANCH  71  72
ENDBRANCH  52  66
BRANCH  53  76
ATOM     76  C   UNL A   1      47.292  32.778  29.656  1.00  0.00    -0.014 A 
ATOM     77  C   UNL A   1      47.776  33.051  30.951  1.00  0.00     0.010 A 
ATOM     78  C   UNL A   1      47.230  33.820  28.717  1.00  0.00     0.010 A 
ATOM     79  C   UNL A   1      48.107  34.354  31.326  1.00  0.00     0.020 A 
ATOM     80  C   UNL A   1      47.601  35.120  29.076  1.00  0.00     0.020 A 
ATOM     81  C   UNL A   1      48.002  35.383  30.389  1.00  0.00     0.054 A 
BRANCH  81  82
ATOM     82  S   UNL A   1      48.370  37.078  30.918  1.00  0.00     0.124 S 
ATOM     83  O   UNL A   1      48.230  36.975  32.369  1.00  0.00    -0.237 OA
ATOM     84  O   UNL A   1      49.731  37.274  30.429  1.00  0.00    -0.237 OA
ATOM     85  O   UNL A   1      47.348  37.876  30.246  1.00  0.00    -0.744 OA
ENDBRANCH  81  82
ENDBRANCH  53  76
BRANCH  65  86
ATOM     86  C   UNL A   1      49.719  26.843  26.815  1.00  0.00    -0.014 A 
ATOM     87  C   UNL A   1      50.011  26.883  25.439  1.00  0.00     0.010 A 
ATOM     88  C   UNL A   1      50.656  26.283  27.701  1.00  0.00     0.010 A 
ATOM     89  C   UNL A   1      51.197  26.332  24.951  1.00  0.00     0.020 A 
ATOM     90  C   UNL A   1      51.859  25.762  27.220  1.00  0.00     0.020 A 
ATOM     91  C   UNL A   1      52.109  25.765  25.845  1.00  0.00     0.054 A 
BRANCH  91  92
ATOM     92  S   UNL A   1      53.624  25.018  25.189  1.00  0.00     0.124 S 
ATOM     93  O   UNL A   1      53.806  25.744  23.935  1.00  0.00    -0.237 OA
ATOM     94  O   UNL A   1      54.603  25.309  26.234  1.00  0.00    -0.237 OA
ATOM     95  O   UNL A   1      53.277  23.605  25.047  1.00  0.00    -0.744 OA
ENDBRANCH  91  92
ENDBRANCH  65  86
ENDBRANCH  39  40
ENDBRANCH  31  34
ENDBRANCH  29  30
ENDBRANCH  28  29
ENDBRANCH  27  28
ENDBRANCH   1  27
TORSDOF 22
ENDMDL
