MODEL 1
REMARK VINA RESULT:     -12.0      0.000      0.000
REMARK SMILES COc1cccc(-c2nn(-c3cc4c(cc3C(N)=O)OCO4)cc2C(=O)NCCCCCCNC(=O)c2ccc(-c3c4nc(c(-c5ccc(S(=O)(=O)[O-])cc5)c5ccc([nH]5)c(-c5ccc(S(=O)(=O)[O-])cc5)c5nc(c(-c6ccc(S(=O)(=O)[O-])cc6)c6ccc3[nH]6)C=C5)C=C4)cc2)c1
REMARK SMILES IDX 31 1 30 2 29 3 28 4 27 5 25 6 26 7 24 9 8 10 9 11 10 12
REMARK SMILES IDX 23 13 7 14 3 15 4 16 97 17 5 18 6 19 2 20 1 21 11 22 12 23
REMARK SMILES IDX 16 24 13 25 15 26 14 27 22 28 20 29 21 30 17 31 18 32 19 33
REMARK SMILES IDX 32 36 33 37 34 38 35 39 36 41 37 42 38 43 96 44 39 45 95 46
REMARK SMILES IDX 40 47 41 48 42 49 89 50 43 51 94 52 88 53 90 54 44 55 93 56
REMARK SMILES IDX 87 57 86 58 45 60 75 61 56 62 74 63 57 64 60 65 73 66 91 67
REMARK SMILES IDX 58 68 59 69 72 71 92 72 61 73 46 74 47 75 55 76 48 77 54 78
REMARK SMILES IDX 49 79 50 80 51 81 52 82 53 83 76 84 77 85 85 86 78 87 84 88
REMARK SMILES IDX 79 89 80 90 81 91 82 92 83 93 62 94 63 95 71 96 64 97 70 98
REMARK SMILES IDX 65 99 66 100 67 101 68 102 69 103
REMARK H PARENT 27 8 18 34 18 35 34 40 90 59 60 70
REMARK Flexibility Score: inf
ROOT
ATOM      1  C   UNL A   1      40.274  21.830  26.962  1.00  0.00     0.002 C 
ENDROOT
BRANCH   1   2
ATOM      2  C   UNL A   1      39.490  22.882  26.161  1.00  0.00     0.002 C 
BRANCH   2   3
ATOM      3  C   UNL A   1      37.985  22.936  26.451  1.00  0.00     0.021 C 
BRANCH   3   4
ATOM      4  C   UNL A   1      37.193  21.867  25.699  1.00  0.00     0.116 C 
BRANCH   4   5
ATOM      5  N   UNL A   1      37.138  22.181  24.287  1.00  0.00    -0.352 N 
ATOM      6  C   UNL A   1      36.241  22.867  23.512  1.00  0.00     0.255 C 
ATOM      7  O   UNL A   1      36.545  22.956  22.320  1.00  0.00    -0.269 OA
ATOM      8  H   UNL A   1      37.904  21.830  23.780  1.00  0.00     0.163 HD
BRANCH   6   9
ATOM      9  C   UNL A   1      35.053  23.505  24.063  1.00  0.00     0.086 A 
ATOM     10  C   UNL A   1      33.718  22.969  24.136  1.00  0.00     0.106 A 
ATOM     11  N   UNL A   1      32.827  23.904  24.532  1.00  0.00    -0.167 NA
ATOM     12  N   UNL A   1      33.566  25.031  24.605  1.00  0.00    -0.239 N 
ATOM     13  C   UNL A   1      34.907  24.739  24.658  1.00  0.00     0.129 A 
BRANCH  10  14
ATOM     14  C   UNL A   1      33.305  21.598  23.836  1.00  0.00     0.007 A 
ATOM     15  C   UNL A   1      33.210  19.243  24.406  1.00  0.00     0.119 A 
ATOM     16  C   UNL A   1      32.381  19.014  23.304  1.00  0.00     0.046 A 
ATOM     17  C   UNL A   1      33.683  20.533  24.667  1.00  0.00     0.056 A 
ATOM     18  C   UNL A   1      32.012  20.065  22.467  1.00  0.00     0.005 A 
ATOM     19  C   UNL A   1      32.481  21.351  22.728  1.00  0.00     0.011 A 
BRANCH  15  20
ATOM     20  O   UNL A   1      33.524  18.122  25.128  1.00  0.00    -0.497 OA
ATOM     21  C   UNL A   1      32.499  17.140  25.218  1.00  0.00     0.278 C 
ENDBRANCH  15  20
ENDBRANCH  10  14
BRANCH  12  22
ATOM     22  C   UNL A   1      33.015  26.325  24.756  1.00  0.00     0.081 A 
ATOM     23  C   UNL A   1      32.692  26.757  26.057  1.00  0.00     0.079 A 
ATOM     24  C   UNL A   1      32.881  27.206  23.639  1.00  0.00     0.069 A 
ATOM     25  C   UNL A   1      32.323  28.077  26.213  1.00  0.00     0.167 A 
ATOM     26  C   UNL A   1      32.592  28.560  23.870  1.00  0.00     0.066 A 
ATOM     27  C   UNL A   1      32.303  28.954  25.155  1.00  0.00     0.166 A 
ATOM     28  O   UNL A   1      31.955  28.681  27.375  1.00  0.00    -0.454 OA
ATOM     29  O   UNL A   1      31.923  30.208  25.515  1.00  0.00    -0.454 OA
ATOM     30  C   UNL A   1      31.573  29.990  26.897  1.00  0.00     0.468 C 
BRANCH  24  31
ATOM     31  C   UNL A   1      32.831  26.703  22.219  1.00  0.00     0.251 C 
ATOM     32  N   UNL A   1      31.614  26.682  21.588  1.00  0.00    -0.366 N 
ATOM     33  O   UNL A   1      33.785  26.241  21.617  1.00  0.00    -0.269 OA
ATOM     34  H   UNL A   1      30.818  27.045  22.040  1.00  0.00     0.159 HD
ATOM     35  H   UNL A   1      31.536  26.303  20.683  1.00  0.00     0.159 HD
ENDBRANCH  24  31
ENDBRANCH  12  22
ENDBRANCH   6   9
ENDBRANCH   4   5
ENDBRANCH   3   4
ENDBRANCH   2   3
ENDBRANCH   1   2
BRANCH   1  36
ATOM     36  C   UNL A   1      40.721  20.589  26.175  1.00  0.00     0.021 C 
BRANCH  36  37
ATOM     37  C   UNL A   1      41.928  19.890  26.784  1.00  0.00     0.116 C 
BRANCH  37  38
ATOM     38  N   UNL A   1      42.988  19.701  25.799  1.00  0.00    -0.352 N 
ATOM     39  C   UNL A   1      43.703  20.654  25.115  1.00  0.00     0.251 C 
ATOM     40  H   UNL A   1      43.221  18.765  25.597  1.00  0.00     0.163 HD
ATOM     41  O   UNL A   1      44.269  20.363  24.061  1.00  0.00    -0.269 OA
BRANCH  39  42
ATOM     42  C   UNL A   1      43.789  22.022  25.652  1.00  0.00     0.039 A 
ATOM     43  C   UNL A   1      43.108  23.071  25.030  1.00  0.00     0.014 A 
ATOM     44  C   UNL A   1      44.570  22.254  26.785  1.00  0.00     0.014 A 
ATOM     45  C   UNL A   1      43.154  24.340  25.600  1.00  0.00     0.010 A 
ATOM     46  C   UNL A   1      44.528  23.479  27.409  1.00  0.00     0.010 A 
ATOM     47  C   UNL A   1      43.849  24.533  26.805  1.00  0.00    -0.014 A 
BRANCH  47  48
ATOM     48  C   UNL A   1      43.701  25.789  27.542  1.00  0.00     0.031 A 
ATOM     49  C   UNL A   1      44.794  26.760  27.254  1.00  0.00     0.074 A 
ATOM     50  C   UNL A   1      42.568  26.139  28.192  1.00  0.00     0.049 A 
ATOM     51  N   UNL A   1      45.735  27.164  28.043  1.00  0.00    -0.248 NA
ATOM     52  C   UNL A   1      44.976  27.188  25.852  1.00  0.00     0.031 C 
ATOM     53  C   UNL A   1      41.305  25.388  28.218  1.00  0.00     0.029 A 
ATOM     54  N   UNL A   1      42.242  27.291  28.849  1.00  0.00    -0.354 N 
ATOM     55  C   UNL A   1      46.444  28.116  27.311  1.00  0.00     0.074 A 
ATOM     56  C   UNL A   1      46.106  27.890  25.932  1.00  0.00     0.031 C 
ATOM     57  C   UNL A   1      40.303  26.200  28.620  1.00  0.00     0.029 A 
ATOM     58  C   UNL A   1      40.872  27.465  29.047  1.00  0.00     0.049 A 
ATOM     59  H   UNL A   1      42.915  27.941  29.155  1.00  0.00     0.167 HD
ATOM     60  C   UNL A   1      46.937  29.233  27.920  1.00  0.00     0.031 A 
ATOM     61  C   UNL A   1      40.237  28.575  29.501  1.00  0.00     0.031 A 
ATOM     62  C   UNL A   1      46.917  29.079  29.353  1.00  0.00     0.049 A 
ATOM     63  C   UNL A   1      41.242  29.396  30.212  1.00  0.00     0.074 A 
ATOM     64  C   UNL A   1      47.593  28.339  30.296  1.00  0.00     0.029 A 
ATOM     65  N   UNL A   1      45.750  29.515  29.926  1.00  0.00    -0.354 N 
ATOM     66  N   UNL A   1      41.838  29.006  31.306  1.00  0.00    -0.248 NA
ATOM     67  C   UNL A   1      41.869  30.514  29.522  1.00  0.00     0.031 C 
ATOM     68  C   UNL A   1      46.690  28.184  31.390  1.00  0.00     0.029 A 
ATOM     69  C   UNL A   1      45.516  28.882  31.114  1.00  0.00     0.049 A 
ATOM     70  H   UNL A   1      45.158  30.197  29.533  1.00  0.00     0.167 HD
ATOM     71  C   UNL A   1      43.116  29.521  31.200  1.00  0.00     0.074 A 
ATOM     72  C   UNL A   1      43.025  30.567  30.189  1.00  0.00     0.031 C 
ATOM     73  C   UNL A   1      44.188  28.840  31.696  1.00  0.00     0.031 A 
BRANCH  60  74
ATOM     74  C   UNL A   1      46.876  30.628  27.303  1.00  0.00    -0.014 A 
ATOM     75  C   UNL A   1      48.079  31.360  27.188  1.00  0.00     0.010 A 
ATOM     76  C   UNL A   1      45.684  31.356  27.121  1.00  0.00     0.010 A 
ATOM     77  C   UNL A   1      48.082  32.750  26.999  1.00  0.00     0.020 A 
ATOM     78  C   UNL A   1      45.674  32.736  26.900  1.00  0.00     0.020 A 
ATOM     79  C   UNL A   1      46.873  33.431  26.872  1.00  0.00     0.054 A 
BRANCH  79  80
ATOM     80  S   UNL A   1      46.871  35.234  26.720  1.00  0.00     0.124 S 
ATOM     81  O   UNL A   1      46.191  35.638  27.945  1.00  0.00    -0.237 OA
ATOM     82  O   UNL A   1      48.299  35.536  26.653  1.00  0.00    -0.237 OA
ATOM     83  O   UNL A   1      46.132  35.469  25.482  1.00  0.00    -0.744 OA
ENDBRANCH  79  80
ENDBRANCH  60  74
BRANCH  61  84
ATOM     84  C   UNL A   1      38.882  29.089  29.169  1.00  0.00    -0.014 A 
ATOM     85  C   UNL A   1      37.978  29.469  30.182  1.00  0.00     0.010 A 
ATOM     86  C   UNL A   1      38.579  29.476  27.849  1.00  0.00     0.010 A 
ATOM     87  C   UNL A   1      36.856  30.268  29.893  1.00  0.00     0.020 A 
ATOM     88  C   UNL A   1      37.460  30.267  27.553  1.00  0.00     0.020 A 
ATOM     89  C   UNL A   1      36.618  30.682  28.581  1.00  0.00     0.054 A 
BRANCH  89  90
ATOM     90  S   UNL A   1      35.278  31.867  28.242  1.00  0.00     0.124 S 
ATOM     91  O   UNL A   1      36.004  33.013  27.705  1.00  0.00    -0.237 OA
ATOM     92  O   UNL A   1      34.446  31.141  27.287  1.00  0.00    -0.237 OA
ATOM     93  O   UNL A   1      34.668  32.079  29.554  1.00  0.00    -0.744 OA
ENDBRANCH  89  90
ENDBRANCH  61  84
BRANCH  73  94
ATOM     94  C   UNL A   1      43.962  27.883  32.832  1.00  0.00    -0.014 A 
ATOM     95  C   UNL A   1      43.922  26.483  32.715  1.00  0.00     0.010 A 
ATOM     96  C   UNL A   1      43.874  28.456  34.114  1.00  0.00     0.010 A 
ATOM     97  C   UNL A   1      43.781  25.679  33.858  1.00  0.00     0.020 A 
ATOM     98  C   UNL A   1      43.756  27.665  35.253  1.00  0.00     0.020 A 
ATOM     99  C   UNL A   1      43.699  26.278  35.121  1.00  0.00     0.054 A 
BRANCH  99 100
ATOM    100  S   UNL A   1      43.552  25.243  36.603  1.00  0.00     0.124 S 
ATOM    101  O   UNL A   1      44.136  23.978  36.165  1.00  0.00    -0.237 OA
ATOM    102  O   UNL A   1      44.328  25.985  37.594  1.00  0.00    -0.237 OA
ATOM    103  O   UNL A   1      42.113  25.203  36.859  1.00  0.00    -0.744 OA
ENDBRANCH  99 100
ENDBRANCH  73  94
ENDBRANCH  47  48
ENDBRANCH  39  42
ENDBRANCH  37  38
ENDBRANCH  36  37
ENDBRANCH   1  36
TORSDOF 20
ENDMDL
MODEL 2
REMARK VINA RESULT:     -11.8      1.657      2.358
REMARK SMILES COc1cccc(-c2nn(-c3cc4c(cc3C(N)=O)OCO4)cc2C(=O)NCCCCCCNC(=O)c2ccc(-c3c4nc(c(-c5ccc(S(=O)(=O)[O-])cc5)c5ccc([nH]5)c(-c5ccc(S(=O)(=O)[O-])cc5)c5nc(c(-c6ccc(S(=O)(=O)[O-])cc6)c6ccc3[nH]6)C=C5)C=C4)cc2)c1
REMARK SMILES IDX 31 1 30 2 29 3 28 4 27 5 25 6 26 7 24 9 8 10 9 11 10 12
REMARK SMILES IDX 23 13 7 14 3 15 4 16 97 17 5 18 6 19 2 20 1 21 11 22 12 23
REMARK SMILES IDX 16 24 13 25 15 26 14 27 22 28 20 29 21 30 17 31 18 32 19 33
REMARK SMILES IDX 32 36 33 37 34 38 35 39 36 41 37 42 38 43 96 44 39 45 95 46
REMARK SMILES IDX 40 47 41 48 42 49 89 50 43 51 94 52 88 53 90 54 44 55 93 56
REMARK SMILES IDX 87 57 86 58 45 60 75 61 56 62 74 63 57 64 60 65 73 66 91 67
REMARK SMILES IDX 58 68 59 69 72 71 92 72 61 73 46 74 47 75 55 76 48 77 54 78
REMARK SMILES IDX 49 79 50 80 51 81 52 82 53 83 76 84 77 85 85 86 78 87 84 88
REMARK SMILES IDX 79 89 80 90 81 91 82 92 83 93 62 94 63 95 71 96 64 97 70 98
REMARK SMILES IDX 65 99 66 100 67 101 68 102 69 103
REMARK H PARENT 27 8 18 34 18 35 34 40 90 59 60 70
REMARK Flexibility Score: inf
ROOT
ATOM      1  C   UNL A   1      40.798  21.683  27.743  1.00  0.00     0.002 C 
ENDROOT
BRANCH   1   2
ATOM      2  C   UNL A   1      39.786  22.065  26.651  1.00  0.00     0.002 C 
BRANCH   2   3
ATOM      3  C   UNL A   1      39.253  23.501  26.728  1.00  0.00     0.021 C 
BRANCH   3   4
ATOM      4  C   UNL A   1      37.810  23.630  26.241  1.00  0.00     0.116 C 
BRANCH   4   5
ATOM      5  N   UNL A   1      37.732  23.353  24.823  1.00  0.00    -0.352 N 
ATOM      6  C   UNL A   1      36.686  23.226  23.947  1.00  0.00     0.255 C 
ATOM      7  O   UNL A   1      37.011  23.008  22.778  1.00  0.00    -0.269 OA
ATOM      8  H   UNL A   1      38.612  23.231  24.400  1.00  0.00     0.163 HD
BRANCH   6   9
ATOM      9  C   UNL A   1      35.298  23.406  24.350  1.00  0.00     0.086 A 
ATOM     10  C   UNL A   1      34.305  22.387  24.573  1.00  0.00     0.106 A 
ATOM     11  N   UNL A   1      33.075  22.919  24.749  1.00  0.00    -0.167 NA
ATOM     12  N   UNL A   1      33.271  24.238  24.537  1.00  0.00    -0.239 N 
ATOM     13  C   UNL A   1      34.602  24.561  24.634  1.00  0.00     0.129 A 
BRANCH  10  14
ATOM     14  C   UNL A   1      34.526  20.942  24.618  1.00  0.00     0.007 A 
ATOM     15  C   UNL A   1      33.745  18.669  24.292  1.00  0.00     0.119 A 
ATOM     16  C   UNL A   1      35.027  18.192  24.584  1.00  0.00     0.046 A 
ATOM     17  C   UNL A   1      33.491  20.044  24.320  1.00  0.00     0.056 A 
ATOM     18  C   UNL A   1      36.057  19.077  24.894  1.00  0.00     0.005 A 
ATOM     19  C   UNL A   1      35.803  20.447  24.921  1.00  0.00     0.011 A 
BRANCH  15  20
ATOM     20  O   UNL A   1      32.817  17.694  24.037  1.00  0.00    -0.497 OA
ATOM     21  C   UNL A   1      33.120  16.405  24.554  1.00  0.00     0.278 C 
ENDBRANCH  15  20
ENDBRANCH  10  14
BRANCH  12  22
ATOM     22  C   UNL A   1      32.221  25.174  24.383  1.00  0.00     0.081 A 
ATOM     23  C   UNL A   1      32.449  26.289  23.556  1.00  0.00     0.079 A 
ATOM     24  C   UNL A   1      30.937  24.946  24.967  1.00  0.00     0.069 A 
ATOM     25  C   UNL A   1      31.368  27.099  23.271  1.00  0.00     0.167 A 
ATOM     26  C   UNL A   1      29.856  25.747  24.569  1.00  0.00     0.066 A 
ATOM     27  C   UNL A   1      30.108  26.816  23.742  1.00  0.00     0.166 A 
ATOM     28  O   UNL A   1      31.382  28.229  22.515  1.00  0.00    -0.454 OA
ATOM     29  O   UNL A   1      29.179  27.726  23.345  1.00  0.00    -0.454 OA
ATOM     30  C   UNL A   1      30.023  28.690  22.682  1.00  0.00     0.468 C 
BRANCH  24  31
ATOM     31  C   UNL A   1      30.739  24.022  26.142  1.00  0.00     0.251 C 
ATOM     32  N   UNL A   1      30.158  22.803  25.908  1.00  0.00    -0.366 N 
ATOM     33  O   UNL A   1      30.990  24.314  27.299  1.00  0.00    -0.269 OA
ATOM     34  H   UNL A   1      29.939  22.530  24.988  1.00  0.00     0.159 HD
ATOM     35  H   UNL A   1      29.958  22.201  26.660  1.00  0.00     0.159 HD
ENDBRANCH  24  31
ENDBRANCH  12  22
ENDBRANCH   6   9
ENDBRANCH   4   5
ENDBRANCH   3   4
ENDBRANCH   2   3
ENDBRANCH   1   2
BRANCH   1  36
ATOM     36  C   UNL A   1      42.091  21.015  27.251  1.00  0.00     0.021 C 
BRANCH  36  37
ATOM     37  C   UNL A   1      42.109  20.770  25.749  1.00  0.00     0.116 C 
BRANCH  37  38
ATOM     38  N   UNL A   1      43.409  21.095  25.170  1.00  0.00    -0.352 N 
ATOM     39  C   UNL A   1      44.016  22.322  25.065  1.00  0.00     0.251 C 
ATOM     40  H   UNL A   1      43.916  20.335  24.804  1.00  0.00     0.163 HD
ATOM     41  O   UNL A   1      44.902  22.504  24.228  1.00  0.00    -0.269 OA
BRANCH  39  42
ATOM     42  C   UNL A   1      43.606  23.416  25.961  1.00  0.00     0.039 A 
ATOM     43  C   UNL A   1      44.119  23.501  27.257  1.00  0.00     0.014 A 
ATOM     44  C   UNL A   1      42.689  24.360  25.496  1.00  0.00     0.014 A 
ATOM     45  C   UNL A   1      43.765  24.585  28.056  1.00  0.00     0.010 A 
ATOM     46  C   UNL A   1      42.424  25.485  26.242  1.00  0.00     0.010 A 
ATOM     47  C   UNL A   1      42.932  25.588  27.533  1.00  0.00    -0.014 A 
BRANCH  47  48
ATOM     48  C   UNL A   1      42.754  26.845  28.262  1.00  0.00     0.031 A 
ATOM     49  C   UNL A   1      43.841  27.828  27.989  1.00  0.00     0.074 A 
ATOM     50  C   UNL A   1      41.606  27.184  28.890  1.00  0.00     0.049 A 
ATOM     51  N   UNL A   1      44.762  28.247  28.793  1.00  0.00    -0.248 NA
ATOM     52  C   UNL A   1      44.042  28.252  26.589  1.00  0.00     0.031 C 
ATOM     53  C   UNL A   1      40.353  26.416  28.897  1.00  0.00     0.029 A 
ATOM     54  N   UNL A   1      41.253  28.334  29.535  1.00  0.00    -0.354 N 
ATOM     55  C   UNL A   1      45.472  29.206  28.069  1.00  0.00     0.074 A 
ATOM     56  C   UNL A   1      45.162  28.969  26.685  1.00  0.00     0.031 C 
ATOM     57  C   UNL A   1      39.333  27.217  29.277  1.00  0.00     0.029 A 
ATOM     58  C   UNL A   1      39.878  28.491  29.707  1.00  0.00     0.049 A 
ATOM     59  H   UNL A   1      41.912  28.993  29.850  1.00  0.00     0.167 HD
ATOM     60  C   UNL A   1      45.939  30.332  28.682  1.00  0.00     0.031 A 
ATOM     61  C   UNL A   1      39.220  29.595  30.144  1.00  0.00     0.031 A 
ATOM     62  C   UNL A   1      45.895  30.183  30.115  1.00  0.00     0.049 A 
ATOM     63  C   UNL A   1      40.202  30.432  30.870  1.00  0.00     0.074 A 
ATOM     64  C   UNL A   1      46.563  29.457  31.073  1.00  0.00     0.029 A 
ATOM     65  N   UNL A   1      44.713  30.607  30.665  1.00  0.00    -0.354 N 
ATOM     66  N   UNL A   1      40.783  30.054  31.976  1.00  0.00    -0.248 NA
ATOM     67  C   UNL A   1      40.827  31.555  30.186  1.00  0.00     0.031 C 
ATOM     68  C   UNL A   1      45.643  29.294  32.152  1.00  0.00     0.029 A 
ATOM     69  C   UNL A   1      44.465  29.977  31.851  1.00  0.00     0.049 A 
ATOM     70  H   UNL A   1      44.120  31.280  30.258  1.00  0.00     0.167 HD
ATOM     71  C   UNL A   1      42.056  30.585  31.891  1.00  0.00     0.074 A 
ATOM     72  C   UNL A   1      41.970  31.626  30.873  1.00  0.00     0.031 C 
ATOM     73  C   UNL A   1      43.128  29.920  32.410  1.00  0.00     0.031 A 
BRANCH  60  74
ATOM     74  C   UNL A   1      45.872  31.722  28.058  1.00  0.00    -0.014 A 
ATOM     75  C   UNL A   1      46.924  32.626  28.325  1.00  0.00     0.010 A 
ATOM     76  C   UNL A   1      44.706  32.274  27.490  1.00  0.00     0.010 A 
ATOM     77  C   UNL A   1      46.780  34.008  28.126  1.00  0.00     0.020 A 
ATOM     78  C   UNL A   1      44.562  33.645  27.257  1.00  0.00     0.020 A 
ATOM     79  C   UNL A   1      45.588  34.509  27.606  1.00  0.00     0.054 A 
BRANCH  79  80
ATOM     80  S   UNL A   1      45.366  36.295  27.435  1.00  0.00     0.124 S 
ATOM     81  O   UNL A   1      46.225  36.598  26.297  1.00  0.00    -0.237 OA
ATOM     82  O   UNL A   1      43.929  36.403  27.197  1.00  0.00    -0.237 OA
ATOM     83  O   UNL A   1      45.818  36.818  28.723  1.00  0.00    -0.744 OA
ENDBRANCH  79  80
ENDBRANCH  60  74
BRANCH  61  84
ATOM     84  C   UNL A   1      37.865  30.090  29.786  1.00  0.00    -0.014 A 
ATOM     85  C   UNL A   1      37.102  30.849  30.696  1.00  0.00     0.010 A 
ATOM     86  C   UNL A   1      37.437  30.060  28.444  1.00  0.00     0.010 A 
ATOM     87  C   UNL A   1      35.998  31.608  30.264  1.00  0.00     0.020 A 
ATOM     88  C   UNL A   1      36.334  30.808  28.007  1.00  0.00     0.020 A 
ATOM     89  C   UNL A   1      35.636  31.600  28.915  1.00  0.00     0.054 A 
BRANCH  89  90
ATOM     90  S   UNL A   1      34.329  32.724  28.330  1.00  0.00     0.124 S 
ATOM     91  O   UNL A   1      33.444  31.820  27.601  1.00  0.00    -0.237 OA
ATOM     92  O   UNL A   1      33.793  33.266  29.575  1.00  0.00    -0.237 OA
ATOM     93  O   UNL A   1      35.051  33.686  27.500  1.00  0.00    -0.744 OA
ENDBRANCH  89  90
ENDBRANCH  61  84
BRANCH  73  94
ATOM     94  C   UNL A   1      42.893  28.966  33.546  1.00  0.00    -0.014 A 
ATOM     95  C   UNL A   1      42.425  27.647  33.411  1.00  0.00     0.010 A 
ATOM     96  C   UNL A   1      43.261  29.425  34.824  1.00  0.00     0.010 A 
ATOM     97  C   UNL A   1      42.316  26.815  34.538  1.00  0.00     0.020 A 
ATOM     98  C   UNL A   1      43.176  28.598  35.940  1.00  0.00     0.020 A 
ATOM     99  C   UNL A   1      42.693  27.299  35.796  1.00  0.00     0.054 A 
BRANCH  99 100
ATOM    100  S   UNL A   1      42.587  26.217  37.247  1.00  0.00     0.124 S 
ATOM    101  O   UNL A   1      43.017  24.927  36.713  1.00  0.00    -0.237 OA
ATOM    102  O   UNL A   1      43.507  26.848  38.190  1.00  0.00    -0.237 OA
ATOM    103  O   UNL A   1      41.177  26.285  37.631  1.00  0.00    -0.744 OA
ENDBRANCH  99 100
ENDBRANCH  73  94
ENDBRANCH  47  48
ENDBRANCH  39  42
ENDBRANCH  37  38
ENDBRANCH  36  37
ENDBRANCH   1  36
TORSDOF 20
ENDMDL
MODEL 3
REMARK VINA RESULT:     -11.7      2.761      6.981
REMARK SMILES COc1cccc(-c2nn(-c3cc4c(cc3C(N)=O)OCO4)cc2C(=O)NCCCCCCNC(=O)c2ccc(-c3c4nc(c(-c5ccc(S(=O)(=O)[O-])cc5)c5ccc([nH]5)c(-c5ccc(S(=O)(=O)[O-])cc5)c5nc(c(-c6ccc(S(=O)(=O)[O-])cc6)c6ccc3[nH]6)C=C5)C=C4)cc2)c1
REMARK SMILES IDX 31 1 30 2 29 3 28 4 27 5 25 6 26 7 24 9 8 10 9 11 10 12
REMARK SMILES IDX 23 13 7 14 3 15 4 16 97 17 5 18 6 19 2 20 1 21 11 22 12 23
REMARK SMILES IDX 16 24 13 25 15 26 14 27 22 28 20 29 21 30 17 31 18 32 19 33
REMARK SMILES IDX 32 36 33 37 34 38 35 39 36 41 37 42 38 43 96 44 39 45 95 46
REMARK SMILES IDX 40 47 41 48 42 49 89 50 43 51 94 52 88 53 90 54 44 55 93 56
REMARK SMILES IDX 87 57 86 58 45 60 75 61 56 62 74 63 57 64 60 65 73 66 91 67
REMARK SMILES IDX 58 68 59 69 72 71 92 72 61 73 46 74 47 75 55 76 48 77 54 78
REMARK SMILES IDX 49 79 50 80 51 81 52 82 53 83 76 84 77 85 85 86 78 87 84 88
REMARK SMILES IDX 79 89 80 90 81 91 82 92 83 93 62 94 63 95 71 96 64 97 70 98
REMARK SMILES IDX 65 99 66 100 67 101 68 102 69 103
REMARK H PARENT 27 8 18 34 18 35 34 40 90 59 60 70
REMARK Flexibility Score: inf
ROOT
ATOM      1  C   UNL A   1      37.757  21.390  24.967  1.00  0.00     0.002 C 
ENDROOT
BRANCH   1   2
ATOM      2  C   UNL A   1      36.285  21.576  24.564  1.00  0.00     0.002 C 
BRANCH   2   3
ATOM      3  C   UNL A   1      36.010  22.756  23.623  1.00  0.00     0.021 C 
BRANCH   3   4
ATOM      4  C   UNL A   1      35.596  24.027  24.363  1.00  0.00     0.116 C 
BRANCH   4   5
ATOM      5  N   UNL A   1      35.023  23.696  25.650  1.00  0.00    -0.352 N 
ATOM      6  C   UNL A   1      33.745  23.715  26.142  1.00  0.00     0.255 C 
ATOM      7  O   UNL A   1      33.631  23.331  27.308  1.00  0.00    -0.269 OA
ATOM      8  H   UNL A   1      35.690  23.394  26.308  1.00  0.00     0.163 HD
BRANCH   6   9
ATOM      9  C   UNL A   1      32.596  24.092  25.329  1.00  0.00     0.086 A 
ATOM     10  C   UNL A   1      31.913  23.294  24.343  1.00  0.00     0.106 A 
ATOM     11  N   UNL A   1      31.015  24.025  23.647  1.00  0.00    -0.167 NA
ATOM     12  N   UNL A   1      31.202  25.278  24.111  1.00  0.00    -0.239 N 
ATOM     13  C   UNL A   1      31.876  25.266  25.308  1.00  0.00     0.129 A 
BRANCH  10  14
ATOM     14  C   UNL A   1      32.112  21.870  24.076  1.00  0.00     0.007 A 
ATOM     15  C   UNL A   1      32.358  19.584  24.848  1.00  0.00     0.119 A 
ATOM     16  C   UNL A   1      32.354  19.141  23.522  1.00  0.00     0.046 A 
ATOM     17  C   UNL A   1      32.249  20.951  25.126  1.00  0.00     0.056 A 
ATOM     18  C   UNL A   1      32.233  20.050  22.473  1.00  0.00     0.005 A 
ATOM     19  C   UNL A   1      32.122  21.410  22.751  1.00  0.00     0.011 A 
BRANCH  15  20
ATOM     20  O   UNL A   1      32.517  18.595  25.782  1.00  0.00    -0.497 OA
ATOM     21  C   UNL A   1      33.069  17.376  25.299  1.00  0.00     0.278 C 
ENDBRANCH  15  20
ENDBRANCH  10  14
BRANCH  12  22
ATOM     22  C   UNL A   1      30.645  26.431  23.509  1.00  0.00     0.081 A 
ATOM     23  C   UNL A   1      29.267  26.663  23.677  1.00  0.00     0.079 A 
ATOM     24  C   UNL A   1      31.470  27.384  22.835  1.00  0.00     0.069 A 
ATOM     25  C   UNL A   1      28.770  27.873  23.240  1.00  0.00     0.167 A 
ATOM     26  C   UNL A   1      30.930  28.634  22.495  1.00  0.00     0.066 A 
ATOM     27  C   UNL A   1      29.584  28.837  22.693  1.00  0.00     0.166 A 
ATOM     28  O   UNL A   1      27.473  28.279  23.291  1.00  0.00    -0.454 OA
ATOM     29  O   UNL A   1      28.908  29.959  22.334  1.00  0.00    -0.454 OA
ATOM     30  C   UNL A   1      27.551  29.541  22.591  1.00  0.00     0.468 C 
BRANCH  24  31
ATOM     31  C   UNL A   1      32.830  27.028  22.289  1.00  0.00     0.251 C 
ATOM     32  N   UNL A   1      33.007  25.767  21.780  1.00  0.00    -0.366 N 
ATOM     33  O   UNL A   1      33.806  27.758  22.338  1.00  0.00    -0.269 OA
ATOM     34  H   UNL A   1      32.244  25.147  21.723  1.00  0.00     0.159 HD
ATOM     35  H   UNL A   1      33.897  25.482  21.472  1.00  0.00     0.159 HD
ENDBRANCH  24  31
ENDBRANCH  12  22
ENDBRANCH   6   9
ENDBRANCH   4   5
ENDBRANCH   3   4
ENDBRANCH   2   3
ENDBRANCH   1   2
BRANCH   1  36
ATOM     36  C   UNL A   1      38.331  19.980  24.763  1.00  0.00     0.021 C 
BRANCH  36  37
ATOM     37  C   UNL A   1      38.909  19.373  26.033  1.00  0.00     0.116 C 
BRANCH  37  38
ATOM     38  N   UNL A   1      40.255  18.854  25.813  1.00  0.00    -0.352 N 
ATOM     39  C   UNL A   1      41.445  19.539  25.797  1.00  0.00     0.251 C 
ATOM     40  H   UNL A   1      40.318  17.885  25.652  1.00  0.00     0.163 HD
ATOM     41  O   UNL A   1      42.426  19.061  25.224  1.00  0.00    -0.269 OA
BRANCH  39  42
ATOM     42  C   UNL A   1      41.542  20.845  26.469  1.00  0.00     0.039 A 
ATOM     43  C   UNL A   1      41.191  20.976  27.815  1.00  0.00     0.014 A 
ATOM     44  C   UNL A   1      41.981  21.949  25.738  1.00  0.00     0.014 A 
ATOM     45  C   UNL A   1      41.359  22.208  28.441  1.00  0.00     0.010 A 
ATOM     46  C   UNL A   1      42.250  23.136  26.380  1.00  0.00     0.010 A 
ATOM     47  C   UNL A   1      41.910  23.281  27.722  1.00  0.00    -0.014 A 
BRANCH  47  48
ATOM     48  C   UNL A   1      42.323  24.497  28.424  1.00  0.00     0.031 A 
ATOM     49  C   UNL A   1      41.420  25.652  28.156  1.00  0.00     0.074 A 
ATOM     50  C   UNL A   1      43.246  24.508  29.412  1.00  0.00     0.049 A 
ATOM     51  N   UNL A   1      41.674  26.730  27.491  1.00  0.00    -0.248 NA
ATOM     52  C   UNL A   1      39.994  25.501  28.511  1.00  0.00     0.031 C 
ATOM     53  C   UNL A   1      43.926  23.340  29.988  1.00  0.00     0.029 A 
ATOM     54  N   UNL A   1      43.678  25.527  30.212  1.00  0.00    -0.354 N 
ATOM     55  C   UNL A   1      40.522  27.510  27.601  1.00  0.00     0.074 A 
ATOM     56  C   UNL A   1      39.471  26.613  27.994  1.00  0.00     0.031 C 
ATOM     57  C   UNL A   1      44.466  23.672  31.181  1.00  0.00     0.029 A 
ATOM     58  C   UNL A   1      44.328  25.104  31.371  1.00  0.00     0.049 A 
ATOM     59  H   UNL A   1      43.543  26.476  29.989  1.00  0.00     0.167 HD
ATOM     60  C   UNL A   1      40.613  28.865  27.734  1.00  0.00     0.031 A 
ATOM     61  C   UNL A   1      44.706  25.863  32.431  1.00  0.00     0.031 A 
ATOM     62  C   UNL A   1      41.939  29.319  27.401  1.00  0.00     0.049 A 
ATOM     63  C   UNL A   1      44.766  27.267  31.967  1.00  0.00     0.074 A 
ATOM     64  C   UNL A   1      42.708  29.440  26.266  1.00  0.00     0.029 A 
ATOM     65  N   UNL A   1      42.786  29.350  28.479  1.00  0.00    -0.354 N 
ATOM     66  N   UNL A   1      45.614  27.686  31.067  1.00  0.00    -0.248 NA
ATOM     67  C   UNL A   1      43.642  28.155  32.229  1.00  0.00     0.031 C 
ATOM     68  C   UNL A   1      44.063  29.342  26.699  1.00  0.00     0.029 A 
ATOM     69  C   UNL A   1      44.089  29.229  28.089  1.00  0.00     0.049 A 
ATOM     70  H   UNL A   1      42.492  29.448  29.414  1.00  0.00     0.167 HD
ATOM     71  C   UNL A   1      44.915  28.644  30.358  1.00  0.00     0.074 A 
ATOM     72  C   UNL A   1      43.792  29.009  31.213  1.00  0.00     0.031 C 
ATOM     73  C   UNL A   1      45.120  28.813  29.021  1.00  0.00     0.031 A 
BRANCH  60  74
ATOM     74  C   UNL A   1      39.748  29.679  28.692  1.00  0.00    -0.014 A 
ATOM     75  C   UNL A   1      40.090  29.681  30.063  1.00  0.00     0.010 A 
ATOM     76  C   UNL A   1      38.470  30.176  28.369  1.00  0.00     0.010 A 
ATOM     77  C   UNL A   1      39.173  30.066  31.053  1.00  0.00     0.020 A 
ATOM     78  C   UNL A   1      37.558  30.593  29.343  1.00  0.00     0.020 A 
ATOM     79  C   UNL A   1      37.904  30.506  30.683  1.00  0.00     0.054 A 
BRANCH  79  80
ATOM     80  S   UNL A   1      36.690  30.915  31.960  1.00  0.00     0.124 S 
ATOM     81  O   UNL A   1      36.610  29.667  32.710  1.00  0.00    -0.237 OA
ATOM     82  O   UNL A   1      37.332  32.033  32.646  1.00  0.00    -0.237 OA
ATOM     83  O   UNL A   1      35.496  31.266  31.193  1.00  0.00    -0.744 OA
ENDBRANCH  79  80
ENDBRANCH  60  74
BRANCH  61  84
ATOM     84  C   UNL A   1      44.795  25.498  33.869  1.00  0.00    -0.014 A 
ATOM     85  C   UNL A   1      46.025  25.534  34.556  1.00  0.00     0.010 A 
ATOM     86  C   UNL A   1      43.622  25.389  34.642  1.00  0.00     0.010 A 
ATOM     87  C   UNL A   1      46.073  25.536  35.963  1.00  0.00     0.020 A 
ATOM     88  C   UNL A   1      43.662  25.384  36.044  1.00  0.00     0.020 A 
ATOM     89  C   UNL A   1      44.888  25.485  36.698  1.00  0.00     0.054 A 
BRANCH  89  90
ATOM     90  S   UNL A   1      44.943  25.677  38.507  1.00  0.00     0.124 S 
ATOM     91  O   UNL A   1      43.705  26.400  38.782  1.00  0.00    -0.237 OA
ATOM     92  O   UNL A   1      44.984  24.294  38.973  1.00  0.00    -0.237 OA
ATOM     93  O   UNL A   1      46.169  26.441  38.733  1.00  0.00    -0.744 OA
ENDBRANCH  89  90
ENDBRANCH  61  84
BRANCH  73  94
ATOM     94  C   UNL A   1      46.452  28.420  28.448  1.00  0.00    -0.014 A 
ATOM     95  C   UNL A   1      46.768  27.152  27.930  1.00  0.00     0.010 A 
ATOM     96  C   UNL A   1      47.411  29.446  28.355  1.00  0.00     0.010 A 
ATOM     97  C   UNL A   1      48.024  26.918  27.347  1.00  0.00     0.020 A 
ATOM     98  C   UNL A   1      48.649  29.226  27.760  1.00  0.00     0.020 A 
ATOM     99  C   UNL A   1      48.956  27.959  27.266  1.00  0.00     0.054 A 
BRANCH  99 100
ATOM    100  S   UNL A   1      50.566  27.669  26.483  1.00  0.00     0.124 S 
ATOM    101  O   UNL A   1      50.248  26.672  25.464  1.00  0.00    -0.237 OA
ATOM    102  O   UNL A   1      50.924  28.993  25.979  1.00  0.00    -0.237 OA
ATOM    103  O   UNL A   1      51.405  27.186  27.579  1.00  0.00    -0.744 OA
ENDBRANCH  99 100
ENDBRANCH  73  94
ENDBRANCH  47  48
ENDBRANCH  39  42
ENDBRANCH  37  38
ENDBRANCH  36  37
ENDBRANCH   1  36
TORSDOF 20
ENDMDL
