MODEL 1
REMARK VINA RESULT:     -11.5      0.000      0.000
REMARK SMILES CC(C)(C)SCC(=O)N1CC(n2cc(C(=O)NCCCCCCNC(=O)c3ccc(-c4c5nc(c(-c6ccc(S(=O)(=O)[O-])cc6)c6ccc([nH]6)c(-c6ccc(S(=O)(=O)[O-])cc6)c6nc(c(-c7ccc(S(=O)(=O)[O-])cc7)c7ccc4[nH]7)C=C6)C=C5)cc3)nn2)C1
REMARK SMILES IDX 20 1 19 2 18 3 17 4 15 5 16 6 14 8 12 9 13 10 88 11 87 12
REMARK SMILES IDX 11 13 7 14 8 15 9 16 10 17 89 18 6 19 5 20 2 21 1 22 3 23
REMARK SMILES IDX 4 24 21 25 22 26 23 27 24 28 25 29 26 31 27 32 28 33 86 34
REMARK SMILES IDX 29 35 85 36 30 37 31 38 32 39 79 40 33 41 84 42 78 43 80 44
REMARK SMILES IDX 34 45 83 46 77 47 76 48 35 50 65 51 46 52 64 53 47 54 50 55
REMARK SMILES IDX 63 56 81 57 48 58 49 59 62 61 82 62 51 63 36 64 37 65 45 66
REMARK SMILES IDX 38 67 44 68 39 69 40 70 41 71 42 72 43 73 66 74 67 75 75 76
REMARK SMILES IDX 68 77 74 78 69 79 70 80 71 81 72 82 73 83 52 84 53 85 61 86
REMARK SMILES IDX 54 87 60 88 55 89 56 90 57 91 58 92 59 93
REMARK H PARENT 17 7 24 30 80 49 50 60
REMARK Flexibility Score: inf
ROOT
ATOM      1  C   UNL A   1      39.850  21.737  26.652  1.00  0.00     0.002 C 
ENDROOT
BRANCH   1   2
ATOM      2  C   UNL A   1      39.481  23.225  26.564  1.00  0.00     0.021 C 
BRANCH   2   3
ATOM      3  C   UNL A   1      38.095  23.483  25.975  1.00  0.00     0.116 C 
BRANCH   3   4
ATOM      4  N   UNL A   1      37.304  22.268  25.945  1.00  0.00    -0.351 N 
ATOM      5  C   UNL A   1      36.105  21.967  25.345  1.00  0.00     0.273 C 
ATOM      6  O   UNL A   1      35.753  20.783  25.384  1.00  0.00    -0.267 OA
ATOM      7  H   UNL A   1      37.700  21.520  26.448  1.00  0.00     0.163 HD
BRANCH   5   8
ATOM      8  C   UNL A   1      35.319  22.980  24.653  1.00  0.00     0.170 A 
ATOM      9  N   UNL A   1      34.200  24.727  24.007  1.00  0.00    -0.245 N 
ATOM     10  C   UNL A   1      34.676  24.107  25.128  1.00  0.00     0.145 A 
ATOM     11  N   UNL A   1      34.446  24.003  22.907  1.00  0.00    -0.066 NA
ATOM     12  N   UNL A   1      35.097  22.911  23.291  1.00  0.00    -0.125 NA
BRANCH   9  13
ATOM     13  C   UNL A   1      33.665  26.049  24.029  1.00  0.00     0.148 C 
ATOM     14  C   UNL A   1      31.246  28.195  24.591  1.00  0.00     0.232 C 
ATOM     15  O   UNL A   1      31.528  29.028  25.461  1.00  0.00    -0.274 OA
ATOM     16  N   UNL A   1      31.957  27.037  24.495  1.00  0.00    -0.338 N 
ATOM     17  C   UNL A   1      33.040  26.539  25.341  1.00  0.00     0.148 C 
ATOM     18  C   UNL A   1      32.218  26.056  23.465  1.00  0.00     0.148 C 
BRANCH  14  19
ATOM     19  C   UNL A   1      29.984  28.389  23.767  1.00  0.00     0.170 C 
BRANCH  19  20
ATOM     20  S   UNL A   1      29.931  29.724  22.544  1.00  0.00    -0.146 SA
BRANCH  20  21
ATOM     21  C   UNL A   1      28.156  30.250  22.522  1.00  0.00     0.008 C 
ATOM     22  C   UNL A   1      27.890  30.701  21.073  1.00  0.00     0.022 C 
ATOM     23  C   UNL A   1      27.915  31.433  23.463  1.00  0.00     0.022 C 
ATOM     24  C   UNL A   1      27.210  29.092  22.858  1.00  0.00     0.022 C 
ENDBRANCH  20  21
ENDBRANCH  19  20
ENDBRANCH  14  19
ENDBRANCH   9  13
ENDBRANCH   5   8
ENDBRANCH   3   4
ENDBRANCH   2   3
ENDBRANCH   1   2
BRANCH   1  25
ATOM     25  C   UNL A   1      40.891  21.367  27.723  1.00  0.00     0.002 C 
BRANCH  25  26
ATOM     26  C   UNL A   1      41.840  20.208  27.385  1.00  0.00     0.021 C 
BRANCH  26  27
ATOM     27  C   UNL A   1      41.871  19.858  25.907  1.00  0.00     0.116 C 
BRANCH  27  28
ATOM     28  N   UNL A   1      43.230  19.601  25.420  1.00  0.00    -0.352 N 
ATOM     29  C   UNL A   1      44.174  20.518  25.004  1.00  0.00     0.251 C 
ATOM     30  H   UNL A   1      43.503  18.655  25.387  1.00  0.00     0.163 HD
ATOM     31  O   UNL A   1      45.104  20.175  24.273  1.00  0.00    -0.269 OA
BRANCH  29  32
ATOM     32  C   UNL A   1      44.054  21.910  25.463  1.00  0.00     0.039 A 
ATOM     33  C   UNL A   1      43.179  22.826  24.872  1.00  0.00     0.014 A 
ATOM     34  C   UNL A   1      44.838  22.280  26.551  1.00  0.00     0.014 A 
ATOM     35  C   UNL A   1      43.059  24.094  25.440  1.00  0.00     0.010 A 
ATOM     36  C   UNL A   1      44.561  23.432  27.228  1.00  0.00     0.010 A 
ATOM     37  C   UNL A   1      43.748  24.382  26.630  1.00  0.00    -0.014 A 
BRANCH  37  38
ATOM     38  C   UNL A   1      43.573  25.636  27.344  1.00  0.00     0.031 A 
ATOM     39  C   UNL A   1      44.564  26.681  26.982  1.00  0.00     0.074 A 
ATOM     40  C   UNL A   1      42.472  25.912  28.079  1.00  0.00     0.049 A 
ATOM     41  N   UNL A   1      45.550  27.102  27.699  1.00  0.00    -0.248 NA
ATOM     42  C   UNL A   1      44.569  27.195  25.601  1.00  0.00     0.031 C 
ATOM     43  C   UNL A   1      41.257  25.104  28.264  1.00  0.00     0.029 A 
ATOM     44  N   UNL A   1      42.153  27.056  28.735  1.00  0.00    -0.354 N 
ATOM     45  C   UNL A   1      46.150  28.116  26.963  1.00  0.00     0.074 A 
ATOM     46  C   UNL A   1      45.652  27.977  25.616  1.00  0.00     0.031 C 
ATOM     47  C   UNL A   1      40.262  25.880  28.754  1.00  0.00     0.029 A 
ATOM     48  C   UNL A   1      40.812  27.180  29.089  1.00  0.00     0.049 A 
ATOM     49  H   UNL A   1      42.821  27.749  28.944  1.00  0.00     0.167 HD
ATOM     50  C   UNL A   1      46.789  29.150  27.578  1.00  0.00     0.031 A 
ATOM     51  C   UNL A   1      40.207  28.286  29.596  1.00  0.00     0.031 A 
ATOM     52  C   UNL A   1      46.998  28.881  28.980  1.00  0.00     0.049 A 
ATOM     53  C   UNL A   1      41.287  29.135  30.160  1.00  0.00     0.074 A 
ATOM     54  C   UNL A   1      47.639  27.885  29.691  1.00  0.00     0.029 A 
ATOM     55  N   UNL A   1      46.126  29.474  29.865  1.00  0.00    -0.354 N 
ATOM     56  N   UNL A   1      42.009  28.777  31.185  1.00  0.00    -0.248 NA
ATOM     57  C   UNL A   1      41.886  30.135  29.290  1.00  0.00     0.031 C 
ATOM     58  C   UNL A   1      46.769  27.603  30.785  1.00  0.00     0.029 A 
ATOM     59  C   UNL A   1      45.702  28.503  30.735  1.00  0.00     0.049 A 
ATOM     60  H   UNL A   1      45.858  30.422  29.872  1.00  0.00     0.167 HD
ATOM     61  C   UNL A   1      43.302  29.154  30.854  1.00  0.00     0.074 A 
ATOM     62  C   UNL A   1      43.152  30.062  29.714  1.00  0.00     0.031 C 
ATOM     63  C   UNL A   1      44.385  28.475  31.336  1.00  0.00     0.031 A 
BRANCH  50  64
ATOM     64  C   UNL A   1      46.839  30.553  27.025  1.00  0.00    -0.014 A 
ATOM     65  C   UNL A   1      48.051  31.268  27.115  1.00  0.00     0.010 A 
ATOM     66  C   UNL A   1      45.686  31.288  26.682  1.00  0.00     0.010 A 
ATOM     67  C   UNL A   1      48.089  32.658  26.945  1.00  0.00     0.020 A 
ATOM     68  C   UNL A   1      45.721  32.666  26.466  1.00  0.00     0.020 A 
ATOM     69  C   UNL A   1      46.917  33.348  26.634  1.00  0.00     0.054 A 
BRANCH  69  70
ATOM     70  S   UNL A   1      46.959  35.152  26.512  1.00  0.00     0.124 S 
ATOM     71  O   UNL A   1      47.793  35.509  27.654  1.00  0.00    -0.237 OA
ATOM     72  O   UNL A   1      47.560  35.356  25.196  1.00  0.00    -0.237 OA
ATOM     73  O   UNL A   1      45.552  35.532  26.615  1.00  0.00    -0.744 OA
ENDBRANCH  69  70
ENDBRANCH  50  64
BRANCH  51  74
ATOM     74  C   UNL A   1      38.838  28.811  29.338  1.00  0.00    -0.014 A 
ATOM     75  C   UNL A   1      38.026  29.251  30.402  1.00  0.00     0.010 A 
ATOM     76  C   UNL A   1      38.455  29.177  28.032  1.00  0.00     0.010 A 
ATOM     77  C   UNL A   1      36.931  30.106  30.178  1.00  0.00     0.020 A 
ATOM     78  C   UNL A   1      37.360  30.023  27.801  1.00  0.00     0.020 A 
ATOM     79  C   UNL A   1      36.624  30.512  28.878  1.00  0.00     0.054 A 
BRANCH  79  80
ATOM     80  S   UNL A   1      35.365  31.799  28.612  1.00  0.00     0.124 S 
ATOM     81  O   UNL A   1      34.341  31.081  27.859  1.00  0.00    -0.237 OA
ATOM     82  O   UNL A   1      35.002  32.175  29.975  1.00  0.00    -0.237 OA
ATOM     83  O   UNL A   1      36.082  32.828  27.860  1.00  0.00    -0.744 OA
ENDBRANCH  79  80
ENDBRANCH  51  74
BRANCH  63  84
ATOM     84  C   UNL A   1      44.173  27.458  32.438  1.00  0.00    -0.014 A 
ATOM     85  C   UNL A   1      43.669  27.767  33.719  1.00  0.00     0.010 A 
ATOM     86  C   UNL A   1      44.350  26.105  32.103  1.00  0.00     0.010 A 
ATOM     87  C   UNL A   1      43.379  26.749  34.642  1.00  0.00     0.020 A 
ATOM     88  C   UNL A   1      44.047  25.087  33.008  1.00  0.00     0.020 A 
ATOM     89  C   UNL A   1      43.573  25.412  34.280  1.00  0.00     0.054 A 
BRANCH  89  90
ATOM     90  S   UNL A   1      43.174  24.092  35.459  1.00  0.00     0.124 S 
ATOM     91  O   UNL A   1      41.738  24.269  35.660  1.00  0.00    -0.237 OA
ATOM     92  O   UNL A   1      43.564  22.882  34.739  1.00  0.00    -0.237 OA
ATOM     93  O   UNL A   1      44.002  24.403  36.624  1.00  0.00    -0.744 OA
ENDBRANCH  89  90
ENDBRANCH  63  84
ENDBRANCH  37  38
ENDBRANCH  29  32
ENDBRANCH  27  28
ENDBRANCH  26  27
ENDBRANCH  25  26
ENDBRANCH   1  25
TORSDOF 20
ENDMDL
MODEL 2
REMARK VINA RESULT:     -10.7      2.461      3.330
REMARK SMILES CC(C)(C)SCC(=O)N1CC(n2cc(C(=O)NCCCCCCNC(=O)c3ccc(-c4c5nc(c(-c6ccc(S(=O)(=O)[O-])cc6)c6ccc([nH]6)c(-c6ccc(S(=O)(=O)[O-])cc6)c6nc(c(-c7ccc(S(=O)(=O)[O-])cc7)c7ccc4[nH]7)C=C6)C=C5)cc3)nn2)C1
REMARK SMILES IDX 20 1 19 2 18 3 17 4 15 5 16 6 14 8 12 9 13 10 88 11 87 12
REMARK SMILES IDX 11 13 7 14 8 15 9 16 10 17 89 18 6 19 5 20 2 21 1 22 3 23
REMARK SMILES IDX 4 24 21 25 22 26 23 27 24 28 25 29 26 31 27 32 28 33 86 34
REMARK SMILES IDX 29 35 85 36 30 37 31 38 32 39 79 40 33 41 84 42 78 43 80 44
REMARK SMILES IDX 34 45 83 46 77 47 76 48 35 50 65 51 46 52 64 53 47 54 50 55
REMARK SMILES IDX 63 56 81 57 48 58 49 59 62 61 82 62 51 63 36 64 37 65 45 66
REMARK SMILES IDX 38 67 44 68 39 69 40 70 41 71 42 72 43 73 66 74 67 75 75 76
REMARK SMILES IDX 68 77 74 78 69 79 70 80 71 81 72 82 73 83 52 84 53 85 61 86
REMARK SMILES IDX 54 87 60 88 55 89 56 90 57 91 58 92 59 93
REMARK H PARENT 17 7 24 30 80 49 50 60
REMARK Flexibility Score: inf
ROOT
ATOM      1  C   UNL A   1      39.811  23.946  26.928  1.00  0.00     0.002 C 
ENDROOT
BRANCH   1   2
ATOM      2  C   UNL A   1      38.277  23.978  26.878  1.00  0.00     0.021 C 
BRANCH   2   3
ATOM      3  C   UNL A   1      37.693  23.491  25.553  1.00  0.00     0.116 C 
BRANCH   3   4
ATOM      4  N   UNL A   1      37.846  22.056  25.409  1.00  0.00    -0.351 N 
ATOM      5  C   UNL A   1      36.971  21.075  25.011  1.00  0.00     0.273 C 
ATOM      6  O   UNL A   1      37.448  19.945  24.851  1.00  0.00    -0.267 OA
ATOM      7  H   UNL A   1      38.744  21.725  25.638  1.00  0.00     0.163 HD
BRANCH   5   8
ATOM      8  C   UNL A   1      35.569  21.361  24.740  1.00  0.00     0.170 A 
ATOM      9  N   UNL A   1      33.639  22.185  24.173  1.00  0.00    -0.245 N 
ATOM     10  C   UNL A   1      34.932  22.547  24.428  1.00  0.00     0.145 A 
ATOM     11  N   UNL A   1      33.447  20.877  24.393  1.00  0.00    -0.066 NA
ATOM     12  N   UNL A   1      34.611  20.366  24.776  1.00  0.00    -0.125 NA
BRANCH   9  13
ATOM     13  C   UNL A   1      32.691  23.079  23.593  1.00  0.00     0.148 C 
ATOM     14  C   UNL A   1      31.553  26.090  22.949  1.00  0.00     0.232 C 
ATOM     15  O   UNL A   1      31.510  26.343  21.739  1.00  0.00    -0.274 OA
ATOM     16  N   UNL A   1      32.325  25.064  23.407  1.00  0.00    -0.338 N 
ATOM     17  C   UNL A   1      33.228  24.180  22.671  1.00  0.00     0.148 C 
ATOM     18  C   UNL A   1      32.354  24.226  24.585  1.00  0.00     0.148 C 
BRANCH  14  19
ATOM     19  C   UNL A   1      30.897  27.049  23.927  1.00  0.00     0.170 C 
BRANCH  19  20
ATOM     20  S   UNL A   1      31.763  28.574  24.376  1.00  0.00    -0.146 SA
BRANCH  20  21
ATOM     21  C   UNL A   1      32.251  28.317  26.144  1.00  0.00     0.008 C 
ATOM     22  C   UNL A   1      31.354  27.167  26.643  1.00  0.00     0.022 C 
ATOM     23  C   UNL A   1      31.973  29.565  26.984  1.00  0.00     0.022 C 
ATOM     24  C   UNL A   1      33.717  27.890  26.278  1.00  0.00     0.022 C 
ENDBRANCH  20  21
ENDBRANCH  19  20
ENDBRANCH  14  19
ENDBRANCH   9  13
ENDBRANCH   5   8
ENDBRANCH   3   4
ENDBRANCH   2   3
ENDBRANCH   1   2
BRANCH   1  25
ATOM     25  C   UNL A   1      40.431  22.810  27.761  1.00  0.00     0.002 C 
BRANCH  25  26
ATOM     26  C   UNL A   1      41.498  21.953  27.064  1.00  0.00     0.021 C 
BRANCH  26  27
ATOM     27  C   UNL A   1      41.566  22.167  25.562  1.00  0.00     0.116 C 
BRANCH  27  28
ATOM     28  N   UNL A   1      42.931  22.428  25.094  1.00  0.00    -0.352 N 
ATOM     29  C   UNL A   1      43.625  23.621  25.114  1.00  0.00     0.251 C 
ATOM     30  H   UNL A   1      43.413  21.655  24.721  1.00  0.00     0.163 HD
ATOM     31  O   UNL A   1      44.585  23.802  24.363  1.00  0.00    -0.269 OA
BRANCH  29  32
ATOM     32  C   UNL A   1      43.204  24.667  26.059  1.00  0.00     0.039 A 
ATOM     33  C   UNL A   1      43.624  24.693  27.391  1.00  0.00     0.014 A 
ATOM     34  C   UNL A   1      42.380  25.668  25.557  1.00  0.00     0.014 A 
ATOM     35  C   UNL A   1      43.257  25.778  28.185  1.00  0.00     0.010 A 
ATOM     36  C   UNL A   1      42.206  26.824  26.263  1.00  0.00     0.010 A 
ATOM     37  C   UNL A   1      42.557  26.848  27.603  1.00  0.00    -0.014 A 
BRANCH  37  38
ATOM     38  C   UNL A   1      42.250  28.066  28.337  1.00  0.00     0.031 A 
ATOM     39  C   UNL A   1      43.238  29.156  28.138  1.00  0.00     0.074 A 
ATOM     40  C   UNL A   1      41.059  28.276  28.941  1.00  0.00     0.049 A 
ATOM     41  N   UNL A   1      44.114  29.578  28.986  1.00  0.00    -0.248 NA
ATOM     42  C   UNL A   1      43.392  29.726  26.788  1.00  0.00     0.031 C 
ATOM     43  C   UNL A   1      39.861  27.422  28.946  1.00  0.00     0.029 A 
ATOM     44  N   UNL A   1      40.621  29.381  29.594  1.00  0.00    -0.354 N 
ATOM     45  C   UNL A   1      44.761  30.640  28.366  1.00  0.00     0.074 A 
ATOM     46  C   UNL A   1      44.436  30.541  26.965  1.00  0.00     0.031 C 
ATOM     47  C   UNL A   1      38.786  28.145  29.338  1.00  0.00     0.029 A 
ATOM     48  C   UNL A   1      39.243  29.447  29.786  1.00  0.00     0.049 A 
ATOM     49  H   UNL A   1      41.232  30.086  29.909  1.00  0.00     0.167 HD
ATOM     50  C   UNL A   1      45.282  31.669  29.093  1.00  0.00     0.031 A 
ATOM     51  C   UNL A   1      38.540  30.511  30.256  1.00  0.00     0.031 A 
ATOM     52  C   UNL A   1      45.330  31.349  30.499  1.00  0.00     0.049 A 
ATOM     53  C   UNL A   1      39.512  31.371  30.978  1.00  0.00     0.074 A 
ATOM     54  C   UNL A   1      45.915  30.345  31.246  1.00  0.00     0.029 A 
ATOM     55  N   UNL A   1      44.335  31.877  31.292  1.00  0.00    -0.354 N 
ATOM     56  N   UNL A   1      40.117  30.994  32.070  1.00  0.00    -0.248 NA
ATOM     57  C   UNL A   1      40.175  32.424  30.226  1.00  0.00     0.031 C 
ATOM     58  C   UNL A   1      44.930  29.991  32.215  1.00  0.00     0.029 A 
ATOM     59  C   UNL A   1      43.844  30.857  32.066  1.00  0.00     0.049 A 
ATOM     60  H   UNL A   1      44.033  32.814  31.301  1.00  0.00     0.167 HD
ATOM     61  C   UNL A   1      41.426  31.426  31.914  1.00  0.00     0.074 A 
ATOM     62  C   UNL A   1      41.382  32.375  30.799  1.00  0.00     0.031 C 
ATOM     63  C   UNL A   1      42.467  30.762  32.501  1.00  0.00     0.031 A 
BRANCH  50  64
ATOM     64  C   UNL A   1      45.347  33.094  28.603  1.00  0.00    -0.014 A 
ATOM     65  C   UNL A   1      46.552  33.807  28.767  1.00  0.00     0.010 A 
ATOM     66  C   UNL A   1      44.205  33.840  28.250  1.00  0.00     0.010 A 
ATOM     67  C   UNL A   1      46.591  35.203  28.658  1.00  0.00     0.020 A 
ATOM     68  C   UNL A   1      44.242  35.227  28.095  1.00  0.00     0.020 A 
ATOM     69  C   UNL A   1      45.430  35.903  28.334  1.00  0.00     0.054 A 
BRANCH  69  70
ATOM     70  S   UNL A   1      45.469  37.711  28.291  1.00  0.00     0.124 S 
ATOM     71  O   UNL A   1      44.059  38.036  28.104  1.00  0.00    -0.237 OA
ATOM     72  O   UNL A   1      46.028  38.036  29.600  1.00  0.00    -0.237 OA
ATOM     73  O   UNL A   1      46.339  38.005  27.155  1.00  0.00    -0.744 OA
ENDBRANCH  69  70
ENDBRANCH  50  64
BRANCH  51  74
ATOM     74  C   UNL A   1      37.195  31.002  29.851  1.00  0.00    -0.014 A 
ATOM     75  C   UNL A   1      36.314  31.551  30.805  1.00  0.00     0.010 A 
ATOM     76  C   UNL A   1      36.902  31.227  28.491  1.00  0.00     0.010 A 
ATOM     77  C   UNL A   1      35.241  32.374  30.417  1.00  0.00     0.020 A 
ATOM     78  C   UNL A   1      35.829  32.040  28.097  1.00  0.00     0.020 A 
ATOM     79  C   UNL A   1      35.024  32.639  29.065  1.00  0.00     0.054 A 
BRANCH  79  80
ATOM     80  S   UNL A   1      33.792  33.887  28.579  1.00  0.00     0.124 S 
ATOM     81  O   UNL A   1      33.259  34.317  29.867  1.00  0.00    -0.237 OA
ATOM     82  O   UNL A   1      34.601  34.872  27.866  1.00  0.00    -0.237 OA
ATOM     83  O   UNL A   1      32.858  33.136  27.739  1.00  0.00    -0.744 OA
ENDBRANCH  79  80
ENDBRANCH  51  74
BRANCH  63  84
ATOM     84  C   UNL A   1      42.160  29.695  33.530  1.00  0.00    -0.014 A 
ATOM     85  C   UNL A   1      41.678  28.406  33.219  1.00  0.00     0.010 A 
ATOM     86  C   UNL A   1      42.525  29.964  34.860  1.00  0.00     0.010 A 
ATOM     87  C   UNL A   1      41.541  27.429  34.219  1.00  0.00     0.020 A 
ATOM     88  C   UNL A   1      42.409  28.993  35.855  1.00  0.00     0.020 A 
ATOM     89  C   UNL A   1      41.906  27.732  35.534  1.00  0.00     0.054 A 
BRANCH  89  90
ATOM     90  S   UNL A   1      41.757  26.464  36.825  1.00  0.00     0.124 S 
ATOM     91  O   UNL A   1      40.428  26.723  37.372  1.00  0.00    -0.237 OA
ATOM     92  O   UNL A   1      41.896  25.218  36.075  1.00  0.00    -0.237 OA
ATOM     93  O   UNL A   1      42.866  26.757  37.731  1.00  0.00    -0.744 OA
ENDBRANCH  89  90
ENDBRANCH  63  84
ENDBRANCH  37  38
ENDBRANCH  29  32
ENDBRANCH  27  28
ENDBRANCH  26  27
ENDBRANCH  25  26
ENDBRANCH   1  25
TORSDOF 20
ENDMDL
MODEL 3
REMARK VINA RESULT:     -10.6      3.340     10.084
REMARK SMILES CC(C)(C)SCC(=O)N1CC(n2cc(C(=O)NCCCCCCNC(=O)c3ccc(-c4c5nc(c(-c6ccc(S(=O)(=O)[O-])cc6)c6ccc([nH]6)c(-c6ccc(S(=O)(=O)[O-])cc6)c6nc(c(-c7ccc(S(=O)(=O)[O-])cc7)c7ccc4[nH]7)C=C6)C=C5)cc3)nn2)C1
REMARK SMILES IDX 20 1 19 2 18 3 17 4 15 5 16 6 14 8 12 9 13 10 88 11 87 12
REMARK SMILES IDX 11 13 7 14 8 15 9 16 10 17 89 18 6 19 5 20 2 21 1 22 3 23
REMARK SMILES IDX 4 24 21 25 22 26 23 27 24 28 25 29 26 31 27 32 28 33 86 34
REMARK SMILES IDX 29 35 85 36 30 37 31 38 32 39 79 40 33 41 84 42 78 43 80 44
REMARK SMILES IDX 34 45 83 46 77 47 76 48 35 50 65 51 46 52 64 53 47 54 50 55
REMARK SMILES IDX 63 56 81 57 48 58 49 59 62 61 82 62 51 63 36 64 37 65 45 66
REMARK SMILES IDX 38 67 44 68 39 69 40 70 41 71 42 72 43 73 66 74 67 75 75 76
REMARK SMILES IDX 68 77 74 78 69 79 70 80 71 81 72 82 73 83 52 84 53 85 61 86
REMARK SMILES IDX 54 87 60 88 55 89 56 90 57 91 58 92 59 93
REMARK H PARENT 17 7 24 30 80 49 50 60
REMARK Flexibility Score: inf
ROOT
ATOM      1  C   UNL A   1      33.864  30.222  27.456  1.00  0.00     0.002 C 
ENDROOT
BRANCH   1   2
ATOM      2  C   UNL A   1      32.570  30.599  26.721  1.00  0.00     0.021 C 
BRANCH   2   3
ATOM      3  C   UNL A   1      31.916  29.431  25.984  1.00  0.00     0.116 C 
BRANCH   3   4
ATOM      4  N   UNL A   1      32.158  29.511  24.557  1.00  0.00    -0.351 N 
ATOM      5  C   UNL A   1      32.111  28.565  23.563  1.00  0.00     0.273 C 
ATOM      6  O   UNL A   1      32.229  28.977  22.403  1.00  0.00    -0.267 OA
ATOM      7  H   UNL A   1      32.401  30.412  24.242  1.00  0.00     0.163 HD
BRANCH   5   8
ATOM      8  C   UNL A   1      31.878  27.156  23.855  1.00  0.00     0.170 A 
ATOM      9  N   UNL A   1      31.962  25.066  24.445  1.00  0.00    -0.245 N 
ATOM     10  C   UNL A   1      32.761  26.139  24.163  1.00  0.00     0.145 A 
ATOM     11  N   UNL A   1      30.669  25.355  24.245  1.00  0.00    -0.066 NA
ATOM     12  N   UNL A   1      30.605  26.621  23.847  1.00  0.00    -0.125 NA
BRANCH   9  13
ATOM     13  C   UNL A   1      32.465  23.867  25.030  1.00  0.00     0.148 C 
ATOM     14  C   UNL A   1      33.630  20.804  24.833  1.00  0.00     0.232 C 
ATOM     15  O   UNL A   1      34.780  20.693  25.273  1.00  0.00    -0.274 OA
ATOM     16  N   UNL A   1      33.140  22.031  24.497  1.00  0.00    -0.338 N 
ATOM     17  C   UNL A   1      33.805  23.333  24.510  1.00  0.00     0.148 C 
ATOM     18  C   UNL A   1      31.831  22.625  24.346  1.00  0.00     0.148 C 
BRANCH  14  19
ATOM     19  C   UNL A   1      32.848  19.548  24.489  1.00  0.00     0.170 C 
BRANCH  19  20
ATOM     20  S   UNL A   1      32.873  18.154  25.645  1.00  0.00    -0.146 SA
BRANCH  20  21
ATOM     21  C   UNL A   1      33.656  16.779  24.683  1.00  0.00     0.008 C 
ATOM     22  C   UNL A   1      32.854  15.519  25.063  1.00  0.00     0.022 C 
ATOM     23  C   UNL A   1      35.117  16.580  25.089  1.00  0.00     0.022 C 
ATOM     24  C   UNL A   1      33.540  16.998  23.171  1.00  0.00     0.022 C 
ENDBRANCH  20  21
ENDBRANCH  19  20
ENDBRANCH  14  19
ENDBRANCH   9  13
ENDBRANCH   5   8
ENDBRANCH   3   4
ENDBRANCH   2   3
ENDBRANCH   1   2
BRANCH   1  25
ATOM     25  C   UNL A   1      34.755  31.399  27.891  1.00  0.00     0.002 C 
BRANCH  25  26
ATOM     26  C   UNL A   1      34.049  32.742  28.132  1.00  0.00     0.021 C 
BRANCH  26  27
ATOM     27  C   UNL A   1      35.005  33.912  28.292  1.00  0.00     0.116 C 
BRANCH  27  28
ATOM     28  N   UNL A   1      34.797  34.638  29.548  1.00  0.00    -0.352 N 
ATOM     29  C   UNL A   1      35.178  34.265  30.821  1.00  0.00     0.251 C 
ATOM     30  H   UNL A   1      34.327  35.500  29.473  1.00  0.00     0.163 HD
ATOM     31  O   UNL A   1      34.623  34.748  31.810  1.00  0.00    -0.269 OA
BRANCH  29  32
ATOM     32  C   UNL A   1      36.269  33.291  30.974  1.00  0.00     0.039 A 
ATOM     33  C   UNL A   1      36.040  31.933  31.215  1.00  0.00     0.014 A 
ATOM     34  C   UNL A   1      37.565  33.776  30.834  1.00  0.00     0.014 A 
ATOM     35  C   UNL A   1      37.132  31.068  31.243  1.00  0.00     0.010 A 
ATOM     36  C   UNL A   1      38.600  32.906  30.646  1.00  0.00     0.010 A 
ATOM     37  C   UNL A   1      38.411  31.566  30.943  1.00  0.00    -0.014 A 
BRANCH  37  38
ATOM     38  C   UNL A   1      39.575  30.701  30.831  1.00  0.00     0.031 A 
ATOM     39  C   UNL A   1      40.224  30.390  32.129  1.00  0.00     0.074 A 
ATOM     40  C   UNL A   1      39.890  30.043  29.692  1.00  0.00     0.049 A 
ATOM     41  N   UNL A   1      41.349  30.844  32.566  1.00  0.00    -0.248 NA
ATOM     42  C   UNL A   1      39.460  29.628  33.132  1.00  0.00     0.031 C 
ATOM     43  C   UNL A   1      39.154  29.993  28.419  1.00  0.00     0.029 A 
ATOM     44  N   UNL A   1      40.897  29.161  29.472  1.00  0.00    -0.354 N 
ATOM     45  C   UNL A   1      41.558  30.226  33.792  1.00  0.00     0.074 A 
ATOM     46  C   UNL A   1      40.285  29.673  34.181  1.00  0.00     0.031 C 
ATOM     47  C   UNL A   1      39.594  28.949  27.678  1.00  0.00     0.029 A 
ATOM     48  C   UNL A   1      40.754  28.374  28.332  1.00  0.00     0.049 A 
ATOM     49  H   UNL A   1      41.672  29.083  30.074  1.00  0.00     0.167 HD
ATOM     50  C   UNL A   1      42.818  29.980  34.252  1.00  0.00     0.031 A 
ATOM     51  C   UNL A   1      41.526  27.313  27.978  1.00  0.00     0.031 A 
ATOM     52  C   UNL A   1      43.808  30.689  33.479  1.00  0.00     0.049 A 
ATOM     53  C   UNL A   1      42.802  27.454  28.725  1.00  0.00     0.074 A 
ATOM     54  C   UNL A   1      44.032  32.017  33.174  1.00  0.00     0.029 A 
ATOM     55  N   UNL A   1      44.492  29.964  32.528  1.00  0.00    -0.354 N 
ATOM     56  N   UNL A   1      43.641  28.429  28.515  1.00  0.00    -0.248 NA
ATOM     57  C   UNL A   1      42.902  26.809  30.025  1.00  0.00     0.031 C 
ATOM     58  C   UNL A   1      44.398  32.016  31.795  1.00  0.00     0.029 A 
ATOM     59  C   UNL A   1      44.469  30.689  31.365  1.00  0.00     0.049 A 
ATOM     60  H   UNL A   1      44.918  29.086  32.660  1.00  0.00     0.167 HD
ATOM     61  C   UNL A   1      44.058  28.814  29.781  1.00  0.00     0.074 A 
ATOM     62  C   UNL A   1      43.636  27.724  30.666  1.00  0.00     0.031 C 
ATOM     63  C   UNL A   1      44.440  30.100  30.044  1.00  0.00     0.031 A 
BRANCH  50  64
ATOM     64  C   UNL A   1      43.182  28.792  35.106  1.00  0.00    -0.014 A 
ATOM     65  C   UNL A   1      43.870  29.018  36.316  1.00  0.00     0.010 A 
ATOM     66  C   UNL A   1      43.127  27.462  34.641  1.00  0.00     0.010 A 
ATOM     67  C   UNL A   1      44.532  27.979  36.982  1.00  0.00     0.020 A 
ATOM     68  C   UNL A   1      43.746  26.412  35.320  1.00  0.00     0.020 A 
ATOM     69  C   UNL A   1      44.475  26.683  36.469  1.00  0.00     0.054 A 
BRANCH  69  70
ATOM     70  S   UNL A   1      45.412  25.367  37.281  1.00  0.00     0.124 S 
ATOM     71  O   UNL A   1      45.835  24.557  36.144  1.00  0.00    -0.237 OA
ATOM     72  O   UNL A   1      46.469  26.117  37.956  1.00  0.00    -0.237 OA
ATOM     73  O   UNL A   1      44.430  24.747  38.167  1.00  0.00    -0.744 OA
ENDBRANCH  69  70
ENDBRANCH  50  64
BRANCH  51  74
ATOM     74  C   UNL A   1      41.128  26.037  27.322  1.00  0.00    -0.014 A 
ATOM     75  C   UNL A   1      42.045  25.323  26.526  1.00  0.00     0.010 A 
ATOM     76  C   UNL A   1      39.962  25.362  27.736  1.00  0.00     0.010 A 
ATOM     77  C   UNL A   1      41.852  23.960  26.237  1.00  0.00     0.020 A 
ATOM     78  C   UNL A   1      39.760  24.005  27.445  1.00  0.00     0.020 A 
ATOM     79  C   UNL A   1      40.724  23.301  26.726  1.00  0.00     0.054 A 
BRANCH  79  80
ATOM     80  S   UNL A   1      40.594  21.493  26.557  1.00  0.00     0.124 S 
ATOM     81  O   UNL A   1      40.696  21.042  27.941  1.00  0.00    -0.237 OA
ATOM     82  O   UNL A   1      39.285  21.326  25.931  1.00  0.00    -0.237 OA
ATOM     83  O   UNL A   1      41.731  21.147  25.704  1.00  0.00    -0.744 OA
ENDBRANCH  79  80
ENDBRANCH  51  74
BRANCH  63  84
ATOM     84  C   UNL A   1      44.645  31.048  28.881  1.00  0.00    -0.014 A 
ATOM     85  C   UNL A   1      43.618  31.814  28.290  1.00  0.00     0.010 A 
ATOM     86  C   UNL A   1      45.968  31.284  28.473  1.00  0.00     0.010 A 
ATOM     87  C   UNL A   1      43.911  32.767  27.300  1.00  0.00     0.020 A 
ATOM     88  C   UNL A   1      46.270  32.242  27.504  1.00  0.00     0.020 A 
ATOM     89  C   UNL A   1      45.239  32.972  26.911  1.00  0.00     0.054 A 
BRANCH  89  90
ATOM     90  S   UNL A   1      45.625  34.222  25.653  1.00  0.00     0.124 S 
ATOM     91  O   UNL A   1      44.942  33.704  24.471  1.00  0.00    -0.237 OA
ATOM     92  O   UNL A   1      45.059  35.443  26.222  1.00  0.00    -0.237 OA
ATOM     93  O   UNL A   1      47.085  34.203  25.580  1.00  0.00    -0.744 OA
ENDBRANCH  89  90
ENDBRANCH  63  84
ENDBRANCH  37  38
ENDBRANCH  29  32
ENDBRANCH  27  28
ENDBRANCH  26  27
ENDBRANCH  25  26
ENDBRANCH   1  25
TORSDOF 20
ENDMDL
