MODEL 1
REMARK VINA RESULT:      -8.0      0.000      0.000
REMARK SMILES CC[C@H]1CCC[C@@H]([NH2+][C@@](C)(CC)C(=O)NCCCCCCNC(=O)c2ccc(-c3c4nc(c(-c5ccc(S(=O)(=O)[O-])cc5)c5ccc([nH]5)c(-c5ccc(S(=O)(=O)[O-])cc5)c5nc(c(-c6ccc(S(=O)(=O)[O-])cc6)c6ccc3[nH]6)C=C5)C=C4)cc2)C1
REMARK SMILES IDX 18 1 17 2 16 3 15 4 13 5 14 6 9 8 10 9 8 10 7 13 3 14 4 15
REMARK SMILES IDX 85 16 5 17 6 18 2 19 1 20 11 21 12 22 19 23 20 24 21 25
REMARK SMILES IDX 22 26 23 27 24 29 25 30 26 31 84 32 27 33 83 34 28 35 29 36
REMARK SMILES IDX 30 37 77 38 31 39 82 40 76 41 78 42 32 43 81 44 75 45 74 46
REMARK SMILES IDX 33 48 63 49 44 50 62 51 45 52 48 53 61 54 79 55 46 56 47 57
REMARK SMILES IDX 60 59 80 60 49 61 34 62 35 63 43 64 36 65 42 66 37 67 38 68
REMARK SMILES IDX 39 69 40 70 41 71 64 72 65 73 73 74 66 75 72 76 67 77 68 78
REMARK SMILES IDX 69 79 70 80 71 81 50 82 51 83 59 84 52 85 58 86 53 87 54 88
REMARK SMILES IDX 55 89 56 90 57 91
REMARK H PARENT 15 7 8 11 8 12 22 28 78 47 48 58
REMARK Flexibility Score: inf
ROOT
ATOM      1  C   UNL A   1      36.077  32.673  32.045  1.00  0.00     0.002 C 
ENDROOT
BRANCH   1   2
ATOM      2  C   UNL A   1      36.313  31.231  32.498  1.00  0.00     0.021 C 
BRANCH   2   3
ATOM      3  C   UNL A   1      37.708  30.993  33.070  1.00  0.00     0.116 C 
BRANCH   3   4
ATOM      4  N   UNL A   1      37.662  30.603  34.467  1.00  0.00    -0.351 N 
ATOM      5  C   UNL A   1      38.491  30.853  35.526  1.00  0.00     0.281 C 
ATOM      6  O   UNL A   1      38.203  30.272  36.578  1.00  0.00    -0.268 OA
ATOM      7  H   UNL A   1      36.881  30.050  34.700  1.00  0.00     0.163 HD
BRANCH   5   8
ATOM      8  C   UNL A   1      39.726  31.816  35.394  1.00  0.00     0.172 C 
ATOM      9  C   UNL A   1      40.201  32.157  36.833  1.00  0.00     0.090 C 
BRANCH   8  10
ATOM     10  N   UNL A   1      40.906  31.066  34.867  1.00  0.00    -0.331 N 
ATOM     11  H   UNL A   1      40.561  30.472  34.114  1.00  0.00     0.347 HD
ATOM     12  H   UNL A   1      41.561  31.811  34.623  1.00  0.00     0.347 HD
BRANCH  10  13
ATOM     13  C   UNL A   1      41.692  30.215  35.745  1.00  0.00     0.183 C 
ATOM     14  C   UNL A   1      42.075  28.107  34.217  1.00  0.00    -0.006 C 
ATOM     15  C   UNL A   1      43.561  28.479  34.140  1.00  0.00     0.004 C 
ATOM     16  C   UNL A   1      41.462  28.706  35.496  1.00  0.00     0.068 C 
ATOM     17  C   UNL A   1      43.795  29.983  34.270  1.00  0.00     0.006 C 
ATOM     18  C   UNL A   1      43.188  30.539  35.557  1.00  0.00     0.065 C 
BRANCH  14  19
ATOM     19  C   UNL A   1      41.375  28.409  32.872  1.00  0.00     0.000 C 
ATOM     20  C   UNL A   1      39.885  28.111  32.822  1.00  0.00     0.004 C 
ENDBRANCH  14  19
ENDBRANCH  10  13
ENDBRANCH   8  10
BRANCH   8  21
ATOM     21  C   UNL A   1      39.352  33.107  34.610  1.00  0.00     0.075 C 
ATOM     22  C   UNL A   1      40.323  33.577  33.523  1.00  0.00     0.011 C 
ENDBRANCH   8  21
ENDBRANCH   5   8
ENDBRANCH   3   4
ENDBRANCH   2   3
ENDBRANCH   1   2
BRANCH   1  23
ATOM     23  C   UNL A   1      36.027  32.852  30.526  1.00  0.00     0.002 C 
BRANCH  23  24
ATOM     24  C   UNL A   1      34.618  32.820  29.927  1.00  0.00     0.021 C 
BRANCH  24  25
ATOM     25  C   UNL A   1      34.584  32.514  28.433  1.00  0.00     0.116 C 
BRANCH  25  26
ATOM     26  N   UNL A   1      33.918  31.251  28.164  1.00  0.00    -0.352 N 
ATOM     27  C   UNL A   1      34.476  30.018  27.941  1.00  0.00     0.251 C 
ATOM     28  H   UNL A   1      32.935  31.285  28.139  1.00  0.00     0.163 HD
ATOM     29  O   UNL A   1      33.796  29.106  27.484  1.00  0.00    -0.269 OA
BRANCH  27  30
ATOM     30  C   UNL A   1      35.904  29.806  28.250  1.00  0.00     0.039 A 
ATOM     31  C   UNL A   1      36.264  29.343  29.516  1.00  0.00     0.014 A 
ATOM     32  C   UNL A   1      36.884  30.062  27.284  1.00  0.00     0.014 A 
ATOM     33  C   UNL A   1      37.606  29.093  29.801  1.00  0.00     0.010 A 
ATOM     34  C   UNL A   1      38.211  29.739  27.544  1.00  0.00     0.010 A 
ATOM     35  C   UNL A   1      38.587  29.262  28.808  1.00  0.00    -0.014 A 
BRANCH  35  36
ATOM     36  C   UNL A   1      40.013  28.951  29.078  1.00  0.00     0.031 A 
ATOM     37  C   UNL A   1      40.912  29.997  29.680  1.00  0.00     0.074 A 
ATOM     38  C   UNL A   1      40.509  27.746  28.732  1.00  0.00     0.049 A 
ATOM     39  N   UNL A   1      42.192  29.928  29.944  1.00  0.00    -0.248 NA
ATOM     40  C   UNL A   1      40.301  31.296  30.002  1.00  0.00     0.031 C 
ATOM     41  C   UNL A   1      39.744  26.663  28.108  1.00  0.00     0.029 A 
ATOM     42  N   UNL A   1      41.775  27.231  28.854  1.00  0.00    -0.354 N 
ATOM     43  C   UNL A   1      42.539  31.175  30.452  1.00  0.00     0.074 A 
ATOM     44  C   UNL A   1      41.351  31.997  30.406  1.00  0.00     0.031 C 
ATOM     45  C   UNL A   1      40.549  25.602  27.932  1.00  0.00     0.029 A 
ATOM     46  C   UNL A   1      41.894  25.943  28.386  1.00  0.00     0.049 A 
ATOM     47  H   UNL A   1      42.526  27.736  29.239  1.00  0.00     0.167 HD
ATOM     48  C   UNL A   1      43.734  31.591  30.933  1.00  0.00     0.031 A 
ATOM     49  C   UNL A   1      42.965  25.130  28.324  1.00  0.00     0.031 A 
ATOM     50  C   UNL A   1      44.913  30.766  30.983  1.00  0.00     0.049 A 
ATOM     51  C   UNL A   1      44.287  25.622  28.846  1.00  0.00     0.074 A 
ATOM     52  C   UNL A   1      46.160  31.078  31.495  1.00  0.00     0.029 A 
ATOM     53  N   UNL A   1      44.992  29.469  30.499  1.00  0.00    -0.354 N 
ATOM     54  N   UNL A   1      44.582  26.784  29.379  1.00  0.00    -0.248 NA
ATOM     55  C   UNL A   1      45.419  24.688  28.769  1.00  0.00     0.031 C 
ATOM     56  C   UNL A   1      47.008  29.990  31.270  1.00  0.00     0.029 A 
ATOM     57  C   UNL A   1      46.273  28.975  30.677  1.00  0.00     0.049 A 
ATOM     58  H   UNL A   1      44.247  28.972  30.090  1.00  0.00     0.167 HD
ATOM     59  C   UNL A   1      45.926  26.711  29.727  1.00  0.00     0.074 A 
ATOM     60  C   UNL A   1      46.381  25.385  29.358  1.00  0.00     0.031 C 
ATOM     61  C   UNL A   1      46.711  27.654  30.303  1.00  0.00     0.031 A 
BRANCH  48  62
ATOM     62  C   UNL A   1      43.827  33.008  31.440  1.00  0.00    -0.014 A 
ATOM     63  C   UNL A   1      43.858  33.287  32.820  1.00  0.00     0.010 A 
ATOM     64  C   UNL A   1      43.923  34.073  30.527  1.00  0.00     0.010 A 
ATOM     65  C   UNL A   1      43.939  34.605  33.275  1.00  0.00     0.020 A 
ATOM     66  C   UNL A   1      44.037  35.392  30.978  1.00  0.00     0.020 A 
ATOM     67  C   UNL A   1      44.026  35.650  32.351  1.00  0.00     0.054 A 
BRANCH  67  68
ATOM     68  S   UNL A   1      44.152  37.349  32.971  1.00  0.00     0.124 S 
ATOM     69  O   UNL A   1      44.197  38.120  31.731  1.00  0.00    -0.237 OA
ATOM     70  O   UNL A   1      42.930  37.494  33.757  1.00  0.00    -0.237 OA
ATOM     71  O   UNL A   1      45.391  37.345  33.747  1.00  0.00    -0.744 OA
ENDBRANCH  67  68
ENDBRANCH  48  62
BRANCH  49  72
ATOM     72  C   UNL A   1      42.825  23.759  27.759  1.00  0.00    -0.014 A 
ATOM     73  C   UNL A   1      42.395  22.692  28.568  1.00  0.00     0.010 A 
ATOM     74  C   UNL A   1      43.106  23.517  26.402  1.00  0.00     0.010 A 
ATOM     75  C   UNL A   1      42.264  21.407  28.036  1.00  0.00     0.020 A 
ATOM     76  C   UNL A   1      42.948  22.238  25.859  1.00  0.00     0.020 A 
ATOM     77  C   UNL A   1      42.539  21.189  26.683  1.00  0.00     0.054 A 
BRANCH  77  78
ATOM     78  S   UNL A   1      42.312  19.522  26.002  1.00  0.00     0.124 S 
ATOM     79  O   UNL A   1      43.236  19.527  24.872  1.00  0.00    -0.237 OA
ATOM     80  O   UNL A   1      42.688  18.669  27.126  1.00  0.00    -0.237 OA
ATOM     81  O   UNL A   1      40.893  19.488  25.651  1.00  0.00    -0.744 OA
ENDBRANCH  77  78
ENDBRANCH  49  72
BRANCH  61  82
ATOM     82  C   UNL A   1      48.139  27.279  30.605  1.00  0.00    -0.014 A 
ATOM     83  C   UNL A   1      48.461  26.425  31.675  1.00  0.00     0.010 A 
ATOM     84  C   UNL A   1      49.168  27.746  29.766  1.00  0.00     0.010 A 
ATOM     85  C   UNL A   1      49.790  26.072  31.920  1.00  0.00     0.020 A 
ATOM     86  C   UNL A   1      50.495  27.369  29.989  1.00  0.00     0.020 A 
ATOM     87  C   UNL A   1      50.798  26.545  31.074  1.00  0.00     0.054 A 
BRANCH  87  88
ATOM     88  S   UNL A   1      52.510  26.033  31.387  1.00  0.00     0.124 S 
ATOM     89  O   UNL A   1      53.043  25.909  30.034  1.00  0.00    -0.237 OA
ATOM     90  O   UNL A   1      53.039  27.146  32.172  1.00  0.00    -0.237 OA
ATOM     91  O   UNL A   1      52.368  24.776  32.119  1.00  0.00    -0.744 OA
ENDBRANCH  87  88
ENDBRANCH  61  82
ENDBRANCH  35  36
ENDBRANCH  27  30
ENDBRANCH  25  26
ENDBRANCH  24  25
ENDBRANCH  23  24
ENDBRANCH   1  23
TORSDOF 20
ENDMDL
MODEL 2
REMARK VINA RESULT:      -7.8      4.495     11.560
REMARK SMILES CC[C@H]1CCC[C@@H]([NH2+][C@@](C)(CC)C(=O)NCCCCCCNC(=O)c2ccc(-c3c4nc(c(-c5ccc(S(=O)(=O)[O-])cc5)c5ccc([nH]5)c(-c5ccc(S(=O)(=O)[O-])cc5)c5nc(c(-c6ccc(S(=O)(=O)[O-])cc6)c6ccc3[nH]6)C=C5)C=C4)cc2)C1
REMARK SMILES IDX 18 1 17 2 16 3 15 4 13 5 14 6 9 8 10 9 8 10 7 13 3 14 4 15
REMARK SMILES IDX 85 16 5 17 6 18 2 19 1 20 11 21 12 22 19 23 20 24 21 25
REMARK SMILES IDX 22 26 23 27 24 29 25 30 26 31 84 32 27 33 83 34 28 35 29 36
REMARK SMILES IDX 30 37 77 38 31 39 82 40 76 41 78 42 32 43 81 44 75 45 74 46
REMARK SMILES IDX 33 48 63 49 44 50 62 51 45 52 48 53 61 54 79 55 46 56 47 57
REMARK SMILES IDX 60 59 80 60 49 61 34 62 35 63 43 64 36 65 42 66 37 67 38 68
REMARK SMILES IDX 39 69 40 70 41 71 64 72 65 73 73 74 66 75 72 76 67 77 68 78
REMARK SMILES IDX 69 79 70 80 71 81 50 82 51 83 59 84 52 85 58 86 53 87 54 88
REMARK SMILES IDX 55 89 56 90 57 91
REMARK H PARENT 15 7 8 11 8 12 22 28 78 47 48 58
REMARK Flexibility Score: inf
ROOT
ATOM      1  C   UNL A   1      33.728  22.808  23.241  1.00  0.00     0.002 C 
ENDROOT
BRANCH   1   2
ATOM      2  C   UNL A   1      32.364  23.083  23.876  1.00  0.00     0.021 C 
BRANCH   2   3
ATOM      3  C   UNL A   1      31.583  24.196  23.182  1.00  0.00     0.116 C 
BRANCH   3   4
ATOM      4  N   UNL A   1      32.263  24.677  21.994  1.00  0.00    -0.351 N 
ATOM      5  C   UNL A   1      32.770  25.900  21.649  1.00  0.00     0.281 C 
ATOM      6  O   UNL A   1      33.204  25.991  20.495  1.00  0.00    -0.268 OA
ATOM      7  H   UNL A   1      32.384  23.989  21.299  1.00  0.00     0.163 HD
BRANCH   5   8
ATOM      8  C   UNL A   1      32.789  27.099  22.665  1.00  0.00     0.172 C 
ATOM      9  C   UNL A   1      33.701  28.202  22.060  1.00  0.00     0.090 C 
BRANCH   8  10
ATOM     10  N   UNL A   1      31.463  27.788  22.669  1.00  0.00    -0.331 N 
ATOM     11  H   UNL A   1      31.594  28.673  22.181  1.00  0.00     0.347 HD
ATOM     12  H   UNL A   1      30.844  27.096  22.243  1.00  0.00     0.347 HD
BRANCH  10  13
ATOM     13  C   UNL A   1      30.795  28.096  23.923  1.00  0.00     0.183 C 
ATOM     14  C   UNL A   1      29.232  30.087  23.202  1.00  0.00    -0.006 C 
ATOM     15  C   UNL A   1      28.024  29.164  23.411  1.00  0.00     0.004 C 
ATOM     16  C   UNL A   1      30.411  29.588  24.058  1.00  0.00     0.068 C 
ATOM     17  C   UNL A   1      28.362  27.694  23.168  1.00  0.00     0.006 C 
ATOM     18  C   UNL A   1      29.524  27.231  24.045  1.00  0.00     0.065 C 
BRANCH  14  19
ATOM     19  C   UNL A   1      29.481  30.314  21.693  1.00  0.00     0.000 C 
ATOM     20  C   UNL A   1      28.335  30.950  20.924  1.00  0.00     0.004 C 
ENDBRANCH  14  19
ENDBRANCH  10  13
ENDBRANCH   8  10
BRANCH   8  21
ATOM     21  C   UNL A   1      33.310  26.647  24.059  1.00  0.00     0.075 C 
ATOM     22  C   UNL A   1      34.025  27.696  24.917  1.00  0.00     0.011 C 
ENDBRANCH   8  21
ENDBRANCH   5   8
ENDBRANCH   3   4
ENDBRANCH   2   3
ENDBRANCH   1   2
BRANCH   1  23
ATOM     23  C   UNL A   1      34.879  23.606  23.858  1.00  0.00     0.002 C 
BRANCH  23  24
ATOM     24  C   UNL A   1      35.175  23.267  25.322  1.00  0.00     0.021 C 
BRANCH  24  25
ATOM     25  C   UNL A   1      36.517  23.791  25.823  1.00  0.00     0.116 C 
BRANCH  25  26
ATOM     26  N   UNL A   1      37.455  22.707  26.062  1.00  0.00    -0.352 N 
ATOM     27  C   UNL A   1      38.783  22.780  26.398  1.00  0.00     0.251 C 
ATOM     28  H   UNL A   1      37.088  21.799  25.970  1.00  0.00     0.163 HD
ATOM     29  O   UNL A   1      39.495  21.786  26.321  1.00  0.00    -0.269 OA
BRANCH  27  30
ATOM     30  C   UNL A   1      39.343  24.071  26.845  1.00  0.00     0.039 A 
ATOM     31  C   UNL A   1      39.260  24.417  28.194  1.00  0.00     0.014 A 
ATOM     32  C   UNL A   1      39.953  24.934  25.928  1.00  0.00     0.014 A 
ATOM     33  C   UNL A   1      39.831  25.612  28.634  1.00  0.00     0.010 A 
ATOM     34  C   UNL A   1      40.588  26.086  26.381  1.00  0.00     0.010 A 
ATOM     35  C   UNL A   1      40.523  26.442  27.736  1.00  0.00    -0.014 A 
BRANCH  35  36
ATOM     36  C   UNL A   1      41.181  27.690  28.197  1.00  0.00     0.031 A 
ATOM     37  C   UNL A   1      42.680  27.813  28.152  1.00  0.00     0.074 A 
ATOM     38  C   UNL A   1      40.432  28.689  28.705  1.00  0.00     0.049 A 
ATOM     39  N   UNL A   1      43.437  28.802  28.553  1.00  0.00    -0.248 NA
ATOM     40  C   UNL A   1      43.427  26.666  27.611  1.00  0.00     0.031 C 
ATOM     41  C   UNL A   1      38.972  28.672  28.834  1.00  0.00     0.029 A 
ATOM     42  N   UNL A   1      40.796  29.912  29.210  1.00  0.00    -0.354 N 
ATOM     43  C   UNL A   1      44.746  28.393  28.323  1.00  0.00     0.074 A 
ATOM     44  C   UNL A   1      44.683  27.046  27.802  1.00  0.00     0.031 C 
ATOM     45  C   UNL A   1      38.564  29.841  29.352  1.00  0.00     0.029 A 
ATOM     46  C   UNL A   1      39.731  30.672  29.633  1.00  0.00     0.049 A 
ATOM     47  H   UNL A   1      41.729  30.216  29.263  1.00  0.00     0.167 HD
ATOM     48  C   UNL A   1      45.895  29.085  28.510  1.00  0.00     0.031 A 
ATOM     49  C   UNL A   1      39.697  31.897  30.192  1.00  0.00     0.031 A 
ATOM     50  C   UNL A   1      45.951  30.428  29.024  1.00  0.00     0.049 A 
ATOM     51  C   UNL A   1      40.988  32.637  30.408  1.00  0.00     0.074 A 
ATOM     52  C   UNL A   1      47.061  31.233  29.205  1.00  0.00     0.029 A 
ATOM     53  N   UNL A   1      44.851  31.162  29.442  1.00  0.00    -0.354 N 
ATOM     54  N   UNL A   1      42.213  32.258  30.128  1.00  0.00    -0.248 NA
ATOM     55  C   UNL A   1      40.892  33.976  31.005  1.00  0.00     0.031 C 
ATOM     56  C   UNL A   1      46.640  32.433  29.787  1.00  0.00     0.029 A 
ATOM     57  C   UNL A   1      45.258  32.402  29.906  1.00  0.00     0.049 A 
ATOM     58  H   UNL A   1      43.918  30.849  29.414  1.00  0.00     0.167 HD
ATOM     59  C   UNL A   1      43.030  33.323  30.488  1.00  0.00     0.074 A 
ATOM     60  C   UNL A   1      42.160  34.367  30.992  1.00  0.00     0.031 C 
ATOM     61  C   UNL A   1      44.380  33.429  30.406  1.00  0.00     0.031 A 
BRANCH  48  62
ATOM     62  C   UNL A   1      47.189  28.394  28.160  1.00  0.00    -0.014 A 
ATOM     63  C   UNL A   1      47.693  28.417  26.846  1.00  0.00     0.010 A 
ATOM     64  C   UNL A   1      47.930  27.747  29.164  1.00  0.00     0.010 A 
ATOM     65  C   UNL A   1      48.891  27.769  26.536  1.00  0.00     0.020 A 
ATOM     66  C   UNL A   1      49.146  27.123  28.864  1.00  0.00     0.020 A 
ATOM     67  C   UNL A   1      49.609  27.124  27.547  1.00  0.00     0.054 A 
BRANCH  67  68
ATOM     68  S   UNL A   1      51.171  26.310  27.118  1.00  0.00     0.124 S 
ATOM     69  O   UNL A   1      50.791  24.899  27.140  1.00  0.00    -0.237 OA
ATOM     70  O   UNL A   1      51.467  26.859  25.798  1.00  0.00    -0.237 OA
ATOM     71  O   UNL A   1      52.083  26.725  28.181  1.00  0.00    -0.744 OA
ENDBRANCH  67  68
ENDBRANCH  48  62
BRANCH  49  72
ATOM     72  C   UNL A   1      38.391  32.505  30.570  1.00  0.00    -0.014 A 
ATOM     73  C   UNL A   1      37.628  33.208  29.621  1.00  0.00     0.010 A 
ATOM     74  C   UNL A   1      37.896  32.369  31.880  1.00  0.00     0.010 A 
ATOM     75  C   UNL A   1      36.402  33.778  29.979  1.00  0.00     0.020 A 
ATOM     76  C   UNL A   1      36.657  32.912  32.233  1.00  0.00     0.020 A 
ATOM     77  C   UNL A   1      35.924  33.624  31.283  1.00  0.00     0.054 A 
BRANCH  77  78
ATOM     78  S   UNL A   1      34.307  34.327  31.709  1.00  0.00     0.124 S 
ATOM     79  O   UNL A   1      33.676  34.452  30.399  1.00  0.00    -0.237 OA
ATOM     80  O   UNL A   1      33.743  33.308  32.590  1.00  0.00    -0.237 OA
ATOM     81  O   UNL A   1      34.645  35.589  32.365  1.00  0.00    -0.744 OA
ENDBRANCH  77  78
ENDBRANCH  49  72
BRANCH  61  82
ATOM     82  C   UNL A   1      45.001  34.731  30.838  1.00  0.00    -0.014 A 
ATOM     83  C   UNL A   1      45.351  34.966  32.180  1.00  0.00     0.010 A 
ATOM     84  C   UNL A   1      45.291  35.713  29.873  1.00  0.00     0.010 A 
ATOM     85  C   UNL A   1      45.949  36.172  32.553  1.00  0.00     0.020 A 
ATOM     86  C   UNL A   1      45.918  36.907  30.236  1.00  0.00     0.020 A 
ATOM     87  C   UNL A   1      46.230  37.134  31.577  1.00  0.00     0.054 A 
BRANCH  87  88
ATOM     88  S   UNL A   1      47.050  38.672  32.082  1.00  0.00     0.124 S 
ATOM     89  O   UNL A   1      47.393  38.392  33.473  1.00  0.00    -0.237 OA
ATOM     90  O   UNL A   1      48.179  38.751  31.159  1.00  0.00    -0.237 OA
ATOM     91  O   UNL A   1      46.022  39.693  31.886  1.00  0.00    -0.744 OA
ENDBRANCH  87  88
ENDBRANCH  61  82
ENDBRANCH  35  36
ENDBRANCH  27  30
ENDBRANCH  25  26
ENDBRANCH  24  25
ENDBRANCH  23  24
ENDBRANCH   1  23
TORSDOF 20
ENDMDL
MODEL 3
REMARK VINA RESULT:      -7.7      3.974      7.128
REMARK SMILES CC[C@H]1CCC[C@@H]([NH2+][C@@](C)(CC)C(=O)NCCCCCCNC(=O)c2ccc(-c3c4nc(c(-c5ccc(S(=O)(=O)[O-])cc5)c5ccc([nH]5)c(-c5ccc(S(=O)(=O)[O-])cc5)c5nc(c(-c6ccc(S(=O)(=O)[O-])cc6)c6ccc3[nH]6)C=C5)C=C4)cc2)C1
REMARK SMILES IDX 18 1 17 2 16 3 15 4 13 5 14 6 9 8 10 9 8 10 7 13 3 14 4 15
REMARK SMILES IDX 85 16 5 17 6 18 2 19 1 20 11 21 12 22 19 23 20 24 21 25
REMARK SMILES IDX 22 26 23 27 24 29 25 30 26 31 84 32 27 33 83 34 28 35 29 36
REMARK SMILES IDX 30 37 77 38 31 39 82 40 76 41 78 42 32 43 81 44 75 45 74 46
REMARK SMILES IDX 33 48 63 49 44 50 62 51 45 52 48 53 61 54 79 55 46 56 47 57
REMARK SMILES IDX 60 59 80 60 49 61 34 62 35 63 43 64 36 65 42 66 37 67 38 68
REMARK SMILES IDX 39 69 40 70 41 71 64 72 65 73 73 74 66 75 72 76 67 77 68 78
REMARK SMILES IDX 69 79 70 80 71 81 50 82 51 83 59 84 52 85 58 86 53 87 54 88
REMARK SMILES IDX 55 89 56 90 57 91
REMARK H PARENT 15 7 8 11 8 12 22 28 78 47 48 58
REMARK Flexibility Score: inf
ROOT
ATOM      1  C   UNL A   1      33.537  29.292  26.335  1.00  0.00     0.002 C 
ENDROOT
BRANCH   1   2
ATOM      2  C   UNL A   1      33.173  29.291  24.850  1.00  0.00     0.021 C 
BRANCH   2   3
ATOM      3  C   UNL A   1      32.371  28.065  24.420  1.00  0.00     0.116 C 
BRANCH   3   4
ATOM      4  N   UNL A   1      32.980  27.388  23.291  1.00  0.00    -0.351 N 
ATOM      5  C   UNL A   1      33.448  26.113  23.117  1.00  0.00     0.281 C 
ATOM      6  O   UNL A   1      34.010  25.893  22.039  1.00  0.00    -0.268 OA
ATOM      7  H   UNL A   1      33.078  27.956  22.492  1.00  0.00     0.163 HD
BRANCH   5   8
ATOM      8  C   UNL A   1      33.274  25.016  24.229  1.00  0.00     0.172 C 
ATOM      9  C   UNL A   1      32.006  24.192  23.869  1.00  0.00     0.090 C 
BRANCH   8  10
ATOM     10  N   UNL A   1      34.342  23.978  24.096  1.00  0.00    -0.331 N 
ATOM     11  H   UNL A   1      33.866  23.084  23.978  1.00  0.00     0.347 HD
ATOM     12  H   UNL A   1      34.903  24.326  23.317  1.00  0.00     0.347 HD
BRANCH  10  13
ATOM     13  C   UNL A   1      35.325  23.793  25.150  1.00  0.00     0.183 C 
ATOM     14  C   UNL A   1      35.140  21.203  25.581  1.00  0.00    -0.006 C 
ATOM     15  C   UNL A   1      36.545  21.042  24.986  1.00  0.00     0.004 C 
ATOM     16  C   UNL A   1      34.972  22.637  26.115  1.00  0.00     0.068 C 
ATOM     17  C   UNL A   1      36.865  22.112  23.944  1.00  0.00     0.006 C 
ATOM     18  C   UNL A   1      36.703  23.520  24.513  1.00  0.00     0.065 C 
BRANCH  14  19
ATOM     19  C   UNL A   1      34.073  20.671  24.596  1.00  0.00     0.000 C 
ATOM     20  C   UNL A   1      33.773  19.184  24.689  1.00  0.00     0.004 C 
ENDBRANCH  14  19
ENDBRANCH  10  13
ENDBRANCH   8  10
BRANCH   8  21
ATOM     21  C   UNL A   1      33.139  25.658  25.639  1.00  0.00     0.075 C 
ATOM     22  C   UNL A   1      31.888  25.315  26.452  1.00  0.00     0.011 C 
ENDBRANCH   8  21
ENDBRANCH   5   8
ENDBRANCH   3   4
ENDBRANCH   2   3
ENDBRANCH   1   2
BRANCH   1  23
ATOM     23  C   UNL A   1      33.164  30.581  27.071  1.00  0.00     0.002 C 
BRANCH  23  24
ATOM     24  C   UNL A   1      34.358  31.381  27.601  1.00  0.00     0.021 C 
BRANCH  24  25
ATOM     25  C   UNL A   1      35.369  30.546  28.379  1.00  0.00     0.116 C 
BRANCH  25  26
ATOM     26  N   UNL A   1      35.421  30.941  29.776  1.00  0.00    -0.352 N 
ATOM     27  C   UNL A   1      36.403  30.695  30.702  1.00  0.00     0.251 C 
ATOM     28  H   UNL A   1      34.647  31.453  30.103  1.00  0.00     0.163 HD
ATOM     29  O   UNL A   1      36.187  30.876  31.894  1.00  0.00    -0.269 OA
BRANCH  27  30
ATOM     30  C   UNL A   1      37.718  30.203  30.244  1.00  0.00     0.039 A 
ATOM     31  C   UNL A   1      38.072  30.360  28.903  1.00  0.00     0.014 A 
ATOM     32  C   UNL A   1      38.598  29.591  31.142  1.00  0.00     0.014 A 
ATOM     33  C   UNL A   1      39.331  29.944  28.472  1.00  0.00     0.010 A 
ATOM     34  C   UNL A   1      39.880  29.247  30.728  1.00  0.00     0.010 A 
ATOM     35  C   UNL A   1      40.256  29.410  29.386  1.00  0.00    -0.014 A 
BRANCH  35  36
ATOM     36  C   UNL A   1      41.618  29.010  28.954  1.00  0.00     0.031 A 
ATOM     37  C   UNL A   1      42.727  30.027  28.922  1.00  0.00     0.074 A 
ATOM     38  C   UNL A   1      41.842  27.747  28.541  1.00  0.00     0.049 A 
ATOM     39  N   UNL A   1      43.967  29.880  28.530  1.00  0.00    -0.248 NA
ATOM     40  C   UNL A   1      42.394  31.391  29.361  1.00  0.00     0.031 C 
ATOM     41  C   UNL A   1      40.838  26.681  28.492  1.00  0.00     0.029 A 
ATOM     42  N   UNL A   1      42.986  27.146  28.080  1.00  0.00    -0.354 N 
ATOM     43  C   UNL A   1      44.557  31.131  28.666  1.00  0.00     0.074 A 
ATOM     44  C   UNL A   1      43.526  32.038  29.121  1.00  0.00     0.031 C 
ATOM     45  C   UNL A   1      41.418  25.551  28.059  1.00  0.00     0.029 A 
ATOM     46  C   UNL A   1      42.821  25.820  27.756  1.00  0.00     0.049 A 
ATOM     47  H   UNL A   1      43.844  27.619  27.991  1.00  0.00     0.167 HD
ATOM     48  C   UNL A   1      45.845  31.489  28.452  1.00  0.00     0.031 A 
ATOM     49  C   UNL A   1      43.696  24.923  27.264  1.00  0.00     0.031 A 
ATOM     50  C   UNL A   1      46.868  30.581  28.005  1.00  0.00     0.049 A 
ATOM     51  C   UNL A   1      45.117  25.349  27.014  1.00  0.00     0.074 A 
ATOM     52  C   UNL A   1      48.214  30.834  27.804  1.00  0.00     0.029 A 
ATOM     53  N   UNL A   1      46.659  29.248  27.687  1.00  0.00    -0.354 N 
ATOM     54  N   UNL A   1      45.670  26.523  27.206  1.00  0.00    -0.248 NA
ATOM     55  C   UNL A   1      46.034  24.326  26.493  1.00  0.00     0.031 C 
ATOM     56  C   UNL A   1      48.807  29.669  27.309  1.00  0.00     0.029 A 
ATOM     57  C   UNL A   1      47.846  28.670  27.266  1.00  0.00     0.049 A 
ATOM     58  H   UNL A   1      45.796  28.780  27.751  1.00  0.00     0.167 HD
ATOM     59  C   UNL A   1      47.007  26.372  26.857  1.00  0.00     0.074 A 
ATOM     60  C   UNL A   1      47.181  24.990  26.456  1.00  0.00     0.031 C 
ATOM     61  C   UNL A   1      48.002  27.294  26.868  1.00  0.00     0.031 A 
BRANCH  48  62
ATOM     62  C   UNL A   1      46.218  32.930  28.693  1.00  0.00    -0.014 A 
ATOM     63  C   UNL A   1      46.118  33.889  27.667  1.00  0.00     0.010 A 
ATOM     64  C   UNL A   1      46.638  33.340  29.971  1.00  0.00     0.010 A 
ATOM     65  C   UNL A   1      46.471  35.220  27.904  1.00  0.00     0.020 A 
ATOM     66  C   UNL A   1      46.963  34.677  30.221  1.00  0.00     0.020 A 
ATOM     67  C   UNL A   1      46.894  35.605  29.180  1.00  0.00     0.054 A 
BRANCH  67  68
ATOM     68  S   UNL A   1      47.326  37.343  29.462  1.00  0.00     0.124 S 
ATOM     69  O   UNL A   1      48.337  37.573  28.433  1.00  0.00    -0.237 OA
ATOM     70  O   UNL A   1      46.053  38.027  29.254  1.00  0.00    -0.237 OA
ATOM     71  O   UNL A   1      47.822  37.359  30.836  1.00  0.00    -0.744 OA
ENDBRANCH  67  68
ENDBRANCH  48  62
BRANCH  49  72
ATOM     72  C   UNL A   1      43.254  23.527  26.990  1.00  0.00    -0.014 A 
ATOM     73  C   UNL A   1      43.070  23.081  25.669  1.00  0.00     0.010 A 
ATOM     74  C   UNL A   1      43.032  22.630  28.051  1.00  0.00     0.010 A 
ATOM     75  C   UNL A   1      42.656  21.770  25.415  1.00  0.00     0.020 A 
ATOM     76  C   UNL A   1      42.646  21.310  27.799  1.00  0.00     0.020 A 
ATOM     77  C   UNL A   1      42.449  20.893  26.482  1.00  0.00     0.054 A 
BRANCH  77  78
ATOM     78  S   UNL A   1      41.962  19.182  26.125  1.00  0.00     0.124 S 
ATOM     79  O   UNL A   1      42.771  18.876  24.949  1.00  0.00    -0.237 OA
ATOM     80  O   UNL A   1      42.338  18.485  27.352  1.00  0.00    -0.237 OA
ATOM     81  O   UNL A   1      40.523  19.278  25.888  1.00  0.00    -0.744 OA
ENDBRANCH  77  78
ENDBRANCH  49  72
BRANCH  61  82
ATOM     82  C   UNL A   1      49.380  26.833  26.470  1.00  0.00    -0.014 A 
ATOM     83  C   UNL A   1      50.232  26.194  27.387  1.00  0.00     0.010 A 
ATOM     84  C   UNL A   1      49.805  26.994  25.138  1.00  0.00     0.010 A 
ATOM     85  C   UNL A   1      51.496  25.753  26.988  1.00  0.00     0.020 A 
ATOM     86  C   UNL A   1      51.055  26.527  24.727  1.00  0.00     0.020 A 
ATOM     87  C   UNL A   1      51.898  25.922  25.659  1.00  0.00     0.054 A 
BRANCH  87  88
ATOM     88  S   UNL A   1      53.526  25.299  25.156  1.00  0.00     0.124 S 
ATOM     89  O   UNL A   1      53.402  23.870  25.429  1.00  0.00    -0.237 OA
ATOM     90  O   UNL A   1      53.587  25.666  23.744  1.00  0.00    -0.237 OA
ATOM     91  O   UNL A   1      54.457  26.021  26.021  1.00  0.00    -0.744 OA
ENDBRANCH  87  88
ENDBRANCH  61  82
ENDBRANCH  35  36
ENDBRANCH  27  30
ENDBRANCH  25  26
ENDBRANCH  24  25
ENDBRANCH  23  24
ENDBRANCH   1  23
TORSDOF 20
ENDMDL
