MODEL 1
REMARK VINA RESULT:     -11.7      0.000      0.000
REMARK SMILES O=C(NCCCCCCNC(=O)[C@H]1C[C@](O)(c2ccc(F)cc2)[C@@H](c2ccc(F)cc2)O1)c1ccc(-c2c3nc(c(-c4ccc(S(=O)(=O)[O-])cc4)c4ccc([nH]4)c(-c4ccc(S(=O)(=O)[O-])cc4)c4nc(c(-c5ccc(S(=O)(=O)[O-])cc5)c5ccc2[nH]5)C=C4)C=C3)cc1
REMARK SMILES IDX 5 1 4 2 3 3 1 4 2 5 33 7 34 8 92 9 35 10 91 11 36 12 37 13
REMARK SMILES IDX 38 14 85 15 39 16 90 17 84 18 86 19 40 20 89 21 83 22 82 23
REMARK SMILES IDX 41 25 71 26 52 27 70 28 53 29 56 30 69 31 87 32 54 33 55 34
REMARK SMILES IDX 68 36 88 37 57 38 42 39 43 40 51 41 44 42 50 43 45 44 46 45
REMARK SMILES IDX 47 46 48 47 49 48 72 49 73 50 81 51 74 52 80 53 75 54 76 55
REMARK SMILES IDX 77 56 78 57 79 58 58 59 59 60 67 61 60 62 66 63 61 64 62 65
REMARK SMILES IDX 63 66 64 67 65 68 6 69 7 70 8 71 9 72 10 73 11 74 12 76
REMARK SMILES IDX 13 77 14 78 32 79 15 80 24 81 17 82 18 83 23 84 19 85 22 86
REMARK SMILES IDX 20 87 21 88 16 89 25 91 26 92 31 93 27 94 30 95 28 96 29 97
REMARK H PARENT 3 6 86 24 56 35 10 75 16 90
REMARK Flexibility Score: inf
ROOT
ATOM      1  C   UNL A   1      42.090  21.938  27.193  1.00  0.00     0.021 C 
ENDROOT
BRANCH   1   2
ATOM      2  C   UNL A   1      42.808  23.274  27.323  1.00  0.00     0.116 C 
BRANCH   2   3
ATOM      3  N   UNL A   1      42.717  24.072  26.112  1.00  0.00    -0.352 N 
ATOM      4  O   UNL A   1      42.116  25.831  24.835  1.00  0.00    -0.269 OA
ATOM      5  C   UNL A   1      42.301  25.374  25.961  1.00  0.00     0.251 C 
ATOM      6  H   UNL A   1      42.991  23.616  25.283  1.00  0.00     0.163 HD
BRANCH   5   7
ATOM      7  C   UNL A   1      42.058  26.217  27.154  1.00  0.00     0.039 A 
ATOM      8  C   UNL A   1      41.063  25.880  28.075  1.00  0.00     0.014 A 
ATOM      9  C   UNL A   1      42.850  27.349  27.367  1.00  0.00     0.014 A 
ATOM     10  C   UNL A   1      40.775  26.739  29.131  1.00  0.00     0.010 A 
ATOM     11  C   UNL A   1      42.614  28.167  28.477  1.00  0.00     0.010 A 
ATOM     12  C   UNL A   1      41.560  27.880  29.357  1.00  0.00    -0.014 A 
BRANCH  12  13
ATOM     13  C   UNL A   1      41.314  28.703  30.570  1.00  0.00     0.031 A 
ATOM     14  C   UNL A   1      42.176  28.576  31.795  1.00  0.00     0.074 A 
ATOM     15  C   UNL A   1      40.301  29.594  30.543  1.00  0.00     0.049 A 
ATOM     16  N   UNL A   1      42.101  29.239  32.921  1.00  0.00    -0.248 NA
ATOM     17  C   UNL A   1      43.257  27.577  31.760  1.00  0.00     0.031 C 
ATOM     18  C   UNL A   1      39.387  29.797  29.415  1.00  0.00     0.029 A 
ATOM     19  N   UNL A   1      39.878  30.504  31.478  1.00  0.00    -0.354 N 
ATOM     20  C   UNL A   1      43.107  28.730  33.734  1.00  0.00     0.074 A 
ATOM     21  C   UNL A   1      43.770  27.688  32.979  1.00  0.00     0.031 C 
ATOM     22  C   UNL A   1      38.542  30.798  29.706  1.00  0.00     0.029 A 
ATOM     23  C   UNL A   1      38.810  31.263  31.060  1.00  0.00     0.049 A 
ATOM     24  H   UNL A   1      40.298  30.603  32.362  1.00  0.00     0.167 HD
ATOM     25  C   UNL A   1      43.446  29.101  34.994  1.00  0.00     0.031 A 
ATOM     26  C   UNL A   1      38.107  32.216  31.700  1.00  0.00     0.031 A 
ATOM     27  C   UNL A   1      42.784  30.142  35.738  1.00  0.00     0.049 A 
ATOM     28  C   UNL A   1      38.491  32.587  33.103  1.00  0.00     0.074 A 
ATOM     29  C   UNL A   1      43.084  30.614  37.005  1.00  0.00     0.029 A 
ATOM     30  N   UNL A   1      41.691  30.868  35.291  1.00  0.00    -0.354 N 
ATOM     31  N   UNL A   1      39.475  32.122  33.835  1.00  0.00    -0.248 NA
ATOM     32  C   UNL A   1      37.673  33.611  33.765  1.00  0.00     0.031 C 
ATOM     33  C   UNL A   1      42.140  31.589  37.345  1.00  0.00     0.029 A 
ATOM     34  C   UNL A   1      41.287  31.764  36.267  1.00  0.00     0.049 A 
ATOM     35  H   UNL A   1      41.265  30.761  34.410  1.00  0.00     0.167 HD
ATOM     36  C   UNL A   1      39.402  32.809  35.041  1.00  0.00     0.074 A 
ATOM     37  C   UNL A   1      38.295  33.736  34.929  1.00  0.00     0.031 C 
ATOM     38  C   UNL A   1      40.181  32.679  36.142  1.00  0.00     0.031 A 
BRANCH  25  39
ATOM     39  C   UNL A   1      44.575  28.366  35.669  1.00  0.00    -0.014 A 
ATOM     40  C   UNL A   1      44.343  27.190  36.402  1.00  0.00     0.010 A 
ATOM     41  C   UNL A   1      45.899  28.810  35.490  1.00  0.00     0.010 A 
ATOM     42  C   UNL A   1      45.412  26.481  36.961  1.00  0.00     0.020 A 
ATOM     43  C   UNL A   1      46.972  28.093  36.028  1.00  0.00     0.020 A 
ATOM     44  C   UNL A   1      46.720  26.937  36.770  1.00  0.00     0.054 A 
BRANCH  44  45
ATOM     45  S   UNL A   1      48.089  25.970  37.465  1.00  0.00     0.124 S 
ATOM     46  O   UNL A   1      48.198  24.872  36.508  1.00  0.00    -0.237 OA
ATOM     47  O   UNL A   1      49.194  26.925  37.452  1.00  0.00    -0.237 OA
ATOM     48  O   UNL A   1      47.610  25.593  38.792  1.00  0.00    -0.744 OA
ENDBRANCH  44  45
ENDBRANCH  25  39
BRANCH  26  49
ATOM     49  C   UNL A   1      36.949  32.862  31.025  1.00  0.00    -0.014 A 
ATOM     50  C   UNL A   1      37.145  33.892  30.090  1.00  0.00     0.010 A 
ATOM     51  C   UNL A   1      35.638  32.440  31.315  1.00  0.00     0.010 A 
ATOM     52  C   UNL A   1      36.049  34.505  29.474  1.00  0.00     0.020 A 
ATOM     53  C   UNL A   1      34.542  33.028  30.679  1.00  0.00     0.020 A 
ATOM     54  C   UNL A   1      34.755  34.070  29.775  1.00  0.00     0.054 A 
BRANCH  54  55
ATOM     55  S   UNL A   1      33.348  34.853  28.940  1.00  0.00     0.124 S 
ATOM     56  O   UNL A   1      33.985  35.983  28.272  1.00  0.00    -0.237 OA
ATOM     57  O   UNL A   1      32.865  33.789  28.065  1.00  0.00    -0.237 OA
ATOM     58  O   UNL A   1      32.450  35.199  30.039  1.00  0.00    -0.744 OA
ENDBRANCH  54  55
ENDBRANCH  26  49
BRANCH  38  59
ATOM     59  C   UNL A   1      39.877  33.582  37.306  1.00  0.00    -0.014 A 
ATOM     60  C   UNL A   1      40.504  34.833  37.438  1.00  0.00     0.010 A 
ATOM     61  C   UNL A   1      38.923  33.186  38.261  1.00  0.00     0.010 A 
ATOM     62  C   UNL A   1      40.209  35.659  38.525  1.00  0.00     0.020 A 
ATOM     63  C   UNL A   1      38.606  34.021  39.336  1.00  0.00     0.020 A 
ATOM     64  C   UNL A   1      39.262  35.246  39.469  1.00  0.00     0.054 A 
BRANCH  64  65
ATOM     65  S   UNL A   1      38.869  36.350  40.854  1.00  0.00     0.124 S 
ATOM     66  O   UNL A   1      40.145  36.413  41.562  1.00  0.00    -0.237 OA
ATOM     67  O   UNL A   1      38.463  37.580  40.179  1.00  0.00    -0.237 OA
ATOM     68  O   UNL A   1      37.797  35.650  41.559  1.00  0.00    -0.744 OA
ENDBRANCH  64  65
ENDBRANCH  38  59
ENDBRANCH  12  13
ENDBRANCH   5   7
ENDBRANCH   2   3
ENDBRANCH   1   2
BRANCH   1  69
ATOM     69  C   UNL A   1      40.613  21.957  27.586  1.00  0.00     0.002 C 
BRANCH  69  70
ATOM     70  C   UNL A   1      39.645  22.472  26.515  1.00  0.00     0.002 C 
BRANCH  70  71
ATOM     71  C   UNL A   1      38.873  23.755  26.855  1.00  0.00     0.021 C 
BRANCH  71  72
ATOM     72  C   UNL A   1      37.553  23.949  26.107  1.00  0.00     0.116 C 
BRANCH  72  73
ATOM     73  N   UNL A   1      37.550  23.316  24.806  1.00  0.00    -0.354 N 
ATOM     74  C   UNL A   1      36.557  23.281  23.875  1.00  0.00     0.249 C 
ATOM     75  H   UNL A   1      38.380  22.847  24.559  1.00  0.00     0.163 HD
ATOM     76  O   UNL A   1      36.793  22.706  22.809  1.00  0.00    -0.272 OA
BRANCH  74  77
ATOM     77  C   UNL A   1      35.200  23.970  24.164  1.00  0.00     0.211 C 
ATOM     78  C   UNL A   1      34.352  24.097  22.897  1.00  0.00     0.085 C 
ATOM     79  O   UNL A   1      34.431  23.272  25.147  1.00  0.00    -0.357 OA
ATOM     80  C   UNL A   1      32.978  23.531  23.254  1.00  0.00     0.123 C 
ATOM     81  C   UNL A   1      33.267  22.696  24.533  1.00  0.00     0.186 C 
BRANCH  80  82
ATOM     82  C   UNL A   1      31.961  24.680  23.380  1.00  0.00    -0.013 A 
ATOM     83  C   UNL A   1      32.210  25.876  22.663  1.00  0.00     0.010 A 
ATOM     84  C   UNL A   1      30.782  24.619  24.141  1.00  0.00     0.010 A 
ATOM     85  C   UNL A   1      31.313  26.945  22.685  1.00  0.00     0.039 A 
ATOM     86  C   UNL A   1      29.874  25.686  24.150  1.00  0.00     0.039 A 
ATOM     87  C   UNL A   1      30.145  26.835  23.422  1.00  0.00     0.123 A 
ATOM     88  F   UNL A   1      29.269  27.848  23.429  1.00  0.00    -0.207 F 
ENDBRANCH  80  82
BRANCH  80  89
ATOM     89  O   UNL A   1      32.471  22.725  22.181  1.00  0.00    -0.382 OA
ATOM     90  H   UNL A   1      33.211  22.376  21.659  1.00  0.00     0.212 HD
ENDBRANCH  80  89
BRANCH  81  91
ATOM     91  C   UNL A   1      33.494  21.191  24.426  1.00  0.00    -0.016 A 
ATOM     92  C   UNL A   1      34.697  20.561  24.786  1.00  0.00     0.009 A 
ATOM     93  C   UNL A   1      32.421  20.377  24.007  1.00  0.00     0.009 A 
ATOM     94  C   UNL A   1      34.821  19.170  24.738  1.00  0.00     0.039 A 
ATOM     95  C   UNL A   1      32.548  18.988  23.954  1.00  0.00     0.039 A 
ATOM     96  C   UNL A   1      33.746  18.398  24.325  1.00  0.00     0.123 A 
ATOM     97  F   UNL A   1      33.867  17.064  24.286  1.00  0.00    -0.207 F 
ENDBRANCH  81  91
ENDBRANCH  74  77
ENDBRANCH  72  73
ENDBRANCH  71  72
ENDBRANCH  70  71
ENDBRANCH  69  70
ENDBRANCH   1  69
TORSDOF 19
ENDMDL
MODEL 2
REMARK VINA RESULT:     -11.4      1.288      8.580
REMARK SMILES O=C(NCCCCCCNC(=O)[C@H]1C[C@](O)(c2ccc(F)cc2)[C@@H](c2ccc(F)cc2)O1)c1ccc(-c2c3nc(c(-c4ccc(S(=O)(=O)[O-])cc4)c4ccc([nH]4)c(-c4ccc(S(=O)(=O)[O-])cc4)c4nc(c(-c5ccc(S(=O)(=O)[O-])cc5)c5ccc2[nH]5)C=C4)C=C3)cc1
REMARK SMILES IDX 5 1 4 2 3 3 1 4 2 5 33 7 34 8 92 9 35 10 91 11 36 12 37 13
REMARK SMILES IDX 38 14 85 15 39 16 90 17 84 18 86 19 40 20 89 21 83 22 82 23
REMARK SMILES IDX 41 25 71 26 52 27 70 28 53 29 56 30 69 31 87 32 54 33 55 34
REMARK SMILES IDX 68 36 88 37 57 38 42 39 43 40 51 41 44 42 50 43 45 44 46 45
REMARK SMILES IDX 47 46 48 47 49 48 72 49 73 50 81 51 74 52 80 53 75 54 76 55
REMARK SMILES IDX 77 56 78 57 79 58 58 59 59 60 67 61 60 62 66 63 61 64 62 65
REMARK SMILES IDX 63 66 64 67 65 68 6 69 7 70 8 71 9 72 10 73 11 74 12 76
REMARK SMILES IDX 13 77 14 78 32 79 15 80 24 81 17 82 18 83 23 84 19 85 22 86
REMARK SMILES IDX 20 87 21 88 16 89 25 91 26 92 31 93 27 94 30 95 28 96 29 97
REMARK H PARENT 3 6 86 24 56 35 10 75 16 90
REMARK Flexibility Score: inf
ROOT
ATOM      1  C   UNL A   1      43.325  22.917  27.549  1.00  0.00     0.021 C 
ENDROOT
BRANCH   1   2
ATOM      2  C   UNL A   1      43.719  24.355  27.243  1.00  0.00     0.116 C 
BRANCH   2   3
ATOM      3  N   UNL A   1      43.022  24.887  26.084  1.00  0.00    -0.352 N 
ATOM      4  O   UNL A   1      41.472  26.095  24.978  1.00  0.00    -0.269 OA
ATOM      5  C   UNL A   1      42.094  25.899  26.020  1.00  0.00     0.251 C 
ATOM      6  H   UNL A   1      43.244  24.461  25.225  1.00  0.00     0.163 HD
BRANCH   5   7
ATOM      7  C   UNL A   1      41.831  26.740  27.210  1.00  0.00     0.039 A 
ATOM      8  C   UNL A   1      40.911  26.335  28.181  1.00  0.00     0.014 A 
ATOM      9  C   UNL A   1      42.530  27.940  27.370  1.00  0.00     0.014 A 
ATOM     10  C   UNL A   1      40.597  27.185  29.237  1.00  0.00     0.010 A 
ATOM     11  C   UNL A   1      42.273  28.756  28.477  1.00  0.00     0.010 A 
ATOM     12  C   UNL A   1      41.288  28.395  29.409  1.00  0.00    -0.014 A 
BRANCH  12  13
ATOM     13  C   UNL A   1      41.025  29.216  30.620  1.00  0.00     0.031 A 
ATOM     14  C   UNL A   1      39.876  30.184  30.679  1.00  0.00     0.074 A 
ATOM     15  C   UNL A   1      41.835  29.059  31.687  1.00  0.00     0.049 A 
ATOM     16  N   UNL A   1      39.505  30.954  31.671  1.00  0.00    -0.248 NA
ATOM     17  C   UNL A   1      39.039  30.313  29.476  1.00  0.00     0.031 C 
ATOM     18  C   UNL A   1      42.992  28.158  31.742  1.00  0.00     0.029 A 
ATOM     19  N   UNL A   1      41.806  29.633  32.932  1.00  0.00    -0.354 N 
ATOM     20  C   UNL A   1      38.407  31.670  31.211  1.00  0.00     0.074 A 
ATOM     21  C   UNL A   1      38.180  31.258  29.842  1.00  0.00     0.031 C 
ATOM     22  C   UNL A   1      43.532  28.209  32.969  1.00  0.00     0.029 A 
ATOM     23  C   UNL A   1      42.805  29.188  33.765  1.00  0.00     0.049 A 
ATOM     24  H   UNL A   1      41.135  30.301  33.202  1.00  0.00     0.167 HD
ATOM     25  C   UNL A   1      37.656  32.586  31.871  1.00  0.00     0.031 A 
ATOM     26  C   UNL A   1      43.118  29.540  35.027  1.00  0.00     0.031 A 
ATOM     27  C   UNL A   1      37.885  32.989  33.236  1.00  0.00     0.049 A 
ATOM     28  C   UNL A   1      42.282  30.576  35.722  1.00  0.00     0.074 A 
ATOM     29  C   UNL A   1      37.152  33.881  34.001  1.00  0.00     0.029 A 
ATOM     30  N   UNL A   1      38.921  32.536  34.036  1.00  0.00    -0.354 N 
ATOM     31  N   UNL A   1      41.221  31.206  35.281  1.00  0.00    -0.248 NA
ATOM     32  C   UNL A   1      42.685  30.944  37.086  1.00  0.00     0.031 C 
ATOM     33  C   UNL A   1      37.776  34.006  35.247  1.00  0.00     0.029 A 
ATOM     34  C   UNL A   1      38.864  33.149  35.277  1.00  0.00     0.049 A 
ATOM     35  H   UNL A   1      39.599  31.875  33.762  1.00  0.00     0.167 HD
ATOM     36  C   UNL A   1      40.820  32.038  36.320  1.00  0.00     0.074 A 
ATOM     37  C   UNL A   1      41.738  31.810  37.417  1.00  0.00     0.031 C 
ATOM     38  C   UNL A   1      39.787  32.914  36.358  1.00  0.00     0.031 A 
BRANCH  25  39
ATOM     39  C   UNL A   1      36.520  33.240  31.128  1.00  0.00    -0.014 A 
ATOM     40  C   UNL A   1      35.237  33.333  31.694  1.00  0.00     0.010 A 
ATOM     41  C   UNL A   1      36.764  33.852  29.883  1.00  0.00     0.010 A 
ATOM     42  C   UNL A   1      34.213  34.007  31.021  1.00  0.00     0.020 A 
ATOM     43  C   UNL A   1      35.749  34.546  29.218  1.00  0.00     0.020 A 
ATOM     44  C   UNL A   1      34.476  34.611  29.787  1.00  0.00     0.054 A 
BRANCH  44  45
ATOM     45  S   UNL A   1      33.142  35.520  28.961  1.00  0.00     0.124 S 
ATOM     46  O   UNL A   1      33.886  36.529  28.210  1.00  0.00    -0.237 OA
ATOM     47  O   UNL A   1      32.499  34.486  28.155  1.00  0.00    -0.237 OA
ATOM     48  O   UNL A   1      32.336  36.036  30.065  1.00  0.00    -0.744 OA
ENDBRANCH  44  45
ENDBRANCH  25  39
BRANCH  26  49
ATOM     49  C   UNL A   1      44.296  28.926  35.697  1.00  0.00    -0.014 A 
ATOM     50  C   UNL A   1      45.571  29.504  35.581  1.00  0.00     0.010 A 
ATOM     51  C   UNL A   1      44.140  27.756  36.463  1.00  0.00     0.010 A 
ATOM     52  C   UNL A   1      46.674  28.909  36.201  1.00  0.00     0.020 A 
ATOM     53  C   UNL A   1      45.234  27.176  37.109  1.00  0.00     0.020 A 
ATOM     54  C   UNL A   1      46.498  27.748  36.958  1.00  0.00     0.054 A 
BRANCH  54  55
ATOM     55  S   UNL A   1      47.935  27.010  37.784  1.00  0.00     0.124 S 
ATOM     56  O   UNL A   1      48.941  27.047  36.727  1.00  0.00    -0.237 OA
ATOM     57  O   UNL A   1      48.160  27.918  38.905  1.00  0.00    -0.237 OA
ATOM     58  O   UNL A   1      47.466  25.677  38.157  1.00  0.00    -0.744 OA
ENDBRANCH  54  55
ENDBRANCH  26  49
BRANCH  38  59
ATOM     59  C   UNL A   1      39.580  33.672  37.640  1.00  0.00    -0.014 A 
ATOM     60  C   UNL A   1      38.776  33.153  38.671  1.00  0.00     0.010 A 
ATOM     61  C   UNL A   1      40.228  34.906  37.830  1.00  0.00     0.010 A 
ATOM     62  C   UNL A   1      38.595  33.871  39.855  1.00  0.00     0.020 A 
ATOM     63  C   UNL A   1      40.070  35.615  39.024  1.00  0.00     0.020 A 
ATOM     64  C   UNL A   1      39.242  35.099  40.023  1.00  0.00     0.054 A 
BRANCH  64  65
ATOM     65  S   UNL A   1      39.021  35.998  41.583  1.00  0.00     0.124 S 
ATOM     66  O   UNL A   1      39.016  37.387  41.134  1.00  0.00    -0.237 OA
ATOM     67  O   UNL A   1      37.741  35.489  42.068  1.00  0.00    -0.237 OA
ATOM     68  O   UNL A   1      40.182  35.602  42.377  1.00  0.00    -0.744 OA
ENDBRANCH  64  65
ENDBRANCH  38  59
ENDBRANCH  12  13
ENDBRANCH   5   7
ENDBRANCH   2   3
ENDBRANCH   1   2
BRANCH   1  69
ATOM     69  C   UNL A   1      42.147  22.760  28.511  1.00  0.00     0.002 C 
BRANCH  69  70
ATOM     70  C   UNL A   1      40.763  22.663  27.861  1.00  0.00     0.002 C 
BRANCH  70  71
ATOM     71  C   UNL A   1      40.472  21.383  27.065  1.00  0.00     0.021 C 
BRANCH  71  72
ATOM     72  C   UNL A   1      39.485  21.535  25.907  1.00  0.00     0.116 C 
BRANCH  72  73
ATOM     73  N   UNL A   1      38.745  22.777  25.963  1.00  0.00    -0.354 N 
ATOM     74  C   UNL A   1      37.462  23.026  25.579  1.00  0.00     0.249 C 
ATOM     75  H   UNL A   1      39.236  23.548  26.330  1.00  0.00     0.163 HD
ATOM     76  O   UNL A   1      37.025  24.166  25.755  1.00  0.00    -0.272 OA
BRANCH  74  77
ATOM     77  C   UNL A   1      36.603  21.891  24.970  1.00  0.00     0.211 C 
ATOM     78  C   UNL A   1      35.698  21.245  26.021  1.00  0.00     0.085 C 
ATOM     79  O   UNL A   1      35.780  22.346  23.893  1.00  0.00    -0.357 OA
ATOM     80  C   UNL A   1      34.293  21.242  25.421  1.00  0.00     0.123 C 
ATOM     81  C   UNL A   1      34.398  22.297  24.284  1.00  0.00     0.186 C 
BRANCH  80  82
ATOM     82  C   UNL A   1      33.907  19.808  25.014  1.00  0.00    -0.013 A 
ATOM     83  C   UNL A   1      34.929  18.944  24.552  1.00  0.00     0.010 A 
ATOM     84  C   UNL A   1      32.606  19.282  25.093  1.00  0.00     0.010 A 
ATOM     85  C   UNL A   1      34.669  17.616  24.211  1.00  0.00     0.039 A 
ATOM     86  C   UNL A   1      32.348  17.944  24.766  1.00  0.00     0.039 A 
ATOM     87  C   UNL A   1      33.380  17.124  24.332  1.00  0.00     0.123 A 
ATOM     88  F   UNL A   1      33.128  15.844  24.029  1.00  0.00    -0.207 F 
ENDBRANCH  80  82
BRANCH  80  89
ATOM     89  O   UNL A   1      33.321  21.604  26.411  1.00  0.00    -0.382 OA
ATOM     90  H   UNL A   1      33.759  22.066  27.143  1.00  0.00     0.212 HD
ENDBRANCH  80  89
BRANCH  81  91
ATOM     91  C   UNL A   1      33.934  23.730  24.529  1.00  0.00    -0.016 A 
ATOM     92  C   UNL A   1      33.371  24.166  25.740  1.00  0.00     0.009 A 
ATOM     93  C   UNL A   1      34.137  24.686  23.512  1.00  0.00     0.009 A 
ATOM     94  C   UNL A   1      33.034  25.509  25.932  1.00  0.00     0.039 A 
ATOM     95  C   UNL A   1      33.794  26.026  23.703  1.00  0.00     0.039 A 
ATOM     96  C   UNL A   1      33.250  26.425  24.913  1.00  0.00     0.123 A 
ATOM     97  F   UNL A   1      32.930  27.712  25.103  1.00  0.00    -0.207 F 
ENDBRANCH  81  91
ENDBRANCH  74  77
ENDBRANCH  72  73
ENDBRANCH  71  72
ENDBRANCH  70  71
ENDBRANCH  69  70
ENDBRANCH   1  69
TORSDOF 19
ENDMDL
MODEL 3
REMARK VINA RESULT:     -11.3      5.962     11.994
REMARK SMILES O=C(NCCCCCCNC(=O)[C@H]1C[C@](O)(c2ccc(F)cc2)[C@@H](c2ccc(F)cc2)O1)c1ccc(-c2c3nc(c(-c4ccc(S(=O)(=O)[O-])cc4)c4ccc([nH]4)c(-c4ccc(S(=O)(=O)[O-])cc4)c4nc(c(-c5ccc(S(=O)(=O)[O-])cc5)c5ccc2[nH]5)C=C4)C=C3)cc1
REMARK SMILES IDX 5 1 4 2 3 3 1 4 2 5 33 7 34 8 92 9 35 10 91 11 36 12 37 13
REMARK SMILES IDX 38 14 85 15 39 16 90 17 84 18 86 19 40 20 89 21 83 22 82 23
REMARK SMILES IDX 41 25 71 26 52 27 70 28 53 29 56 30 69 31 87 32 54 33 55 34
REMARK SMILES IDX 68 36 88 37 57 38 42 39 43 40 51 41 44 42 50 43 45 44 46 45
REMARK SMILES IDX 47 46 48 47 49 48 72 49 73 50 81 51 74 52 80 53 75 54 76 55
REMARK SMILES IDX 77 56 78 57 79 58 58 59 59 60 67 61 60 62 66 63 61 64 62 65
REMARK SMILES IDX 63 66 64 67 65 68 6 69 7 70 8 71 9 72 10 73 11 74 12 76
REMARK SMILES IDX 13 77 14 78 32 79 15 80 24 81 17 82 18 83 23 84 19 85 22 86
REMARK SMILES IDX 20 87 21 88 16 89 25 91 26 92 31 93 27 94 30 95 28 96 29 97
REMARK H PARENT 3 6 86 24 56 35 10 75 16 90
REMARK Flexibility Score: inf
ROOT
ATOM      1  C   UNL A   1      36.295  33.627  29.336  1.00  0.00     0.021 C 
ENDROOT
BRANCH   1   2
ATOM      2  C   UNL A   1      37.036  33.297  30.624  1.00  0.00     0.116 C 
BRANCH   2   3
ATOM      3  N   UNL A   1      36.451  32.167  31.326  1.00  0.00    -0.352 N 
ATOM      4  O   UNL A   1      36.155  29.998  31.867  1.00  0.00    -0.269 OA
ATOM      5  C   UNL A   1      36.876  30.860  31.369  1.00  0.00     0.251 C 
ATOM      6  H   UNL A   1      35.637  32.365  31.842  1.00  0.00     0.163 HD
BRANCH   5   7
ATOM      7  C   UNL A   1      38.191  30.488  30.799  1.00  0.00     0.039 A 
ATOM      8  C   UNL A   1      38.377  30.427  29.416  1.00  0.00     0.014 A 
ATOM      9  C   UNL A   1      39.260  30.219  31.660  1.00  0.00     0.014 A 
ATOM     10  C   UNL A   1      39.587  29.972  28.898  1.00  0.00     0.010 A 
ATOM     11  C   UNL A   1      40.500  29.843  31.134  1.00  0.00     0.010 A 
ATOM     12  C   UNL A   1      40.668  29.696  29.749  1.00  0.00    -0.014 A 
BRANCH  12  13
ATOM     13  C   UNL A   1      41.986  29.344  29.159  1.00  0.00     0.031 A 
ATOM     14  C   UNL A   1      43.096  30.353  29.053  1.00  0.00     0.074 A 
ATOM     15  C   UNL A   1      42.178  28.079  28.732  1.00  0.00     0.049 A 
ATOM     16  N   UNL A   1      44.307  30.192  28.583  1.00  0.00    -0.248 NA
ATOM     17  C   UNL A   1      42.814  31.718  29.527  1.00  0.00     0.031 C 
ATOM     18  C   UNL A   1      41.170  27.014  28.771  1.00  0.00     0.029 A 
ATOM     19  N   UNL A   1      43.283  27.466  28.200  1.00  0.00    -0.354 N 
ATOM     20  C   UNL A   1      44.927  31.432  28.687  1.00  0.00     0.074 A 
ATOM     21  C   UNL A   1      43.952  32.343  29.248  1.00  0.00     0.031 C 
ATOM     22  C   UNL A   1      41.716  25.872  28.326  1.00  0.00     0.029 A 
ATOM     23  C   UNL A   1      43.088  26.136  27.911  1.00  0.00     0.049 A 
ATOM     24  H   UNL A   1      44.134  27.934  28.040  1.00  0.00     0.167 HD
ATOM     25  C   UNL A   1      46.193  31.776  28.346  1.00  0.00     0.031 A 
ATOM     26  C   UNL A   1      43.911  25.228  27.355  1.00  0.00     0.031 A 
ATOM     27  C   UNL A   1      47.160  30.862  27.792  1.00  0.00     0.049 A 
ATOM     28  C   UNL A   1      45.299  25.646  26.965  1.00  0.00     0.074 A 
ATOM     29  C   UNL A   1      48.479  31.111  27.452  1.00  0.00     0.029 A 
ATOM     30  N   UNL A   1      46.915  29.532  27.489  1.00  0.00    -0.354 N 
ATOM     31  N   UNL A   1      45.878  26.813  27.115  1.00  0.00    -0.248 NA
ATOM     32  C   UNL A   1      46.146  24.624  26.336  1.00  0.00     0.031 C 
ATOM     33  C   UNL A   1      49.016  29.945  26.897  1.00  0.00     0.029 A 
ATOM     34  C   UNL A   1      48.049  28.954  26.942  1.00  0.00     0.049 A 
ATOM     35  H   UNL A   1      46.060  29.066  27.640  1.00  0.00     0.167 HD
ATOM     36  C   UNL A   1      47.163  26.662  26.609  1.00  0.00     0.074 A 
ATOM     37  C   UNL A   1      47.284  25.286  26.175  1.00  0.00     0.031 C 
ATOM     38  C   UNL A   1      48.153  27.583  26.511  1.00  0.00     0.031 A 
BRANCH  25  39
ATOM     39  C   UNL A   1      46.615  33.209  28.542  1.00  0.00    -0.014 A 
ATOM     40  C   UNL A   1      46.413  34.171  27.537  1.00  0.00     0.010 A 
ATOM     41  C   UNL A   1      47.139  33.616  29.784  1.00  0.00     0.010 A 
ATOM     42  C   UNL A   1      46.745  35.511  27.763  1.00  0.00     0.020 A 
ATOM     43  C   UNL A   1      47.450  34.958  30.021  1.00  0.00     0.020 A 
ATOM     44  C   UNL A   1      47.261  35.897  29.004  1.00  0.00     0.054 A 
BRANCH  44  45
ATOM     45  S   UNL A   1      47.635  37.649  29.285  1.00  0.00     0.124 S 
ATOM     46  O   UNL A   1      47.317  38.237  27.986  1.00  0.00    -0.237 OA
ATOM     47  O   UNL A   1      46.726  38.002  30.373  1.00  0.00    -0.237 OA
ATOM     48  O   UNL A   1      49.053  37.650  29.637  1.00  0.00    -0.744 OA
ENDBRANCH  44  45
ENDBRANCH  25  39
BRANCH  26  49
ATOM     49  C   UNL A   1      43.428  23.842  27.107  1.00  0.00    -0.014 A 
ATOM     50  C   UNL A   1      43.313  22.922  28.162  1.00  0.00     0.010 A 
ATOM     51  C   UNL A   1      43.075  23.441  25.805  1.00  0.00     0.010 A 
ATOM     52  C   UNL A   1      42.875  21.617  27.915  1.00  0.00     0.020 A 
ATOM     53  C   UNL A   1      42.608  22.148  25.559  1.00  0.00     0.020 A 
ATOM     54  C   UNL A   1      42.528  21.239  26.615  1.00  0.00     0.054 A 
BRANCH  54  55
ATOM     55  S   UNL A   1      41.929  19.552  26.321  1.00  0.00     0.124 S 
ATOM     56  O   UNL A   1      40.485  19.753  26.251  1.00  0.00    -0.237 OA
ATOM     57  O   UNL A   1      42.580  19.198  25.063  1.00  0.00    -0.237 OA
ATOM     58  O   UNL A   1      42.403  18.814  27.489  1.00  0.00    -0.744 OA
ENDBRANCH  54  55
ENDBRANCH  26  49
BRANCH  38  59
ATOM     59  C   UNL A   1      49.462  27.122  25.934  1.00  0.00    -0.014 A 
ATOM     60  C   UNL A   1      49.730  27.230  24.557  1.00  0.00     0.010 A 
ATOM     61  C   UNL A   1      50.454  26.605  26.788  1.00  0.00     0.010 A 
ATOM     62  C   UNL A   1      50.952  26.797  24.040  1.00  0.00     0.020 A 
ATOM     63  C   UNL A   1      51.688  26.195  26.277  1.00  0.00     0.020 A 
ATOM     64  C   UNL A   1      51.923  26.280  24.903  1.00  0.00     0.054 A 
BRANCH  64  65
ATOM     65  S   UNL A   1      53.517  25.756  24.213  1.00  0.00     0.124 S 
ATOM     66  O   UNL A   1      53.583  24.358  24.631  1.00  0.00    -0.237 OA
ATOM     67  O   UNL A   1      53.335  25.976  22.781  1.00  0.00    -0.237 OA
ATOM     68  O   UNL A   1      54.481  26.646  24.857  1.00  0.00    -0.744 OA
ENDBRANCH  64  65
ENDBRANCH  38  59
ENDBRANCH  12  13
ENDBRANCH   5   7
ENDBRANCH   2   3
ENDBRANCH   1   2
BRANCH   1  69
ATOM     69  C   UNL A   1      34.806  33.279  29.339  1.00  0.00     0.002 C 
BRANCH  69  70
ATOM     70  C   UNL A   1      34.353  32.277  28.272  1.00  0.00     0.002 C 
BRANCH  70  71
ATOM     71  C   UNL A   1      35.384  31.222  27.847  1.00  0.00     0.021 C 
BRANCH  71  72
ATOM     72  C   UNL A   1      34.806  29.897  27.346  1.00  0.00     0.116 C 
BRANCH  72  73
ATOM     73  N   UNL A   1      33.386  29.776  27.601  1.00  0.00    -0.354 N 
ATOM     74  C   UNL A   1      32.542  28.760  27.269  1.00  0.00     0.249 C 
ATOM     75  H   UNL A   1      32.974  30.532  28.079  1.00  0.00     0.163 HD
ATOM     76  O   UNL A   1      31.365  28.857  27.623  1.00  0.00    -0.272 OA
BRANCH  74  77
ATOM     77  C   UNL A   1      33.079  27.529  26.497  1.00  0.00     0.211 C 
ATOM     78  C   UNL A   1      32.211  26.293  26.736  1.00  0.00     0.085 C 
ATOM     79  O   UNL A   1      33.151  27.757  25.087  1.00  0.00    -0.357 OA
ATOM     80  C   UNL A   1      31.882  25.736  25.351  1.00  0.00     0.123 C 
ATOM     81  C   UNL A   1      32.180  26.939  24.414  1.00  0.00     0.186 C 
BRANCH  80  82
ATOM     82  C   UNL A   1      32.681  24.443  25.110  1.00  0.00    -0.013 A 
ATOM     83  C   UNL A   1      31.971  23.219  25.044  1.00  0.00     0.010 A 
ATOM     84  C   UNL A   1      34.072  24.390  24.922  1.00  0.00     0.010 A 
ATOM     85  C   UNL A   1      32.616  22.009  24.780  1.00  0.00     0.039 A 
ATOM     86  C   UNL A   1      34.717  23.178  24.641  1.00  0.00     0.039 A 
ATOM     87  C   UNL A   1      33.985  22.002  24.569  1.00  0.00     0.123 A 
ATOM     88  F   UNL A   1      34.606  20.849  24.292  1.00  0.00    -0.207 F 
ENDBRANCH  80  82
BRANCH  80  89
ATOM     89  O   UNL A   1      30.510  25.323  25.287  1.00  0.00    -0.382 OA
ATOM     90  H   UNL A   1      30.315  24.728  26.028  1.00  0.00     0.212 HD
ENDBRANCH  80  89
BRANCH  81  91
ATOM     91  C   UNL A   1      31.044  27.849  23.956  1.00  0.00    -0.016 A 
ATOM     92  C   UNL A   1      29.861  27.375  23.365  1.00  0.00     0.009 A 
ATOM     93  C   UNL A   1      31.154  29.235  24.194  1.00  0.00     0.009 A 
ATOM     94  C   UNL A   1      28.823  28.250  23.035  1.00  0.00     0.039 A 
ATOM     95  C   UNL A   1      30.119  30.109  23.859  1.00  0.00     0.039 A 
ATOM     96  C   UNL A   1      28.961  29.607  23.286  1.00  0.00     0.123 A 
ATOM     97  F   UNL A   1      27.961  30.442  22.973  1.00  0.00    -0.207 F 
ENDBRANCH  81  91
ENDBRANCH  74  77
ENDBRANCH  72  73
ENDBRANCH  71  72
ENDBRANCH  70  71
ENDBRANCH  69  70
ENDBRANCH   1  69
TORSDOF 19
ENDMDL
