MODEL 1
REMARK VINA RESULT:     -10.0      0.000      0.000
REMARK SMILES CC(C)CC1(CNc2ccnc(C(=O)NCCCCCCNC(=O)c3ccc(-c4c5nc(c(-c6ccc(S(=O)(=O)[O-])cc6)c6ccc([nH]6)c(-c6ccc(S(=O)(=O)[O-])cc6)c6nc(c(-c7ccc(S(=O)(=O)[O-])cc7)c7ccc4[nH]7)C=C6)C=C5)cc3)c2)CCCC1
REMARK SMILES IDX 17 1 16 2 15 3 13 4 14 5 12 7 8 8 9 9 85 10 10 11 11 12 7 13
REMARK SMILES IDX 6 15 5 16 86 17 89 18 87 19 88 20 4 21 2 22 1 23 3 24 18 25
REMARK SMILES IDX 19 26 20 27 21 28 22 29 23 30 24 32 25 33 26 34 84 35 27 36
REMARK SMILES IDX 83 37 28 38 29 39 30 40 77 41 31 42 82 43 76 44 78 45 32 46
REMARK SMILES IDX 81 47 75 48 74 49 33 51 63 52 44 53 62 54 45 55 48 56 61 57
REMARK SMILES IDX 79 58 46 59 47 60 60 62 80 63 49 64 34 65 35 66 43 67 36 68
REMARK SMILES IDX 42 69 37 70 38 71 39 72 40 73 41 74 64 75 65 76 73 77 66 78
REMARK SMILES IDX 72 79 67 80 68 81 69 82 70 83 71 84 50 85 51 86 59 87 52 88
REMARK SMILES IDX 58 89 53 90 54 91 55 92 56 93 57 94
REMARK H PARENT 15 6 7 14 22 31 78 50 48 61
REMARK Flexibility Score: inf
ROOT
ATOM      1  C   UNL A   1      33.347  27.088  26.288  1.00  0.00     0.021 C 
ENDROOT
BRANCH   1   2
ATOM      2  C   UNL A   1      32.801  27.895  25.106  1.00  0.00     0.116 C 
BRANCH   2   3
ATOM      3  N   UNL A   1      31.403  27.657  24.823  1.00  0.00    -0.351 N 
ATOM      4  C   UNL A   1      30.762  26.736  24.011  1.00  0.00     0.269 C 
ATOM      5  O   UNL A   1      29.530  26.814  23.980  1.00  0.00    -0.268 OA
ATOM      6  H   UNL A   1      30.791  28.264  25.298  1.00  0.00     0.163 HD
BRANCH   4   7
ATOM      7  C   UNL A   1      31.465  25.713  23.144  1.00  0.00     0.130 A 
ATOM      8  C   UNL A   1      32.306  23.499  22.632  1.00  0.00     0.038 A 
ATOM      9  C   UNL A   1      33.014  24.069  21.579  1.00  0.00     0.046 A 
ATOM     10  C   UNL A   1      31.441  24.336  23.360  1.00  0.00     0.060 A 
ATOM     11  C   UNL A   1      32.894  25.427  21.344  1.00  0.00     0.114 A 
ATOM     12  N   UNL A   1      32.170  26.259  22.117  1.00  0.00    -0.251 NA
BRANCH   8  13
ATOM     13  N   UNL A   1      32.539  22.202  23.078  1.00  0.00    -0.384 N 
ATOM     14  H   UNL A   1      32.061  21.464  22.634  1.00  0.00     0.160 HD
BRANCH  13  15
ATOM     15  C   UNL A   1      33.454  21.871  24.175  1.00  0.00     0.119 C 
BRANCH  15  16
ATOM     16  C   UNL A   1      32.827  20.988  25.308  1.00  0.00    -0.012 C 
ATOM     17  C   UNL A   1      31.531  21.680  25.825  1.00  0.00     0.009 C 
ATOM     18  C   UNL A   1      33.676  20.973  26.592  1.00  0.00     0.009 C 
ATOM     19  C   UNL A   1      31.990  22.736  26.814  1.00  0.00     0.001 C 
ATOM     20  C   UNL A   1      33.255  22.175  27.438  1.00  0.00     0.001 C 
BRANCH  16  21
ATOM     21  C   UNL A   1      32.378  19.577  24.822  1.00  0.00     0.012 C 
BRANCH  21  22
ATOM     22  C   UNL A   1      33.248  18.788  23.837  1.00  0.00    -0.017 C 
ATOM     23  C   UNL A   1      34.035  17.657  24.495  1.00  0.00     0.007 C 
ATOM     24  C   UNL A   1      32.396  18.270  22.673  1.00  0.00     0.007 C 
ENDBRANCH  21  22
ENDBRANCH  16  21
ENDBRANCH  15  16
ENDBRANCH  13  15
ENDBRANCH   8  13
ENDBRANCH   4   7
ENDBRANCH   2   3
ENDBRANCH   1   2
BRANCH   1  25
ATOM     25  C   UNL A   1      33.576  25.592  26.074  1.00  0.00     0.002 C 
BRANCH  25  26
ATOM     26  C   UNL A   1      34.724  25.196  25.141  1.00  0.00     0.002 C 
BRANCH  26  27
ATOM     27  C   UNL A   1      35.729  24.165  25.666  1.00  0.00     0.021 C 
BRANCH  27  28
ATOM     28  C   UNL A   1      36.948  23.894  24.786  1.00  0.00     0.116 C 
BRANCH  28  29
ATOM     29  N   UNL A   1      37.790  22.830  25.305  1.00  0.00    -0.352 N 
ATOM     30  C   UNL A   1      38.897  22.884  26.117  1.00  0.00     0.251 C 
ATOM     31  H   UNL A   1      37.523  21.922  25.031  1.00  0.00     0.163 HD
ATOM     32  O   UNL A   1      39.567  21.871  26.289  1.00  0.00    -0.269 OA
BRANCH  30  33
ATOM     33  C   UNL A   1      39.298  24.152  26.771  1.00  0.00     0.039 A 
ATOM     34  C   UNL A   1      38.864  24.401  28.078  1.00  0.00     0.014 A 
ATOM     35  C   UNL A   1      40.055  25.113  26.097  1.00  0.00     0.014 A 
ATOM     36  C   UNL A   1      39.234  25.585  28.724  1.00  0.00     0.010 A 
ATOM     37  C   UNL A   1      40.482  26.261  26.766  1.00  0.00     0.010 A 
ATOM     38  C   UNL A   1      40.072  26.513  28.084  1.00  0.00    -0.014 A 
BRANCH  38  39
ATOM     39  C   UNL A   1      40.519  27.752  28.774  1.00  0.00     0.031 A 
ATOM     40  C   UNL A   1      41.891  27.823  29.394  1.00  0.00     0.074 A 
ATOM     41  C   UNL A   1      39.674  28.797  28.892  1.00  0.00     0.049 A 
ATOM     42  N   UNL A   1      42.434  28.790  30.090  1.00  0.00    -0.248 NA
ATOM     43  C   UNL A   1      42.759  26.645  29.228  1.00  0.00     0.031 C 
ATOM     44  C   UNL A   1      38.309  28.847  28.361  1.00  0.00     0.029 A 
ATOM     45  N   UNL A   1      39.836  30.018  29.499  1.00  0.00    -0.354 N 
ATOM     46  C   UNL A   1      43.695  28.334  30.455  1.00  0.00     0.074 A 
ATOM     47  C   UNL A   1      43.819  26.985  29.948  1.00  0.00     0.031 C 
ATOM     48  C   UNL A   1      37.770  30.043  28.645  1.00  0.00     0.029 A 
ATOM     49  C   UNL A   1      38.729  30.830  29.413  1.00  0.00     0.049 A 
ATOM     50  H   UNL A   1      40.667  30.286  29.953  1.00  0.00     0.167 HD
ATOM     51  C   UNL A   1      44.672  28.984  31.133  1.00  0.00     0.031 A 
ATOM     52  C   UNL A   1      38.504  32.064  29.905  1.00  0.00     0.031 A 
ATOM     53  C   UNL A   1      44.552  30.331  31.627  1.00  0.00     0.049 A 
ATOM     54  C   UNL A   1      39.597  32.757  30.676  1.00  0.00     0.074 A 
ATOM     55  C   UNL A   1      45.501  31.093  32.287  1.00  0.00     0.029 A 
ATOM     56  N   UNL A   1      43.415  31.118  31.515  1.00  0.00    -0.354 N 
ATOM     57  N   UNL A   1      40.802  32.326  30.965  1.00  0.00    -0.248 NA
ATOM     58  C   UNL A   1      39.303  34.106  31.179  1.00  0.00     0.031 C 
ATOM     59  C   UNL A   1      44.921  32.319  32.623  1.00  0.00     0.029 A 
ATOM     60  C   UNL A   1      43.633  32.348  32.113  1.00  0.00     0.049 A 
ATOM     61  H   UNL A   1      42.579  30.843  31.076  1.00  0.00     0.167 HD
ATOM     62  C   UNL A   1      41.421  33.367  31.651  1.00  0.00     0.074 A 
ATOM     63  C   UNL A   1      40.462  34.450  31.722  1.00  0.00     0.031 C 
ATOM     64  C   UNL A   1      42.672  33.420  32.172  1.00  0.00     0.031 A 
BRANCH  51  65
ATOM     65  C   UNL A   1      45.962  28.247  31.384  1.00  0.00    -0.014 A 
ATOM     66  C   UNL A   1      47.036  28.334  30.479  1.00  0.00     0.010 A 
ATOM     67  C   UNL A   1      46.125  27.502  32.567  1.00  0.00     0.010 A 
ATOM     68  C   UNL A   1      48.234  27.660  30.733  1.00  0.00     0.020 A 
ATOM     69  C   UNL A   1      47.333  26.852  32.839  1.00  0.00     0.020 A 
ATOM     70  C   UNL A   1      48.374  26.923  31.913  1.00  0.00     0.054 A 
BRANCH  70  71
ATOM     71  S   UNL A   1      49.953  26.088  32.232  1.00  0.00     0.124 S 
ATOM     72  O   UNL A   1      50.918  27.085  31.772  1.00  0.00    -0.237 OA
ATOM     73  O   UNL A   1      49.913  25.871  33.675  1.00  0.00    -0.237 OA
ATOM     74  O   UNL A   1      49.875  24.877  31.419  1.00  0.00    -0.744 OA
ENDBRANCH  70  71
ENDBRANCH  51  65
BRANCH  52  75
ATOM     75  C   UNL A   1      37.192  32.733  29.681  1.00  0.00    -0.014 A 
ATOM     76  C   UNL A   1      36.927  33.401  28.472  1.00  0.00     0.010 A 
ATOM     77  C   UNL A   1      36.205  32.717  30.682  1.00  0.00     0.010 A 
ATOM     78  C   UNL A   1      35.710  34.062  28.279  1.00  0.00     0.020 A 
ATOM     79  C   UNL A   1      34.974  33.350  30.481  1.00  0.00     0.020 A 
ATOM     80  C   UNL A   1      34.741  34.033  29.287  1.00  0.00     0.054 A 
BRANCH  80  81
ATOM     81  S   UNL A   1      33.158  34.873  29.004  1.00  0.00     0.124 S 
ATOM     82  O   UNL A   1      33.590  36.190  28.547  1.00  0.00    -0.237 OA
ATOM     83  O   UNL A   1      32.527  34.026  27.995  1.00  0.00    -0.237 OA
ATOM     84  O   UNL A   1      32.519  34.843  30.318  1.00  0.00    -0.744 OA
ENDBRANCH  80  81
ENDBRANCH  52  75
BRANCH  64  85
ATOM     85  C   UNL A   1      43.098  34.709  32.827  1.00  0.00    -0.014 A 
ATOM     86  C   UNL A   1      43.024  34.882  34.220  1.00  0.00     0.010 A 
ATOM     87  C   UNL A   1      43.635  35.741  32.035  1.00  0.00     0.010 A 
ATOM     88  C   UNL A   1      43.449  36.079  34.806  1.00  0.00     0.020 A 
ATOM     89  C   UNL A   1      44.089  36.925  32.618  1.00  0.00     0.020 A 
ATOM     90  C   UNL A   1      43.980  37.092  34.000  1.00  0.00     0.054 A 
BRANCH  90  91
ATOM     91  S   UNL A   1      44.566  38.616  34.790  1.00  0.00     0.124 S 
ATOM     92  O   UNL A   1      46.011  38.518  34.607  1.00  0.00    -0.237 OA
ATOM     93  O   UNL A   1      43.903  39.657  34.008  1.00  0.00    -0.237 OA
ATOM     94  O   UNL A   1      44.103  38.491  36.171  1.00  0.00    -0.744 OA
ENDBRANCH  90  91
ENDBRANCH  64  85
ENDBRANCH  38  39
ENDBRANCH  30  33
ENDBRANCH  28  29
ENDBRANCH  27  28
ENDBRANCH  26  27
ENDBRANCH  25  26
ENDBRANCH   1  25
TORSDOF 21
ENDMDL
MODEL 2
REMARK VINA RESULT:      -9.9      2.575      8.727
REMARK SMILES CC(C)CC1(CNc2ccnc(C(=O)NCCCCCCNC(=O)c3ccc(-c4c5nc(c(-c6ccc(S(=O)(=O)[O-])cc6)c6ccc([nH]6)c(-c6ccc(S(=O)(=O)[O-])cc6)c6nc(c(-c7ccc(S(=O)(=O)[O-])cc7)c7ccc4[nH]7)C=C6)C=C5)cc3)c2)CCCC1
REMARK SMILES IDX 17 1 16 2 15 3 13 4 14 5 12 7 8 8 9 9 85 10 10 11 11 12 7 13
REMARK SMILES IDX 6 15 5 16 86 17 89 18 87 19 88 20 4 21 2 22 1 23 3 24 18 25
REMARK SMILES IDX 19 26 20 27 21 28 22 29 23 30 24 32 25 33 26 34 84 35 27 36
REMARK SMILES IDX 83 37 28 38 29 39 30 40 77 41 31 42 82 43 76 44 78 45 32 46
REMARK SMILES IDX 81 47 75 48 74 49 33 51 63 52 44 53 62 54 45 55 48 56 61 57
REMARK SMILES IDX 79 58 46 59 47 60 60 62 80 63 49 64 34 65 35 66 43 67 36 68
REMARK SMILES IDX 42 69 37 70 38 71 39 72 40 73 41 74 64 75 65 76 73 77 66 78
REMARK SMILES IDX 72 79 67 80 68 81 69 82 70 83 71 84 50 85 51 86 59 87 52 88
REMARK SMILES IDX 58 89 53 90 54 91 55 92 56 93 57 94
REMARK H PARENT 15 6 7 14 22 31 78 50 48 61
REMARK Flexibility Score: inf
ROOT
ATOM      1  C   UNL A   1      30.259  26.080  24.900  1.00  0.00     0.021 C 
ENDROOT
BRANCH   1   2
ATOM      2  C   UNL A   1      28.904  26.278  24.215  1.00  0.00     0.116 C 
BRANCH   2   3
ATOM      3  N   UNL A   1      28.815  27.481  23.416  1.00  0.00    -0.351 N 
ATOM      4  C   UNL A   1      29.737  28.139  22.620  1.00  0.00     0.269 C 
ATOM      5  O   UNL A   1      29.336  29.173  22.077  1.00  0.00    -0.268 OA
ATOM      6  H   UNL A   1      27.931  27.913  23.444  1.00  0.00     0.163 HD
BRANCH   4   7
ATOM      7  C   UNL A   1      31.178  27.710  22.431  1.00  0.00     0.130 A 
ATOM      8  C   UNL A   1      32.946  26.080  22.146  1.00  0.00     0.038 A 
ATOM      9  C   UNL A   1      33.857  27.104  22.383  1.00  0.00     0.046 A 
ATOM     10  C   UNL A   1      31.584  26.426  22.075  1.00  0.00     0.060 A 
ATOM     11  C   UNL A   1      33.385  28.385  22.607  1.00  0.00     0.114 A 
ATOM     12  N   UNL A   1      32.078  28.701  22.671  1.00  0.00    -0.251 NA
BRANCH   8  13
ATOM     13  N   UNL A   1      33.312  24.737  22.137  1.00  0.00    -0.384 N 
ATOM     14  H   UNL A   1      34.074  24.467  21.576  1.00  0.00     0.160 HD
BRANCH  13  15
ATOM     15  C   UNL A   1      32.624  23.701  22.914  1.00  0.00     0.119 C 
BRANCH  15  16
ATOM     16  C   UNL A   1      33.320  23.329  24.269  1.00  0.00    -0.012 C 
ATOM     17  C   UNL A   1      33.576  21.794  24.296  1.00  0.00     0.009 C 
ATOM     18  C   UNL A   1      32.385  23.487  25.483  1.00  0.00     0.009 C 
ATOM     19  C   UNL A   1      32.265  21.160  24.723  1.00  0.00     0.001 C 
ATOM     20  C   UNL A   1      31.610  22.178  25.641  1.00  0.00     0.001 C 
BRANCH  16  21
ATOM     21  C   UNL A   1      34.720  23.987  24.451  1.00  0.00     0.012 C 
BRANCH  21  22
ATOM     22  C   UNL A   1      35.981  23.116  24.499  1.00  0.00    -0.017 C 
ATOM     23  C   UNL A   1      36.641  22.928  23.136  1.00  0.00     0.007 C 
ATOM     24  C   UNL A   1      36.972  23.673  25.527  1.00  0.00     0.007 C 
ENDBRANCH  21  22
ENDBRANCH  16  21
ENDBRANCH  15  16
ENDBRANCH  13  15
ENDBRANCH   8  13
ENDBRANCH   4   7
ENDBRANCH   2   3
ENDBRANCH   1   2
BRANCH   1  25
ATOM     25  C   UNL A   1      30.496  26.812  26.220  1.00  0.00     0.002 C 
BRANCH  25  26
ATOM     26  C   UNL A   1      31.673  27.792  26.264  1.00  0.00     0.002 C 
BRANCH  26  27
ATOM     27  C   UNL A   1      33.081  27.200  26.148  1.00  0.00     0.021 C 
BRANCH  27  28
ATOM     28  C   UNL A   1      34.241  28.194  26.167  1.00  0.00     0.116 C 
BRANCH  28  29
ATOM     29  N   UNL A   1      33.885  29.460  26.784  1.00  0.00    -0.352 N 
ATOM     30  C   UNL A   1      34.563  30.225  27.702  1.00  0.00     0.251 C 
ATOM     31  H   UNL A   1      33.018  29.829  26.499  1.00  0.00     0.163 HD
ATOM     32  O   UNL A   1      33.995  31.177  28.229  1.00  0.00    -0.269 OA
BRANCH  30  33
ATOM     33  C   UNL A   1      35.962  29.906  28.073  1.00  0.00     0.039 A 
ATOM     34  C   UNL A   1      36.221  29.406  29.353  1.00  0.00     0.014 A 
ATOM     35  C   UNL A   1      37.022  30.138  27.192  1.00  0.00     0.014 A 
ATOM     36  C   UNL A   1      37.531  29.089  29.729  1.00  0.00     0.010 A 
ATOM     37  C   UNL A   1      38.317  29.756  27.541  1.00  0.00     0.010 A 
ATOM     38  C   UNL A   1      38.588  29.233  28.815  1.00  0.00    -0.014 A 
BRANCH  38  39
ATOM     39  C   UNL A   1      39.978  28.851  29.178  1.00  0.00     0.031 A 
ATOM     40  C   UNL A   1      40.884  29.841  29.862  1.00  0.00     0.074 A 
ATOM     41  C   UNL A   1      40.447  27.630  28.845  1.00  0.00     0.049 A 
ATOM     42  N   UNL A   1      42.143  29.714  30.199  1.00  0.00    -0.248 NA
ATOM     43  C   UNL A   1      40.306  31.155  30.193  1.00  0.00     0.031 C 
ATOM     44  C   UNL A   1      39.682  26.587  28.156  1.00  0.00     0.029 A 
ATOM     45  N   UNL A   1      41.681  27.059  29.037  1.00  0.00    -0.354 N 
ATOM     46  C   UNL A   1      42.511  30.929  30.765  1.00  0.00     0.074 A 
ATOM     47  C   UNL A   1      41.357  31.798  30.682  1.00  0.00     0.031 C 
ATOM     48  C   UNL A   1      40.455  25.500  28.007  1.00  0.00     0.029 A 
ATOM     49  C   UNL A   1      41.781  25.779  28.547  1.00  0.00     0.049 A 
ATOM     50  H   UNL A   1      42.424  27.525  29.485  1.00  0.00     0.167 HD
ATOM     51  C   UNL A   1      43.693  31.284  31.324  1.00  0.00     0.031 A 
ATOM     52  C   UNL A   1      42.824  24.925  28.524  1.00  0.00     0.031 A 
ATOM     53  C   UNL A   1      44.835  30.414  31.417  1.00  0.00     0.049 A 
ATOM     54  C   UNL A   1      44.135  25.353  29.130  1.00  0.00     0.074 A 
ATOM     55  C   UNL A   1      46.064  30.667  32.003  1.00  0.00     0.029 A 
ATOM     56  N   UNL A   1      44.893  29.124  30.910  1.00  0.00    -0.354 N 
ATOM     57  N   UNL A   1      44.444  26.489  29.708  1.00  0.00    -0.248 NA
ATOM     58  C   UNL A   1      45.235  24.379  29.089  1.00  0.00     0.031 C 
ATOM     59  C   UNL A   1      46.881  29.551  31.805  1.00  0.00     0.029 A 
ATOM     60  C   UNL A   1      46.142  28.578  31.152  1.00  0.00     0.049 A 
ATOM     61  H   UNL A   1      44.155  28.666  30.448  1.00  0.00     0.167 HD
ATOM     62  C   UNL A   1      45.763  26.351  30.131  1.00  0.00     0.074 A 
ATOM     63  C   UNL A   1      46.186  25.019  29.755  1.00  0.00     0.031 C 
ATOM     64  C   UNL A   1      46.549  27.247  30.777  1.00  0.00     0.031 A 
BRANCH  51  65
ATOM     65  C   UNL A   1      43.814  32.679  31.882  1.00  0.00    -0.014 A 
ATOM     66  C   UNL A   1      44.196  33.758  31.064  1.00  0.00     0.010 A 
ATOM     67  C   UNL A   1      43.487  32.927  33.228  1.00  0.00     0.010 A 
ATOM     68  C   UNL A   1      44.286  35.050  31.589  1.00  0.00     0.020 A 
ATOM     69  C   UNL A   1      43.545  34.223  33.750  1.00  0.00     0.020 A 
ATOM     70  C   UNL A   1      43.959  35.273  32.930  1.00  0.00     0.054 A 
BRANCH  70  71
ATOM     71  S   UNL A   1      44.051  36.966  33.575  1.00  0.00     0.124 S 
ATOM     72  O   UNL A   1      42.660  37.226  33.939  1.00  0.00    -0.237 OA
ATOM     73  O   UNL A   1      44.979  36.831  34.694  1.00  0.00    -0.237 OA
ATOM     74  O   UNL A   1      44.552  37.742  32.443  1.00  0.00    -0.744 OA
ENDBRANCH  70  71
ENDBRANCH  51  65
BRANCH  52  75
ATOM     75  C   UNL A   1      42.675  23.575  27.912  1.00  0.00    -0.014 A 
ATOM     76  C   UNL A   1      43.136  23.326  26.607  1.00  0.00     0.010 A 
ATOM     77  C   UNL A   1      42.061  22.533  28.628  1.00  0.00     0.010 A 
ATOM     78  C   UNL A   1      42.959  22.069  26.020  1.00  0.00     0.020 A 
ATOM     79  C   UNL A   1      41.911  21.266  28.057  1.00  0.00     0.020 A 
ATOM     80  C   UNL A   1      42.346  21.047  26.749  1.00  0.00     0.054 A 
BRANCH  80  81
ATOM     81  S   UNL A   1      42.154  19.415  25.979  1.00  0.00     0.124 S 
ATOM     82  O   UNL A   1      42.691  18.530  27.007  1.00  0.00    -0.237 OA
ATOM     83  O   UNL A   1      40.711  19.336  25.763  1.00  0.00    -0.237 OA
ATOM     84  O   UNL A   1      42.953  19.519  24.760  1.00  0.00    -0.744 OA
ENDBRANCH  80  81
ENDBRANCH  52  75
BRANCH  64  85
ATOM     85  C   UNL A   1      47.937  26.804  31.161  1.00  0.00    -0.014 A 
ATOM     86  C   UNL A   1      49.039  27.030  30.318  1.00  0.00     0.010 A 
ATOM     87  C   UNL A   1      48.147  26.202  32.417  1.00  0.00     0.010 A 
ATOM     88  C   UNL A   1      50.321  26.632  30.710  1.00  0.00     0.020 A 
ATOM     89  C   UNL A   1      49.429  25.830  32.824  1.00  0.00     0.020 A 
ATOM     90  C   UNL A   1      50.508  26.035  31.961  1.00  0.00     0.054 A 
BRANCH  90  91
ATOM     91  S   UNL A   1      52.187  25.569  32.462  1.00  0.00     0.124 S 
ATOM     92  O   UNL A   1      52.211  25.979  33.863  1.00  0.00    -0.237 OA
ATOM     93  O   UNL A   1      52.201  24.126  32.230  1.00  0.00    -0.237 OA
ATOM     94  O   UNL A   1      53.043  26.347  31.570  1.00  0.00    -0.744 OA
ENDBRANCH  90  91
ENDBRANCH  64  85
ENDBRANCH  38  39
ENDBRANCH  30  33
ENDBRANCH  28  29
ENDBRANCH  27  28
ENDBRANCH  26  27
ENDBRANCH  25  26
ENDBRANCH   1  25
TORSDOF 21
ENDMDL
MODEL 3
REMARK VINA RESULT:      -9.7      4.180      9.632
REMARK SMILES CC(C)CC1(CNc2ccnc(C(=O)NCCCCCCNC(=O)c3ccc(-c4c5nc(c(-c6ccc(S(=O)(=O)[O-])cc6)c6ccc([nH]6)c(-c6ccc(S(=O)(=O)[O-])cc6)c6nc(c(-c7ccc(S(=O)(=O)[O-])cc7)c7ccc4[nH]7)C=C6)C=C5)cc3)c2)CCCC1
REMARK SMILES IDX 17 1 16 2 15 3 13 4 14 5 12 7 8 8 9 9 85 10 10 11 11 12 7 13
REMARK SMILES IDX 6 15 5 16 86 17 89 18 87 19 88 20 4 21 2 22 1 23 3 24 18 25
REMARK SMILES IDX 19 26 20 27 21 28 22 29 23 30 24 32 25 33 26 34 84 35 27 36
REMARK SMILES IDX 83 37 28 38 29 39 30 40 77 41 31 42 82 43 76 44 78 45 32 46
REMARK SMILES IDX 81 47 75 48 74 49 33 51 63 52 44 53 62 54 45 55 48 56 61 57
REMARK SMILES IDX 79 58 46 59 47 60 60 62 80 63 49 64 34 65 35 66 43 67 36 68
REMARK SMILES IDX 42 69 37 70 38 71 39 72 40 73 41 74 64 75 65 76 73 77 66 78
REMARK SMILES IDX 72 79 67 80 68 81 69 82 70 83 71 84 50 85 51 86 59 87 52 88
REMARK SMILES IDX 58 89 53 90 54 91 55 92 56 93 57 94
REMARK H PARENT 15 6 7 14 22 31 78 50 48 61
REMARK Flexibility Score: inf
ROOT
ATOM      1  C   UNL A   1      31.403  28.596  25.980  1.00  0.00     0.021 C 
ENDROOT
BRANCH   1   2
ATOM      2  C   UNL A   1      31.341  29.929  25.227  1.00  0.00     0.116 C 
BRANCH   2   3
ATOM      3  N   UNL A   1      30.442  29.927  24.094  1.00  0.00    -0.351 N 
ATOM      4  C   UNL A   1      30.419  29.184  22.926  1.00  0.00     0.269 C 
ATOM      5  O   UNL A   1      29.504  29.447  22.139  1.00  0.00    -0.268 OA
ATOM      6  H   UNL A   1      29.707  30.577  24.167  1.00  0.00     0.163 HD
BRANCH   4   7
ATOM      7  C   UNL A   1      31.450  28.142  22.544  1.00  0.00     0.130 A 
ATOM      8  C   UNL A   1      32.232  25.876  22.191  1.00  0.00     0.038 A 
ATOM      9  C   UNL A   1      33.521  26.391  22.099  1.00  0.00     0.046 A 
ATOM     10  C   UNL A   1      31.174  26.795  22.318  1.00  0.00     0.060 A 
ATOM     11  C   UNL A   1      33.709  27.757  22.210  1.00  0.00     0.114 A 
ATOM     12  N   UNL A   1      32.716  28.632  22.463  1.00  0.00    -0.251 NA
BRANCH   8  13
ATOM     13  N   UNL A   1      31.974  24.515  22.318  1.00  0.00    -0.384 N 
ATOM     14  H   UNL A   1      32.021  23.955  21.509  1.00  0.00     0.160 HD
BRANCH  13  15
ATOM     15  C   UNL A   1      31.635  23.866  23.589  1.00  0.00     0.119 C 
BRANCH  15  16
ATOM     16  C   UNL A   1      32.743  22.912  24.153  1.00  0.00    -0.012 C 
ATOM     17  C   UNL A   1      33.145  23.396  25.577  1.00  0.00     0.009 C 
ATOM     18  C   UNL A   1      34.087  23.054  23.412  1.00  0.00     0.009 C 
ATOM     19  C   UNL A   1      34.135  24.527  25.369  1.00  0.00     0.001 C 
ATOM     20  C   UNL A   1      34.866  24.186  24.082  1.00  0.00     0.001 C 
BRANCH  16  21
ATOM     21  C   UNL A   1      32.266  21.440  24.333  1.00  0.00     0.012 C 
BRANCH  21  22
ATOM     22  C   UNL A   1      33.130  20.281  23.822  1.00  0.00    -0.017 C 
ATOM     23  C   UNL A   1      34.134  19.772  24.852  1.00  0.00     0.007 C 
ATOM     24  C   UNL A   1      32.241  19.146  23.301  1.00  0.00     0.007 C 
ENDBRANCH  21  22
ENDBRANCH  16  21
ENDBRANCH  15  16
ENDBRANCH  13  15
ENDBRANCH   8  13
ENDBRANCH   4   7
ENDBRANCH   2   3
ENDBRANCH   1   2
BRANCH   1  25
ATOM     25  C   UNL A   1      32.727  27.835  25.960  1.00  0.00     0.002 C 
BRANCH  25  26
ATOM     26  C   UNL A   1      34.006  28.676  25.908  1.00  0.00     0.002 C 
BRANCH  26  27
ATOM     27  C   UNL A   1      34.903  28.664  27.151  1.00  0.00     0.021 C 
BRANCH  27  28
ATOM     28  C   UNL A   1      35.409  30.021  27.638  1.00  0.00     0.116 C 
BRANCH  28  29
ATOM     29  N   UNL A   1      35.355  30.154  29.084  1.00  0.00    -0.352 N 
ATOM     30  C   UNL A   1      36.310  29.903  30.038  1.00  0.00     0.251 C 
ATOM     31  H   UNL A   1      34.493  30.475  29.437  1.00  0.00     0.163 HD
ATOM     32  O   UNL A   1      35.994  29.912  31.224  1.00  0.00    -0.269 OA
BRANCH  30  33
ATOM     33  C   UNL A   1      37.711  29.609  29.653  1.00  0.00     0.039 A 
ATOM     34  C   UNL A   1      38.604  29.182  30.641  1.00  0.00     0.014 A 
ATOM     35  C   UNL A   1      38.162  29.795  28.344  1.00  0.00     0.014 A 
ATOM     36  C   UNL A   1      39.930  28.889  30.305  1.00  0.00     0.010 A 
ATOM     37  C   UNL A   1      39.464  29.436  27.996  1.00  0.00     0.010 A 
ATOM     38  C   UNL A   1      40.365  28.985  28.973  1.00  0.00    -0.014 A 
BRANCH  38  39
ATOM     39  C   UNL A   1      41.756  28.626  28.588  1.00  0.00     0.031 A 
ATOM     40  C   UNL A   1      42.827  29.685  28.539  1.00  0.00     0.074 A 
ATOM     41  C   UNL A   1      42.048  27.359  28.231  1.00  0.00     0.049 A 
ATOM     42  N   UNL A   1      44.078  29.578  28.167  1.00  0.00    -0.248 NA
ATOM     43  C   UNL A   1      42.437  31.047  28.940  1.00  0.00     0.031 C 
ATOM     44  C   UNL A   1      41.096  26.244  28.209  1.00  0.00     0.029 A 
ATOM     45  N   UNL A   1      43.227  26.793  27.813  1.00  0.00    -0.354 N 
ATOM     46  C   UNL A   1      44.617  30.855  28.275  1.00  0.00     0.074 A 
ATOM     47  C   UNL A   1      43.547  31.731  28.699  1.00  0.00     0.031 C 
ATOM     48  C   UNL A   1      41.735  25.128  27.823  1.00  0.00     0.029 A 
ATOM     49  C   UNL A   1      43.127  25.451  27.529  1.00  0.00     0.049 A 
ATOM     50  H   UNL A   1      44.066  27.301  27.726  1.00  0.00     0.167 HD
ATOM     51  C   UNL A   1      45.893  31.260  28.061  1.00  0.00     0.031 A 
ATOM     52  C   UNL A   1      44.048  24.578  27.073  1.00  0.00     0.031 A 
ATOM     53  C   UNL A   1      46.959  30.385  27.651  1.00  0.00     0.049 A 
ATOM     54  C   UNL A   1      45.453  25.059  26.820  1.00  0.00     0.074 A 
ATOM     55  C   UNL A   1      48.295  30.693  27.451  1.00  0.00     0.029 A 
ATOM     56  N   UNL A   1      46.816  29.033  27.377  1.00  0.00    -0.354 N 
ATOM     57  N   UNL A   1      45.954  26.261  26.980  1.00  0.00    -0.248 NA
ATOM     58  C   UNL A   1      46.418  24.063  26.336  1.00  0.00     0.031 C 
ATOM     59  C   UNL A   1      48.947  29.540  27.005  1.00  0.00     0.029 A 
ATOM     60  C   UNL A   1      48.032  28.499  26.990  1.00  0.00     0.049 A 
ATOM     61  H   UNL A   1      45.974  28.530  27.449  1.00  0.00     0.167 HD
ATOM     62  C   UNL A   1      47.301  26.155  26.650  1.00  0.00     0.074 A 
ATOM     63  C   UNL A   1      47.538  24.771  26.295  1.00  0.00     0.031 C 
ATOM     64  C   UNL A   1      48.257  27.118  26.645  1.00  0.00     0.031 A 
BRANCH  51  65
ATOM     65  C   UNL A   1      46.208  32.720  28.268  1.00  0.00    -0.014 A 
ATOM     66  C   UNL A   1      46.089  33.645  27.215  1.00  0.00     0.010 A 
ATOM     67  C   UNL A   1      46.576  33.183  29.545  1.00  0.00     0.010 A 
ATOM     68  C   UNL A   1      46.366  34.998  27.425  1.00  0.00     0.020 A 
ATOM     69  C   UNL A   1      46.824  34.541  29.767  1.00  0.00     0.020 A 
ATOM     70  C   UNL A   1      46.732  35.437  28.702  1.00  0.00     0.054 A 
BRANCH  70  71
ATOM     71  S   UNL A   1      47.053  37.205  28.952  1.00  0.00     0.124 S 
ATOM     72  O   UNL A   1      48.405  37.345  28.414  1.00  0.00    -0.237 OA
ATOM     73  O   UNL A   1      45.996  37.836  28.165  1.00  0.00    -0.237 OA
ATOM     74  O   UNL A   1      46.938  37.378  30.397  1.00  0.00    -0.744 OA
ENDBRANCH  70  71
ENDBRANCH  51  65
BRANCH  52  75
ATOM     75  C   UNL A   1      43.677  23.156  26.829  1.00  0.00    -0.014 A 
ATOM     76  C   UNL A   1      44.077  22.504  25.649  1.00  0.00     0.010 A 
ATOM     77  C   UNL A   1      42.910  22.449  27.773  1.00  0.00     0.010 A 
ATOM     78  C   UNL A   1      43.693  21.182  25.404  1.00  0.00     0.020 A 
ATOM     79  C   UNL A   1      42.552  21.117  27.547  1.00  0.00     0.020 A 
ATOM     80  C   UNL A   1      42.931  20.497  26.355  1.00  0.00     0.054 A 
BRANCH  80  81
ATOM     81  S   UNL A   1      42.471  18.772  26.031  1.00  0.00     0.124 S 
ATOM     82  O   UNL A   1      43.357  18.424  24.925  1.00  0.00    -0.237 OA
ATOM     83  O   UNL A   1      42.762  18.122  27.307  1.00  0.00    -0.237 OA
ATOM     84  O   UNL A   1      41.051  18.857  25.695  1.00  0.00    -0.744 OA
ENDBRANCH  80  81
ENDBRANCH  52  75
BRANCH  64  85
ATOM     85  C   UNL A   1      49.660  26.702  26.288  1.00  0.00    -0.014 A 
ATOM     86  C   UNL A   1      50.388  25.808  27.093  1.00  0.00     0.010 A 
ATOM     87  C   UNL A   1      50.236  27.173  25.092  1.00  0.00     0.010 A 
ATOM     88  C   UNL A   1      51.679  25.418  26.725  1.00  0.00     0.020 A 
ATOM     89  C   UNL A   1      51.514  26.762  24.707  1.00  0.00     0.020 A 
ATOM     90  C   UNL A   1      52.233  25.897  25.534  1.00  0.00     0.054 A 
BRANCH  90  91
ATOM     91  S   UNL A   1      53.892  25.341  25.058  1.00  0.00     0.124 S 
ATOM     92  O   UNL A   1      53.870  23.938  25.463  1.00  0.00    -0.237 OA
ATOM     93  O   UNL A   1      53.909  25.579  23.616  1.00  0.00    -0.237 OA
ATOM     94  O   UNL A   1      54.782  26.201  25.836  1.00  0.00    -0.744 OA
ENDBRANCH  90  91
ENDBRANCH  64  85
ENDBRANCH  38  39
ENDBRANCH  30  33
ENDBRANCH  28  29
ENDBRANCH  27  28
ENDBRANCH  26  27
ENDBRANCH  25  26
ENDBRANCH   1  25
TORSDOF 21
ENDMDL
