MODEL 1
REMARK VINA RESULT:     -10.2      0.000      0.000
REMARK SMILES O=C(NCCCCCCNC(=O)[C@@H]1C[C@@H](O)CN1C(=O)c1ccccc1)c1ccc(-c2c3nc(c(-c4ccc(S(=O)(=O)[O-])cc4)c4ccc([nH]4)c(-c4ccc(S(=O)(=O)[O-])cc4)c4nc(c(-c5ccc(S(=O)(=O)[O-])cc5)c5ccc2[nH]5)C=C4)C=C3)cc1
REMARK SMILES IDX 6 1 5 2 4 3 3 4 1 5 2 6 27 8 28 9 86 10 29 11 85 12 30 13
REMARK SMILES IDX 31 14 32 15 79 16 33 17 84 18 78 19 80 20 34 21 83 22 77 23
REMARK SMILES IDX 76 24 35 26 65 27 46 28 64 29 47 30 50 31 63 32 81 33 48 34
REMARK SMILES IDX 49 35 62 37 82 38 51 39 36 40 37 41 45 42 38 43 44 44 39 45
REMARK SMILES IDX 40 46 41 47 42 48 43 49 66 50 67 51 75 52 68 53 74 54 69 55
REMARK SMILES IDX 70 56 71 57 72 58 73 59 52 60 53 61 61 62 54 63 60 64 55 65
REMARK SMILES IDX 56 66 57 67 58 68 59 69 7 70 8 71 9 72 10 73 11 74 12 76
REMARK SMILES IDX 13 77 14 78 18 79 15 80 17 81 19 82 20 83 21 84 22 85 26 86
REMARK SMILES IDX 23 87 25 88 24 89 16 90
REMARK H PARENT 3 7 80 25 50 36 10 75 16 91
REMARK Flexibility Score: inf
ROOT
ATOM      1  C   UNL A   1      34.534  22.356  24.839  1.00  0.00     0.002 C 
ENDROOT
BRANCH   1   2
ATOM      2  C   UNL A   1      34.759  23.655  25.616  1.00  0.00     0.021 C 
BRANCH   2   3
ATOM      3  C   UNL A   1      36.211  24.097  25.748  1.00  0.00     0.116 C 
BRANCH   3   4
ATOM      4  N   UNL A   1      37.152  22.993  25.670  1.00  0.00    -0.352 N 
ATOM      5  O   UNL A   1      39.150  21.954  25.801  1.00  0.00    -0.269 OA
ATOM      6  C   UNL A   1      38.469  22.942  26.063  1.00  0.00     0.251 C 
ATOM      7  H   UNL A   1      36.796  22.162  25.278  1.00  0.00     0.163 HD
BRANCH   6   8
ATOM      8  C   UNL A   1      39.074  24.093  26.773  1.00  0.00     0.039 A 
ATOM      9  C   UNL A   1      38.853  24.291  28.138  1.00  0.00     0.014 A 
ATOM     10  C   UNL A   1      39.868  24.994  26.057  1.00  0.00     0.014 A 
ATOM     11  C   UNL A   1      39.289  25.465  28.745  1.00  0.00     0.010 A 
ATOM     12  C   UNL A   1      40.375  26.133  26.691  1.00  0.00     0.010 A 
ATOM     13  C   UNL A   1      40.053  26.402  28.029  1.00  0.00    -0.014 A 
BRANCH  13  14
ATOM     14  C   UNL A   1      40.516  27.638  28.713  1.00  0.00     0.031 A 
ATOM     15  C   UNL A   1      41.940  27.785  29.180  1.00  0.00     0.074 A 
ATOM     16  C   UNL A   1      39.650  28.660  28.869  1.00  0.00     0.049 A 
ATOM     17  N   UNL A   1      42.524  28.824  29.723  1.00  0.00    -0.248 NA
ATOM     18  C   UNL A   1      42.823  26.618  29.026  1.00  0.00     0.031 C 
ATOM     19  C   UNL A   1      38.241  28.638  28.471  1.00  0.00     0.029 A 
ATOM     20  N   UNL A   1      39.833  29.922  29.374  1.00  0.00    -0.354 N 
ATOM     21  C   UNL A   1      43.829  28.430  30.000  1.00  0.00     0.074 A 
ATOM     22  C   UNL A   1      43.948  27.050  29.581  1.00  0.00     0.031 C 
ATOM     23  C   UNL A   1      37.704  29.848  28.689  1.00  0.00     0.029 A 
ATOM     24  C   UNL A   1      38.712  30.714  29.289  1.00  0.00     0.049 A 
ATOM     25  H   UNL A   1      40.684  30.231  29.760  1.00  0.00     0.167 HD
ATOM     26  C   UNL A   1      44.837  29.151  30.549  1.00  0.00     0.031 A 
ATOM     27  C   UNL A   1      38.514  31.996  29.648  1.00  0.00     0.031 A 
ATOM     28  C   UNL A   1      44.725  30.529  30.953  1.00  0.00     0.049 A 
ATOM     29  C   UNL A   1      39.650  32.776  30.244  1.00  0.00     0.074 A 
ATOM     30  C   UNL A   1      45.702  31.353  31.484  1.00  0.00     0.029 A 
ATOM     31  N   UNL A   1      43.565  31.285  30.873  1.00  0.00    -0.354 N 
ATOM     32  N   UNL A   1      40.885  32.392  30.463  1.00  0.00    -0.248 NA
ATOM     33  C   UNL A   1      39.366  34.163  30.635  1.00  0.00     0.031 C 
ATOM     34  C   UNL A   1      45.123  32.598  31.761  1.00  0.00     0.029 A 
ATOM     35  C   UNL A   1      43.799  32.561  31.359  1.00  0.00     0.049 A 
ATOM     36  H   UNL A   1      42.705  30.964  30.522  1.00  0.00     0.167 HD
ATOM     37  C   UNL A   1      41.531  33.498  31.003  1.00  0.00     0.074 A 
ATOM     38  C   UNL A   1      40.555  34.568  31.059  1.00  0.00     0.031 C 
ATOM     39  C   UNL A   1      42.817  33.614  31.414  1.00  0.00     0.031 A 
BRANCH  26  40
ATOM     40  C   UNL A   1      46.154  28.453  30.769  1.00  0.00    -0.014 A 
ATOM     41  C   UNL A   1      47.163  28.473  29.790  1.00  0.00     0.010 A 
ATOM     42  C   UNL A   1      46.398  27.800  31.991  1.00  0.00     0.010 A 
ATOM     43  C   UNL A   1      48.378  27.818  30.013  1.00  0.00     0.020 A 
ATOM     44  C   UNL A   1      47.620  27.163  32.227  1.00  0.00     0.020 A 
ATOM     45  C   UNL A   1      48.596  27.160  31.227  1.00  0.00     0.054 A 
BRANCH  45  46
ATOM     46  S   UNL A   1      50.184  26.326  31.497  1.00  0.00     0.124 S 
ATOM     47  O   UNL A   1      50.153  26.084  32.938  1.00  0.00    -0.237 OA
ATOM     48  O   UNL A   1      50.071  25.135  30.659  1.00  0.00    -0.237 OA
ATOM     49  O   UNL A   1      51.171  27.307  31.051  1.00  0.00    -0.744 OA
ENDBRANCH  45  46
ENDBRANCH  26  40
BRANCH  27  50
ATOM     50  C   UNL A   1      37.182  32.622  29.437  1.00  0.00    -0.014 A 
ATOM     51  C   UNL A   1      36.267  32.724  30.498  1.00  0.00     0.010 A 
ATOM     52  C   UNL A   1      36.838  33.150  28.179  1.00  0.00     0.010 A 
ATOM     53  C   UNL A   1      35.025  33.335  30.303  1.00  0.00     0.020 A 
ATOM     54  C   UNL A   1      35.609  33.784  27.988  1.00  0.00     0.020 A 
ATOM     55  C   UNL A   1      34.705  33.863  29.050  1.00  0.00     0.054 A 
BRANCH  55  56
ATOM     56  S   UNL A   1      33.116  34.714  28.835  1.00  0.00     0.124 S 
ATOM     57  O   UNL A   1      32.443  33.854  27.866  1.00  0.00    -0.237 OA
ATOM     58  O   UNL A   1      32.563  34.701  30.187  1.00  0.00    -0.237 OA
ATOM     59  O   UNL A   1      33.503  36.033  28.342  1.00  0.00    -0.744 OA
ENDBRANCH  55  56
ENDBRANCH  27  50
BRANCH  39  60
ATOM     60  C   UNL A   1      43.248  34.959  31.932  1.00  0.00    -0.014 A 
ATOM     61  C   UNL A   1      43.160  35.275  33.299  1.00  0.00     0.010 A 
ATOM     62  C   UNL A   1      43.772  35.911  31.039  1.00  0.00     0.010 A 
ATOM     63  C   UNL A   1      43.549  36.536  33.759  1.00  0.00     0.020 A 
ATOM     64  C   UNL A   1      44.183  37.164  31.497  1.00  0.00     0.020 A 
ATOM     65  C   UNL A   1      44.051  37.476  32.853  1.00  0.00     0.054 A 
BRANCH  65  66
ATOM     66  S   UNL A   1      44.570  39.100  33.470  1.00  0.00     0.124 S 
ATOM     67  O   UNL A   1      45.407  38.737  34.609  1.00  0.00    -0.237 OA
ATOM     68  O   UNL A   1      45.278  39.670  32.325  1.00  0.00    -0.237 OA
ATOM     69  O   UNL A   1      43.310  39.760  33.805  1.00  0.00    -0.744 OA
ENDBRANCH  65  66
ENDBRANCH  39  60
ENDBRANCH  13  14
ENDBRANCH   6   8
ENDBRANCH   3   4
ENDBRANCH   2   3
ENDBRANCH   1   2
BRANCH   1  70
ATOM     70  C   UNL A   1      33.323  22.337  23.901  1.00  0.00     0.002 C 
BRANCH  70  71
ATOM     71  C   UNL A   1      32.076  23.082  24.393  1.00  0.00     0.021 C 
BRANCH  71  72
ATOM     72  C   UNL A   1      31.133  23.560  23.294  1.00  0.00     0.116 C 
BRANCH  72  73
ATOM     73  N   UNL A   1      30.113  24.458  23.789  1.00  0.00    -0.354 N 
ATOM     74  C   UNL A   1      30.094  25.815  23.890  1.00  0.00     0.242 C 
ATOM     75  H   UNL A   1      29.295  24.011  24.105  1.00  0.00     0.163 HD
ATOM     76  O   UNL A   1      28.992  26.336  24.108  1.00  0.00    -0.273 OA
BRANCH  74  77
ATOM     77  C   UNL A   1      31.306  26.703  23.531  1.00  0.00     0.177 C 
ATOM     78  C   UNL A   1      31.716  26.457  22.072  1.00  0.00     0.069 C 
ATOM     79  N   UNL A   1      32.548  26.553  24.299  1.00  0.00    -0.324 N 
ATOM     80  C   UNL A   1      33.198  26.803  22.045  1.00  0.00     0.136 C 
ATOM     81  C   UNL A   1      33.706  26.373  23.421  1.00  0.00     0.152 C 
BRANCH  79  82
ATOM     82  C   UNL A   1      32.535  26.781  25.663  1.00  0.00     0.254 C 
ATOM     83  O   UNL A   1      32.325  25.891  26.483  1.00  0.00    -0.269 OA
BRANCH  82  84
ATOM     84  C   UNL A   1      32.832  28.133  26.180  1.00  0.00     0.040 A 
ATOM     85  C   UNL A   1      34.120  28.390  26.661  1.00  0.00     0.014 A 
ATOM     86  C   UNL A   1      31.833  29.103  26.288  1.00  0.00     0.014 A 
ATOM     87  C   UNL A   1      34.420  29.641  27.201  1.00  0.00     0.001 A 
ATOM     88  C   UNL A   1      32.140  30.357  26.820  1.00  0.00     0.001 A 
ATOM     89  C   UNL A   1      33.433  30.626  27.271  1.00  0.00     0.000 A 
ENDBRANCH  82  84
ENDBRANCH  79  82
BRANCH  80  90
ATOM     90  O   UNL A   1      33.362  28.211  21.867  1.00  0.00    -0.391 OA
ATOM     91  H   UNL A   1      32.494  28.642  21.879  1.00  0.00     0.211 HD
ENDBRANCH  80  90
ENDBRANCH  74  77
ENDBRANCH  72  73
ENDBRANCH  71  72
ENDBRANCH  70  71
ENDBRANCH   1  70
TORSDOF 19
ENDMDL
MODEL 2
REMARK VINA RESULT:     -10.1      2.704      8.488
REMARK SMILES O=C(NCCCCCCNC(=O)[C@@H]1C[C@@H](O)CN1C(=O)c1ccccc1)c1ccc(-c2c3nc(c(-c4ccc(S(=O)(=O)[O-])cc4)c4ccc([nH]4)c(-c4ccc(S(=O)(=O)[O-])cc4)c4nc(c(-c5ccc(S(=O)(=O)[O-])cc5)c5ccc2[nH]5)C=C4)C=C3)cc1
REMARK SMILES IDX 6 1 5 2 4 3 3 4 1 5 2 6 27 8 28 9 86 10 29 11 85 12 30 13
REMARK SMILES IDX 31 14 32 15 79 16 33 17 84 18 78 19 80 20 34 21 83 22 77 23
REMARK SMILES IDX 76 24 35 26 65 27 46 28 64 29 47 30 50 31 63 32 81 33 48 34
REMARK SMILES IDX 49 35 62 37 82 38 51 39 36 40 37 41 45 42 38 43 44 44 39 45
REMARK SMILES IDX 40 46 41 47 42 48 43 49 66 50 67 51 75 52 68 53 74 54 69 55
REMARK SMILES IDX 70 56 71 57 72 58 73 59 52 60 53 61 61 62 54 63 60 64 55 65
REMARK SMILES IDX 56 66 57 67 58 68 59 69 7 70 8 71 9 72 10 73 11 74 12 76
REMARK SMILES IDX 13 77 14 78 18 79 15 80 17 81 19 82 20 83 21 84 22 85 26 86
REMARK SMILES IDX 23 87 25 88 24 89 16 90
REMARK H PARENT 3 7 80 25 50 36 10 75 16 91
REMARK Flexibility Score: inf
ROOT
ATOM      1  C   UNL A   1      31.494  27.631  25.923  1.00  0.00     0.002 C 
ENDROOT
BRANCH   1   2
ATOM      2  C   UNL A   1      32.310  27.628  27.216  1.00  0.00     0.021 C 
BRANCH   2   3
ATOM      3  C   UNL A   1      33.630  28.387  27.159  1.00  0.00     0.116 C 
BRANCH   3   4
ATOM      4  N   UNL A   1      33.496  29.790  27.513  1.00  0.00    -0.352 N 
ATOM      5  O   UNL A   1      34.079  31.763  28.437  1.00  0.00    -0.269 OA
ATOM      6  C   UNL A   1      34.415  30.633  28.092  1.00  0.00     0.251 C 
ATOM      7  H   UNL A   1      32.622  30.194  27.310  1.00  0.00     0.163 HD
BRANCH   6   8
ATOM      8  C   UNL A   1      35.800  30.166  28.332  1.00  0.00     0.039 A 
ATOM      9  C   UNL A   1      36.193  29.697  29.588  1.00  0.00     0.014 A 
ATOM     10  C   UNL A   1      36.724  30.207  27.283  1.00  0.00     0.014 A 
ATOM     11  C   UNL A   1      37.535  29.425  29.835  1.00  0.00     0.010 A 
ATOM     12  C   UNL A   1      38.057  29.853  27.514  1.00  0.00     0.010 A 
ATOM     13  C   UNL A   1      38.485  29.501  28.802  1.00  0.00    -0.014 A 
BRANCH  13  14
ATOM     14  C   UNL A   1      39.907  29.188  29.099  1.00  0.00     0.031 A 
ATOM     15  C   UNL A   1      40.505  27.855  28.731  1.00  0.00     0.074 A 
ATOM     16  C   UNL A   1      40.681  30.139  29.661  1.00  0.00     0.049 A 
ATOM     17  N   UNL A   1      41.745  27.451  28.849  1.00  0.00    -0.248 NA
ATOM     18  C   UNL A   1      39.599  26.844  28.166  1.00  0.00     0.031 C 
ATOM     19  C   UNL A   1      40.219  31.466  30.074  1.00  0.00     0.029 A 
ATOM     20  N   UNL A   1      42.021  30.149  29.952  1.00  0.00    -0.354 N 
ATOM     21  C   UNL A   1      41.764  26.134  28.401  1.00  0.00     0.074 A 
ATOM     22  C   UNL A   1      40.407  25.801  28.025  1.00  0.00     0.031 C 
ATOM     23  C   UNL A   1      41.267  32.181  30.508  1.00  0.00     0.029 A 
ATOM     24  C   UNL A   1      42.465  31.350  30.453  1.00  0.00     0.049 A 
ATOM     25  H   UNL A   1      42.609  29.370  29.817  1.00  0.00     0.167 HD
ATOM     26  C   UNL A   1      42.814  25.282  28.307  1.00  0.00     0.031 A 
ATOM     27  C   UNL A   1      43.697  31.745  30.824  1.00  0.00     0.031 A 
ATOM     28  C   UNL A   1      44.168  25.618  28.668  1.00  0.00     0.049 A 
ATOM     29  C   UNL A   1      44.844  30.786  30.701  1.00  0.00     0.074 A 
ATOM     30  C   UNL A   1      45.304  24.832  28.573  1.00  0.00     0.029 A 
ATOM     31  N   UNL A   1      44.568  26.836  29.195  1.00  0.00    -0.354 N 
ATOM     32  N   UNL A   1      44.843  29.558  30.241  1.00  0.00    -0.248 NA
ATOM     33  C   UNL A   1      46.160  31.268  31.141  1.00  0.00     0.031 C 
ATOM     34  C   UNL A   1      46.386  25.563  29.078  1.00  0.00     0.029 A 
ATOM     35  C   UNL A   1      45.931  26.819  29.443  1.00  0.00     0.049 A 
ATOM     36  H   UNL A   1      43.973  27.600  29.365  1.00  0.00     0.167 HD
ATOM     37  C   UNL A   1      46.161  29.126  30.320  1.00  0.00     0.074 A 
ATOM     38  C   UNL A   1      46.933  30.231  30.855  1.00  0.00     0.031 C 
ATOM     39  C   UNL A   1      46.684  27.923  29.981  1.00  0.00     0.031 A 
BRANCH  26  40
ATOM     40  C   UNL A   1      42.536  23.886  27.814  1.00  0.00    -0.014 A 
ATOM     41  C   UNL A   1      42.268  22.836  28.710  1.00  0.00     0.010 A 
ATOM     42  C   UNL A   1      42.503  23.631  26.431  1.00  0.00     0.010 A 
ATOM     43  C   UNL A   1      42.013  21.547  28.232  1.00  0.00     0.020 A 
ATOM     44  C   UNL A   1      42.227  22.349  25.949  1.00  0.00     0.020 A 
ATOM     45  C   UNL A   1      42.002  21.309  26.854  1.00  0.00     0.054 A 
BRANCH  45  46
ATOM     46  S   UNL A   1      41.658  19.631  26.259  1.00  0.00     0.124 S 
ATOM     47  O   UNL A   1      40.218  19.689  26.016  1.00  0.00    -0.237 OA
ATOM     48  O   UNL A   1      42.491  19.535  25.063  1.00  0.00    -0.237 OA
ATOM     49  O   UNL A   1      42.069  18.778  27.371  1.00  0.00    -0.744 OA
ENDBRANCH  45  46
ENDBRANCH  26  40
BRANCH  27  50
ATOM     50  C   UNL A   1      43.903  33.126  31.335  1.00  0.00    -0.014 A 
ATOM     51  C   UNL A   1      43.757  33.408  32.703  1.00  0.00     0.010 A 
ATOM     52  C   UNL A   1      44.282  34.158  30.457  1.00  0.00     0.010 A 
ATOM     53  C   UNL A   1      43.976  34.702  33.186  1.00  0.00     0.020 A 
ATOM     54  C   UNL A   1      44.527  35.445  30.939  1.00  0.00     0.020 A 
ATOM     55  C   UNL A   1      44.362  35.712  32.300  1.00  0.00     0.054 A 
BRANCH  55  56
ATOM     56  S   UNL A   1      44.708  37.369  32.955  1.00  0.00     0.124 S 
ATOM     57  O   UNL A   1      43.408  37.758  33.492  1.00  0.00    -0.237 OA
ATOM     58  O   UNL A   1      45.751  37.108  33.944  1.00  0.00    -0.237 OA
ATOM     59  O   UNL A   1      45.151  38.112  31.778  1.00  0.00    -0.744 OA
ENDBRANCH  55  56
ENDBRANCH  27  50
BRANCH  39  60
ATOM     60  C   UNL A   1      48.169  27.752  30.150  1.00  0.00    -0.014 A 
ATOM     61  C   UNL A   1      48.712  27.246  31.344  1.00  0.00     0.010 A 
ATOM     62  C   UNL A   1      49.030  28.081  29.088  1.00  0.00     0.010 A 
ATOM     63  C   UNL A   1      50.096  27.111  31.488  1.00  0.00     0.020 A 
ATOM     64  C   UNL A   1      50.412  27.927  29.220  1.00  0.00     0.020 A 
ATOM     65  C   UNL A   1      50.937  27.461  30.427  1.00  0.00     0.054 A 
BRANCH  65  66
ATOM     66  S   UNL A   1      52.729  27.260  30.624  1.00  0.00     0.124 S 
ATOM     67  O   UNL A   1      52.807  26.284  31.706  1.00  0.00    -0.237 OA
ATOM     68  O   UNL A   1      53.148  26.777  29.310  1.00  0.00    -0.237 OA
ATOM     69  O   UNL A   1      53.191  28.605  30.962  1.00  0.00    -0.744 OA
ENDBRANCH  65  66
ENDBRANCH  39  60
ENDBRANCH  13  14
ENDBRANCH   6   8
ENDBRANCH   3   4
ENDBRANCH   2   3
ENDBRANCH   1   2
BRANCH   1  70
ATOM     70  C   UNL A   1      31.720  26.440  24.985  1.00  0.00     0.002 C 
BRANCH  70  71
ATOM     71  C   UNL A   1      31.471  25.051  25.585  1.00  0.00     0.021 C 
BRANCH  71  72
ATOM     72  C   UNL A   1      32.682  24.124  25.592  1.00  0.00     0.116 C 
BRANCH  72  73
ATOM     73  N   UNL A   1      33.311  24.022  24.294  1.00  0.00    -0.354 N 
ATOM     74  C   UNL A   1      34.493  23.461  23.918  1.00  0.00     0.242 C 
ATOM     75  H   UNL A   1      32.798  24.427  23.558  1.00  0.00     0.163 HD
ATOM     76  O   UNL A   1      34.660  23.289  22.703  1.00  0.00    -0.273 OA
BRANCH  74  77
ATOM     77  C   UNL A   1      35.491  22.849  24.925  1.00  0.00     0.177 C 
ATOM     78  C   UNL A   1      36.920  23.293  24.577  1.00  0.00     0.069 C 
ATOM     79  N   UNL A   1      35.574  21.389  25.046  1.00  0.00    -0.324 N 
ATOM     80  C   UNL A   1      37.795  22.178  25.129  1.00  0.00     0.136 C 
ATOM     81  C   UNL A   1      36.955  20.915  24.938  1.00  0.00     0.152 C 
BRANCH  79  82
ATOM     82  C   UNL A   1      34.452  20.674  25.424  1.00  0.00     0.254 C 
ATOM     83  O   UNL A   1      33.866  20.870  26.485  1.00  0.00    -0.269 OA
BRANCH  82  84
ATOM     84  C   UNL A   1      33.888  19.663  24.506  1.00  0.00     0.040 A 
ATOM     85  C   UNL A   1      32.756  20.003  23.759  1.00  0.00     0.014 A 
ATOM     86  C   UNL A   1      34.400  18.363  24.457  1.00  0.00     0.014 A 
ATOM     87  C   UNL A   1      32.169  19.056  22.919  1.00  0.00     0.001 A 
ATOM     88  C   UNL A   1      33.815  17.421  23.609  1.00  0.00     0.001 A 
ATOM     89  C   UNL A   1      32.705  17.769  22.838  1.00  0.00     0.000 A 
ENDBRANCH  82  84
ENDBRANCH  79  82
BRANCH  80  90
ATOM     90  O   UNL A   1      38.050  22.405  26.517  1.00  0.00    -0.391 OA
ATOM     91  H   UNL A   1      37.446  21.865  27.049  1.00  0.00     0.211 HD
ENDBRANCH  80  90
ENDBRANCH  74  77
ENDBRANCH  72  73
ENDBRANCH  71  72
ENDBRANCH  70  71
ENDBRANCH   1  70
TORSDOF 19
ENDMDL
MODEL 3
REMARK VINA RESULT:     -10.1      4.917      7.526
REMARK SMILES O=C(NCCCCCCNC(=O)[C@@H]1C[C@@H](O)CN1C(=O)c1ccccc1)c1ccc(-c2c3nc(c(-c4ccc(S(=O)(=O)[O-])cc4)c4ccc([nH]4)c(-c4ccc(S(=O)(=O)[O-])cc4)c4nc(c(-c5ccc(S(=O)(=O)[O-])cc5)c5ccc2[nH]5)C=C4)C=C3)cc1
REMARK SMILES IDX 6 1 5 2 4 3 3 4 1 5 2 6 27 8 28 9 86 10 29 11 85 12 30 13
REMARK SMILES IDX 31 14 32 15 79 16 33 17 84 18 78 19 80 20 34 21 83 22 77 23
REMARK SMILES IDX 76 24 35 26 65 27 46 28 64 29 47 30 50 31 63 32 81 33 48 34
REMARK SMILES IDX 49 35 62 37 82 38 51 39 36 40 37 41 45 42 38 43 44 44 39 45
REMARK SMILES IDX 40 46 41 47 42 48 43 49 66 50 67 51 75 52 68 53 74 54 69 55
REMARK SMILES IDX 70 56 71 57 72 58 73 59 52 60 53 61 61 62 54 63 60 64 55 65
REMARK SMILES IDX 56 66 57 67 58 68 59 69 7 70 8 71 9 72 10 73 11 74 12 76
REMARK SMILES IDX 13 77 14 78 18 79 15 80 17 81 19 82 20 83 21 84 22 85 26 86
REMARK SMILES IDX 23 87 25 88 24 89 16 90
REMARK H PARENT 3 7 80 25 50 36 10 75 16 91
REMARK Flexibility Score: inf
ROOT
ATOM      1  C   UNL A   1      46.607  26.222  26.932  1.00  0.00     0.002 C 
ENDROOT
BRANCH   1   2
ATOM      2  C   UNL A   1      46.086  26.187  25.494  1.00  0.00     0.021 C 
BRANCH   2   3
ATOM      3  C   UNL A   1      44.930  27.132  25.193  1.00  0.00     0.116 C 
BRANCH   3   4
ATOM      4  N   UNL A   1      43.717  26.439  24.793  1.00  0.00    -0.352 N 
ATOM      5  O   UNL A   1      41.662  25.541  25.039  1.00  0.00    -0.269 OA
ATOM      6  C   UNL A   1      42.541  26.271  25.488  1.00  0.00     0.251 C 
ATOM      7  H   UNL A   1      43.739  26.030  23.898  1.00  0.00     0.163 HD
BRANCH   6   8
ATOM      8  C   UNL A   1      42.351  26.943  26.794  1.00  0.00     0.039 A 
ATOM      9  C   UNL A   1      41.748  26.278  27.864  1.00  0.00     0.014 A 
ATOM     10  C   UNL A   1      42.776  28.267  26.947  1.00  0.00     0.014 A 
ATOM     11  C   UNL A   1      41.427  26.979  29.022  1.00  0.00     0.010 A 
ATOM     12  C   UNL A   1      42.525  28.946  28.144  1.00  0.00     0.010 A 
ATOM     13  C   UNL A   1      41.809  28.323  29.176  1.00  0.00    -0.014 A 
BRANCH  13  14
ATOM     14  C   UNL A   1      41.463  29.037  30.433  1.00  0.00     0.031 A 
ATOM     15  C   UNL A   1      42.339  28.934  31.654  1.00  0.00     0.074 A 
ATOM     16  C   UNL A   1      40.372  29.828  30.455  1.00  0.00     0.049 A 
ATOM     17  N   UNL A   1      42.222  29.553  32.803  1.00  0.00    -0.248 NA
ATOM     18  C   UNL A   1      43.488  28.018  31.584  1.00  0.00     0.031 C 
ATOM     19  C   UNL A   1      39.436  30.003  29.341  1.00  0.00     0.029 A 
ATOM     20  N   UNL A   1      39.882  30.655  31.433  1.00  0.00    -0.354 N 
ATOM     21  C   UNL A   1      43.261  29.083  33.600  1.00  0.00     0.074 A 
ATOM     22  C   UNL A   1      43.989  28.114  32.809  1.00  0.00     0.031 C 
ATOM     23  C   UNL A   1      38.522  30.926  29.676  1.00  0.00     0.029 A 
ATOM     24  C   UNL A   1      38.774  31.371  31.042  1.00  0.00     0.049 A 
ATOM     25  H   UNL A   1      40.284  30.728  32.329  1.00  0.00     0.167 HD
ATOM     26  C   UNL A   1      43.583  29.429  34.870  1.00  0.00     0.031 A 
ATOM     27  C   UNL A   1      38.042  32.286  31.704  1.00  0.00     0.031 A 
ATOM     28  C   UNL A   1      42.868  30.404  35.652  1.00  0.00     0.049 A 
ATOM     29  C   UNL A   1      38.426  32.658  33.107  1.00  0.00     0.074 A 
ATOM     30  C   UNL A   1      43.143  30.847  36.935  1.00  0.00     0.029 A 
ATOM     31  N   UNL A   1      41.738  31.086  35.228  1.00  0.00    -0.354 N 
ATOM     32  N   UNL A   1      39.434  32.226  33.826  1.00  0.00    -0.248 NA
ATOM     33  C   UNL A   1      37.576  33.647  33.784  1.00  0.00     0.031 C 
ATOM     34  C   UNL A   1      42.155  31.769  37.301  1.00  0.00     0.029 A 
ATOM     35  C   UNL A   1      41.294  31.934  36.229  1.00  0.00     0.049 A 
ATOM     36  H   UNL A   1      41.315  30.983  34.346  1.00  0.00     0.167 HD
ATOM     37  C   UNL A   1      39.349  32.904  35.036  1.00  0.00     0.074 A 
ATOM     38  C   UNL A   1      38.203  33.787  34.943  1.00  0.00     0.031 C 
ATOM     39  C   UNL A   1      40.150  32.803  36.125  1.00  0.00     0.031 A 
BRANCH  26  40
ATOM     40  C   UNL A   1      44.753  28.726  35.508  1.00  0.00    -0.014 A 
ATOM     41  C   UNL A   1      46.063  29.221  35.375  1.00  0.00     0.010 A 
ATOM     42  C   UNL A   1      44.532  27.575  36.287  1.00  0.00     0.010 A 
ATOM     43  C   UNL A   1      47.135  28.553  35.975  1.00  0.00     0.020 A 
ATOM     44  C   UNL A   1      45.598  26.917  36.906  1.00  0.00     0.020 A 
ATOM     45  C   UNL A   1      46.897  27.401  36.730  1.00  0.00     0.054 A 
BRANCH  45  46
ATOM     46  S   UNL A   1      48.303  26.559  37.507  1.00  0.00     0.124 S 
ATOM     47  O   UNL A   1      49.376  26.824  36.551  1.00  0.00    -0.237 OA
ATOM     48  O   UNL A   1      48.424  27.248  38.790  1.00  0.00    -0.237 OA
ATOM     49  O   UNL A   1      47.871  25.166  37.589  1.00  0.00    -0.744 OA
ENDBRANCH  45  46
ENDBRANCH  26  40
BRANCH  27  50
ATOM     50  C   UNL A   1      36.878  32.921  31.033  1.00  0.00    -0.014 A 
ATOM     51  C   UNL A   1      35.570  32.503  31.329  1.00  0.00     0.010 A 
ATOM     52  C   UNL A   1      37.072  33.973  30.119  1.00  0.00     0.010 A 
ATOM     53  C   UNL A   1      34.475  33.119  30.716  1.00  0.00     0.020 A 
ATOM     54  C   UNL A   1      35.981  34.608  29.525  1.00  0.00     0.020 A 
ATOM     55  C   UNL A   1      34.688  34.169  29.819  1.00  0.00     0.054 A 
BRANCH  55  56
ATOM     56  S   UNL A   1      33.252  35.002  29.085  1.00  0.00     0.124 S 
ATOM     57  O   UNL A   1      32.449  35.312  30.263  1.00  0.00    -0.237 OA
ATOM     58  O   UNL A   1      33.859  36.148  28.411  1.00  0.00    -0.237 OA
ATOM     59  O   UNL A   1      32.694  33.990  28.191  1.00  0.00    -0.744 OA
ENDBRANCH  55  56
ENDBRANCH  27  50
BRANCH  39  60
ATOM     60  C   UNL A   1      39.829  33.696  37.292  1.00  0.00    -0.014 A 
ATOM     61  C   UNL A   1      39.078  33.224  38.384  1.00  0.00     0.010 A 
ATOM     62  C   UNL A   1      40.307  35.018  37.306  1.00  0.00     0.010 A 
ATOM     63  C   UNL A   1      38.775  34.074  39.451  1.00  0.00     0.020 A 
ATOM     64  C   UNL A   1      40.026  35.863  38.381  1.00  0.00     0.020 A 
ATOM     65  C   UNL A   1      39.244  35.391  39.439  1.00  0.00     0.054 A 
BRANCH  65  66
ATOM     66  S   UNL A   1      38.859  36.474  40.842  1.00  0.00     0.124 S 
ATOM     67  O   UNL A   1      38.385  37.681  40.171  1.00  0.00    -0.237 OA
ATOM     68  O   UNL A   1      37.840  35.717  41.566  1.00  0.00    -0.237 OA
ATOM     69  O   UNL A   1      40.137  36.607  41.536  1.00  0.00    -0.744 OA
ENDBRANCH  65  66
ENDBRANCH  39  60
ENDBRANCH  13  14
ENDBRANCH   6   8
ENDBRANCH   3   4
ENDBRANCH   2   3
ENDBRANCH   1   2
BRANCH   1  70
ATOM     70  C   UNL A   1      45.666  25.654  28.000  1.00  0.00     0.002 C 
BRANCH  70  71
ATOM     71  C   UNL A   1      45.452  24.136  27.973  1.00  0.00     0.021 C 
BRANCH  71  72
ATOM     72  C   UNL A   1      44.037  23.688  27.624  1.00  0.00     0.116 C 
BRANCH  72  73
ATOM     73  N   UNL A   1      43.881  23.380  26.220  1.00  0.00    -0.354 N 
ATOM     74  C   UNL A   1      43.388  22.273  25.600  1.00  0.00     0.242 C 
ATOM     75  H   UNL A   1      44.183  24.091  25.610  1.00  0.00     0.163 HD
ATOM     76  O   UNL A   1      43.133  22.385  24.393  1.00  0.00    -0.273 OA
BRANCH  74  77
ATOM     77  C   UNL A   1      42.942  21.008  26.365  1.00  0.00     0.177 C 
ATOM     78  C   UNL A   1      43.414  19.753  25.617  1.00  0.00     0.069 C 
ATOM     79  N   UNL A   1      41.510  20.787  26.599  1.00  0.00    -0.324 N 
ATOM     80  C   UNL A   1      42.410  18.684  26.025  1.00  0.00     0.136 C 
ATOM     81  C   UNL A   1      41.095  19.448  26.180  1.00  0.00     0.152 C 
BRANCH  79  82
ATOM     82  C   UNL A   1      40.788  21.719  27.322  1.00  0.00     0.254 C 
ATOM     83  O   UNL A   1      41.119  22.090  28.445  1.00  0.00    -0.269 OA
BRANCH  82  84
ATOM     84  C   UNL A   1      39.592  22.344  26.719  1.00  0.00     0.040 A 
ATOM     85  C   UNL A   1      38.829  21.588  25.824  1.00  0.00     0.014 A 
ATOM     86  C   UNL A   1      39.284  23.688  26.948  1.00  0.00     0.014 A 
ATOM     87  C   UNL A   1      37.722  22.163  25.200  1.00  0.00     0.001 A 
ATOM     88  C   UNL A   1      38.169  24.257  26.328  1.00  0.00     0.001 A 
ATOM     89  C   UNL A   1      37.388  23.494  25.459  1.00  0.00     0.000 A 
ENDBRANCH  82  84
ENDBRANCH  79  82
BRANCH  80  90
ATOM     90  O   UNL A   1      42.803  18.104  27.270  1.00  0.00    -0.391 OA
ATOM     91  H   UNL A   1      43.269  17.270  27.105  1.00  0.00     0.211 HD
ENDBRANCH  80  90
ENDBRANCH  74  77
ENDBRANCH  72  73
ENDBRANCH  71  72
ENDBRANCH  70  71
ENDBRANCH   1  70
TORSDOF 19
ENDMDL
