MODEL 1
REMARK VINA RESULT:     -11.0      0.000      0.000
REMARK SMILES O=C(NCCCCCCNC(=O)[C@H](Cc1ccc(Br)cc1)[C@H]1CS(=O)(=O)C[C@@H]1O)c1ccc(-c2c3nc(c(-c4ccc(S(=O)(=O)[O-])cc4)c4ccc([nH]4)c(-c4ccc(S(=O)(=O)[O-])cc4)c4nc(c(-c5ccc(S(=O)(=O)[O-])cc5)c5ccc2[nH]5)C=C4)C=C3)cc1
REMARK SMILES IDX 6 1 5 2 4 3 3 4 1 5 2 6 30 8 31 9 89 10 32 11 88 12 33 13
REMARK SMILES IDX 34 14 35 15 82 16 36 17 87 18 81 19 83 20 37 21 86 22 80 23
REMARK SMILES IDX 79 24 38 26 68 27 49 28 67 29 50 30 53 31 66 32 84 33 51 34
REMARK SMILES IDX 52 35 65 37 85 38 54 39 39 40 40 41 48 42 41 43 47 44 42 45
REMARK SMILES IDX 43 46 44 47 45 48 46 49 69 50 70 51 78 52 71 53 77 54 72 55
REMARK SMILES IDX 73 56 74 57 75 58 76 59 55 60 56 61 64 62 57 63 63 64 58 65
REMARK SMILES IDX 59 66 60 67 61 68 62 69 7 70 8 71 9 72 10 73 11 74 12 76
REMARK SMILES IDX 13 77 14 78 15 79 16 80 21 81 17 82 20 83 18 84 19 85 22 86
REMARK SMILES IDX 23 87 28 88 24 89 27 90 25 91 26 92 29 93
REMARK H PARENT 3 7 83 25 53 36 10 75 29 94
REMARK Flexibility Score: inf
ROOT
ATOM      1  C   UNL A   1      38.426  23.652  26.488  1.00  0.00     0.002 C 
ENDROOT
BRANCH   1   2
ATOM      2  C   UNL A   1      39.592  22.672  26.626  1.00  0.00     0.021 C 
BRANCH   2   3
ATOM      3  C   UNL A   1      40.935  23.277  27.006  1.00  0.00     0.116 C 
BRANCH   3   4
ATOM      4  N   UNL A   1      41.501  24.105  25.954  1.00  0.00    -0.352 N 
ATOM      5  O   UNL A   1      42.071  25.990  24.865  1.00  0.00    -0.269 OA
ATOM      6  C   UNL A   1      41.730  25.460  25.919  1.00  0.00     0.251 C 
ATOM      7  H   UNL A   1      41.762  23.618  25.139  1.00  0.00     0.163 HD
BRANCH   6   8
ATOM      8  C   UNL A   1      41.545  26.282  27.137  1.00  0.00     0.039 A 
ATOM      9  C   UNL A   1      40.553  25.967  28.063  1.00  0.00     0.014 A 
ATOM     10  C   UNL A   1      42.392  27.372  27.370  1.00  0.00     0.014 A 
ATOM     11  C   UNL A   1      40.297  26.828  29.123  1.00  0.00     0.010 A 
ATOM     12  C   UNL A   1      42.206  28.175  28.503  1.00  0.00     0.010 A 
ATOM     13  C   UNL A   1      41.137  27.925  29.376  1.00  0.00    -0.014 A 
BRANCH  13  14
ATOM     14  C   UNL A   1      40.914  28.715  30.617  1.00  0.00     0.031 A 
ATOM     15  C   UNL A   1      41.811  28.582  31.816  1.00  0.00     0.074 A 
ATOM     16  C   UNL A   1      39.913  29.621  30.615  1.00  0.00     0.049 A 
ATOM     17  N   UNL A   1      41.793  29.270  32.930  1.00  0.00    -0.248 NA
ATOM     18  C   UNL A   1      42.854  27.545  31.771  1.00  0.00     0.031 C 
ATOM     19  C   UNL A   1      38.962  29.821  29.515  1.00  0.00     0.029 A 
ATOM     20  N   UNL A   1      39.551  30.565  31.538  1.00  0.00    -0.354 N 
ATOM     21  C   UNL A   1      42.815  28.753  33.718  1.00  0.00     0.074 A 
ATOM     22  C   UNL A   1      43.411  27.667  32.969  1.00  0.00     0.031 C 
ATOM     23  C   UNL A   1      38.177  30.868  29.796  1.00  0.00     0.029 A 
ATOM     24  C   UNL A   1      38.512  31.366  31.123  1.00  0.00     0.049 A 
ATOM     25  H   UNL A   1      39.990  30.663  32.414  1.00  0.00     0.167 HD
ATOM     26  C   UNL A   1      43.224  29.156  34.947  1.00  0.00     0.031 A 
ATOM     27  C   UNL A   1      37.880  32.380  31.743  1.00  0.00     0.031 A 
ATOM     28  C   UNL A   1      42.616  30.231  35.690  1.00  0.00     0.049 A 
ATOM     29  C   UNL A   1      38.342  32.787  33.112  1.00  0.00     0.074 A 
ATOM     30  C   UNL A   1      42.960  30.716  36.941  1.00  0.00     0.029 A 
ATOM     31  N   UNL A   1      41.539  30.990  35.255  1.00  0.00    -0.354 N 
ATOM     32  N   UNL A   1      39.326  32.297  33.827  1.00  0.00    -0.248 NA
ATOM     33  C   UNL A   1      37.610  33.883  33.756  1.00  0.00     0.031 C 
ATOM     34  C   UNL A   1      42.061  31.732  37.282  1.00  0.00     0.029 A 
ATOM     35  C   UNL A   1      41.195  31.926  36.219  1.00  0.00     0.049 A 
ATOM     36  H   UNL A   1      41.086  30.881  34.387  1.00  0.00     0.167 HD
ATOM     37  C   UNL A   1      39.336  33.034  35.005  1.00  0.00     0.074 A 
ATOM     38  C   UNL A   1      38.286  34.025  34.886  1.00  0.00     0.031 C 
ATOM     39  C   UNL A   1      40.136  32.894  36.092  1.00  0.00     0.031 A 
BRANCH  26  40
ATOM     40  C   UNL A   1      44.384  28.425  35.577  1.00  0.00    -0.014 A 
ATOM     41  C   UNL A   1      44.192  27.207  36.254  1.00  0.00     0.010 A 
ATOM     42  C   UNL A   1      45.693  28.922  35.429  1.00  0.00     0.010 A 
ATOM     43  C   UNL A   1      45.280  26.514  36.793  1.00  0.00     0.020 A 
ATOM     44  C   UNL A   1      46.787  28.220  35.944  1.00  0.00     0.020 A 
ATOM     45  C   UNL A   1      46.571  27.025  36.634  1.00  0.00     0.054 A 
BRANCH  45  46
ATOM     46  S   UNL A   1      47.967  26.083  37.313  1.00  0.00     0.124 S 
ATOM     47  O   UNL A   1      47.665  24.729  36.856  1.00  0.00    -0.237 OA
ATOM     48  O   UNL A   1      49.119  26.716  36.677  1.00  0.00    -0.237 OA
ATOM     49  O   UNL A   1      47.861  26.292  38.754  1.00  0.00    -0.744 OA
ENDBRANCH  45  46
ENDBRANCH  26  40
BRANCH  27  50
ATOM     50  C   UNL A   1      36.721  33.044  31.086  1.00  0.00    -0.014 A 
ATOM     51  C   UNL A   1      35.401  32.734  31.451  1.00  0.00     0.010 A 
ATOM     52  C   UNL A   1      36.946  34.009  30.085  1.00  0.00     0.010 A 
ATOM     53  C   UNL A   1      34.326  33.355  30.806  1.00  0.00     0.020 A 
ATOM     54  C   UNL A   1      35.877  34.658  29.466  1.00  0.00     0.020 A 
ATOM     55  C   UNL A   1      34.572  34.313  29.818  1.00  0.00     0.054 A 
BRANCH  55  56
ATOM     56  S   UNL A   1      33.166  35.128  29.012  1.00  0.00     0.124 S 
ATOM     57  O   UNL A   1      32.690  34.087  28.109  1.00  0.00    -0.237 OA
ATOM     58  O   UNL A   1      32.291  35.438  30.141  1.00  0.00    -0.237 OA
ATOM     59  O   UNL A   1      33.770  36.291  28.366  1.00  0.00    -0.744 OA
ENDBRANCH  55  56
ENDBRANCH  27  50
BRANCH  39  60
ATOM     60  C   UNL A   1      39.908  33.856  37.228  1.00  0.00    -0.014 A 
ATOM     61  C   UNL A   1      39.125  33.497  38.340  1.00  0.00     0.010 A 
ATOM     62  C   UNL A   1      40.487  35.136  37.184  1.00  0.00     0.010 A 
ATOM     63  C   UNL A   1      38.880  34.418  39.360  1.00  0.00     0.020 A 
ATOM     64  C   UNL A   1      40.273  36.051  38.218  1.00  0.00     0.020 A 
ATOM     65  C   UNL A   1      39.451  35.693  39.289  1.00  0.00     0.054 A 
BRANCH  65  66
ATOM     66  S   UNL A   1      39.126  36.871  40.629  1.00  0.00     0.124 S 
ATOM     67  O   UNL A   1      38.168  36.137  41.451  1.00  0.00    -0.237 OA
ATOM     68  O   UNL A   1      40.450  37.056  41.220  1.00  0.00    -0.237 OA
ATOM     69  O   UNL A   1      38.589  38.041  39.939  1.00  0.00    -0.744 OA
ENDBRANCH  65  66
ENDBRANCH  39  60
ENDBRANCH  13  14
ENDBRANCH   6   8
ENDBRANCH   3   4
ENDBRANCH   2   3
ENDBRANCH   1   2
BRANCH   1  70
ATOM     70  C   UNL A   1      37.319  23.300  25.484  1.00  0.00     0.002 C 
BRANCH  70  71
ATOM     71  C   UNL A   1      36.000  22.755  26.036  1.00  0.00     0.021 C 
BRANCH  71  72
ATOM     72  C   UNL A   1      34.760  23.598  25.803  1.00  0.00     0.116 C 
BRANCH  72  73
ATOM     73  N   UNL A   1      33.711  23.571  26.779  1.00  0.00    -0.356 N 
ATOM     74  C   UNL A   1      32.464  24.129  26.653  1.00  0.00     0.223 C 
ATOM     75  H   UNL A   1      33.904  23.106  27.625  1.00  0.00     0.163 HD
ATOM     76  O   UNL A   1      31.590  23.695  27.405  1.00  0.00    -0.275 OA
BRANCH  74  77
ATOM     77  C   UNL A   1      32.209  25.318  25.684  1.00  0.00     0.089 C 
BRANCH  77  78
ATOM     78  C   UNL A   1      31.656  26.521  26.534  1.00  0.00     0.049 C 
BRANCH  78  79
ATOM     79  C   UNL A   1      32.509  27.755  26.669  1.00  0.00    -0.047 A 
ATOM     80  C   UNL A   1      31.935  28.961  27.096  1.00  0.00     0.005 A 
ATOM     81  C   UNL A   1      33.901  27.677  26.523  1.00  0.00     0.005 A 
ATOM     82  C   UNL A   1      32.740  30.063  27.389  1.00  0.00     0.016 A 
ATOM     83  C   UNL A   1      34.708  28.778  26.818  1.00  0.00     0.016 A 
ATOM     84  C   UNL A   1      34.122  29.964  27.255  1.00  0.00     0.017 A 
ATOM     85  Br  UNL A   1      35.214  31.445  27.694  1.00  0.00    -0.051 Br
ENDBRANCH  78  79
ENDBRANCH  77  78
BRANCH  77  86
ATOM     86  C   UNL A   1      31.194  25.188  24.488  1.00  0.00     0.047 C 
ATOM     87  C   UNL A   1      30.513  26.544  24.198  1.00  0.00     0.144 C 
ATOM     88  C   UNL A   1      31.543  24.585  23.115  1.00  0.00     0.134 C 
ATOM     89  S   UNL A   1      31.268  27.203  22.734  1.00  0.00     0.153 S 
ATOM     90  C   UNL A   1      31.791  25.653  22.046  1.00  0.00     0.169 C 
ATOM     91  O   UNL A   1      30.258  27.797  21.896  1.00  0.00    -0.229 OA
ATOM     92  O   UNL A   1      32.455  27.942  23.135  1.00  0.00    -0.229 OA
BRANCH  88  93
ATOM     93  O   UNL A   1      30.362  23.880  22.696  1.00  0.00    -0.392 OA
ATOM     94  H   UNL A   1      29.763  23.772  23.452  1.00  0.00     0.211 HD
ENDBRANCH  88  93
ENDBRANCH  77  86
ENDBRANCH  74  77
ENDBRANCH  72  73
ENDBRANCH  71  72
ENDBRANCH  70  71
ENDBRANCH   1  70
TORSDOF 20
ENDMDL
MODEL 2
REMARK VINA RESULT:     -10.6      6.107     11.632
REMARK SMILES O=C(NCCCCCCNC(=O)[C@H](Cc1ccc(Br)cc1)[C@H]1CS(=O)(=O)C[C@@H]1O)c1ccc(-c2c3nc(c(-c4ccc(S(=O)(=O)[O-])cc4)c4ccc([nH]4)c(-c4ccc(S(=O)(=O)[O-])cc4)c4nc(c(-c5ccc(S(=O)(=O)[O-])cc5)c5ccc2[nH]5)C=C4)C=C3)cc1
REMARK SMILES IDX 6 1 5 2 4 3 3 4 1 5 2 6 30 8 31 9 89 10 32 11 88 12 33 13
REMARK SMILES IDX 34 14 35 15 82 16 36 17 87 18 81 19 83 20 37 21 86 22 80 23
REMARK SMILES IDX 79 24 38 26 68 27 49 28 67 29 50 30 53 31 66 32 84 33 51 34
REMARK SMILES IDX 52 35 65 37 85 38 54 39 39 40 40 41 48 42 41 43 47 44 42 45
REMARK SMILES IDX 43 46 44 47 45 48 46 49 69 50 70 51 78 52 71 53 77 54 72 55
REMARK SMILES IDX 73 56 74 57 75 58 76 59 55 60 56 61 64 62 57 63 63 64 58 65
REMARK SMILES IDX 59 66 60 67 61 68 62 69 7 70 8 71 9 72 10 73 11 74 12 76
REMARK SMILES IDX 13 77 14 78 15 79 16 80 21 81 17 82 20 83 18 84 19 85 22 86
REMARK SMILES IDX 23 87 28 88 24 89 27 90 25 91 26 92 29 93
REMARK H PARENT 3 7 83 25 53 36 10 75 29 94
REMARK Flexibility Score: inf
ROOT
ATOM      1  C   UNL A   1      35.615  31.867  27.763  1.00  0.00     0.002 C 
ENDROOT
BRANCH   1   2
ATOM      2  C   UNL A   1      35.489  32.991  28.792  1.00  0.00     0.021 C 
BRANCH   2   3
ATOM      3  C   UNL A   1      36.465  32.944  29.958  1.00  0.00     0.116 C 
BRANCH   3   4
ATOM      4  N   UNL A   1      36.112  31.942  30.951  1.00  0.00    -0.352 N 
ATOM      5  O   UNL A   1      36.186  29.977  32.046  1.00  0.00    -0.269 OA
ATOM      6  C   UNL A   1      36.739  30.764  31.283  1.00  0.00     0.251 C 
ATOM      7  H   UNL A   1      35.296  32.138  31.466  1.00  0.00     0.163 HD
BRANCH   6   8
ATOM      8  C   UNL A   1      38.065  30.435  30.710  1.00  0.00     0.039 A 
ATOM      9  C   UNL A   1      38.223  30.268  29.335  1.00  0.00     0.014 A 
ATOM     10  C   UNL A   1      39.173  30.312  31.557  1.00  0.00     0.014 A 
ATOM     11  C   UNL A   1      39.435  29.818  28.829  1.00  0.00     0.010 A 
ATOM     12  C   UNL A   1      40.424  29.970  31.029  1.00  0.00     0.010 A 
ATOM     13  C   UNL A   1      40.560  29.692  29.661  1.00  0.00    -0.014 A 
BRANCH  13  14
ATOM     14  C   UNL A   1      41.869  29.366  29.035  1.00  0.00     0.031 A 
ATOM     15  C   UNL A   1      42.987  30.368  28.960  1.00  0.00     0.074 A 
ATOM     16  C   UNL A   1      42.059  28.105  28.592  1.00  0.00     0.049 A 
ATOM     17  N   UNL A   1      44.211  30.197  28.527  1.00  0.00    -0.248 NA
ATOM     18  C   UNL A   1      42.701  31.738  29.419  1.00  0.00     0.031 C 
ATOM     19  C   UNL A   1      41.037  27.051  28.591  1.00  0.00     0.029 A 
ATOM     20  N   UNL A   1      43.173  27.480  28.099  1.00  0.00    -0.354 N 
ATOM     21  C   UNL A   1      44.841  31.430  28.657  1.00  0.00     0.074 A 
ATOM     22  C   UNL A   1      43.853  32.351  29.176  1.00  0.00     0.031 C 
ATOM     23  C   UNL A   1      41.590  25.899  28.192  1.00  0.00     0.029 A 
ATOM     24  C   UNL A   1      42.981  26.144  27.834  1.00  0.00     0.049 A 
ATOM     25  H   UNL A   1      44.030  27.942  27.949  1.00  0.00     0.167 HD
ATOM     26  C   UNL A   1      46.128  31.757  28.380  1.00  0.00     0.031 A 
ATOM     27  C   UNL A   1      43.820  25.215  27.340  1.00  0.00     0.031 A 
ATOM     28  C   UNL A   1      47.102  30.835  27.852  1.00  0.00     0.049 A 
ATOM     29  C   UNL A   1      45.231  25.614  27.022  1.00  0.00     0.074 A 
ATOM     30  C   UNL A   1      48.431  31.070  27.541  1.00  0.00     0.029 A 
ATOM     31  N   UNL A   1      46.857  29.502  27.557  1.00  0.00    -0.354 N 
ATOM     32  N   UNL A   1      45.809  26.781  27.175  1.00  0.00    -0.248 NA
ATOM     33  C   UNL A   1      46.102  24.572  26.466  1.00  0.00     0.031 C 
ATOM     34  C   UNL A   1      48.974  29.895  27.011  1.00  0.00     0.029 A 
ATOM     35  C   UNL A   1      48.003  28.907  27.050  1.00  0.00     0.049 A 
ATOM     36  H   UNL A   1      45.995  29.044  27.689  1.00  0.00     0.167 HD
ATOM     37  C   UNL A   1      47.118  26.610  26.742  1.00  0.00     0.074 A 
ATOM     38  C   UNL A   1      47.253  25.220  26.358  1.00  0.00     0.031 C 
ATOM     39  C   UNL A   1      48.115  27.526  26.658  1.00  0.00     0.031 A 
BRANCH  26  40
ATOM     40  C   UNL A   1      46.562  33.180  28.634  1.00  0.00    -0.014 A 
ATOM     41  C   UNL A   1      46.440  34.164  27.636  1.00  0.00     0.010 A 
ATOM     42  C   UNL A   1      47.030  33.556  29.907  1.00  0.00     0.010 A 
ATOM     43  C   UNL A   1      46.801  35.489  27.897  1.00  0.00     0.020 A 
ATOM     44  C   UNL A   1      47.368  34.886  30.181  1.00  0.00     0.020 A 
ATOM     45  C   UNL A   1      47.262  35.841  29.168  1.00  0.00     0.054 A 
BRANCH  45  46
ATOM     46  S   UNL A   1      47.687  37.578  29.487  1.00  0.00     0.124 S 
ATOM     47  O   UNL A   1      46.618  37.987  30.395  1.00  0.00    -0.237 OA
ATOM     48  O   UNL A   1      49.014  37.477  30.088  1.00  0.00    -0.237 OA
ATOM     49  O   UNL A   1      47.650  38.194  28.164  1.00  0.00    -0.744 OA
ENDBRANCH  45  46
ENDBRANCH  26  40
BRANCH  27  50
ATOM     50  C   UNL A   1      43.327  23.834  27.081  1.00  0.00    -0.014 A 
ATOM     51  C   UNL A   1      42.856  23.454  25.813  1.00  0.00     0.010 A 
ATOM     52  C   UNL A   1      43.339  22.883  28.119  1.00  0.00     0.010 A 
ATOM     53  C   UNL A   1      42.378  22.158  25.596  1.00  0.00     0.020 A 
ATOM     54  C   UNL A   1      42.899  21.578  27.897  1.00  0.00     0.020 A 
ATOM     55  C   UNL A   1      42.403  21.228  26.641  1.00  0.00     0.054 A 
BRANCH  55  56
ATOM     56  S   UNL A   1      41.805  19.543  26.334  1.00  0.00     0.124 S 
ATOM     57  O   UNL A   1      40.371  19.755  26.182  1.00  0.00    -0.237 OA
ATOM     58  O   UNL A   1      42.525  19.169  25.118  1.00  0.00    -0.237 OA
ATOM     59  O   UNL A   1      42.208  18.814  27.534  1.00  0.00    -0.744 OA
ENDBRANCH  55  56
ENDBRANCH  27  50
BRANCH  39  60
ATOM     60  C   UNL A   1      49.444  27.035  26.146  1.00  0.00    -0.014 A 
ATOM     61  C   UNL A   1      50.400  26.481  27.016  1.00  0.00     0.010 A 
ATOM     62  C   UNL A   1      49.739  27.127  24.774  1.00  0.00     0.010 A 
ATOM     63  C   UNL A   1      51.647  26.079  26.533  1.00  0.00     0.020 A 
ATOM     64  C   UNL A   1      50.973  26.695  24.281  1.00  0.00     0.020 A 
ATOM     65  C   UNL A   1      51.928  26.195  25.168  1.00  0.00     0.054 A 
BRANCH  65  66
ATOM     66  S   UNL A   1      53.551  25.660  24.562  1.00  0.00     0.124 S 
ATOM     67  O   UNL A   1      54.459  26.420  25.417  1.00  0.00    -0.237 OA
ATOM     68  O   UNL A   1      53.522  24.218  24.800  1.00  0.00    -0.237 OA
ATOM     69  O   UNL A   1      53.543  26.053  23.156  1.00  0.00    -0.744 OA
ENDBRANCH  65  66
ENDBRANCH  39  60
ENDBRANCH  13  14
ENDBRANCH   6   8
ENDBRANCH   3   4
ENDBRANCH   2   3
ENDBRANCH   1   2
BRANCH   1  70
ATOM     70  C   UNL A   1      34.635  30.690  27.875  1.00  0.00     0.002 C 
BRANCH  70  71
ATOM     71  C   UNL A   1      35.120  29.311  27.423  1.00  0.00     0.021 C 
BRANCH  71  72
ATOM     72  C   UNL A   1      34.195  28.525  26.511  1.00  0.00     0.116 C 
BRANCH  72  73
ATOM     73  N   UNL A   1      32.880  28.195  26.976  1.00  0.00    -0.356 N 
ATOM     74  C   UNL A   1      32.086  27.173  26.522  1.00  0.00     0.223 C 
ATOM     75  H   UNL A   1      32.510  28.758  27.694  1.00  0.00     0.163 HD
ATOM     76  O   UNL A   1      31.178  26.809  27.271  1.00  0.00    -0.275 OA
BRANCH  74  77
ATOM     77  C   UNL A   1      32.268  26.587  25.094  1.00  0.00     0.089 C 
BRANCH  77  78
ATOM     78  C   UNL A   1      30.837  26.367  24.478  1.00  0.00     0.049 C 
BRANCH  78  79
ATOM     79  C   UNL A   1      30.123  27.552  23.882  1.00  0.00    -0.047 A 
ATOM     80  C   UNL A   1      28.786  27.433  23.476  1.00  0.00     0.005 A 
ATOM     81  C   UNL A   1      30.729  28.816  23.872  1.00  0.00     0.005 A 
ATOM     82  C   UNL A   1      28.063  28.561  23.084  1.00  0.00     0.016 A 
ATOM     83  C   UNL A   1      30.006  29.945  23.481  1.00  0.00     0.016 A 
ATOM     84  C   UNL A   1      28.674  29.812  23.094  1.00  0.00     0.017 A 
ATOM     85  Br  UNL A   1      27.681  31.344  22.603  1.00  0.00    -0.051 Br
ENDBRANCH  78  79
ENDBRANCH  77  78
BRANCH  77  86
ATOM     86  C   UNL A   1      33.004  25.214  24.865  1.00  0.00     0.047 C 
ATOM     87  C   UNL A   1      33.464  24.609  26.210  1.00  0.00     0.144 C 
ATOM     88  C   UNL A   1      32.426  24.045  24.048  1.00  0.00     0.134 C 
ATOM     89  S   UNL A   1      32.342  23.289  26.596  1.00  0.00     0.153 S 
ATOM     90  C   UNL A   1      31.843  22.938  24.931  1.00  0.00     0.169 C 
ATOM     91  O   UNL A   1      33.078  22.173  27.134  1.00  0.00    -0.229 OA
ATOM     92  O   UNL A   1      31.204  23.859  27.300  1.00  0.00    -0.229 OA
BRANCH  88  93
ATOM     93  O   UNL A   1      33.552  23.455  23.375  1.00  0.00    -0.392 OA
ATOM     94  H   UNL A   1      34.373  23.838  23.721  1.00  0.00     0.211 HD
ENDBRANCH  88  93
ENDBRANCH  77  86
ENDBRANCH  74  77
ENDBRANCH  72  73
ENDBRANCH  71  72
ENDBRANCH  70  71
ENDBRANCH   1  70
TORSDOF 20
ENDMDL
MODEL 3
REMARK VINA RESULT:     -10.3      0.994      8.141
REMARK SMILES O=C(NCCCCCCNC(=O)[C@H](Cc1ccc(Br)cc1)[C@H]1CS(=O)(=O)C[C@@H]1O)c1ccc(-c2c3nc(c(-c4ccc(S(=O)(=O)[O-])cc4)c4ccc([nH]4)c(-c4ccc(S(=O)(=O)[O-])cc4)c4nc(c(-c5ccc(S(=O)(=O)[O-])cc5)c5ccc2[nH]5)C=C4)C=C3)cc1
REMARK SMILES IDX 6 1 5 2 4 3 3 4 1 5 2 6 30 8 31 9 89 10 32 11 88 12 33 13
REMARK SMILES IDX 34 14 35 15 82 16 36 17 87 18 81 19 83 20 37 21 86 22 80 23
REMARK SMILES IDX 79 24 38 26 68 27 49 28 67 29 50 30 53 31 66 32 84 33 51 34
REMARK SMILES IDX 52 35 65 37 85 38 54 39 39 40 40 41 48 42 41 43 47 44 42 45
REMARK SMILES IDX 43 46 44 47 45 48 46 49 69 50 70 51 78 52 71 53 77 54 72 55
REMARK SMILES IDX 73 56 74 57 75 58 76 59 55 60 56 61 64 62 57 63 63 64 58 65
REMARK SMILES IDX 59 66 60 67 61 68 62 69 7 70 8 71 9 72 10 73 11 74 12 76
REMARK SMILES IDX 13 77 14 78 15 79 16 80 21 81 17 82 20 83 18 84 19 85 22 86
REMARK SMILES IDX 23 87 28 88 24 89 27 90 25 91 26 92 29 93
REMARK H PARENT 3 7 83 25 53 36 10 75 29 94
REMARK Flexibility Score: inf
ROOT
ATOM      1  C   UNL A   1      38.875  23.457  26.879  1.00  0.00     0.002 C 
ENDROOT
BRANCH   1   2
ATOM      2  C   UNL A   1      40.168  22.765  27.312  1.00  0.00     0.021 C 
BRANCH   2   3
ATOM      3  C   UNL A   1      41.394  23.655  27.445  1.00  0.00     0.116 C 
BRANCH   3   4
ATOM      4  N   UNL A   1      41.655  24.440  26.249  1.00  0.00    -0.352 N 
ATOM      5  O   UNL A   1      41.729  26.259  24.925  1.00  0.00    -0.269 OA
ATOM      6  C   UNL A   1      41.635  25.802  26.061  1.00  0.00     0.251 C 
ATOM      7  H   UNL A   1      41.882  23.914  25.449  1.00  0.00     0.163 HD
BRANCH   6   8
ATOM      8  C   UNL A   1      41.480  26.715  27.217  1.00  0.00     0.039 A 
ATOM      9  C   UNL A   1      40.575  26.424  28.236  1.00  0.00     0.014 A 
ATOM     10  C   UNL A   1      42.268  27.870  27.297  1.00  0.00     0.014 A 
ATOM     11  C   UNL A   1      40.335  27.358  29.236  1.00  0.00     0.010 A 
ATOM     12  C   UNL A   1      42.107  28.756  28.370  1.00  0.00     0.010 A 
ATOM     13  C   UNL A   1      41.118  28.520  29.336  1.00  0.00    -0.014 A 
BRANCH  13  14
ATOM     14  C   UNL A   1      40.927  29.401  30.519  1.00  0.00     0.031 A 
ATOM     15  C   UNL A   1      39.800  30.392  30.600  1.00  0.00     0.074 A 
ATOM     16  C   UNL A   1      41.762  29.237  31.568  1.00  0.00     0.049 A 
ATOM     17  N   UNL A   1      39.456  31.159  31.604  1.00  0.00    -0.248 NA
ATOM     18  C   UNL A   1      38.953  30.554  29.407  1.00  0.00     0.031 C 
ATOM     19  C   UNL A   1      42.909  28.321  31.594  1.00  0.00     0.029 A 
ATOM     20  N   UNL A   1      41.758  29.794  32.819  1.00  0.00    -0.354 N 
ATOM     21  C   UNL A   1      38.359  31.894  31.168  1.00  0.00     0.074 A 
ATOM     22  C   UNL A   1      38.117  31.508  29.794  1.00  0.00     0.031 C 
ATOM     23  C   UNL A   1      43.449  28.326  32.819  1.00  0.00     0.029 A 
ATOM     24  C   UNL A   1      42.742  29.298  33.642  1.00  0.00     0.049 A 
ATOM     25  H   UNL A   1      41.114  30.483  33.102  1.00  0.00     0.167 HD
ATOM     26  C   UNL A   1      37.617  32.798  31.856  1.00  0.00     0.031 A 
ATOM     27  C   UNL A   1      43.059  29.598  34.915  1.00  0.00     0.031 A 
ATOM     28  C   UNL A   1      37.874  33.185  33.220  1.00  0.00     0.049 A 
ATOM     29  C   UNL A   1      42.234  30.620  35.641  1.00  0.00     0.074 A 
ATOM     30  C   UNL A   1      37.178  34.090  34.004  1.00  0.00     0.029 A 
ATOM     31  N   UNL A   1      38.905  32.692  34.007  1.00  0.00    -0.354 N 
ATOM     32  N   UNL A   1      41.187  31.285  35.214  1.00  0.00    -0.248 NA
ATOM     33  C   UNL A   1      42.631  30.930  37.020  1.00  0.00     0.031 C 
ATOM     34  C   UNL A   1      37.819  34.182  35.245  1.00  0.00     0.029 A 
ATOM     35  C   UNL A   1      38.876  33.287  35.259  1.00  0.00     0.049 A 
ATOM     36  H   UNL A   1      39.562  32.017  33.718  1.00  0.00     0.167 HD
ATOM     37  C   UNL A   1      40.794  32.088  36.278  1.00  0.00     0.074 A 
ATOM     38  C   UNL A   1      41.693  31.794  37.376  1.00  0.00     0.031 C 
ATOM     39  C   UNL A   1      39.788  32.995  36.336  1.00  0.00     0.031 A 
BRANCH  26  40
ATOM     40  C   UNL A   1      36.456  33.445  31.141  1.00  0.00    -0.014 A 
ATOM     41  C   UNL A   1      35.294  33.821  31.839  1.00  0.00     0.010 A 
ATOM     42  C   UNL A   1      36.555  33.748  29.770  1.00  0.00     0.010 A 
ATOM     43  C   UNL A   1      34.244  34.463  31.176  1.00  0.00     0.020 A 
ATOM     44  C   UNL A   1      35.517  34.413  29.108  1.00  0.00     0.020 A 
ATOM     45  C   UNL A   1      34.363  34.755  29.814  1.00  0.00     0.054 A 
BRANCH  45  46
ATOM     46  S   UNL A   1      32.997  35.622  28.990  1.00  0.00     0.124 S 
ATOM     47  O   UNL A   1      32.442  34.571  28.141  1.00  0.00    -0.237 OA
ATOM     48  O   UNL A   1      32.155  36.031  30.112  1.00  0.00    -0.237 OA
ATOM     49  O   UNL A   1      33.656  36.714  28.279  1.00  0.00    -0.744 OA
ENDBRANCH  45  46
ENDBRANCH  26  40
BRANCH  27  50
ATOM     50  C   UNL A   1      44.236  28.952  35.559  1.00  0.00    -0.014 A 
ATOM     51  C   UNL A   1      45.524  29.498  35.438  1.00  0.00     0.010 A 
ATOM     52  C   UNL A   1      44.060  27.776  36.313  1.00  0.00     0.010 A 
ATOM     53  C   UNL A   1      46.619  28.863  36.033  1.00  0.00     0.020 A 
ATOM     54  C   UNL A   1      45.143  27.160  36.940  1.00  0.00     0.020 A 
ATOM     55  C   UNL A   1      46.421  27.698  36.781  1.00  0.00     0.054 A 
BRANCH  55  56
ATOM     56  S   UNL A   1      47.848  26.903  37.569  1.00  0.00     0.124 S 
ATOM     57  O   UNL A   1      47.210  26.077  38.587  1.00  0.00    -0.237 OA
ATOM     58  O   UNL A   1      48.462  26.181  36.457  1.00  0.00    -0.237 OA
ATOM     59  O   UNL A   1      48.629  28.030  38.075  1.00  0.00    -0.744 OA
ENDBRANCH  55  56
ENDBRANCH  27  50
BRANCH  39  60
ATOM     60  C   UNL A   1      39.602  33.718  37.644  1.00  0.00    -0.014 A 
ATOM     61  C   UNL A   1      40.163  34.990  37.859  1.00  0.00     0.010 A 
ATOM     62  C   UNL A   1      38.854  33.117  38.672  1.00  0.00     0.010 A 
ATOM     63  C   UNL A   1      40.025  35.624  39.096  1.00  0.00     0.020 A 
ATOM     64  C   UNL A   1      38.685  33.762  39.900  1.00  0.00     0.020 A 
ATOM     65  C   UNL A   1      39.292  35.001  40.111  1.00  0.00     0.054 A 
BRANCH  65  66
ATOM     66  S   UNL A   1      39.120  35.846  41.707  1.00  0.00     0.124 S 
ATOM     67  O   UNL A   1      39.312  37.245  41.331  1.00  0.00    -0.237 OA
ATOM     68  O   UNL A   1      37.764  35.485  42.116  1.00  0.00    -0.237 OA
ATOM     69  O   UNL A   1      40.185  35.267  42.522  1.00  0.00    -0.744 OA
ENDBRANCH  65  66
ENDBRANCH  39  60
ENDBRANCH  13  14
ENDBRANCH   6   8
ENDBRANCH   3   4
ENDBRANCH   2   3
ENDBRANCH   1   2
BRANCH   1  70
ATOM     70  C   UNL A   1      38.130  22.875  25.669  1.00  0.00     0.002 C 
BRANCH  70  71
ATOM     71  C   UNL A   1      36.711  22.347  25.891  1.00  0.00     0.021 C 
BRANCH  71  72
ATOM     72  C   UNL A   1      35.584  23.361  25.812  1.00  0.00     0.116 C 
BRANCH  72  73
ATOM     73  N   UNL A   1      34.472  23.231  26.707  1.00  0.00    -0.356 N 
ATOM     74  C   UNL A   1      33.163  23.536  26.433  1.00  0.00     0.223 C 
ATOM     75  H   UNL A   1      34.667  22.889  27.610  1.00  0.00     0.163 HD
ATOM     76  O   UNL A   1      32.315  23.019  27.162  1.00  0.00    -0.275 OA
BRANCH  74  77
ATOM     77  C   UNL A   1      32.791  24.563  25.327  1.00  0.00     0.089 C 
BRANCH  77  78
ATOM     78  C   UNL A   1      31.827  25.629  25.965  1.00  0.00     0.049 C 
BRANCH  78  79
ATOM     79  C   UNL A   1      32.366  27.009  26.241  1.00  0.00    -0.047 A 
ATOM     80  C   UNL A   1      31.584  27.939  26.942  1.00  0.00     0.005 A 
ATOM     81  C   UNL A   1      33.698  27.325  25.942  1.00  0.00     0.005 A 
ATOM     82  C   UNL A   1      32.132  29.155  27.353  1.00  0.00     0.016 A 
ATOM     83  C   UNL A   1      34.248  28.541  26.354  1.00  0.00     0.016 A 
ATOM     84  C   UNL A   1      33.462  29.448  27.063  1.00  0.00     0.017 A 
ATOM     85  Br  UNL A   1      34.215  31.078  27.657  1.00  0.00    -0.051 Br
ENDBRANCH  78  79
ENDBRANCH  77  78
BRANCH  77  86
ATOM     86  C   UNL A   1      32.054  24.109  24.011  1.00  0.00     0.047 C 
ATOM     87  C   UNL A   1      31.716  25.329  23.125  1.00  0.00     0.144 C 
ATOM     88  C   UNL A   1      32.573  23.019  23.057  1.00  0.00     0.134 C 
ATOM     89  S   UNL A   1      32.881  25.335  21.786  1.00  0.00     0.153 S 
ATOM     90  C   UNL A   1      33.241  23.598  21.807  1.00  0.00     0.169 C 
ATOM     91  O   UNL A   1      32.206  25.682  20.561  1.00  0.00    -0.229 OA
ATOM     92  O   UNL A   1      34.069  26.049  22.228  1.00  0.00    -0.229 OA
BRANCH  88  93
ATOM     93  O   UNL A   1      31.400  22.330  22.589  1.00  0.00    -0.392 OA
ATOM     94  H   UNL A   1      30.978  21.870  23.331  1.00  0.00     0.211 HD
ENDBRANCH  88  93
ENDBRANCH  77  86
ENDBRANCH  74  77
ENDBRANCH  72  73
ENDBRANCH  71  72
ENDBRANCH  70  71
ENDBRANCH   1  70
TORSDOF 20
ENDMDL
