MODEL 1
REMARK VINA RESULT:     -10.6      0.000      0.000
REMARK SMILES Cn1ccc(NC(=O)[C@@H]2CCCC[C@@H]2C(=O)NCCCCCCNC(=O)c2ccc(-c3c4nc(c(-c5ccc(S(=O)(=O)[O-])cc5)c5ccc([nH]5)c(-c5ccc(S(=O)(=O)[O-])cc5)c5nc(c(-c6ccc(S(=O)(=O)[O-])cc6)c6ccc3[nH]6)C=C5)C=C4)cc2)n1
REMARK SMILES IDX 21 1 20 2 19 3 18 4 17 5 15 6 16 7 14 9 9 10 10 11 11 12
REMARK SMILES IDX 13 13 12 14 7 15 6 16 8 18 5 19 1 20 2 21 3 22 87 23 4 24
REMARK SMILES IDX 22 25 23 26 24 27 25 28 26 30 27 31 28 32 86 33 29 34 85 35
REMARK SMILES IDX 30 36 31 37 32 38 79 39 33 40 84 41 78 42 80 43 34 44 83 45
REMARK SMILES IDX 77 46 76 47 35 49 65 50 46 51 64 52 47 53 50 54 63 55 81 56
REMARK SMILES IDX 48 57 49 58 62 60 82 61 51 62 36 63 37 64 45 65 38 66 44 67
REMARK SMILES IDX 39 68 40 69 41 70 42 71 43 72 66 73 67 74 75 75 68 76 74 77
REMARK SMILES IDX 69 78 70 79 71 80 72 81 73 82 52 83 53 84 61 85 54 86 60 87
REMARK SMILES IDX 55 88 56 89 57 90 58 91 59 92
REMARK H PARENT 17 8 6 17 24 29 80 48 50 59
REMARK Flexibility Score: inf
ROOT
ATOM      1  C   UNL A   1      31.505  27.949  26.085  1.00  0.00     0.002 C 
ENDROOT
BRANCH   1   2
ATOM      2  C   UNL A   1      30.686  26.776  25.536  1.00  0.00     0.002 C 
BRANCH   2   3
ATOM      3  C   UNL A   1      30.697  25.534  26.432  1.00  0.00     0.021 C 
BRANCH   3   4
ATOM      4  C   UNL A   1      30.830  24.238  25.637  1.00  0.00     0.116 C 
BRANCH   4   5
ATOM      5  N   UNL A   1      31.883  23.422  26.187  1.00  0.00    -0.356 N 
ATOM      6  C   UNL A   1      33.200  23.342  25.873  1.00  0.00     0.223 C 
ATOM      7  O   UNL A   1      33.859  22.551  26.552  1.00  0.00    -0.275 OA
ATOM      8  H   UNL A   1      31.598  22.820  26.911  1.00  0.00     0.163 HD
BRANCH   6   9
ATOM      9  C   UNL A   1      33.836  24.260  24.812  1.00  0.00     0.091 C 
ATOM     10  C   UNL A   1      34.194  23.649  23.433  1.00  0.00     0.091 C 
ATOM     11  C   UNL A   1      35.133  22.452  23.650  1.00  0.00     0.014 C 
ATOM     12  C   UNL A   1      36.453  22.917  24.263  1.00  0.00     0.001 C 
ATOM     13  C   UNL A   1      35.158  24.847  25.371  1.00  0.00     0.014 C 
ATOM     14  C   UNL A   1      36.283  23.808  25.494  1.00  0.00     0.001 C 
BRANCH  10  15
ATOM     15  C   UNL A   1      33.078  23.330  22.435  1.00  0.00     0.229 C 
ATOM     16  N   UNL A   1      32.399  24.300  21.754  1.00  0.00    -0.309 N 
ATOM     17  H   UNL A   1      31.732  23.974  21.108  1.00  0.00     0.171 HD
ATOM     18  O   UNL A   1      32.742  22.160  22.210  1.00  0.00    -0.274 OA
BRANCH  16  19
ATOM     19  C   UNL A   1      32.514  25.667  21.840  1.00  0.00     0.154 A 
ATOM     20  C   UNL A   1      34.360  28.575  22.351  1.00  0.00     0.173 C 
ATOM     21  N   UNL A   1      33.317  27.601  22.139  1.00  0.00    -0.274 N 
ATOM     22  C   UNL A   1      31.982  27.758  22.352  1.00  0.00     0.110 A 
ATOM     23  N   UNL A   1      33.656  26.349  21.790  1.00  0.00    -0.155 NA
ATOM     24  C   UNL A   1      31.420  26.529  22.099  1.00  0.00     0.068 A 
ENDBRANCH  16  19
ENDBRANCH  10  15
ENDBRANCH   6   9
ENDBRANCH   4   5
ENDBRANCH   3   4
ENDBRANCH   2   3
ENDBRANCH   1   2
BRANCH   1  25
ATOM     25  C   UNL A   1      32.946  27.607  26.479  1.00  0.00     0.021 C 
BRANCH  25  26
ATOM     26  C   UNL A   1      33.999  28.564  25.923  1.00  0.00     0.116 C 
BRANCH  26  27
ATOM     27  N   UNL A   1      33.766  29.933  26.361  1.00  0.00    -0.352 N 
ATOM     28  C   UNL A   1      34.374  30.645  27.359  1.00  0.00     0.251 C 
ATOM     29  H   UNL A   1      33.068  30.418  25.866  1.00  0.00     0.163 HD
ATOM     30  O   UNL A   1      33.868  31.700  27.755  1.00  0.00    -0.269 OA
BRANCH  28  31
ATOM     31  C   UNL A   1      35.622  30.153  27.972  1.00  0.00     0.039 A 
ATOM     32  C   UNL A   1      36.822  30.279  27.267  1.00  0.00     0.014 A 
ATOM     33  C   UNL A   1      35.606  29.553  29.235  1.00  0.00     0.014 A 
ATOM     34  C   UNL A   1      38.018  29.869  27.861  1.00  0.00     0.010 A 
ATOM     35  C   UNL A   1      36.805  29.204  29.852  1.00  0.00     0.010 A 
ATOM     36  C   UNL A   1      38.023  29.367  29.174  1.00  0.00    -0.014 A 
BRANCH  36  37
ATOM     37  C   UNL A   1      39.296  29.051  29.868  1.00  0.00     0.031 A 
ATOM     38  C   UNL A   1      39.750  29.870  31.044  1.00  0.00     0.074 A 
ATOM     39  C   UNL A   1      40.078  28.064  29.387  1.00  0.00     0.049 A 
ATOM     40  N   UNL A   1      40.860  29.775  31.732  1.00  0.00    -0.248 NA
ATOM     41  C   UNL A   1      38.855  30.949  31.492  1.00  0.00     0.031 C 
ATOM     42  C   UNL A   1      39.765  27.226  28.226  1.00  0.00     0.029 A 
ATOM     43  N   UNL A   1      41.302  27.605  29.805  1.00  0.00    -0.354 N 
ATOM     44  C   UNL A   1      40.802  30.784  32.686  1.00  0.00     0.074 A 
ATOM     45  C   UNL A   1      39.569  31.507  32.461  1.00  0.00     0.031 C 
ATOM     46  C   UNL A   1      40.758  26.342  28.040  1.00  0.00     0.029 A 
ATOM     47  C   UNL A   1      41.797  26.578  29.036  1.00  0.00     0.049 A 
ATOM     48  H   UNL A   1      41.779  27.975  30.582  1.00  0.00     0.167 HD
ATOM     49  C   UNL A   1      41.688  31.073  33.668  1.00  0.00     0.031 A 
ATOM     50  C   UNL A   1      42.962  25.907  29.115  1.00  0.00     0.031 A 
ATOM     51  C   UNL A   1      42.914  30.350  33.888  1.00  0.00     0.049 A 
ATOM     52  C   UNL A   1      43.939  26.261  30.201  1.00  0.00     0.074 A 
ATOM     53  C   UNL A   1      43.850  30.529  34.893  1.00  0.00     0.029 A 
ATOM     54  N   UNL A   1      43.379  29.316  33.090  1.00  0.00    -0.354 N 
ATOM     55  N   UNL A   1      43.833  27.172  31.138  1.00  0.00    -0.248 NA
ATOM     56  C   UNL A   1      45.189  25.490  30.246  1.00  0.00     0.031 C 
ATOM     57  C   UNL A   1      44.907  29.641  34.670  1.00  0.00     0.029 A 
ATOM     58  C   UNL A   1      44.604  28.869  33.560  1.00  0.00     0.049 A 
ATOM     59  H   UNL A   1      42.910  28.953  32.305  1.00  0.00     0.167 HD
ATOM     60  C   UNL A   1      44.995  27.074  31.895  1.00  0.00     0.074 A 
ATOM     61  C   UNL A   1      45.779  25.999  31.319  1.00  0.00     0.031 C 
ATOM     62  C   UNL A   1      45.378  27.806  32.969  1.00  0.00     0.031 A 
BRANCH  49  63
ATOM     63  C   UNL A   1      41.370  32.229  34.580  1.00  0.00    -0.014 A 
ATOM     64  C   UNL A   1      41.783  33.537  34.265  1.00  0.00     0.010 A 
ATOM     65  C   UNL A   1      40.605  32.016  35.741  1.00  0.00     0.010 A 
ATOM     66  C   UNL A   1      41.469  34.602  35.112  1.00  0.00     0.020 A 
ATOM     67  C   UNL A   1      40.266  33.083  36.578  1.00  0.00     0.020 A 
ATOM     68  C   UNL A   1      40.713  34.368  36.266  1.00  0.00     0.054 A 
BRANCH  68  69
ATOM     69  S   UNL A   1      40.297  35.775  37.332  1.00  0.00     0.124 S 
ATOM     70  O   UNL A   1      41.594  36.096  37.926  1.00  0.00    -0.237 OA
ATOM     71  O   UNL A   1      39.781  36.756  36.382  1.00  0.00    -0.237 OA
ATOM     72  O   UNL A   1      39.308  35.228  38.259  1.00  0.00    -0.744 OA
ENDBRANCH  68  69
ENDBRANCH  49  63
BRANCH  50  73
ATOM     73  C   UNL A   1      43.265  24.830  28.133  1.00  0.00    -0.014 A 
ATOM     74  C   UNL A   1      43.994  25.112  26.965  1.00  0.00     0.010 A 
ATOM     75  C   UNL A   1      42.839  23.511  28.373  1.00  0.00     0.010 A 
ATOM     76  C   UNL A   1      44.280  24.097  26.048  1.00  0.00     0.020 A 
ATOM     77  C   UNL A   1      43.147  22.489  27.471  1.00  0.00     0.020 A 
ATOM     78  C   UNL A   1      43.857  22.791  26.308  1.00  0.00     0.054 A 
BRANCH  78  79
ATOM     79  S   UNL A   1      44.287  21.477  25.132  1.00  0.00     0.124 S 
ATOM     80  O   UNL A   1      45.636  21.121  25.557  1.00  0.00    -0.237 OA
ATOM     81  O   UNL A   1      43.256  20.475  25.386  1.00  0.00    -0.237 OA
ATOM     82  O   UNL A   1      44.192  22.139  23.832  1.00  0.00    -0.744 OA
ENDBRANCH  78  79
ENDBRANCH  50  73
BRANCH  62  83
ATOM     83  C   UNL A   1      46.699  27.461  33.602  1.00  0.00    -0.014 A 
ATOM     84  C   UNL A   1      47.885  28.105  33.207  1.00  0.00     0.010 A 
ATOM     85  C   UNL A   1      46.747  26.512  34.640  1.00  0.00     0.010 A 
ATOM     86  C   UNL A   1      49.100  27.783  33.816  1.00  0.00     0.020 A 
ATOM     87  C   UNL A   1      47.956  26.207  35.270  1.00  0.00     0.020 A 
ATOM     88  C   UNL A   1      49.127  26.835  34.845  1.00  0.00     0.054 A 
BRANCH  88  89
ATOM     89  S   UNL A   1      50.711  26.464  35.647  1.00  0.00     0.124 S 
ATOM     90  O   UNL A   1      51.140  25.264  34.932  1.00  0.00    -0.237 OA
ATOM     91  O   UNL A   1      51.496  27.668  35.381  1.00  0.00    -0.237 OA
ATOM     92  O   UNL A   1      50.350  26.260  37.048  1.00  0.00    -0.744 OA
ENDBRANCH  88  89
ENDBRANCH  62  83
ENDBRANCH  36  37
ENDBRANCH  28  31
ENDBRANCH  26  27
ENDBRANCH  25  26
ENDBRANCH   1  25
TORSDOF 18
ENDMDL
MODEL 2
REMARK VINA RESULT:     -10.6      2.669      3.856
REMARK SMILES Cn1ccc(NC(=O)[C@@H]2CCCC[C@@H]2C(=O)NCCCCCCNC(=O)c2ccc(-c3c4nc(c(-c5ccc(S(=O)(=O)[O-])cc5)c5ccc([nH]5)c(-c5ccc(S(=O)(=O)[O-])cc5)c5nc(c(-c6ccc(S(=O)(=O)[O-])cc6)c6ccc3[nH]6)C=C5)C=C4)cc2)n1
REMARK SMILES IDX 21 1 20 2 19 3 18 4 17 5 15 6 16 7 14 9 9 10 10 11 11 12
REMARK SMILES IDX 13 13 12 14 7 15 6 16 8 18 5 19 1 20 2 21 3 22 87 23 4 24
REMARK SMILES IDX 22 25 23 26 24 27 25 28 26 30 27 31 28 32 86 33 29 34 85 35
REMARK SMILES IDX 30 36 31 37 32 38 79 39 33 40 84 41 78 42 80 43 34 44 83 45
REMARK SMILES IDX 77 46 76 47 35 49 65 50 46 51 64 52 47 53 50 54 63 55 81 56
REMARK SMILES IDX 48 57 49 58 62 60 82 61 51 62 36 63 37 64 45 65 38 66 44 67
REMARK SMILES IDX 39 68 40 69 41 70 42 71 43 72 66 73 67 74 75 75 68 76 74 77
REMARK SMILES IDX 69 78 70 79 71 80 72 81 73 82 52 83 53 84 61 85 54 86 60 87
REMARK SMILES IDX 55 88 56 89 57 90 58 91 59 92
REMARK H PARENT 17 8 6 17 24 29 80 48 50 59
REMARK Flexibility Score: inf
ROOT
ATOM      1  C   UNL A   1      31.608  28.421  25.404  1.00  0.00     0.002 C 
ENDROOT
BRANCH   1   2
ATOM      2  C   UNL A   1      31.000  27.184  24.734  1.00  0.00     0.002 C 
BRANCH   2   3
ATOM      3  C   UNL A   1      31.591  25.858  25.218  1.00  0.00     0.021 C 
BRANCH   3   4
ATOM      4  C   UNL A   1      32.632  25.292  24.257  1.00  0.00     0.116 C 
BRANCH   4   5
ATOM      5  N   UNL A   1      33.923  25.236  24.896  1.00  0.00    -0.356 N 
ATOM      6  C   UNL A   1      34.854  24.251  24.930  1.00  0.00     0.223 C 
ATOM      7  O   UNL A   1      35.885  24.518  25.551  1.00  0.00    -0.275 OA
ATOM      8  H   UNL A   1      34.169  26.050  25.392  1.00  0.00     0.163 HD
BRANCH   6   9
ATOM      9  C   UNL A   1      34.668  22.934  24.153  1.00  0.00     0.091 C 
ATOM     10  C   UNL A   1      34.281  21.661  24.947  1.00  0.00     0.091 C 
ATOM     11  C   UNL A   1      35.332  21.422  26.043  1.00  0.00     0.014 C 
ATOM     12  C   UNL A   1      36.695  21.132  25.416  1.00  0.00     0.001 C 
ATOM     13  C   UNL A   1      35.987  22.588  23.414  1.00  0.00     0.014 C 
ATOM     14  C   UNL A   1      37.118  22.150  24.357  1.00  0.00     0.001 C 
BRANCH  10  15
ATOM     15  C   UNL A   1      32.853  21.506  25.477  1.00  0.00     0.229 C 
ATOM     16  N   UNL A   1      32.162  20.331  25.401  1.00  0.00    -0.309 N 
ATOM     17  H   UNL A   1      31.268  20.340  25.813  1.00  0.00     0.171 HD
ATOM     18  O   UNL A   1      32.263  22.461  25.999  1.00  0.00    -0.274 OA
BRANCH  16  19
ATOM     19  C   UNL A   1      32.535  19.137  24.832  1.00  0.00     0.154 A 
ATOM     20  C   UNL A   1      34.187  16.073  24.911  1.00  0.00     0.173 C 
ATOM     21  N   UNL A   1      33.448  17.253  24.532  1.00  0.00    -0.274 N 
ATOM     22  C   UNL A   1      33.208  17.711  23.274  1.00  0.00     0.110 A 
ATOM     23  N   UNL A   1      33.013  18.085  25.492  1.00  0.00    -0.155 NA
ATOM     24  C   UNL A   1      32.552  18.909  23.434  1.00  0.00     0.068 A 
ENDBRANCH  16  19
ENDBRANCH  10  15
ENDBRANCH   6   9
ENDBRANCH   4   5
ENDBRANCH   3   4
ENDBRANCH   2   3
ENDBRANCH   1   2
BRANCH   1  25
ATOM     25  C   UNL A   1      33.045  28.748  24.980  1.00  0.00     0.021 C 
BRANCH  25  26
ATOM     26  C   UNL A   1      34.028  28.898  26.139  1.00  0.00     0.116 C 
BRANCH  26  27
ATOM     27  N   UNL A   1      33.830  30.151  26.853  1.00  0.00    -0.352 N 
ATOM     28  C   UNL A   1      34.568  30.708  27.862  1.00  0.00     0.251 C 
ATOM     29  H   UNL A   1      33.048  30.677  26.568  1.00  0.00     0.163 HD
ATOM     30  O   UNL A   1      34.102  31.645  28.518  1.00  0.00    -0.269 OA
BRANCH  28  31
ATOM     31  C   UNL A   1      35.911  30.185  28.177  1.00  0.00     0.039 A 
ATOM     32  C   UNL A   1      36.917  30.266  27.210  1.00  0.00     0.014 A 
ATOM     33  C   UNL A   1      36.175  29.603  29.421  1.00  0.00     0.014 A 
ATOM     34  C   UNL A   1      38.207  29.828  27.517  1.00  0.00     0.010 A 
ATOM     35  C   UNL A   1      37.475  29.226  29.748  1.00  0.00     0.010 A 
ATOM     36  C   UNL A   1      38.504  29.343  28.802  1.00  0.00    -0.014 A 
BRANCH  36  37
ATOM     37  C   UNL A   1      39.895  28.997  29.187  1.00  0.00     0.031 A 
ATOM     38  C   UNL A   1      40.781  30.015  29.851  1.00  0.00     0.074 A 
ATOM     39  C   UNL A   1      40.381  27.781  28.868  1.00  0.00     0.049 A 
ATOM     40  N   UNL A   1      42.038  29.906  30.201  1.00  0.00    -0.248 NA
ATOM     41  C   UNL A   1      40.187  31.330  30.139  1.00  0.00     0.031 C 
ATOM     42  C   UNL A   1      39.631  26.722  28.186  1.00  0.00     0.029 A 
ATOM     43  N   UNL A   1      41.623  27.231  29.066  1.00  0.00    -0.354 N 
ATOM     44  C   UNL A   1      42.388  31.138  30.741  1.00  0.00     0.074 A 
ATOM     45  C   UNL A   1      41.225  31.992  30.633  1.00  0.00     0.031 C 
ATOM     46  C   UNL A   1      40.421  25.646  28.042  1.00  0.00     0.029 A 
ATOM     47  C   UNL A   1      41.742  25.951  28.579  1.00  0.00     0.049 A 
ATOM     48  H   UNL A   1      42.358  27.709  29.513  1.00  0.00     0.167 HD
ATOM     49  C   UNL A   1      43.567  31.518  31.289  1.00  0.00     0.031 A 
ATOM     50  C   UNL A   1      42.799  25.116  28.556  1.00  0.00     0.031 A 
ATOM     51  C   UNL A   1      44.721  30.664  31.395  1.00  0.00     0.049 A 
ATOM     52  C   UNL A   1      44.103  25.569  29.152  1.00  0.00     0.074 A 
ATOM     53  C   UNL A   1      45.942  30.938  31.987  1.00  0.00     0.029 A 
ATOM     54  N   UNL A   1      44.802  29.374  30.893  1.00  0.00    -0.354 N 
ATOM     55  N   UNL A   1      44.393  26.714  29.722  1.00  0.00    -0.248 NA
ATOM     56  C   UNL A   1      45.219  24.615  29.109  1.00  0.00     0.031 C 
ATOM     57  C   UNL A   1      46.780  29.834  31.793  1.00  0.00     0.029 A 
ATOM     58  C   UNL A   1      46.063  28.851  31.132  1.00  0.00     0.049 A 
ATOM     59  H   UNL A   1      44.072  28.900  30.433  1.00  0.00     0.167 HD
ATOM     60  C   UNL A   1      45.721  26.612  30.122  1.00  0.00     0.074 A 
ATOM     61  C   UNL A   1      46.169  25.286  29.747  1.00  0.00     0.031 C 
ATOM     62  C   UNL A   1      46.498  27.533  30.742  1.00  0.00     0.031 A 
BRANCH  49  63
ATOM     63  C   UNL A   1      43.672  32.927  31.813  1.00  0.00    -0.014 A 
ATOM     64  C   UNL A   1      44.138  33.972  30.994  1.00  0.00     0.010 A 
ATOM     65  C   UNL A   1      43.255  33.220  33.124  1.00  0.00     0.010 A 
ATOM     66  C   UNL A   1      44.217  35.277  31.489  1.00  0.00     0.020 A 
ATOM     67  C   UNL A   1      43.309  34.528  33.614  1.00  0.00     0.020 A 
ATOM     68  C   UNL A   1      43.804  35.546  32.797  1.00  0.00     0.054 A 
BRANCH  68  69
ATOM     69  S   UNL A   1      43.894  37.254  33.403  1.00  0.00     0.124 S 
ATOM     70  O   UNL A   1      43.849  38.017  32.157  1.00  0.00    -0.237 OA
ATOM     71  O   UNL A   1      42.706  37.358  34.246  1.00  0.00    -0.237 OA
ATOM     72  O   UNL A   1      45.168  37.303  34.116  1.00  0.00    -0.744 OA
ENDBRANCH  68  69
ENDBRANCH  49  63
BRANCH  50  73
ATOM     73  C   UNL A   1      42.665  23.765  27.947  1.00  0.00    -0.014 A 
ATOM     74  C   UNL A   1      42.268  22.665  28.725  1.00  0.00     0.010 A 
ATOM     75  C   UNL A   1      42.917  23.578  26.575  1.00  0.00     0.010 A 
ATOM     76  C   UNL A   1      42.139  21.399  28.148  1.00  0.00     0.020 A 
ATOM     77  C   UNL A   1      42.762  22.319  25.989  1.00  0.00     0.020 A 
ATOM     78  C   UNL A   1      42.385  21.234  26.782  1.00  0.00     0.054 A 
BRANCH  78  79
ATOM     79  S   UNL A   1      42.157  19.594  26.040  1.00  0.00     0.124 S 
ATOM     80  O   UNL A   1      43.063  19.649  24.898  1.00  0.00    -0.237 OA
ATOM     81  O   UNL A   1      42.555  18.699  27.123  1.00  0.00    -0.237 OA
ATOM     82  O   UNL A   1      40.733  19.564  25.712  1.00  0.00    -0.744 OA
ENDBRANCH  78  79
ENDBRANCH  50  73
BRANCH  62  83
ATOM     83  C   UNL A   1      47.912  27.133  31.069  1.00  0.00    -0.014 A 
ATOM     84  C   UNL A   1      48.968  27.411  30.185  1.00  0.00     0.010 A 
ATOM     85  C   UNL A   1      48.193  26.511  32.300  1.00  0.00     0.010 A 
ATOM     86  C   UNL A   1      50.277  27.046  30.510  1.00  0.00     0.020 A 
ATOM     87  C   UNL A   1      49.504  26.170  32.642  1.00  0.00     0.020 A 
ATOM     88  C   UNL A   1      50.536  26.427  31.738  1.00  0.00     0.054 A 
BRANCH  88  89
ATOM     89  S   UNL A   1      52.249  26.000  32.155  1.00  0.00     0.124 S 
ATOM     90  O   UNL A   1      52.726  27.231  32.780  1.00  0.00    -0.237 OA
ATOM     91  O   UNL A   1      52.085  24.861  33.056  1.00  0.00    -0.237 OA
ATOM     92  O   UNL A   1      52.851  25.682  30.862  1.00  0.00    -0.744 OA
ENDBRANCH  88  89
ENDBRANCH  62  83
ENDBRANCH  36  37
ENDBRANCH  28  31
ENDBRANCH  26  27
ENDBRANCH  25  26
ENDBRANCH   1  25
TORSDOF 18
ENDMDL
MODEL 3
REMARK VINA RESULT:     -10.6      3.119      8.953
REMARK SMILES Cn1ccc(NC(=O)[C@@H]2CCCC[C@@H]2C(=O)NCCCCCCNC(=O)c2ccc(-c3c4nc(c(-c5ccc(S(=O)(=O)[O-])cc5)c5ccc([nH]5)c(-c5ccc(S(=O)(=O)[O-])cc5)c5nc(c(-c6ccc(S(=O)(=O)[O-])cc6)c6ccc3[nH]6)C=C5)C=C4)cc2)n1
REMARK SMILES IDX 21 1 20 2 19 3 18 4 17 5 15 6 16 7 14 9 9 10 10 11 11 12
REMARK SMILES IDX 13 13 12 14 7 15 6 16 8 18 5 19 1 20 2 21 3 22 87 23 4 24
REMARK SMILES IDX 22 25 23 26 24 27 25 28 26 30 27 31 28 32 86 33 29 34 85 35
REMARK SMILES IDX 30 36 31 37 32 38 79 39 33 40 84 41 78 42 80 43 34 44 83 45
REMARK SMILES IDX 77 46 76 47 35 49 65 50 46 51 64 52 47 53 50 54 63 55 81 56
REMARK SMILES IDX 48 57 49 58 62 60 82 61 51 62 36 63 37 64 45 65 38 66 44 67
REMARK SMILES IDX 39 68 40 69 41 70 42 71 43 72 66 73 67 74 75 75 68 76 74 77
REMARK SMILES IDX 69 78 70 79 71 80 72 81 73 82 52 83 53 84 61 85 54 86 60 87
REMARK SMILES IDX 55 88 56 89 57 90 58 91 59 92
REMARK H PARENT 17 8 6 17 24 29 80 48 50 59
REMARK Flexibility Score: inf
ROOT
ATOM      1  C   UNL A   1      35.382  22.326  23.930  1.00  0.00     0.002 C 
ENDROOT
BRANCH   1   2
ATOM      2  C   UNL A   1      34.044  22.783  23.339  1.00  0.00     0.002 C 
BRANCH   2   3
ATOM      3  C   UNL A   1      32.845  22.561  24.264  1.00  0.00     0.021 C 
BRANCH   3   4
ATOM      4  C   UNL A   1      32.174  23.867  24.679  1.00  0.00     0.116 C 
BRANCH   4   5
ATOM      5  N   UNL A   1      33.143  24.766  25.254  1.00  0.00    -0.356 N 
ATOM      6  C   UNL A   1      33.058  26.084  25.562  1.00  0.00     0.223 C 
ATOM      7  O   UNL A   1      34.068  26.574  26.074  1.00  0.00    -0.275 OA
ATOM      8  H   UNL A   1      34.013  24.354  25.456  1.00  0.00     0.163 HD
BRANCH   6   9
ATOM      9  C   UNL A   1      31.750  26.876  25.378  1.00  0.00     0.091 C 
ATOM     10  C   UNL A   1      31.704  27.976  24.287  1.00  0.00     0.091 C 
ATOM     11  C   UNL A   1      32.836  28.982  24.551  1.00  0.00     0.014 C 
ATOM     12  C   UNL A   1      32.611  29.697  25.882  1.00  0.00     0.001 C 
ATOM     13  C   UNL A   1      31.392  27.585  26.710  1.00  0.00     0.014 C 
ATOM     14  C   UNL A   1      32.331  28.752  27.052  1.00  0.00     0.001 C 
BRANCH  10  15
ATOM     15  C   UNL A   1      31.625  27.574  22.812  1.00  0.00     0.229 C 
ATOM     16  N   UNL A   1      30.717  28.117  21.948  1.00  0.00    -0.309 N 
ATOM     17  H   UNL A   1      30.789  27.812  21.015  1.00  0.00     0.171 HD
ATOM     18  O   UNL A   1      32.392  26.722  22.344  1.00  0.00    -0.274 OA
BRANCH  16  19
ATOM     19  C   UNL A   1      29.719  29.030  22.194  1.00  0.00     0.154 A 
ATOM     20  C   UNL A   1      28.500  32.287  22.366  1.00  0.00     0.173 C 
ATOM     21  N   UNL A   1      28.685  30.858  22.442  1.00  0.00    -0.274 N 
ATOM     22  C   UNL A   1      27.981  29.971  23.197  1.00  0.00     0.110 A 
ATOM     23  N   UNL A   1      29.721  30.299  21.796  1.00  0.00    -0.155 NA
ATOM     24  C   UNL A   1      28.590  28.754  23.004  1.00  0.00     0.068 A 
ENDBRANCH  16  19
ENDBRANCH  10  15
ENDBRANCH   6   9
ENDBRANCH   4   5
ENDBRANCH   3   4
ENDBRANCH   2   3
ENDBRANCH   1   2
BRANCH   1  25
ATOM     25  C   UNL A   1      36.512  23.359  23.855  1.00  0.00     0.021 C 
BRANCH  25  26
ATOM     26  C   UNL A   1      37.130  23.722  25.204  1.00  0.00     0.116 C 
BRANCH  26  27
ATOM     27  N   UNL A   1      38.156  22.768  25.600  1.00  0.00    -0.352 N 
ATOM     28  C   UNL A   1      39.353  22.984  26.224  1.00  0.00     0.251 C 
ATOM     29  H   UNL A   1      37.958  21.828  25.386  1.00  0.00     0.163 HD
ATOM     30  O   UNL A   1      40.204  22.088  26.246  1.00  0.00    -0.269 OA
BRANCH  28  31
ATOM     31  C   UNL A   1      39.638  24.283  26.861  1.00  0.00     0.039 A 
ATOM     32  C   UNL A   1      39.153  24.533  28.147  1.00  0.00     0.014 A 
ATOM     33  C   UNL A   1      40.372  25.262  26.183  1.00  0.00     0.014 A 
ATOM     34  C   UNL A   1      39.465  25.736  28.782  1.00  0.00     0.010 A 
ATOM     35  C   UNL A   1      40.736  26.435  26.841  1.00  0.00     0.010 A 
ATOM     36  C   UNL A   1      40.293  26.679  28.149  1.00  0.00    -0.014 A 
BRANCH  36  37
ATOM     37  C   UNL A   1      40.743  27.902  28.859  1.00  0.00     0.031 A 
ATOM     38  C   UNL A   1      42.101  27.959  29.502  1.00  0.00     0.074 A 
ATOM     39  C   UNL A   1      39.891  28.939  28.984  1.00  0.00     0.049 A 
ATOM     40  N   UNL A   1      42.634  28.920  30.213  1.00  0.00    -0.248 NA
ATOM     41  C   UNL A   1      42.962  26.775  29.347  1.00  0.00     0.031 C 
ATOM     42  C   UNL A   1      38.530  28.986  28.439  1.00  0.00     0.029 A 
ATOM     43  N   UNL A   1      40.036  30.148  29.617  1.00  0.00    -0.354 N 
ATOM     44  C   UNL A   1      43.887  28.457  30.597  1.00  0.00     0.074 A 
ATOM     45  C   UNL A   1      44.017  27.112  30.078  1.00  0.00     0.031 C 
ATOM     46  C   UNL A   1      37.977  30.171  28.742  1.00  0.00     0.029 A 
ATOM     47  C   UNL A   1      38.920  30.948  29.538  1.00  0.00     0.049 A 
ATOM     48  H   UNL A   1      40.860  30.417  30.082  1.00  0.00     0.167 HD
ATOM     49  C   UNL A   1      44.847  29.098  31.305  1.00  0.00     0.031 A 
ATOM     50  C   UNL A   1      38.676  32.167  30.057  1.00  0.00     0.031 A 
ATOM     51  C   UNL A   1      44.713  30.437  31.818  1.00  0.00     0.049 A 
ATOM     52  C   UNL A   1      39.750  32.849  30.858  1.00  0.00     0.074 A 
ATOM     53  C   UNL A   1      45.651  31.196  32.498  1.00  0.00     0.029 A 
ATOM     54  N   UNL A   1      43.569  31.215  31.717  1.00  0.00    -0.354 N 
ATOM     55  N   UNL A   1      40.955  32.422  31.150  1.00  0.00    -0.248 NA
ATOM     56  C   UNL A   1      39.434  34.180  31.392  1.00  0.00     0.031 C 
ATOM     57  C   UNL A   1      45.056  32.410  32.856  1.00  0.00     0.029 A 
ATOM     58  C   UNL A   1      43.766  32.432  32.349  1.00  0.00     0.049 A 
ATOM     59  H   UNL A   1      42.739  30.943  31.263  1.00  0.00     0.167 HD
ATOM     60  C   UNL A   1      41.548  33.440  31.888  1.00  0.00     0.074 A 
ATOM     61  C   UNL A   1      40.577  34.512  31.978  1.00  0.00     0.031 C 
ATOM     62  C   UNL A   1      42.785  33.484  32.441  1.00  0.00     0.031 A 
BRANCH  49  63
ATOM     63  C   UNL A   1      46.130  28.357  31.576  1.00  0.00    -0.014 A 
ATOM     64  C   UNL A   1      47.218  28.442  30.688  1.00  0.00     0.010 A 
ATOM     65  C   UNL A   1      46.268  27.605  32.757  1.00  0.00     0.010 A 
ATOM     66  C   UNL A   1      48.407  27.759  30.959  1.00  0.00     0.020 A 
ATOM     67  C   UNL A   1      47.466  26.943  33.045  1.00  0.00     0.020 A 
ATOM     68  C   UNL A   1      48.523  27.012  32.135  1.00  0.00     0.054 A 
BRANCH  68  69
ATOM     69  S   UNL A   1      50.088  26.160  32.473  1.00  0.00     0.124 S 
ATOM     70  O   UNL A   1      50.944  26.667  31.403  1.00  0.00    -0.237 OA
ATOM     71  O   UNL A   1      50.422  26.623  33.817  1.00  0.00    -0.237 OA
ATOM     72  O   UNL A   1      49.741  24.744  32.373  1.00  0.00    -0.744 OA
ENDBRANCH  68  69
ENDBRANCH  49  63
BRANCH  50  73
ATOM     73  C   UNL A   1      37.357  32.818  29.833  1.00  0.00    -0.014 A 
ATOM     74  C   UNL A   1      36.313  32.657  30.758  1.00  0.00     0.010 A 
ATOM     75  C   UNL A   1      37.147  33.621  28.696  1.00  0.00     0.010 A 
ATOM     76  C   UNL A   1      35.077  33.274  30.546  1.00  0.00     0.020 A 
ATOM     77  C   UNL A   1      35.922  34.261  28.494  1.00  0.00     0.020 A 
ATOM     78  C   UNL A   1      34.890  34.074  29.416  1.00  0.00     0.054 A 
BRANCH  78  79
ATOM     79  S   UNL A   1      33.297  34.912  29.187  1.00  0.00     0.124 S 
ATOM     80  O   UNL A   1      32.638  34.050  28.212  1.00  0.00    -0.237 OA
ATOM     81  O   UNL A   1      32.733  34.893  30.534  1.00  0.00    -0.237 OA
ATOM     82  O   UNL A   1      33.676  36.237  28.700  1.00  0.00    -0.744 OA
ENDBRANCH  78  79
ENDBRANCH  50  73
BRANCH  62  83
ATOM     83  C   UNL A   1      43.164  34.738  33.182  1.00  0.00    -0.014 A 
ATOM     84  C   UNL A   1      43.044  34.821  34.580  1.00  0.00     0.010 A 
ATOM     85  C   UNL A   1      43.693  35.832  32.473  1.00  0.00     0.010 A 
ATOM     86  C   UNL A   1      43.415  35.988  35.253  1.00  0.00     0.020 A 
ATOM     87  C   UNL A   1      44.091  36.991  33.145  1.00  0.00     0.020 A 
ATOM     88  C   UNL A   1      43.936  37.066  34.530  1.00  0.00     0.054 A 
BRANCH  88  89
ATOM     89  S   UNL A   1      44.448  38.554  35.432  1.00  0.00     0.124 S 
ATOM     90  O   UNL A   1      45.901  38.513  35.286  1.00  0.00    -0.237 OA
ATOM     91  O   UNL A   1      43.773  39.622  34.698  1.00  0.00    -0.237 OA
ATOM     92  O   UNL A   1      43.951  38.326  36.787  1.00  0.00    -0.744 OA
ENDBRANCH  88  89
ENDBRANCH  62  83
ENDBRANCH  36  37
ENDBRANCH  28  31
ENDBRANCH  26  27
ENDBRANCH  25  26
ENDBRANCH   1  25
TORSDOF 18
ENDMDL
