MODEL 1
REMARK VINA RESULT:     -10.0      0.000      0.000
REMARK SMILES Cc1nn(-c2nc3ccccc3o2)c2c1[C@H](c1ccc(C(=O)NCCCCCCNC(=O)c3ccc(-c4c5nc(c(-c6ccc(S(=O)(=O)[O-])cc6)c6ccc([nH]6)c(-c6ccc(S(=O)(=O)[O-])cc6)c6nc(c(-c7ccc(S(=O)(=O)[O-])cc7)c7ccc4[nH]7)C=C6)C=C5)cc3)cc1)CC(=O)N2
REMARK SMILES IDX 27 1 26 2 25 3 24 4 23 5 21 6 22 7 20 9 17 10 18 11 94 12
REMARK SMILES IDX 19 13 93 14 16 15 1 16 2 17 3 18 15 19 4 20 14 21 98 22
REMARK SMILES IDX 95 23 96 24 97 26 5 27 6 28 13 29 7 30 12 31 8 32 11 33 9 34
REMARK SMILES IDX 10 35 28 36 29 37 30 38 31 39 32 41 33 42 34 43 92 44 35 45
REMARK SMILES IDX 91 46 36 47 37 48 38 49 85 50 39 51 90 52 84 53 86 54 40 55
REMARK SMILES IDX 89 56 83 57 82 58 41 60 71 61 52 62 70 63 53 64 56 65 69 66
REMARK SMILES IDX 87 67 54 68 55 69 68 71 88 72 57 73 42 74 43 75 51 76 44 77
REMARK SMILES IDX 50 78 45 79 46 80 47 81 48 82 49 83 72 84 73 85 81 86 74 87
REMARK SMILES IDX 80 88 75 89 76 90 77 91 78 92 79 93 58 94 59 95 67 96 60 97
REMARK SMILES IDX 66 98 61 99 62 100 63 101 64 102 65 103
REMARK H PARENT 23 8 98 25 30 40 86 59 56 70
REMARK Flexibility Score: inf
ROOT
ATOM      1  C   UNL A   1      37.066  32.045  32.933  1.00  0.00     0.002 C 
ENDROOT
BRANCH   1   2
ATOM      2  C   UNL A   1      37.435  31.974  34.423  1.00  0.00     0.002 C 
BRANCH   2   3
ATOM      3  C   UNL A   1      38.718  31.202  34.754  1.00  0.00     0.021 C 
BRANCH   3   4
ATOM      4  C   UNL A   1      39.919  32.103  35.054  1.00  0.00     0.116 C 
BRANCH   4   5
ATOM      5  N   UNL A   1      39.484  33.449  35.375  1.00  0.00    -0.352 N 
ATOM      6  C   UNL A   1      39.812  34.664  34.831  1.00  0.00     0.251 C 
ATOM      7  O   UNL A   1      39.216  35.663  35.230  1.00  0.00    -0.269 OA
ATOM      8  H   UNL A   1      38.835  33.499  36.114  1.00  0.00     0.163 HD
BRANCH   6   9
ATOM      9  C   UNL A   1      40.802  34.798  33.731  1.00  0.00     0.039 A 
ATOM     10  C   UNL A   1      42.650  34.891  31.579  1.00  0.00    -0.040 A 
ATOM     11  C   UNL A   1      41.484  34.111  31.501  1.00  0.00     0.005 A 
ATOM     12  C   UNL A   1      42.840  35.659  32.741  1.00  0.00     0.005 A 
ATOM     13  C   UNL A   1      40.560  34.084  32.552  1.00  0.00     0.014 A 
ATOM     14  C   UNL A   1      41.925  35.619  33.799  1.00  0.00     0.014 A 
BRANCH  10  15
ATOM     15  C   UNL A   1      43.639  34.892  30.420  1.00  0.00     0.064 C 
ATOM     16  C   UNL A   1      40.620  35.318  28.805  1.00  0.00     0.069 C 
ATOM     17  C   UNL A   1      41.908  36.050  28.701  1.00  0.00     0.066 A 
ATOM     18  N   UNL A   1      42.013  37.003  27.763  1.00  0.00    -0.167 NA
ATOM     19  C   UNL A   1      43.136  35.862  29.403  1.00  0.00     0.026 A 
ATOM     20  N   UNL A   1      43.257  37.509  27.935  1.00  0.00    -0.166 N 
ATOM     21  C   UNL A   1      44.005  36.723  28.773  1.00  0.00     0.145 A 
ATOM     22  N   UNL A   1      45.373  36.726  28.906  1.00  0.00    -0.310 N 
ATOM     23  C   UNL A   1      45.090  35.228  30.846  1.00  0.00     0.113 C 
ATOM     24  C   UNL A   1      45.967  35.830  29.758  1.00  0.00     0.226 C 
ATOM     25  H   UNL A   1      45.921  37.364  28.395  1.00  0.00     0.171 HD
ATOM     26  O   UNL A   1      47.178  35.623  29.717  1.00  0.00    -0.275 OA
BRANCH  20  27
ATOM     27  C   UNL A   1      43.652  38.609  27.189  1.00  0.00     0.325 A 
ATOM     28  N   UNL A   1      44.871  38.680  26.680  1.00  0.00    -0.191 NA
ATOM     29  O   UNL A   1      42.833  39.661  26.843  1.00  0.00    -0.422 OA
ATOM     30  C   UNL A   1      44.914  39.914  26.096  1.00  0.00     0.111 A 
ATOM     31  C   UNL A   1      43.661  40.502  26.158  1.00  0.00     0.156 A 
ATOM     32  C   UNL A   1      45.970  40.614  25.505  1.00  0.00     0.032 A 
ATOM     33  C   UNL A   1      43.345  41.748  25.634  1.00  0.00     0.049 A 
ATOM     34  C   UNL A   1      45.705  41.900  25.012  1.00  0.00     0.003 A 
ATOM     35  C   UNL A   1      44.417  42.450  25.067  1.00  0.00     0.004 A 
ENDBRANCH  20  27
ENDBRANCH  10  15
ENDBRANCH   6   9
ENDBRANCH   4   5
ENDBRANCH   3   4
ENDBRANCH   2   3
ENDBRANCH   1   2
BRANCH   1  36
ATOM     36  C   UNL A   1      35.571  31.947  32.595  1.00  0.00     0.021 C 
BRANCH  36  37
ATOM     37  C   UNL A   1      35.113  32.952  31.548  1.00  0.00     0.116 C 
BRANCH  37  38
ATOM     38  N   UNL A   1      34.393  32.309  30.446  1.00  0.00    -0.352 N 
ATOM     39  C   UNL A   1      34.893  31.751  29.281  1.00  0.00     0.251 C 
ATOM     40  H   UNL A   1      33.415  32.267  30.548  1.00  0.00     0.163 HD
ATOM     41  O   UNL A   1      34.178  31.603  28.305  1.00  0.00    -0.269 OA
BRANCH  39  42
ATOM     42  C   UNL A   1      36.305  31.329  29.253  1.00  0.00     0.039 A 
ATOM     43  C   UNL A   1      37.358  32.251  29.231  1.00  0.00     0.014 A 
ATOM     44  C   UNL A   1      36.560  29.964  29.266  1.00  0.00     0.014 A 
ATOM     45  C   UNL A   1      38.666  31.773  29.294  1.00  0.00     0.010 A 
ATOM     46  C   UNL A   1      37.817  29.513  29.544  1.00  0.00     0.010 A 
ATOM     47  C   UNL A   1      38.883  30.398  29.462  1.00  0.00    -0.014 A 
BRANCH  47  48
ATOM     48  C   UNL A   1      40.212  29.835  29.646  1.00  0.00     0.031 A 
ATOM     49  C   UNL A   1      40.548  29.516  31.057  1.00  0.00     0.074 A 
ATOM     50  C   UNL A   1      40.948  29.382  28.606  1.00  0.00     0.049 A 
ATOM     51  N   UNL A   1      41.406  30.112  31.816  1.00  0.00    -0.248 NA
ATOM     52  C   UNL A   1      39.718  28.523  31.761  1.00  0.00     0.031 C 
ATOM     53  C   UNL A   1      40.572  29.324  27.185  1.00  0.00     0.029 A 
ATOM     54  N   UNL A   1      42.141  28.733  28.615  1.00  0.00    -0.354 N 
ATOM     55  C   UNL A   1      41.401  29.405  33.013  1.00  0.00     0.074 A 
ATOM     56  C   UNL A   1      40.200  28.608  33.002  1.00  0.00     0.031 C 
ATOM     57  C   UNL A   1      41.382  28.460  26.535  1.00  0.00     0.029 A 
ATOM     58  C   UNL A   1      42.437  28.046  27.440  1.00  0.00     0.049 A 
ATOM     59  H   UNL A   1      42.748  28.747  29.391  1.00  0.00     0.167 HD
ATOM     60  C   UNL A   1      42.521  29.306  33.784  1.00  0.00     0.031 A 
ATOM     61  C   UNL A   1      43.456  27.172  27.242  1.00  0.00     0.031 A 
ATOM     62  C   UNL A   1      43.540  30.230  33.353  1.00  0.00     0.049 A 
ATOM     63  C   UNL A   1      44.455  27.433  28.307  1.00  0.00     0.074 A 
ATOM     64  C   UNL A   1      43.612  31.602  33.206  1.00  0.00     0.029 A 
ATOM     65  N   UNL A   1      44.561  29.712  32.587  1.00  0.00    -0.354 N 
ATOM     66  N   UNL A   1      45.123  28.549  28.404  1.00  0.00    -0.248 NA
ATOM     67  C   UNL A   1      44.362  26.657  29.534  1.00  0.00     0.031 C 
ATOM     68  C   UNL A   1      44.345  31.802  32.000  1.00  0.00     0.029 A 
ATOM     69  C   UNL A   1      44.756  30.555  31.525  1.00  0.00     0.049 A 
ATOM     70  H   UNL A   1      45.061  28.884  32.771  1.00  0.00     0.167 HD
ATOM     71  C   UNL A   1      45.144  28.833  29.762  1.00  0.00     0.074 A 
ATOM     72  C   UNL A   1      44.752  27.585  30.414  1.00  0.00     0.031 C 
ATOM     73  C   UNL A   1      45.194  30.123  30.213  1.00  0.00     0.031 A 
BRANCH  60  74
ATOM     74  C   UNL A   1      42.856  28.100  34.630  1.00  0.00    -0.014 A 
ATOM     75  C   UNL A   1      42.986  28.266  36.023  1.00  0.00     0.010 A 
ATOM     76  C   UNL A   1      43.314  26.882  34.086  1.00  0.00     0.010 A 
ATOM     77  C   UNL A   1      43.610  27.294  36.817  1.00  0.00     0.020 A 
ATOM     78  C   UNL A   1      43.896  25.888  34.875  1.00  0.00     0.020 A 
ATOM     79  C   UNL A   1      44.072  26.116  36.231  1.00  0.00     0.054 A 
BRANCH  79  80
ATOM     80  S   UNL A   1      44.967  24.913  37.242  1.00  0.00     0.124 S 
ATOM     81  O   UNL A   1      44.197  24.933  38.482  1.00  0.00    -0.237 OA
ATOM     82  O   UNL A   1      44.854  23.695  36.443  1.00  0.00    -0.237 OA
ATOM     83  O   UNL A   1      46.313  25.474  37.330  1.00  0.00    -0.744 OA
ENDBRANCH  79  80
ENDBRANCH  60  74
BRANCH  61  84
ATOM     84  C   UNL A   1      43.480  25.948  26.399  1.00  0.00    -0.014 A 
ATOM     85  C   UNL A   1      44.489  25.748  25.437  1.00  0.00     0.010 A 
ATOM     86  C   UNL A   1      42.680  24.838  26.743  1.00  0.00     0.010 A 
ATOM     87  C   UNL A   1      44.735  24.473  24.894  1.00  0.00     0.020 A 
ATOM     88  C   UNL A   1      42.915  23.566  26.202  1.00  0.00     0.020 A 
ATOM     89  C   UNL A   1      43.961  23.383  25.301  1.00  0.00     0.054 A 
BRANCH  89  90
ATOM     90  S   UNL A   1      44.407  21.709  24.747  1.00  0.00     0.124 S 
ATOM     91  O   UNL A   1      44.484  21.870  23.298  1.00  0.00    -0.237 OA
ATOM     92  O   UNL A   1      45.680  21.474  25.425  1.00  0.00    -0.237 OA
ATOM     93  O   UNL A   1      43.297  20.886  25.224  1.00  0.00    -0.744 OA
ENDBRANCH  89  90
ENDBRANCH  61  84
BRANCH  73  94
ATOM     94  C   UNL A   1      45.520  31.221  29.223  1.00  0.00    -0.014 A 
ATOM     95  C   UNL A   1      46.828  31.605  28.866  1.00  0.00     0.010 A 
ATOM     96  C   UNL A   1      44.444  31.777  28.509  1.00  0.00     0.010 A 
ATOM     97  C   UNL A   1      47.048  32.541  27.841  1.00  0.00     0.020 A 
ATOM     98  C   UNL A   1      44.655  32.693  27.476  1.00  0.00     0.020 A 
ATOM     99  C   UNL A   1      45.956  33.079  27.152  1.00  0.00     0.054 A 
BRANCH  99 100
ATOM    100  S   UNL A   1      46.239  34.259  25.801  1.00  0.00     0.124 S 
ATOM    101  O   UNL A   1      45.924  35.540  26.428  1.00  0.00    -0.237 OA
ATOM    102  O   UNL A   1      47.646  34.047  25.473  1.00  0.00    -0.237 OA
ATOM    103  O   UNL A   1      45.300  33.831  24.764  1.00  0.00    -0.744 OA
ENDBRANCH  99 100
ENDBRANCH  73  94
ENDBRANCH  47  48
ENDBRANCH  39  42
ENDBRANCH  37  38
ENDBRANCH  36  37
ENDBRANCH   1  36
TORSDOF 18
ENDMDL
MODEL 2
REMARK VINA RESULT:      -9.9      4.668     10.511
REMARK SMILES Cc1nn(-c2nc3ccccc3o2)c2c1[C@H](c1ccc(C(=O)NCCCCCCNC(=O)c3ccc(-c4c5nc(c(-c6ccc(S(=O)(=O)[O-])cc6)c6ccc([nH]6)c(-c6ccc(S(=O)(=O)[O-])cc6)c6nc(c(-c7ccc(S(=O)(=O)[O-])cc7)c7ccc4[nH]7)C=C6)C=C5)cc3)cc1)CC(=O)N2
REMARK SMILES IDX 27 1 26 2 25 3 24 4 23 5 21 6 22 7 20 9 17 10 18 11 94 12
REMARK SMILES IDX 19 13 93 14 16 15 1 16 2 17 3 18 15 19 4 20 14 21 98 22
REMARK SMILES IDX 95 23 96 24 97 26 5 27 6 28 13 29 7 30 12 31 8 32 11 33 9 34
REMARK SMILES IDX 10 35 28 36 29 37 30 38 31 39 32 41 33 42 34 43 92 44 35 45
REMARK SMILES IDX 91 46 36 47 37 48 38 49 85 50 39 51 90 52 84 53 86 54 40 55
REMARK SMILES IDX 89 56 83 57 82 58 41 60 71 61 52 62 70 63 53 64 56 65 69 66
REMARK SMILES IDX 87 67 54 68 55 69 68 71 88 72 57 73 42 74 43 75 51 76 44 77
REMARK SMILES IDX 50 78 45 79 46 80 47 81 48 82 49 83 72 84 73 85 81 86 74 87
REMARK SMILES IDX 80 88 75 89 76 90 77 91 78 92 79 93 58 94 59 95 67 96 60 97
REMARK SMILES IDX 66 98 61 99 62 100 63 101 64 102 65 103
REMARK H PARENT 23 8 98 25 30 40 86 59 56 70
REMARK Flexibility Score: inf
ROOT
ATOM      1  C   UNL A   1      33.786  28.579  26.519  1.00  0.00     0.002 C 
ENDROOT
BRANCH   1   2
ATOM      2  C   UNL A   1      32.305  28.985  26.460  1.00  0.00     0.002 C 
BRANCH   2   3
ATOM      3  C   UNL A   1      31.309  27.943  26.987  1.00  0.00     0.021 C 
BRANCH   3   4
ATOM      4  C   UNL A   1      31.166  26.716  26.084  1.00  0.00     0.116 C 
BRANCH   4   5
ATOM      5  N   UNL A   1      30.084  25.866  26.541  1.00  0.00    -0.352 N 
ATOM      6  C   UNL A   1      29.952  24.501  26.575  1.00  0.00     0.251 C 
ATOM      7  O   UNL A   1      28.954  24.023  27.112  1.00  0.00    -0.269 OA
ATOM      8  H   UNL A   1      29.304  26.356  26.892  1.00  0.00     0.163 HD
BRANCH   6   9
ATOM      9  C   UNL A   1      31.005  23.591  26.056  1.00  0.00     0.039 A 
ATOM     10  C   UNL A   1      32.909  21.810  24.933  1.00  0.00    -0.040 A 
ATOM     11  C   UNL A   1      31.980  22.484  24.124  1.00  0.00     0.005 A 
ATOM     12  C   UNL A   1      32.891  22.089  26.311  1.00  0.00     0.005 A 
ATOM     13  C   UNL A   1      31.057  23.381  24.674  1.00  0.00     0.014 A 
ATOM     14  C   UNL A   1      31.957  22.972  26.864  1.00  0.00     0.014 A 
BRANCH  10  15
ATOM     15  C   UNL A   1      33.895  20.835  24.303  1.00  0.00     0.064 C 
ATOM     16  C   UNL A   1      35.423  23.879  23.751  1.00  0.00     0.069 C 
ATOM     17  C   UNL A   1      35.936  22.604  24.314  1.00  0.00     0.066 A 
ATOM     18  N   UNL A   1      37.245  22.524  24.595  1.00  0.00    -0.167 NA
ATOM     19  C   UNL A   1      35.269  21.364  24.551  1.00  0.00     0.026 A 
ATOM     20  N   UNL A   1      37.403  21.286  25.120  1.00  0.00    -0.166 N 
ATOM     21  C   UNL A   1      36.285  20.517  24.929  1.00  0.00     0.145 A 
ATOM     22  N   UNL A   1      36.200  19.147  25.014  1.00  0.00    -0.310 N 
ATOM     23  C   UNL A   1      33.751  19.385  24.827  1.00  0.00     0.113 C 
ATOM     24  C   UNL A   1      35.006  18.530  24.738  1.00  0.00     0.226 C 
ATOM     25  H   UNL A   1      36.988  18.615  25.269  1.00  0.00     0.171 HD
ATOM     26  O   UNL A   1      34.949  17.316  24.550  1.00  0.00    -0.275 OA
BRANCH  20  27
ATOM     27  C   UNL A   1      38.638  20.917  25.631  1.00  0.00     0.325 A 
ATOM     28  N   UNL A   1      39.207  19.779  25.271  1.00  0.00    -0.191 NA
ATOM     29  O   UNL A   1      39.409  21.694  26.467  1.00  0.00    -0.422 OA
ATOM     30  C   UNL A   1      40.344  19.724  26.024  1.00  0.00     0.111 A 
ATOM     31  C   UNL A   1      40.493  20.908  26.728  1.00  0.00     0.156 A 
ATOM     32  C   UNL A   1      41.295  18.711  26.181  1.00  0.00     0.032 A 
ATOM     33  C   UNL A   1      41.557  21.200  27.571  1.00  0.00     0.049 A 
ATOM     34  C   UNL A   1      42.356  18.945  27.069  1.00  0.00     0.003 A 
ATOM     35  C   UNL A   1      42.489  20.168  27.740  1.00  0.00     0.004 A 
ENDBRANCH  20  27
ENDBRANCH  10  15
ENDBRANCH   6   9
ENDBRANCH   4   5
ENDBRANCH   3   4
ENDBRANCH   2   3
ENDBRANCH   1   2
BRANCH   1  36
ATOM     36  C   UNL A   1      34.599  29.135  27.698  1.00  0.00     0.021 C 
BRANCH  36  37
ATOM     37  C   UNL A   1      35.166  30.524  27.450  1.00  0.00     0.116 C 
BRANCH  37  38
ATOM     38  N   UNL A   1      34.872  31.443  28.553  1.00  0.00    -0.352 N 
ATOM     39  C   UNL A   1      35.452  31.519  29.808  1.00  0.00     0.251 C 
ATOM     40  H   UNL A   1      34.161  32.101  28.376  1.00  0.00     0.163 HD
ATOM     41  O   UNL A   1      34.868  32.058  30.732  1.00  0.00    -0.269 OA
BRANCH  39  42
ATOM     42  C   UNL A   1      36.797  30.945  29.997  1.00  0.00     0.039 A 
ATOM     43  C   UNL A   1      37.002  29.574  30.186  1.00  0.00     0.014 A 
ATOM     44  C   UNL A   1      37.872  31.824  29.963  1.00  0.00     0.014 A 
ATOM     45  C   UNL A   1      38.310  29.099  30.270  1.00  0.00     0.010 A 
ATOM     46  C   UNL A   1      39.139  31.336  29.828  1.00  0.00     0.010 A 
ATOM     47  C   UNL A   1      39.374  29.992  30.077  1.00  0.00    -0.014 A 
BRANCH  47  48
ATOM     48  C   UNL A   1      40.761  29.555  30.040  1.00  0.00     0.031 A 
ATOM     49  C   UNL A   1      41.329  29.214  31.369  1.00  0.00     0.074 A 
ATOM     50  C   UNL A   1      41.374  29.216  28.882  1.00  0.00     0.049 A 
ATOM     51  N   UNL A   1      42.232  29.860  32.028  1.00  0.00    -0.248 NA
ATOM     52  C   UNL A   1      40.704  28.118  32.130  1.00  0.00     0.031 C 
ATOM     53  C   UNL A   1      40.799  29.179  27.528  1.00  0.00     0.029 A 
ATOM     54  N   UNL A   1      42.608  28.687  28.685  1.00  0.00    -0.354 N 
ATOM     55  C   UNL A   1      42.467  29.109  33.174  1.00  0.00     0.074 A 
ATOM     56  C   UNL A   1      41.355  28.200  33.292  1.00  0.00     0.031 C 
ATOM     57  C   UNL A   1      41.579  28.424  26.724  1.00  0.00     0.029 A 
ATOM     58  C   UNL A   1      42.788  28.079  27.446  1.00  0.00     0.049 A 
ATOM     59  H   UNL A   1      43.319  28.729  29.366  1.00  0.00     0.167 HD
ATOM     60  C   UNL A   1      43.692  29.089  33.770  1.00  0.00     0.031 A 
ATOM     61  C   UNL A   1      43.842  27.316  27.057  1.00  0.00     0.031 A 
ATOM     62  C   UNL A   1      44.550  30.124  33.248  1.00  0.00     0.049 A 
ATOM     63  C   UNL A   1      44.960  27.630  27.981  1.00  0.00     0.074 A 
ATOM     64  C   UNL A   1      44.475  31.501  33.165  1.00  0.00     0.029 A 
ATOM     65  N   UNL A   1      45.489  29.738  32.318  1.00  0.00    -0.354 N 
ATOM     66  N   UNL A   1      45.531  28.802  28.040  1.00  0.00    -0.248 NA
ATOM     67  C   UNL A   1      45.119  26.801  29.165  1.00  0.00     0.031 C 
ATOM     68  C   UNL A   1      45.001  31.819  31.879  1.00  0.00     0.029 A 
ATOM     69  C   UNL A   1      45.449  30.638  31.284  1.00  0.00     0.049 A 
ATOM     70  H   UNL A   1      46.084  28.956  32.383  1.00  0.00     0.167 HD
ATOM     71  C   UNL A   1      45.726  29.033  29.394  1.00  0.00     0.074 A 
ATOM     72  C   UNL A   1      45.549  27.727  30.029  1.00  0.00     0.031 C 
ATOM     73  C   UNL A   1      45.726  30.303  29.902  1.00  0.00     0.031 A 
BRANCH  60  74
ATOM     74  C   UNL A   1      44.256  27.889  34.494  1.00  0.00    -0.014 A 
ATOM     75  C   UNL A   1      45.052  26.976  33.773  1.00  0.00     0.010 A 
ATOM     76  C   UNL A   1      43.815  27.481  35.769  1.00  0.00     0.010 A 
ATOM     77  C   UNL A   1      45.326  25.696  34.272  1.00  0.00     0.020 A 
ATOM     78  C   UNL A   1      44.120  26.225  36.296  1.00  0.00     0.020 A 
ATOM     79  C   UNL A   1      44.845  25.326  35.528  1.00  0.00     0.054 A 
BRANCH  79  80
ATOM     80  S   UNL A   1      45.115  23.640  36.122  1.00  0.00     0.124 S 
ATOM     81  O   UNL A   1      46.345  23.272  35.427  1.00  0.00    -0.237 OA
ATOM     82  O   UNL A   1      45.234  23.837  37.564  1.00  0.00    -0.237 OA
ATOM     83  O   UNL A   1      43.913  22.929  35.690  1.00  0.00    -0.744 OA
ENDBRANCH  79  80
ENDBRANCH  60  74
BRANCH  61  84
ATOM     84  C   UNL A   1      43.852  26.135  26.156  1.00  0.00    -0.014 A 
ATOM     85  C   UNL A   1      44.921  25.908  25.267  1.00  0.00     0.010 A 
ATOM     86  C   UNL A   1      42.952  25.070  26.376  1.00  0.00     0.010 A 
ATOM     87  C   UNL A   1      45.124  24.645  24.679  1.00  0.00     0.020 A 
ATOM     88  C   UNL A   1      43.144  23.812  25.789  1.00  0.00     0.020 A 
ATOM     89  C   UNL A   1      44.246  23.597  24.965  1.00  0.00     0.054 A 
BRANCH  89  90
ATOM     90  S   UNL A   1      44.621  21.922  24.360  1.00  0.00     0.124 S 
ATOM     91  O   UNL A   1      44.636  22.109  22.913  1.00  0.00    -0.237 OA
ATOM     92  O   UNL A   1      45.916  21.641  24.975  1.00  0.00    -0.237 OA
ATOM     93  O   UNL A   1      43.512  21.119  24.873  1.00  0.00    -0.744 OA
ENDBRANCH  89  90
ENDBRANCH  61  84
BRANCH  73  94
ATOM     94  C   UNL A   1      45.801  31.465  28.936  1.00  0.00    -0.014 A 
ATOM     95  C   UNL A   1      47.004  32.038  28.477  1.00  0.00     0.010 A 
ATOM     96  C   UNL A   1      44.595  31.887  28.349  1.00  0.00     0.010 A 
ATOM     97  C   UNL A   1      46.994  33.027  27.478  1.00  0.00     0.020 A 
ATOM     98  C   UNL A   1      44.579  32.855  27.342  1.00  0.00     0.020 A 
ATOM     99  C   UNL A   1      45.778  33.428  26.918  1.00  0.00     0.054 A 
BRANCH  99 100
ATOM    100  S   UNL A   1      45.765  34.678  25.600  1.00  0.00     0.124 S 
ATOM    101  O   UNL A   1      44.748  34.164  24.685  1.00  0.00    -0.237 OA
ATOM    102  O   UNL A   1      45.410  35.901  26.313  1.00  0.00    -0.237 OA
ATOM    103  O   UNL A   1      47.133  34.649  25.081  1.00  0.00    -0.744 OA
ENDBRANCH  99 100
ENDBRANCH  73  94
ENDBRANCH  47  48
ENDBRANCH  39  42
ENDBRANCH  37  38
ENDBRANCH  36  37
ENDBRANCH   1  36
TORSDOF 18
ENDMDL
MODEL 3
REMARK VINA RESULT:      -9.9      5.060     12.115
REMARK SMILES Cc1nn(-c2nc3ccccc3o2)c2c1[C@H](c1ccc(C(=O)NCCCCCCNC(=O)c3ccc(-c4c5nc(c(-c6ccc(S(=O)(=O)[O-])cc6)c6ccc([nH]6)c(-c6ccc(S(=O)(=O)[O-])cc6)c6nc(c(-c7ccc(S(=O)(=O)[O-])cc7)c7ccc4[nH]7)C=C6)C=C5)cc3)cc1)CC(=O)N2
REMARK SMILES IDX 27 1 26 2 25 3 24 4 23 5 21 6 22 7 20 9 17 10 18 11 94 12
REMARK SMILES IDX 19 13 93 14 16 15 1 16 2 17 3 18 15 19 4 20 14 21 98 22
REMARK SMILES IDX 95 23 96 24 97 26 5 27 6 28 13 29 7 30 12 31 8 32 11 33 9 34
REMARK SMILES IDX 10 35 28 36 29 37 30 38 31 39 32 41 33 42 34 43 92 44 35 45
REMARK SMILES IDX 91 46 36 47 37 48 38 49 85 50 39 51 90 52 84 53 86 54 40 55
REMARK SMILES IDX 89 56 83 57 82 58 41 60 71 61 52 62 70 63 53 64 56 65 69 66
REMARK SMILES IDX 87 67 54 68 55 69 68 71 88 72 57 73 42 74 43 75 51 76 44 77
REMARK SMILES IDX 50 78 45 79 46 80 47 81 48 82 49 83 72 84 73 85 81 86 74 87
REMARK SMILES IDX 80 88 75 89 76 90 77 91 78 92 79 93 58 94 59 95 67 96 60 97
REMARK SMILES IDX 66 98 61 99 62 100 63 101 64 102 65 103
REMARK H PARENT 23 8 98 25 30 40 86 59 56 70
REMARK Flexibility Score: inf
ROOT
ATOM      1  C   UNL A   1      33.126  30.405  27.248  1.00  0.00     0.002 C 
ENDROOT
BRANCH   1   2
ATOM      2  C   UNL A   1      31.724  30.210  26.648  1.00  0.00     0.002 C 
BRANCH   2   3
ATOM      3  C   UNL A   1      31.466  30.924  25.316  1.00  0.00     0.021 C 
BRANCH   3   4
ATOM      4  C   UNL A   1      30.061  31.519  25.197  1.00  0.00     0.116 C 
BRANCH   4   5
ATOM      5  N   UNL A   1      29.626  31.538  23.813  1.00  0.00    -0.352 N 
ATOM      6  C   UNL A   1      29.515  30.538  22.882  1.00  0.00     0.251 C 
ATOM      7  O   UNL A   1      29.019  30.809  21.789  1.00  0.00    -0.269 OA
ATOM      8  H   UNL A   1      29.363  32.428  23.484  1.00  0.00     0.163 HD
BRANCH   6   9
ATOM      9  C   UNL A   1      29.901  29.134  23.177  1.00  0.00     0.039 A 
ATOM     10  C   UNL A   1      30.487  26.435  23.832  1.00  0.00    -0.040 A 
ATOM     11  C   UNL A   1      29.161  26.879  23.702  1.00  0.00     0.005 A 
ATOM     12  C   UNL A   1      31.510  27.366  23.578  1.00  0.00     0.005 A 
ATOM     13  C   UNL A   1      28.872  28.203  23.355  1.00  0.00     0.014 A 
ATOM     14  C   UNL A   1      31.221  28.695  23.248  1.00  0.00     0.014 A 
BRANCH  10  15
ATOM     15  C   UNL A   1      30.768  24.988  24.219  1.00  0.00     0.064 C 
ATOM     16  C   UNL A   1      32.453  25.285  21.223  1.00  0.00     0.069 C 
ATOM     17  C   UNL A   1      32.874  24.756  22.545  1.00  0.00     0.066 A 
ATOM     18  N   UNL A   1      34.087  24.191  22.636  1.00  0.00    -0.167 NA
ATOM     19  C   UNL A   1      32.157  24.667  23.775  1.00  0.00     0.026 A 
ATOM     20  N   UNL A   1      34.203  23.848  23.941  1.00  0.00    -0.166 N 
ATOM     21  C   UNL A   1      33.000  23.950  24.591  1.00  0.00     0.145 A 
ATOM     22  N   UNL A   1      32.661  23.377  25.794  1.00  0.00    -0.310 N 
ATOM     23  C   UNL A   1      30.583  24.705  25.730  1.00  0.00     0.113 C 
ATOM     24  C   UNL A   1      31.388  23.537  26.279  1.00  0.00     0.226 C 
ATOM     25  H   UNL A   1      33.325  22.856  26.302  1.00  0.00     0.171 HD
ATOM     26  O   UNL A   1      30.969  22.841  27.202  1.00  0.00    -0.275 OA
BRANCH  20  27
ATOM     27  C   UNL A   1      35.405  23.338  24.405  1.00  0.00     0.325 A 
ATOM     28  N   UNL A   1      35.795  22.118  24.074  1.00  0.00    -0.191 NA
ATOM     29  O   UNL A   1      36.319  24.038  25.161  1.00  0.00    -0.422 OA
ATOM     30  C   UNL A   1      36.957  21.942  24.769  1.00  0.00     0.111 A 
ATOM     31  C   UNL A   1      37.302  23.124  25.404  1.00  0.00     0.156 A 
ATOM     32  C   UNL A   1      37.771  20.817  24.928  1.00  0.00     0.032 A 
ATOM     33  C   UNL A   1      38.443  23.303  26.176  1.00  0.00     0.049 A 
ATOM     34  C   UNL A   1      38.904  20.941  25.746  1.00  0.00     0.003 A 
ATOM     35  C   UNL A   1      39.237  22.162  26.348  1.00  0.00     0.004 A 
ENDBRANCH  20  27
ENDBRANCH  10  15
ENDBRANCH   6   9
ENDBRANCH   4   5
ENDBRANCH   3   4
ENDBRANCH   2   3
ENDBRANCH   1   2
BRANCH   1  36
ATOM     36  C   UNL A   1      34.043  29.173  27.252  1.00  0.00     0.021 C 
BRANCH  36  37
ATOM     37  C   UNL A   1      35.471  29.475  27.682  1.00  0.00     0.116 C 
BRANCH  37  38
ATOM     38  N   UNL A   1      35.534  30.002  29.048  1.00  0.00    -0.352 N 
ATOM     39  C   UNL A   1      36.444  29.721  30.054  1.00  0.00     0.251 C 
ATOM     40  H   UNL A   1      34.830  30.648  29.284  1.00  0.00     0.163 HD
ATOM     41  O   UNL A   1      36.164  29.925  31.222  1.00  0.00    -0.269 OA
BRANCH  39  42
ATOM     42  C   UNL A   1      37.763  29.181  29.677  1.00  0.00     0.039 A 
ATOM     43  C   UNL A   1      38.479  29.662  28.576  1.00  0.00     0.014 A 
ATOM     44  C   UNL A   1      38.287  28.172  30.476  1.00  0.00     0.014 A 
ATOM     45  C   UNL A   1      39.758  29.160  28.337  1.00  0.00     0.010 A 
ATOM     46  C   UNL A   1      39.607  27.844  30.371  1.00  0.00     0.010 A 
ATOM     47  C   UNL A   1      40.316  28.256  29.253  1.00  0.00    -0.014 A 
BRANCH  47  48
ATOM     48  C   UNL A   1      41.684  27.773  29.134  1.00  0.00     0.031 A 
ATOM     49  C   UNL A   1      41.799  26.402  28.573  1.00  0.00     0.074 A 
ATOM     50  C   UNL A   1      42.748  28.599  29.249  1.00  0.00     0.049 A 
ATOM     51  N   UNL A   1      42.164  25.328  29.190  1.00  0.00    -0.248 NA
ATOM     52  C   UNL A   1      41.293  26.165  27.210  1.00  0.00     0.031 C 
ATOM     53  C   UNL A   1      42.747  30.056  29.459  1.00  0.00     0.029 A 
ATOM     54  N   UNL A   1      44.066  28.338  29.055  1.00  0.00    -0.354 N 
ATOM     55  C   UNL A   1      42.174  24.328  28.224  1.00  0.00     0.074 A 
ATOM     56  C   UNL A   1      41.417  24.840  27.110  1.00  0.00     0.031 C 
ATOM     57  C   UNL A   1      43.953  30.564  29.121  1.00  0.00     0.029 A 
ATOM     58  C   UNL A   1      44.858  29.464  28.850  1.00  0.00     0.049 A 
ATOM     59  H   UNL A   1      44.432  27.423  29.057  1.00  0.00     0.167 HD
ATOM     60  C   UNL A   1      43.043  23.281  28.296  1.00  0.00     0.031 A 
ATOM     61  C   UNL A   1      46.155  29.488  28.450  1.00  0.00     0.031 A 
ATOM     62  C   UNL A   1      43.686  23.216  29.585  1.00  0.00     0.049 A 
ATOM     63  C   UNL A   1      46.711  28.140  28.727  1.00  0.00     0.074 A 
ATOM     64  C   UNL A   1      43.244  23.100  30.888  1.00  0.00     0.029 A 
ATOM     65  N   UNL A   1      44.969  23.710  29.662  1.00  0.00    -0.354 N 
ATOM     66  N   UNL A   1      46.847  27.656  29.931  1.00  0.00    -0.248 NA
ATOM     67  C   UNL A   1      46.663  27.150  27.663  1.00  0.00     0.031 C 
ATOM     68  C   UNL A   1      44.085  23.972  31.639  1.00  0.00     0.029 A 
ATOM     69  C   UNL A   1      45.046  24.503  30.777  1.00  0.00     0.049 A 
ATOM     70  H   UNL A   1      45.701  23.526  29.028  1.00  0.00     0.167 HD
ATOM     71  C   UNL A   1      46.456  26.329  29.827  1.00  0.00     0.074 A 
ATOM     72  C   UNL A   1      46.453  26.049  28.391  1.00  0.00     0.031 C 
ATOM     73  C   UNL A   1      45.896  25.673  30.887  1.00  0.00     0.031 A 
BRANCH  60  74
ATOM     74  C   UNL A   1      43.630  22.590  27.087  1.00  0.00    -0.014 A 
ATOM     75  C   UNL A   1      42.886  21.569  26.463  1.00  0.00     0.010 A 
ATOM     76  C   UNL A   1      44.984  22.714  26.712  1.00  0.00     0.010 A 
ATOM     77  C   UNL A   1      43.487  20.673  25.568  1.00  0.00     0.020 A 
ATOM     78  C   UNL A   1      45.581  21.856  25.787  1.00  0.00     0.020 A 
ATOM     79  C   UNL A   1      44.836  20.818  25.247  1.00  0.00     0.054 A 
BRANCH  79  80
ATOM     80  S   UNL A   1      45.629  19.599  24.172  1.00  0.00     0.124 S 
ATOM     81  O   UNL A   1      45.552  18.389  24.985  1.00  0.00    -0.237 OA
ATOM     82  O   UNL A   1      44.771  19.626  22.991  1.00  0.00    -0.237 OA
ATOM     83  O   UNL A   1      46.973  20.139  23.976  1.00  0.00    -0.744 OA
ENDBRANCH  79  80
ENDBRANCH  60  74
BRANCH  61  84
ATOM     84  C   UNL A   1      46.842  30.477  27.580  1.00  0.00    -0.014 A 
ATOM     85  C   UNL A   1      46.129  31.524  26.965  1.00  0.00     0.010 A 
ATOM     86  C   UNL A   1      48.251  30.567  27.588  1.00  0.00     0.010 A 
ATOM     87  C   UNL A   1      46.792  32.651  26.445  1.00  0.00     0.020 A 
ATOM     88  C   UNL A   1      48.920  31.683  27.067  1.00  0.00     0.020 A 
ATOM     89  C   UNL A   1      48.185  32.734  26.523  1.00  0.00     0.054 A 
BRANCH  89  90
ATOM     90  S   UNL A   1      49.021  34.272  26.027  1.00  0.00     0.124 S 
ATOM     91  O   UNL A   1      48.968  35.065  27.252  1.00  0.00    -0.237 OA
ATOM     92  O   UNL A   1      50.348  33.804  25.634  1.00  0.00    -0.237 OA
ATOM     93  O   UNL A   1      48.195  34.769  24.928  1.00  0.00    -0.744 OA
ENDBRANCH  89  90
ENDBRANCH  61  84
BRANCH  73  94
ATOM     94  C   UNL A   1      45.973  26.314  32.256  1.00  0.00    -0.014 A 
ATOM     95  C   UNL A   1      44.995  27.180  32.782  1.00  0.00     0.010 A 
ATOM     96  C   UNL A   1      47.013  25.889  33.102  1.00  0.00     0.010 A 
ATOM     97  C   UNL A   1      45.072  27.629  34.112  1.00  0.00     0.020 A 
ATOM     98  C   UNL A   1      47.085  26.315  34.430  1.00  0.00     0.020 A 
ATOM     99  C   UNL A   1      46.121  27.191  34.927  1.00  0.00     0.054 A 
BRANCH  99 100
ATOM    100  S   UNL A   1      46.202  27.738  36.657  1.00  0.00     0.124 S 
ATOM    101  O   UNL A   1      45.520  29.029  36.614  1.00  0.00    -0.237 OA
ATOM    102  O   UNL A   1      45.497  26.676  37.368  1.00  0.00    -0.237 OA
ATOM    103  O   UNL A   1      47.638  27.808  36.932  1.00  0.00    -0.744 OA
ENDBRANCH  99 100
ENDBRANCH  73  94
ENDBRANCH  47  48
ENDBRANCH  39  42
ENDBRANCH  37  38
ENDBRANCH  36  37
ENDBRANCH   1  36
TORSDOF 18
ENDMDL
