MODEL 1
REMARK VINA RESULT:     -10.4      0.000      0.000
REMARK SMILES O=C(/C=C/C(=O)NCc1ccc(-c2cccs2)s1)NCCCCCCNC(=O)c1ccc(-c2c3nc(c(-c4ccc(S(=O)(=O)[O-])cc4)c4ccc([nH]4)c(-c4ccc(S(=O)(=O)[O-])cc4)c4nc(c(-c5ccc(S(=O)(=O)[O-])cc5)c5ccc2[nH]5)C=C4)C=C3)cc1
REMARK SMILES IDX 22 1 21 2 20 3 19 4 1 5 2 6 3 8 4 9 5 10 6 11 7 12 8 14 9 15
REMARK SMILES IDX 10 16 18 17 11 18 12 19 13 20 14 21 17 22 15 23 16 24 23 25
REMARK SMILES IDX 24 26 25 27 26 28 27 29 28 31 29 32 30 33 88 34 31 35 87 36
REMARK SMILES IDX 32 37 33 38 34 39 81 40 35 41 86 42 80 43 82 44 36 45 85 46
REMARK SMILES IDX 79 47 78 48 37 50 67 51 48 52 66 53 49 54 52 55 65 56 83 57
REMARK SMILES IDX 50 58 51 59 64 61 84 62 53 63 38 64 39 65 47 66 40 67 46 68
REMARK SMILES IDX 41 69 42 70 43 71 44 72 45 73 68 74 69 75 77 76 70 77 76 78
REMARK SMILES IDX 71 79 72 80 73 81 74 82 75 83 54 84 55 85 63 86 56 87 62 88
REMARK SMILES IDX 57 89 58 90 59 91 60 92 61 93
REMARK H PARENT 19 7 7 13 26 30 82 49 52 60
REMARK Flexibility Score: inf
ROOT
ATOM      1  C   UNL A   1      40.063  20.937  26.482  1.00  0.00     0.002 C 
ENDROOT
BRANCH   1   2
ATOM      2  C   UNL A   1      38.825  21.620  25.892  1.00  0.00     0.021 C 
BRANCH   2   3
ATOM      3  C   UNL A   1      38.753  23.128  26.130  1.00  0.00     0.116 C 
BRANCH   3   4
ATOM      4  N   UNL A   1      37.395  23.577  26.361  1.00  0.00    -0.353 N 
ATOM      5  O   UNL A   1      36.739  23.576  24.153  1.00  0.00    -0.270 OA
ATOM      6  C   UNL A   1      36.509  23.777  25.339  1.00  0.00     0.244 C 
ATOM      7  H   UNL A   1      37.100  23.744  27.286  1.00  0.00     0.163 HD
BRANCH   6   8
ATOM      8  C   UNL A   1      35.157  24.212  25.750  1.00  0.00     0.077 C 
ATOM      9  C   UNL A   1      34.579  25.310  25.250  1.00  0.00     0.077 C 
BRANCH   9  10
ATOM     10  C   UNL A   1      33.219  25.801  25.560  1.00  0.00     0.244 C 
ATOM     11  O   UNL A   1      33.093  26.633  26.458  1.00  0.00    -0.270 OA
ATOM     12  N   UNL A   1      32.127  25.433  24.850  1.00  0.00    -0.348 N 
ATOM     13  H   UNL A   1      31.288  25.832  25.175  1.00  0.00     0.164 HD
BRANCH  12  14
ATOM     14  C   UNL A   1      31.956  24.567  23.703  1.00  0.00     0.163 C 
BRANCH  14  15
ATOM     15  C   UNL A   1      32.085  23.121  24.098  1.00  0.00     0.024 A 
ATOM     16  C   UNL A   1      31.603  22.530  25.252  1.00  0.00     0.018 A 
ATOM     17  S   UNL A   1      32.866  21.957  23.103  1.00  0.00    -0.138 S 
ATOM     18  C   UNL A   1      31.906  21.138  25.325  1.00  0.00     0.022 A 
ATOM     19  C   UNL A   1      32.626  20.697  24.233  1.00  0.00     0.045 A 
BRANCH  19  20
ATOM     20  C   UNL A   1      33.112  19.358  24.015  1.00  0.00     0.044 A 
ATOM     21  C   UNL A   1      34.211  18.770  24.613  1.00  0.00     0.021 A 
ATOM     22  S   UNL A   1      32.387  18.301  22.876  1.00  0.00    -0.143 S 
ATOM     23  C   UNL A   1      34.460  17.453  24.126  1.00  0.00     0.012 A 
ATOM     24  C   UNL A   1      33.545  17.077  23.169  1.00  0.00     0.065 A 
ENDBRANCH  19  20
ENDBRANCH  14  15
ENDBRANCH  12  14
ENDBRANCH   9  10
ENDBRANCH   6   8
ENDBRANCH   3   4
ENDBRANCH   2   3
ENDBRANCH   1   2
BRANCH   1  25
ATOM     25  C   UNL A   1      41.405  21.588  26.129  1.00  0.00     0.002 C 
BRANCH  25  26
ATOM     26  C   UNL A   1      42.281  21.966  27.325  1.00  0.00     0.021 C 
BRANCH  26  27
ATOM     27  C   UNL A   1      43.030  23.287  27.179  1.00  0.00     0.116 C 
BRANCH  27  28
ATOM     28  N   UNL A   1      42.593  24.045  26.016  1.00  0.00    -0.352 N 
ATOM     29  C   UNL A   1      41.958  25.263  25.959  1.00  0.00     0.251 C 
ATOM     30  H   UNL A   1      42.779  23.625  25.146  1.00  0.00     0.163 HD
ATOM     31  O   UNL A   1      41.500  25.667  24.898  1.00  0.00    -0.269 OA
BRANCH  29  32
ATOM     32  C   UNL A   1      41.812  26.072  27.191  1.00  0.00     0.039 A 
ATOM     33  C   UNL A   1      42.718  27.108  27.430  1.00  0.00     0.014 A 
ATOM     34  C   UNL A   1      40.786  25.810  28.104  1.00  0.00     0.014 A 
ATOM     35  C   UNL A   1      42.554  27.923  28.553  1.00  0.00     0.010 A 
ATOM     36  C   UNL A   1      40.579  26.670  29.177  1.00  0.00     0.010 A 
ATOM     37  C   UNL A   1      41.463  27.733  29.418  1.00  0.00    -0.014 A 
BRANCH  37  38
ATOM     38  C   UNL A   1      41.227  28.637  30.574  1.00  0.00     0.031 A 
ATOM     39  C   UNL A   1      42.078  28.526  31.811  1.00  0.00     0.074 A 
ATOM     40  C   UNL A   1      40.208  29.520  30.534  1.00  0.00     0.049 A 
ATOM     41  N   UNL A   1      41.998  29.199  32.930  1.00  0.00    -0.248 NA
ATOM     42  C   UNL A   1      43.143  27.510  31.795  1.00  0.00     0.031 C 
ATOM     43  C   UNL A   1      39.289  29.703  29.407  1.00  0.00     0.029 A 
ATOM     44  N   UNL A   1      39.772  30.428  31.466  1.00  0.00    -0.354 N 
ATOM     45  C   UNL A   1      42.988  28.677  33.756  1.00  0.00     0.074 A 
ATOM     46  C   UNL A   1      43.617  27.598  33.029  1.00  0.00     0.031 C 
ATOM     47  C   UNL A   1      38.426  30.689  29.699  1.00  0.00     0.029 A 
ATOM     48  C   UNL A   1      38.696  31.175  31.048  1.00  0.00     0.049 A 
ATOM     49  H   UNL A   1      40.193  30.536  32.350  1.00  0.00     0.167 HD
ATOM     50  C   UNL A   1      43.353  29.073  35.000  1.00  0.00     0.031 A 
ATOM     51  C   UNL A   1      38.000  32.141  31.679  1.00  0.00     0.031 A 
ATOM     52  C   UNL A   1      42.723  30.150  35.719  1.00  0.00     0.049 A 
ATOM     53  C   UNL A   1      38.403  32.541  33.074  1.00  0.00     0.074 A 
ATOM     54  C   UNL A   1      43.054  30.664  36.960  1.00  0.00     0.029 A 
ATOM     55  N   UNL A   1      41.628  30.870  35.267  1.00  0.00    -0.354 N 
ATOM     56  N   UNL A   1      39.389  32.086  33.810  1.00  0.00    -0.248 NA
ATOM     57  C   UNL A   1      37.604  33.594  33.717  1.00  0.00     0.031 C 
ATOM     58  C   UNL A   1      42.118  31.651  37.286  1.00  0.00     0.029 A 
ATOM     59  C   UNL A   1      41.249  31.803  36.218  1.00  0.00     0.049 A 
ATOM     60  H   UNL A   1      41.185  30.739  34.397  1.00  0.00     0.167 HD
ATOM     61  C   UNL A   1      39.349  32.819  34.991  1.00  0.00     0.074 A 
ATOM     62  C   UNL A   1      38.251  33.756  34.863  1.00  0.00     0.031 C 
ATOM     63  C   UNL A   1      40.152  32.729  36.080  1.00  0.00     0.031 A 
BRANCH  50  64
ATOM     64  C   UNL A   1      44.477  28.321  35.667  1.00  0.00    -0.014 A 
ATOM     65  C   UNL A   1      44.229  27.172  36.442  1.00  0.00     0.010 A 
ATOM     66  C   UNL A   1      45.804  28.756  35.500  1.00  0.00     0.010 A 
ATOM     67  C   UNL A   1      45.280  26.508  37.082  1.00  0.00     0.020 A 
ATOM     68  C   UNL A   1      46.862  28.073  36.109  1.00  0.00     0.020 A 
ATOM     69  C   UNL A   1      46.589  26.967  36.914  1.00  0.00     0.054 A 
BRANCH  69  70
ATOM     70  S   UNL A   1      47.933  26.083  37.754  1.00  0.00     0.124 S 
ATOM     71  O   UNL A   1      48.305  27.028  38.804  1.00  0.00    -0.237 OA
ATOM     72  O   UNL A   1      47.275  24.862  38.212  1.00  0.00    -0.237 OA
ATOM     73  O   UNL A   1      48.932  25.894  36.706  1.00  0.00    -0.744 OA
ENDBRANCH  69  70
ENDBRANCH  50  64
BRANCH  51  74
ATOM     74  C   UNL A   1      36.865  32.816  30.990  1.00  0.00    -0.014 A 
ATOM     75  C   UNL A   1      35.538  32.463  31.293  1.00  0.00     0.010 A 
ATOM     76  C   UNL A   1      37.102  33.821  30.035  1.00  0.00     0.010 A 
ATOM     77  C   UNL A   1      34.471  33.088  30.642  1.00  0.00     0.020 A 
ATOM     78  C   UNL A   1      36.037  34.470  29.403  1.00  0.00     0.020 A 
ATOM     79  C   UNL A   1      34.728  34.091  29.703  1.00  0.00     0.054 A 
BRANCH  79  80
ATOM     80  S   UNL A   1      33.324  34.922  28.907  1.00  0.00     0.124 S 
ATOM     81  O   UNL A   1      33.972  36.056  28.256  1.00  0.00    -0.237 OA
ATOM     82  O   UNL A   1      32.812  33.886  28.014  1.00  0.00    -0.237 OA
ATOM     83  O   UNL A   1      32.448  35.259  30.026  1.00  0.00    -0.744 OA
ENDBRANCH  79  80
ENDBRANCH  51  74
BRANCH  63  84
ATOM     84  C   UNL A   1      39.902  33.695  37.210  1.00  0.00    -0.014 A 
ATOM     85  C   UNL A   1      40.448  34.991  37.202  1.00  0.00     0.010 A 
ATOM     86  C   UNL A   1      39.060  33.314  38.271  1.00  0.00     0.010 A 
ATOM     87  C   UNL A   1      40.183  35.875  38.251  1.00  0.00     0.020 A 
ATOM     88  C   UNL A   1      38.767  34.205  39.306  1.00  0.00     0.020 A 
ATOM     89  C   UNL A   1      39.343  35.476  39.296  1.00  0.00     0.054 A 
BRANCH  89  90
ATOM     90  S   UNL A   1      38.979  36.658  40.624  1.00  0.00     0.124 S 
ATOM     91  O   UNL A   1      40.281  36.800  41.271  1.00  0.00    -0.237 OA
ATOM     92  O   UNL A   1      38.513  37.831  39.887  1.00  0.00    -0.237 OA
ATOM     93  O   UNL A   1      37.958  35.983  41.420  1.00  0.00    -0.744 OA
ENDBRANCH  89  90
ENDBRANCH  63  84
ENDBRANCH  37  38
ENDBRANCH  29  32
ENDBRANCH  27  28
ENDBRANCH  26  27
ENDBRANCH  25  26
ENDBRANCH   1  25
TORSDOF 20
ENDMDL
MODEL 2
REMARK VINA RESULT:     -10.1      2.145      3.739
REMARK SMILES O=C(/C=C/C(=O)NCc1ccc(-c2cccs2)s1)NCCCCCCNC(=O)c1ccc(-c2c3nc(c(-c4ccc(S(=O)(=O)[O-])cc4)c4ccc([nH]4)c(-c4ccc(S(=O)(=O)[O-])cc4)c4nc(c(-c5ccc(S(=O)(=O)[O-])cc5)c5ccc2[nH]5)C=C4)C=C3)cc1
REMARK SMILES IDX 22 1 21 2 20 3 19 4 1 5 2 6 3 8 4 9 5 10 6 11 7 12 8 14 9 15
REMARK SMILES IDX 10 16 18 17 11 18 12 19 13 20 14 21 17 22 15 23 16 24 23 25
REMARK SMILES IDX 24 26 25 27 26 28 27 29 28 31 29 32 30 33 88 34 31 35 87 36
REMARK SMILES IDX 32 37 33 38 34 39 81 40 35 41 86 42 80 43 82 44 36 45 85 46
REMARK SMILES IDX 79 47 78 48 37 50 67 51 48 52 66 53 49 54 52 55 65 56 83 57
REMARK SMILES IDX 50 58 51 59 64 61 84 62 53 63 38 64 39 65 47 66 40 67 46 68
REMARK SMILES IDX 41 69 42 70 43 71 44 72 45 73 68 74 69 75 77 76 70 77 76 78
REMARK SMILES IDX 71 79 72 80 73 81 74 82 75 83 54 84 55 85 63 86 56 87 62 88
REMARK SMILES IDX 57 89 58 90 59 91 60 92 61 93
REMARK H PARENT 19 7 7 13 26 30 82 49 52 60
REMARK Flexibility Score: inf
ROOT
ATOM      1  C   UNL A   1      40.118  21.591  26.977  1.00  0.00     0.002 C 
ENDROOT
BRANCH   1   2
ATOM      2  C   UNL A   1      38.947  21.996  26.075  1.00  0.00     0.021 C 
BRANCH   2   3
ATOM      3  C   UNL A   1      38.455  23.430  26.273  1.00  0.00     0.116 C 
BRANCH   3   4
ATOM      4  N   UNL A   1      37.019  23.537  26.113  1.00  0.00    -0.353 N 
ATOM      5  O   UNL A   1      36.995  23.344  23.818  1.00  0.00    -0.270 OA
ATOM      6  C   UNL A   1      36.416  23.500  24.886  1.00  0.00     0.244 C 
ATOM      7  H   UNL A   1      36.457  23.640  26.916  1.00  0.00     0.163 HD
BRANCH   6   8
ATOM      8  C   UNL A   1      34.941  23.598  24.904  1.00  0.00     0.077 C 
ATOM      9  C   UNL A   1      34.259  23.880  26.020  1.00  0.00     0.077 C 
BRANCH   9  10
ATOM     10  C   UNL A   1      32.793  24.046  26.131  1.00  0.00     0.244 C 
ATOM     11  O   UNL A   1      32.225  23.548  27.102  1.00  0.00    -0.270 OA
ATOM     12  N   UNL A   1      32.071  24.784  25.256  1.00  0.00    -0.348 N 
ATOM     13  H   UNL A   1      31.106  24.798  25.449  1.00  0.00     0.164 HD
BRANCH  12  14
ATOM     14  C   UNL A   1      32.444  25.557  24.091  1.00  0.00     0.163 C 
BRANCH  14  15
ATOM     15  C   UNL A   1      31.861  26.943  24.157  1.00  0.00     0.024 A 
ATOM     16  C   UNL A   1      32.082  27.890  25.141  1.00  0.00     0.018 A 
ATOM     17  S   UNL A   1      30.815  27.565  22.944  1.00  0.00    -0.138 S 
ATOM     18  C   UNL A   1      31.366  29.101  24.909  1.00  0.00     0.022 A 
ATOM     19  C   UNL A   1      30.602  29.052  23.761  1.00  0.00     0.045 A 
BRANCH  19  20
ATOM     20  C   UNL A   1      29.744  30.094  23.260  1.00  0.00     0.044 A 
ATOM     21  C   UNL A   1      29.193  31.133  23.988  1.00  0.00     0.021 A 
ATOM     22  S   UNL A   1      29.218  30.136  21.628  1.00  0.00    -0.143 S 
ATOM     23  C   UNL A   1      28.333  31.957  23.204  1.00  0.00     0.012 A 
ATOM     24  C   UNL A   1      28.250  31.519  21.901  1.00  0.00     0.065 A 
ENDBRANCH  19  20
ENDBRANCH  14  15
ENDBRANCH  12  14
ENDBRANCH   9  10
ENDBRANCH   6   8
ENDBRANCH   3   4
ENDBRANCH   2   3
ENDBRANCH   1   2
BRANCH   1  25
ATOM     25  C   UNL A   1      41.513  21.805  26.381  1.00  0.00     0.002 C 
BRANCH  25  26
ATOM     26  C   UNL A   1      42.604  22.171  27.389  1.00  0.00     0.021 C 
BRANCH  26  27
ATOM     27  C   UNL A   1      43.341  23.473  27.091  1.00  0.00     0.116 C 
BRANCH  27  28
ATOM     28  N   UNL A   1      42.770  24.185  25.958  1.00  0.00    -0.352 N 
ATOM     29  C   UNL A   1      42.021  25.338  25.942  1.00  0.00     0.251 C 
ATOM     30  H   UNL A   1      42.946  23.784  25.077  1.00  0.00     0.163 HD
ATOM     31  O   UNL A   1      41.468  25.696  24.910  1.00  0.00    -0.269 OA
BRANCH  29  32
ATOM     32  C   UNL A   1      41.869  26.130  27.183  1.00  0.00     0.039 A 
ATOM     33  C   UNL A   1      42.737  27.199  27.414  1.00  0.00     0.014 A 
ATOM     34  C   UNL A   1      40.872  25.821  28.114  1.00  0.00     0.014 A 
ATOM     35  C   UNL A   1      42.565  27.997  28.547  1.00  0.00     0.010 A 
ATOM     36  C   UNL A   1      40.652  26.664  29.198  1.00  0.00     0.010 A 
ATOM     37  C   UNL A   1      41.499  27.758  29.431  1.00  0.00    -0.014 A 
BRANCH  37  38
ATOM     38  C   UNL A   1      41.251  28.644  30.600  1.00  0.00     0.031 A 
ATOM     39  C   UNL A   1      42.092  28.513  31.842  1.00  0.00     0.074 A 
ATOM     40  C   UNL A   1      40.231  29.525  30.565  1.00  0.00     0.049 A 
ATOM     41  N   UNL A   1      42.001  29.168  32.971  1.00  0.00    -0.248 NA
ATOM     42  C   UNL A   1      43.159  27.500  31.820  1.00  0.00     0.031 C 
ATOM     43  C   UNL A   1      39.322  29.725  29.433  1.00  0.00     0.029 A 
ATOM     44  N   UNL A   1      39.786  30.417  31.507  1.00  0.00    -0.354 N 
ATOM     45  C   UNL A   1      42.984  28.635  33.798  1.00  0.00     0.074 A 
ATOM     46  C   UNL A   1      43.622  27.568  33.059  1.00  0.00     0.031 C 
ATOM     47  C   UNL A   1      38.455  30.704  29.733  1.00  0.00     0.029 A 
ATOM     48  C   UNL A   1      38.712  31.169  31.092  1.00  0.00     0.049 A 
ATOM     49  H   UNL A   1      40.198  30.511  32.397  1.00  0.00     0.167 HD
ATOM     50  C   UNL A   1      43.338  29.010  35.051  1.00  0.00     0.031 A 
ATOM     51  C   UNL A   1      38.009  32.124  31.733  1.00  0.00     0.031 A 
ATOM     52  C   UNL A   1      42.700  30.074  35.782  1.00  0.00     0.049 A 
ATOM     53  C   UNL A   1      38.399  32.502  33.137  1.00  0.00     0.074 A 
ATOM     54  C   UNL A   1      43.018  30.569  37.034  1.00  0.00     0.029 A 
ATOM     55  N   UNL A   1      41.607  30.800  35.331  1.00  0.00    -0.354 N 
ATOM     56  N   UNL A   1      39.379  32.036  33.875  1.00  0.00    -0.248 NA
ATOM     57  C   UNL A   1      37.592  33.542  33.790  1.00  0.00     0.031 C 
ATOM     58  C   UNL A   1      42.078  31.550  37.368  1.00  0.00     0.029 A 
ATOM     59  C   UNL A   1      41.218  31.717  36.294  1.00  0.00     0.049 A 
ATOM     60  H   UNL A   1      41.173  30.683  34.456  1.00  0.00     0.167 HD
ATOM     61  C   UNL A   1      39.327  32.750  35.067  1.00  0.00     0.074 A 
ATOM     62  C   UNL A   1      38.229  33.687  34.944  1.00  0.00     0.031 C 
ATOM     63  C   UNL A   1      40.121  32.644  36.162  1.00  0.00     0.031 A 
BRANCH  50  64
ATOM     64  C   UNL A   1      44.457  28.250  35.716  1.00  0.00    -0.014 A 
ATOM     65  C   UNL A   1      44.202  27.097  36.483  1.00  0.00     0.010 A 
ATOM     66  C   UNL A   1      45.786  28.680  35.554  1.00  0.00     0.010 A 
ATOM     67  C   UNL A   1      45.249  26.424  37.121  1.00  0.00     0.020 A 
ATOM     68  C   UNL A   1      46.840  27.989  36.162  1.00  0.00     0.020 A 
ATOM     69  C   UNL A   1      46.561  26.879  36.959  1.00  0.00     0.054 A 
BRANCH  69  70
ATOM     70  S   UNL A   1      47.899  25.984  37.796  1.00  0.00     0.124 S 
ATOM     71  O   UNL A   1      47.245  25.548  39.028  1.00  0.00    -0.237 OA
ATOM     72  O   UNL A   1      48.217  24.922  36.845  1.00  0.00    -0.237 OA
ATOM     73  O   UNL A   1      48.938  26.995  37.968  1.00  0.00    -0.744 OA
ENDBRANCH  69  70
ENDBRANCH  50  64
BRANCH  51  74
ATOM     74  C   UNL A   1      36.879  32.808  31.045  1.00  0.00    -0.014 A 
ATOM     75  C   UNL A   1      35.549  32.472  31.356  1.00  0.00     0.010 A 
ATOM     76  C   UNL A   1      37.123  33.804  30.083  1.00  0.00     0.010 A 
ATOM     77  C   UNL A   1      34.486  33.106  30.705  1.00  0.00     0.020 A 
ATOM     78  C   UNL A   1      36.063  34.463  29.452  1.00  0.00     0.020 A 
ATOM     79  C   UNL A   1      34.751  34.100  29.760  1.00  0.00     0.054 A 
BRANCH  79  80
ATOM     80  S   UNL A   1      33.354  34.943  28.965  1.00  0.00     0.124 S 
ATOM     81  O   UNL A   1      32.826  33.900  28.092  1.00  0.00    -0.237 OA
ATOM     82  O   UNL A   1      32.514  35.300  30.105  1.00  0.00    -0.237 OA
ATOM     83  O   UNL A   1      33.980  36.073  28.283  1.00  0.00    -0.744 OA
ENDBRANCH  79  80
ENDBRANCH  51  74
BRANCH  63  84
ATOM     84  C   UNL A   1      39.859  33.590  37.305  1.00  0.00    -0.014 A 
ATOM     85  C   UNL A   1      40.234  34.944  37.237  1.00  0.00     0.010 A 
ATOM     86  C   UNL A   1      39.176  33.126  38.444  1.00  0.00     0.010 A 
ATOM     87  C   UNL A   1      39.961  35.806  38.302  1.00  0.00     0.020 A 
ATOM     88  C   UNL A   1      38.872  33.992  39.497  1.00  0.00     0.020 A 
ATOM     89  C   UNL A   1      39.280  35.325  39.425  1.00  0.00     0.054 A 
BRANCH  89  90
ATOM     90  S   UNL A   1      38.898  36.475  40.774  1.00  0.00     0.124 S 
ATOM     91  O   UNL A   1      38.480  37.671  40.046  1.00  0.00    -0.237 OA
ATOM     92  O   UNL A   1      37.837  35.778  41.497  1.00  0.00    -0.237 OA
ATOM     93  O   UNL A   1      40.161  36.596  41.497  1.00  0.00    -0.744 OA
ENDBRANCH  89  90
ENDBRANCH  63  84
ENDBRANCH  37  38
ENDBRANCH  29  32
ENDBRANCH  27  28
ENDBRANCH  26  27
ENDBRANCH  25  26
ENDBRANCH   1  25
TORSDOF 20
ENDMDL
MODEL 3
REMARK VINA RESULT:      -9.8      4.998     11.558
REMARK SMILES O=C(/C=C/C(=O)NCc1ccc(-c2cccs2)s1)NCCCCCCNC(=O)c1ccc(-c2c3nc(c(-c4ccc(S(=O)(=O)[O-])cc4)c4ccc([nH]4)c(-c4ccc(S(=O)(=O)[O-])cc4)c4nc(c(-c5ccc(S(=O)(=O)[O-])cc5)c5ccc2[nH]5)C=C4)C=C3)cc1
REMARK SMILES IDX 22 1 21 2 20 3 19 4 1 5 2 6 3 8 4 9 5 10 6 11 7 12 8 14 9 15
REMARK SMILES IDX 10 16 18 17 11 18 12 19 13 20 14 21 17 22 15 23 16 24 23 25
REMARK SMILES IDX 24 26 25 27 26 28 27 29 28 31 29 32 30 33 88 34 31 35 87 36
REMARK SMILES IDX 32 37 33 38 34 39 81 40 35 41 86 42 80 43 82 44 36 45 85 46
REMARK SMILES IDX 79 47 78 48 37 50 67 51 48 52 66 53 49 54 52 55 65 56 83 57
REMARK SMILES IDX 50 58 51 59 64 61 84 62 53 63 38 64 39 65 47 66 40 67 46 68
REMARK SMILES IDX 41 69 42 70 43 71 44 72 45 73 68 74 69 75 77 76 70 77 76 78
REMARK SMILES IDX 71 79 72 80 73 81 74 82 75 83 54 84 55 85 63 86 56 87 62 88
REMARK SMILES IDX 57 89 58 90 59 91 60 92 61 93
REMARK H PARENT 19 7 7 13 26 30 82 49 52 60
REMARK Flexibility Score: inf
ROOT
ATOM      1  C   UNL A   1      36.677  33.281  31.589  1.00  0.00     0.002 C 
ENDROOT
BRANCH   1   2
ATOM      2  C   UNL A   1      36.458  32.024  32.438  1.00  0.00     0.021 C 
BRANCH   2   3
ATOM      3  C   UNL A   1      37.080  32.080  33.833  1.00  0.00     0.116 C 
BRANCH   3   4
ATOM      4  N   UNL A   1      38.472  31.679  33.823  1.00  0.00    -0.353 N 
ATOM      5  O   UNL A   1      38.313  30.130  35.519  1.00  0.00    -0.270 OA
ATOM      6  C   UNL A   1      38.969  30.743  34.687  1.00  0.00     0.244 C 
ATOM      7  H   UNL A   1      39.082  32.096  33.170  1.00  0.00     0.163 HD
BRANCH   6   8
ATOM      8  C   UNL A   1      40.406  30.433  34.525  1.00  0.00     0.077 C 
ATOM      9  C   UNL A   1      41.142  29.929  35.523  1.00  0.00     0.077 C 
BRANCH   9  10
ATOM     10  C   UNL A   1      42.568  29.543  35.448  1.00  0.00     0.244 C 
ATOM     11  O   UNL A   1      43.411  30.368  35.799  1.00  0.00    -0.270 OA
ATOM     12  N   UNL A   1      42.973  28.303  35.088  1.00  0.00    -0.348 N 
ATOM     13  H   UNL A   1      43.952  28.193  35.075  1.00  0.00     0.164 HD
BRANCH  12  14
ATOM     14  C   UNL A   1      42.246  27.108  34.719  1.00  0.00     0.163 C 
BRANCH  14  15
ATOM     15  C   UNL A   1      43.178  25.933  34.582  1.00  0.00     0.024 A 
ATOM     16  C   UNL A   1      44.002  25.648  33.509  1.00  0.00     0.018 A 
ATOM     17  S   UNL A   1      43.362  24.752  35.817  1.00  0.00    -0.138 S 
ATOM     18  C   UNL A   1      44.750  24.449  33.694  1.00  0.00     0.022 A 
ATOM     19  C   UNL A   1      44.473  23.833  34.898  1.00  0.00     0.045 A 
BRANCH  19  20
ATOM     20  C   UNL A   1      45.036  22.596  35.375  1.00  0.00     0.044 A 
ATOM     21  C   UNL A   1      45.062  21.387  34.705  1.00  0.00     0.021 A 
ATOM     22  S   UNL A   1      45.719  22.451  36.942  1.00  0.00    -0.143 S 
ATOM     23  C   UNL A   1      45.635  20.340  35.486  1.00  0.00     0.012 A 
ATOM     24  C   UNL A   1      46.026  20.782  36.729  1.00  0.00     0.065 A 
ENDBRANCH  19  20
ENDBRANCH  14  15
ENDBRANCH  12  14
ENDBRANCH   9  10
ENDBRANCH   6   8
ENDBRANCH   3   4
ENDBRANCH   2   3
ENDBRANCH   1   2
BRANCH   1  25
ATOM     25  C   UNL A   1      36.398  33.121  30.090  1.00  0.00     0.002 C 
BRANCH  25  26
ATOM     26  C   UNL A   1      34.924  32.961  29.715  1.00  0.00     0.021 C 
BRANCH  26  27
ATOM     27  C   UNL A   1      34.650  32.859  28.218  1.00  0.00     0.116 C 
BRANCH  27  28
ATOM     28  N   UNL A   1      33.876  31.675  27.877  1.00  0.00    -0.352 N 
ATOM     29  C   UNL A   1      34.296  30.374  27.730  1.00  0.00     0.251 C 
ATOM     30  H   UNL A   1      32.915  31.826  27.732  1.00  0.00     0.163 HD
ATOM     31  O   UNL A   1      33.539  29.534  27.260  1.00  0.00    -0.269 OA
BRANCH  29  32
ATOM     32  C   UNL A   1      35.674  29.999  28.121  1.00  0.00     0.039 A 
ATOM     33  C   UNL A   1      36.702  30.130  27.185  1.00  0.00     0.014 A 
ATOM     34  C   UNL A   1      35.951  29.524  29.407  1.00  0.00     0.014 A 
ATOM     35  C   UNL A   1      38.018  29.845  27.559  1.00  0.00     0.010 A 
ATOM     36  C   UNL A   1      37.269  29.318  29.799  1.00  0.00     0.010 A 
ATOM     37  C   UNL A   1      38.318  29.470  28.879  1.00  0.00    -0.014 A 
BRANCH  37  38
ATOM     38  C   UNL A   1      39.719  29.239  29.317  1.00  0.00     0.031 A 
ATOM     39  C   UNL A   1      40.410  27.940  28.995  1.00  0.00     0.074 A 
ATOM     40  C   UNL A   1      40.350  30.174  30.056  1.00  0.00     0.049 A 
ATOM     41  N   UNL A   1      41.612  27.543  29.324  1.00  0.00    -0.248 NA
ATOM     42  C   UNL A   1      39.641  26.952  28.221  1.00  0.00     0.031 C 
ATOM     43  C   UNL A   1      39.779  31.460  30.464  1.00  0.00     0.029 A 
ATOM     44  N   UNL A   1      41.612  30.187  30.597  1.00  0.00    -0.354 N 
ATOM     45  C   UNL A   1      41.737  26.255  28.815  1.00  0.00     0.074 A 
ATOM     46  C   UNL A   1      40.471  25.919  28.203  1.00  0.00     0.031 C 
ATOM     47  C   UNL A   1      40.699  32.150  31.155  1.00  0.00     0.029 A 
ATOM     48  C   UNL A   1      41.906  31.341  31.283  1.00  0.00     0.049 A 
ATOM     49  H   UNL A   1      42.246  29.440  30.501  1.00  0.00     0.167 HD
ATOM     50  C   UNL A   1      42.814  25.432  28.836  1.00  0.00     0.031 A 
ATOM     51  C   UNL A   1      43.021  31.708  31.946  1.00  0.00     0.031 A 
ATOM     52  C   UNL A   1      44.073  25.771  29.447  1.00  0.00     0.049 A 
ATOM     53  C   UNL A   1      44.193  30.764  31.985  1.00  0.00     0.074 A 
ATOM     54  C   UNL A   1      45.242  25.031  29.476  1.00  0.00     0.029 A 
ATOM     55  N   UNL A   1      44.325  26.944  30.144  1.00  0.00    -0.354 N 
ATOM     56  N   UNL A   1      44.318  29.579  31.434  1.00  0.00    -0.248 NA
ATOM     57  C   UNL A   1      45.379  31.212  32.728  1.00  0.00     0.031 C 
ATOM     58  C   UNL A   1      46.180  25.727  30.245  1.00  0.00     0.029 A 
ATOM     59  C   UNL A   1      45.620  26.934  30.635  1.00  0.00     0.049 A 
ATOM     60  H   UNL A   1      43.680  27.676  30.270  1.00  0.00     0.167 HD
ATOM     61  C   UNL A   1      45.607  29.155  31.736  1.00  0.00     0.074 A 
ATOM     62  C   UNL A   1      46.226  30.216  32.505  1.00  0.00     0.031 C 
ATOM     63  C   UNL A   1      46.225  27.995  31.402  1.00  0.00     0.031 A 
BRANCH  50  64
ATOM     64  C   UNL A   1      42.667  24.075  28.195  1.00  0.00    -0.014 A 
ATOM     65  C   UNL A   1      43.043  23.854  26.857  1.00  0.00     0.010 A 
ATOM     66  C   UNL A   1      42.165  22.998  28.949  1.00  0.00     0.010 A 
ATOM     67  C   UNL A   1      42.868  22.598  26.269  1.00  0.00     0.020 A 
ATOM     68  C   UNL A   1      42.021  21.731  28.375  1.00  0.00     0.020 A 
ATOM     69  C   UNL A   1      42.353  21.545  27.032  1.00  0.00     0.054 A 
BRANCH  69  70
ATOM     70  S   UNL A   1      42.139  19.925  26.244  1.00  0.00     0.124 S 
ATOM     71  O   UNL A   1      40.708  19.920  25.952  1.00  0.00    -0.237 OA
ATOM     72  O   UNL A   1      43.017  20.018  25.081  1.00  0.00    -0.237 OA
ATOM     73  O   UNL A   1      42.568  18.980  27.272  1.00  0.00    -0.744 OA
ENDBRANCH  69  70
ENDBRANCH  50  64
BRANCH  51  74
ATOM     74  C   UNL A   1      43.093  33.042  32.605  1.00  0.00    -0.014 A 
ATOM     75  C   UNL A   1      42.871  33.164  33.988  1.00  0.00     0.010 A 
ATOM     76  C   UNL A   1      43.394  34.195  31.858  1.00  0.00     0.010 A 
ATOM     77  C   UNL A   1      42.930  34.415  34.609  1.00  0.00     0.020 A 
ATOM     78  C   UNL A   1      43.483  35.445  32.480  1.00  0.00     0.020 A 
ATOM     79  C   UNL A   1      43.239  35.547  33.850  1.00  0.00     0.054 A 
BRANCH  79  80
ATOM     80  S   UNL A   1      43.358  37.153  34.687  1.00  0.00     0.124 S 
ATOM     81  O   UNL A   1      44.773  37.209  35.040  1.00  0.00    -0.237 OA
ATOM     82  O   UNL A   1      42.928  38.082  33.645  1.00  0.00    -0.237 OA
ATOM     83  O   UNL A   1      42.436  37.020  35.813  1.00  0.00    -0.744 OA
ENDBRANCH  79  80
ENDBRANCH  51  74
BRANCH  63  84
ATOM     84  C   UNL A   1      47.659  27.823  31.831  1.00  0.00    -0.014 A 
ATOM     85  C   UNL A   1      48.721  28.338  31.067  1.00  0.00     0.010 A 
ATOM     86  C   UNL A   1      47.943  27.180  33.050  1.00  0.00     0.010 A 
ATOM     87  C   UNL A   1      50.041  28.183  31.498  1.00  0.00     0.020 A 
ATOM     88  C   UNL A   1      49.259  27.052  33.500  1.00  0.00     0.020 A 
ATOM     89  C   UNL A   1      50.302  27.542  32.713  1.00  0.00     0.054 A 
BRANCH  89  90
ATOM     90  S   UNL A   1      52.021  27.394  33.272  1.00  0.00     0.124 S 
ATOM     91  O   UNL A   1      52.172  25.948  33.412  1.00  0.00    -0.237 OA
ATOM     92  O   UNL A   1      52.767  28.000  32.171  1.00  0.00    -0.237 OA
ATOM     93  O   UNL A   1      52.046  28.147  34.522  1.00  0.00    -0.744 OA
ENDBRANCH  89  90
ENDBRANCH  63  84
ENDBRANCH  37  38
ENDBRANCH  29  32
ENDBRANCH  27  28
ENDBRANCH  26  27
ENDBRANCH  25  26
ENDBRANCH   1  25
TORSDOF 20
ENDMDL
