MODEL 1
REMARK VINA RESULT:     -10.6      0.000      0.000
REMARK SMILES Cc1ccc(S(=O)(=O)n2cc(C(=O)C(=O)NCC(=O)N[C@@H](Cc3c[nH]c4ccccc34)C(=O)NCCCCCCNC(=O)c3ccc(-c4c5nc(c(-c6ccc(S(=O)(=O)[O-])cc6)c6ccc([nH]6)c(-c6ccc(S(=O)(=O)[O-])cc6)c6nc(c(-c7ccc(S(=O)(=O)[O-])cc7)c7ccc4[nH]7)C=C6)C=C5)cc3)c3ccccc32)cc1
REMARK SMILES IDX 35 1 34 2 32 3 33 4 21 6 20 7 18 8 19 9 17 11 16 12 14 13
REMARK SMILES IDX 15 14 12 16 13 17 11 18 9 19 10 20 109 21 104 22 108 23
REMARK SMILES IDX 105 24 107 25 106 26 6 27 7 28 8 29 5 30 1 31 2 32 3 33
REMARK SMILES IDX 111 34 4 35 110 36 22 37 23 38 24 39 31 40 25 41 26 42 30 43
REMARK SMILES IDX 27 45 29 46 28 47 36 48 37 49 38 50 39 51 40 52 41 53 42 54
REMARK SMILES IDX 43 56 44 57 45 58 103 59 46 60 102 61 47 62 48 63 49 64
REMARK SMILES IDX 96 65 50 66 101 67 95 68 97 69 51 70 100 71 94 72 93 73
REMARK SMILES IDX 52 75 82 76 63 77 81 78 64 79 67 80 80 81 98 82 65 83 66 84
REMARK SMILES IDX 79 86 99 87 68 88 53 89 54 90 62 91 55 92 61 93 56 94 57 95
REMARK SMILES IDX 58 96 59 97 60 98 83 99 84 100 92 101 85 102 91 103 86 104
REMARK SMILES IDX 87 105 88 106 89 107 90 108 69 109 70 110 78 111 71 112
REMARK SMILES IDX 77 113 72 114 73 115 74 116 75 117 76 118
REMARK H PARENT 34 5 20 10 16 15 25 44 41 55 97 74 67 85
REMARK Flexibility Score: inf
ROOT
ATOM      1  C   UNL A   1      42.885  34.795  28.574  1.00  0.00     0.116 C 
ENDROOT
BRANCH   1   2
ATOM      2  N   UNL A   1      44.157  34.828  29.265  1.00  0.00    -0.354 N 
ATOM      3  C   UNL A   1      45.233  35.644  29.070  1.00  0.00     0.242 C 
ATOM      4  O   UNL A   1      45.985  35.816  30.038  1.00  0.00    -0.273 OA
ATOM      5  H   UNL A   1      44.262  34.163  29.985  1.00  0.00     0.163 HD
BRANCH   3   6
ATOM      6  C   UNL A   1      45.518  36.424  27.761  1.00  0.00     0.175 C 
BRANCH   6   7
ATOM      7  N   UNL A   1      45.814  35.622  26.571  1.00  0.00    -0.342 N 
ATOM      8  C   UNL A   1      46.980  35.591  25.851  1.00  0.00     0.240 C 
ATOM      9  O   UNL A   1      47.133  34.705  25.010  1.00  0.00    -0.273 OA
ATOM     10  H   UNL A   1      45.090  35.038  26.250  1.00  0.00     0.164 HD
BRANCH   8  11
ATOM     11  C   UNL A   1      48.075  36.643  26.118  1.00  0.00     0.216 C 
BRANCH  11  12
ATOM     12  N   UNL A   1      48.241  36.857  27.560  1.00  0.00    -0.340 N 
ATOM     13  C   UNL A   1      48.660  38.003  28.215  1.00  0.00     0.292 C 
ATOM     14  O   UNL A   1      48.850  38.011  29.425  1.00  0.00    -0.265 OA
ATOM     15  H   UNL A   1      48.028  36.088  28.136  1.00  0.00     0.164 HD
BRANCH  13  16
ATOM     16  C   UNL A   1      48.886  39.280  27.401  1.00  0.00     0.252 C 
ATOM     17  O   UNL A   1      50.024  39.749  27.426  1.00  0.00    -0.283 OA
BRANCH  16  18
ATOM     18  C   UNL A   1      47.769  39.980  26.756  1.00  0.00     0.054 A 
ATOM     19  N   UNL A   1      46.115  40.678  25.385  1.00  0.00    -0.240 N 
ATOM     20  C   UNL A   1      47.124  39.732  25.539  1.00  0.00     0.117 A 
ATOM     21  C   UNL A   1      45.989  41.374  26.595  1.00  0.00     0.065 A 
ATOM     22  C   UNL A   1      47.181  41.169  27.284  1.00  0.00     0.012 A 
ATOM     23  C   UNL A   1      45.055  42.341  27.011  1.00  0.00     0.028 A 
ATOM     24  C   UNL A   1      47.531  42.075  28.309  1.00  0.00     0.011 A 
ATOM     25  C   UNL A   1      45.445  43.254  27.989  1.00  0.00     0.002 A 
ATOM     26  C   UNL A   1      46.685  43.149  28.602  1.00  0.00     0.001 A 
BRANCH  19  27
ATOM     27  S   UNL A   1      45.916  41.727  24.007  1.00  0.00     0.268 S 
ATOM     28  O   UNL A   1      44.500  42.055  24.034  1.00  0.00    -0.201 OA
ATOM     29  O   UNL A   1      46.492  40.954  22.916  1.00  0.00    -0.201 OA
BRANCH  27  30
ATOM     30  C   UNL A   1      46.737  43.269  23.821  1.00  0.00     0.088 A 
ATOM     31  C   UNL A   1      48.427  46.995  22.435  1.00  0.00     0.044 C 
ATOM     32  C   UNL A   1      47.830  45.724  22.969  1.00  0.00    -0.051 A 
ATOM     33  C   UNL A   1      46.819  45.130  22.225  1.00  0.00     0.005 A 
ATOM     34  C   UNL A   1      48.281  45.083  24.144  1.00  0.00     0.005 A 
ATOM     35  C   UNL A   1      46.279  43.932  22.655  1.00  0.00     0.022 A 
ATOM     36  C   UNL A   1      47.740  43.847  24.581  1.00  0.00     0.022 A 
ENDBRANCH  27  30
ENDBRANCH  19  27
ENDBRANCH  16  18
ENDBRANCH  13  16
ENDBRANCH  11  12
ENDBRANCH   8  11
ENDBRANCH   6   7
BRANCH   6  37
ATOM     37  C   UNL A   1      44.607  37.631  27.478  1.00  0.00     0.072 C 
BRANCH  37  38
ATOM     38  C   UNL A   1      44.479  38.660  28.556  1.00  0.00    -0.020 A 
ATOM     39  C   UNL A   1      45.499  39.055  29.403  1.00  0.00     0.087 A 
ATOM     40  C   UNL A   1      43.348  39.486  28.867  1.00  0.00     0.003 A 
ATOM     41  N   UNL A   1      45.003  39.978  30.280  1.00  0.00    -0.361 N 
ATOM     42  C   UNL A   1      43.693  40.263  29.975  1.00  0.00     0.046 A 
ATOM     43  C   UNL A   1      42.061  39.657  28.314  1.00  0.00     0.010 A 
ATOM     44  H   UNL A   1      45.509  40.380  31.022  1.00  0.00     0.166 HD
ATOM     45  C   UNL A   1      42.806  41.151  30.593  1.00  0.00     0.026 A 
ATOM     46  C   UNL A   1      41.174  40.576  28.893  1.00  0.00     0.001 A 
ATOM     47  C   UNL A   1      41.539  41.298  30.026  1.00  0.00     0.002 A 
ENDBRANCH  37  38
ENDBRANCH   6  37
ENDBRANCH   3   6
ENDBRANCH   1   2
BRANCH   1  48
ATOM     48  C   UNL A   1      41.709  35.364  29.365  1.00  0.00     0.021 C 
BRANCH  48  49
ATOM     49  C   UNL A   1      40.697  34.363  29.939  1.00  0.00     0.002 C 
BRANCH  49  50
ATOM     50  C   UNL A   1      39.207  34.557  29.617  1.00  0.00     0.002 C 
BRANCH  50  51
ATOM     51  C   UNL A   1      38.221  33.524  30.163  1.00  0.00     0.021 C 
BRANCH  51  52
ATOM     52  C   UNL A   1      38.028  32.292  29.287  1.00  0.00     0.116 C 
BRANCH  52  53
ATOM     53  N   UNL A   1      36.633  32.058  28.932  1.00  0.00    -0.352 N 
ATOM     54  C   UNL A   1      36.119  31.003  28.190  1.00  0.00     0.251 C 
ATOM     55  H   UNL A   1      35.982  32.722  29.256  1.00  0.00     0.163 HD
ATOM     56  O   UNL A   1      34.985  30.989  27.753  1.00  0.00    -0.269 OA
BRANCH  54  57
ATOM     57  C   UNL A   1      36.997  29.824  28.056  1.00  0.00     0.039 A 
ATOM     58  C   UNL A   1      37.089  28.974  29.165  1.00  0.00     0.014 A 
ATOM     59  C   UNL A   1      37.932  29.781  27.027  1.00  0.00     0.014 A 
ATOM     60  C   UNL A   1      38.235  28.204  29.337  1.00  0.00     0.010 A 
ATOM     61  C   UNL A   1      39.110  29.097  27.252  1.00  0.00     0.010 A 
ATOM     62  C   UNL A   1      39.282  28.349  28.428  1.00  0.00    -0.014 A 
BRANCH  62  63
ATOM     63  C   UNL A   1      40.628  27.833  28.657  1.00  0.00     0.031 A 
ATOM     64  C   UNL A   1      40.947  26.429  28.302  1.00  0.00     0.074 A 
ATOM     65  C   UNL A   1      41.608  28.655  29.096  1.00  0.00     0.049 A 
ATOM     66  N   UNL A   1      41.944  25.764  28.784  1.00  0.00    -0.248 NA
ATOM     67  C   UNL A   1      40.120  25.640  27.390  1.00  0.00     0.031 C 
ATOM     68  C   UNL A   1      43.046  28.395  29.054  1.00  0.00     0.029 A 
ATOM     69  N   UNL A   1      41.504  29.815  29.868  1.00  0.00    -0.354 N 
ATOM     70  C   UNL A   1      42.061  24.608  28.046  1.00  0.00     0.074 A 
ATOM     71  C   UNL A   1      40.866  24.543  27.237  1.00  0.00     0.031 C 
ATOM     72  C   UNL A   1      43.647  29.148  29.987  1.00  0.00     0.029 A 
ATOM     73  C   UNL A   1      42.598  29.802  30.750  1.00  0.00     0.049 A 
ATOM     74  H   UNL A   1      40.803  30.504  29.806  1.00  0.00     0.167 HD
ATOM     75  C   UNL A   1      43.217  23.888  28.080  1.00  0.00     0.031 A 
ATOM     76  C   UNL A   1      42.493  29.790  32.112  1.00  0.00     0.031 A 
ATOM     77  C   UNL A   1      44.179  24.445  29.021  1.00  0.00     0.049 A 
ATOM     78  C   UNL A   1      43.184  28.601  32.747  1.00  0.00     0.074 A 
ATOM     79  C   UNL A   1      45.266  25.291  28.870  1.00  0.00     0.029 A 
ATOM     80  N   UNL A   1      43.902  24.393  30.380  1.00  0.00    -0.354 N 
ATOM     81  N   UNL A   1      43.568  27.548  32.083  1.00  0.00    -0.248 NA
ATOM     82  C   UNL A   1      43.453  28.481  34.179  1.00  0.00     0.031 C 
ATOM     83  C   UNL A   1      45.585  25.820  30.148  1.00  0.00     0.029 A 
ATOM     84  C   UNL A   1      44.712  25.272  31.070  1.00  0.00     0.049 A 
ATOM     85  H   UNL A   1      43.225  23.810  30.794  1.00  0.00     0.167 HD
ATOM     86  C   UNL A   1      44.109  26.628  32.943  1.00  0.00     0.074 A 
ATOM     87  C   UNL A   1      44.024  27.263  34.245  1.00  0.00     0.031 C 
ATOM     88  C   UNL A   1      44.571  25.419  32.511  1.00  0.00     0.031 A 
BRANCH  75  89
ATOM     89  C   UNL A   1      43.559  22.857  27.036  1.00  0.00    -0.014 A 
ATOM     90  C   UNL A   1      42.729  21.729  26.875  1.00  0.00     0.010 A 
ATOM     91  C   UNL A   1      44.705  22.919  26.220  1.00  0.00     0.010 A 
ATOM     92  C   UNL A   1      43.068  20.675  26.017  1.00  0.00     0.020 A 
ATOM     93  C   UNL A   1      45.075  21.853  25.384  1.00  0.00     0.020 A 
ATOM     94  C   UNL A   1      44.256  20.732  25.293  1.00  0.00     0.054 A 
BRANCH  94  95
ATOM     95  S   UNL A   1      44.716  19.322  24.253  1.00  0.00     0.124 S 
ATOM     96  O   UNL A   1      44.460  19.824  22.905  1.00  0.00    -0.237 OA
ATOM     97  O   UNL A   1      46.122  19.127  24.595  1.00  0.00    -0.237 OA
ATOM     98  O   UNL A   1      43.816  18.257  24.693  1.00  0.00    -0.744 OA
ENDBRANCH  94  95
ENDBRANCH  75  89
BRANCH  76  99
ATOM     99  C   UNL A   1      41.272  30.457  32.639  1.00  0.00    -0.014 A 
ATOM    100  C   UNL A   1      40.178  29.628  32.969  1.00  0.00     0.010 A 
ATOM    101  C   UNL A   1      41.356  31.737  33.214  1.00  0.00     0.010 A 
ATOM    102  C   UNL A   1      39.299  29.989  33.993  1.00  0.00     0.020 A 
ATOM    103  C   UNL A   1      40.469  32.103  34.238  1.00  0.00     0.020 A 
ATOM    104  C   UNL A   1      39.496  31.194  34.667  1.00  0.00     0.054 A 
BRANCH 104 105
ATOM    105  S   UNL A   1      38.602  31.450  36.230  1.00  0.00     0.124 S 
ATOM    106  O   UNL A   1      38.267  30.087  36.628  1.00  0.00    -0.237 OA
ATOM    107  O   UNL A   1      39.615  32.115  37.051  1.00  0.00    -0.237 OA
ATOM    108  O   UNL A   1      37.474  32.288  35.837  1.00  0.00    -0.744 OA
ENDBRANCH 104 105
ENDBRANCH  76  99
BRANCH  88 109
ATOM    109  C   UNL A   1      45.006  24.273  33.389  1.00  0.00    -0.014 A 
ATOM    110  C   UNL A   1      46.320  24.093  33.849  1.00  0.00     0.010 A 
ATOM    111  C   UNL A   1      44.018  23.396  33.901  1.00  0.00     0.010 A 
ATOM    112  C   UNL A   1      46.643  23.050  34.729  1.00  0.00     0.020 A 
ATOM    113  C   UNL A   1      44.323  22.381  34.812  1.00  0.00     0.020 A 
ATOM    114  C   UNL A   1      45.644  22.198  35.202  1.00  0.00     0.054 A 
BRANCH 114 115
ATOM    115  S   UNL A   1      46.059  20.893  36.386  1.00  0.00     0.124 S 
ATOM    116  O   UNL A   1      45.276  19.768  35.879  1.00  0.00    -0.237 OA
ATOM    117  O   UNL A   1      47.507  20.762  36.240  1.00  0.00    -0.237 OA
ATOM    118  O   UNL A   1      45.617  21.440  37.665  1.00  0.00    -0.744 OA
ENDBRANCH 114 115
ENDBRANCH  88 109
ENDBRANCH  62  63
ENDBRANCH  54  57
ENDBRANCH  52  53
ENDBRANCH  51  52
ENDBRANCH  50  51
ENDBRANCH  49  50
ENDBRANCH  48  49
ENDBRANCH   1  48
TORSDOF 25
ENDMDL
MODEL 2
REMARK VINA RESULT:     -10.0      3.302      8.323
REMARK SMILES Cc1ccc(S(=O)(=O)n2cc(C(=O)C(=O)NCC(=O)N[C@@H](Cc3c[nH]c4ccccc34)C(=O)NCCCCCCNC(=O)c3ccc(-c4c5nc(c(-c6ccc(S(=O)(=O)[O-])cc6)c6ccc([nH]6)c(-c6ccc(S(=O)(=O)[O-])cc6)c6nc(c(-c7ccc(S(=O)(=O)[O-])cc7)c7ccc4[nH]7)C=C6)C=C5)cc3)c3ccccc32)cc1
REMARK SMILES IDX 35 1 34 2 32 3 33 4 21 6 20 7 18 8 19 9 17 11 16 12 14 13
REMARK SMILES IDX 15 14 12 16 13 17 11 18 9 19 10 20 109 21 104 22 108 23
REMARK SMILES IDX 105 24 107 25 106 26 6 27 7 28 8 29 5 30 1 31 2 32 3 33
REMARK SMILES IDX 111 34 4 35 110 36 22 37 23 38 24 39 31 40 25 41 26 42 30 43
REMARK SMILES IDX 27 45 29 46 28 47 36 48 37 49 38 50 39 51 40 52 41 53 42 54
REMARK SMILES IDX 43 56 44 57 45 58 103 59 46 60 102 61 47 62 48 63 49 64
REMARK SMILES IDX 96 65 50 66 101 67 95 68 97 69 51 70 100 71 94 72 93 73
REMARK SMILES IDX 52 75 82 76 63 77 81 78 64 79 67 80 80 81 98 82 65 83 66 84
REMARK SMILES IDX 79 86 99 87 68 88 53 89 54 90 62 91 55 92 61 93 56 94 57 95
REMARK SMILES IDX 58 96 59 97 60 98 83 99 84 100 92 101 85 102 91 103 86 104
REMARK SMILES IDX 87 105 88 106 89 107 90 108 69 109 70 110 78 111 71 112
REMARK SMILES IDX 77 113 72 114 73 115 74 116 75 117 76 118
REMARK H PARENT 34 5 20 10 16 15 25 44 41 55 97 74 67 85
REMARK Flexibility Score: inf
ROOT
ATOM      1  C   UNL A   1      42.209  34.627  30.765  1.00  0.00     0.116 C 
ENDROOT
BRANCH   1   2
ATOM      2  N   UNL A   1      42.364  34.314  29.359  1.00  0.00    -0.354 N 
ATOM      3  C   UNL A   1      43.448  34.471  28.547  1.00  0.00     0.242 C 
ATOM      4  O   UNL A   1      43.517  33.728  27.559  1.00  0.00    -0.273 OA
ATOM      5  H   UNL A   1      41.568  33.930  28.925  1.00  0.00     0.163 HD
BRANCH   3   6
ATOM      6  C   UNL A   1      44.622  35.444  28.827  1.00  0.00     0.175 C 
BRANCH   6   7
ATOM      7  N   UNL A   1      45.495  35.112  29.956  1.00  0.00    -0.342 N 
ATOM      8  C   UNL A   1      45.657  35.812  31.123  1.00  0.00     0.240 C 
ATOM      9  O   UNL A   1      46.266  35.281  32.052  1.00  0.00    -0.273 OA
ATOM     10  H   UNL A   1      46.027  34.289  29.865  1.00  0.00     0.164 HD
BRANCH   8  11
ATOM     11  C   UNL A   1      45.066  37.229  31.257  1.00  0.00     0.216 C 
BRANCH  11  12
ATOM     12  N   UNL A   1      43.933  37.227  32.189  1.00  0.00    -0.340 N 
ATOM     13  C   UNL A   1      43.635  38.147  33.180  1.00  0.00     0.292 C 
ATOM     14  O   UNL A   1      42.706  37.967  33.957  1.00  0.00    -0.265 OA
ATOM     15  H   UNL A   1      43.305  36.475  32.099  1.00  0.00     0.164 HD
BRANCH  13  16
ATOM     16  C   UNL A   1      44.491  39.411  33.298  1.00  0.00     0.252 C 
ATOM     17  O   UNL A   1      45.438  39.359  34.082  1.00  0.00    -0.283 OA
BRANCH  16  18
ATOM     18  C   UNL A   1      44.105  40.658  32.626  1.00  0.00     0.054 A 
ATOM     19  N   UNL A   1      43.723  42.333  31.159  1.00  0.00    -0.240 N 
ATOM     20  C   UNL A   1      44.273  41.062  31.296  1.00  0.00     0.117 A 
ATOM     21  C   UNL A   1      43.024  42.629  32.337  1.00  0.00     0.065 A 
ATOM     22  C   UNL A   1      43.525  41.769  33.311  1.00  0.00     0.012 A 
ATOM     23  C   UNL A   1      42.200  43.719  32.672  1.00  0.00     0.028 A 
ATOM     24  C   UNL A   1      43.346  42.110  34.668  1.00  0.00     0.011 A 
ATOM     25  C   UNL A   1      42.081  44.065  34.017  1.00  0.00     0.002 A 
ATOM     26  C   UNL A   1      42.682  43.294  35.003  1.00  0.00     0.001 A 
BRANCH  19  27
ATOM     27  S   UNL A   1      44.553  43.729  30.526  1.00  0.00     0.268 S 
ATOM     28  O   UNL A   1      45.764  43.793  31.328  1.00  0.00    -0.201 OA
ATOM     29  O   UNL A   1      43.544  44.777  30.598  1.00  0.00    -0.201 OA
BRANCH  27  30
ATOM     30  C   UNL A   1      45.099  43.876  28.863  1.00  0.00     0.088 A 
ATOM     31  C   UNL A   1      46.207  45.187  24.900  1.00  0.00     0.044 C 
ATOM     32  C   UNL A   1      45.865  44.693  26.277  1.00  0.00    -0.051 A 
ATOM     33  C   UNL A   1      45.722  45.642  27.280  1.00  0.00     0.005 A 
ATOM     34  C   UNL A   1      45.631  43.334  26.582  1.00  0.00     0.005 A 
ATOM     35  C   UNL A   1      45.357  45.234  28.549  1.00  0.00     0.022 A 
ATOM     36  C   UNL A   1      45.242  42.912  27.880  1.00  0.00     0.022 A 
ENDBRANCH  27  30
ENDBRANCH  19  27
ENDBRANCH  16  18
ENDBRANCH  13  16
ENDBRANCH  11  12
ENDBRANCH   8  11
ENDBRANCH   6   7
BRANCH   6  37
ATOM     37  C   UNL A   1      45.382  35.963  27.594  1.00  0.00     0.072 C 
BRANCH  37  38
ATOM     38  C   UNL A   1      45.168  37.391  27.207  1.00  0.00    -0.020 A 
ATOM     39  C   UNL A   1      46.172  38.293  26.908  1.00  0.00     0.087 A 
ATOM     40  C   UNL A   1      43.926  38.075  26.985  1.00  0.00     0.003 A 
ATOM     41  N   UNL A   1      45.603  39.507  26.642  1.00  0.00    -0.361 N 
ATOM     42  C   UNL A   1      44.233  39.403  26.680  1.00  0.00     0.046 A 
ATOM     43  C   UNL A   1      42.566  37.699  27.009  1.00  0.00     0.010 A 
ATOM     44  H   UNL A   1      46.101  40.334  26.452  1.00  0.00     0.166 HD
ATOM     45  C   UNL A   1      43.257  40.382  26.458  1.00  0.00     0.026 A 
ATOM     46  C   UNL A   1      41.577  38.656  26.745  1.00  0.00     0.001 A 
ATOM     47  C   UNL A   1      41.920  39.982  26.490  1.00  0.00     0.002 A 
ENDBRANCH  37  38
ENDBRANCH   6  37
ENDBRANCH   3   6
ENDBRANCH   1   2
BRANCH   1  48
ATOM     48  C   UNL A   1      41.992  33.419  31.672  1.00  0.00     0.021 C 
BRANCH  48  49
ATOM     49  C   UNL A   1      41.762  33.692  33.165  1.00  0.00     0.002 C 
BRANCH  49  50
ATOM     50  C   UNL A   1      40.680  32.887  33.902  1.00  0.00     0.002 C 
BRANCH  50  51
ATOM     51  C   UNL A   1      40.739  32.848  35.429  1.00  0.00     0.021 C 
BRANCH  51  52
ATOM     52  C   UNL A   1      40.790  31.453  36.037  1.00  0.00     0.116 C 
BRANCH  52  53
ATOM     53  N   UNL A   1      41.813  31.317  37.068  1.00  0.00    -0.352 N 
ATOM     54  C   UNL A   1      42.894  30.446  37.072  1.00  0.00     0.251 C 
ATOM     55  H   UNL A   1      41.728  31.911  37.849  1.00  0.00     0.163 HD
ATOM     56  O   UNL A   1      43.576  30.238  38.056  1.00  0.00    -0.269 OA
BRANCH  54  57
ATOM     57  C   UNL A   1      43.254  29.861  35.765  1.00  0.00     0.039 A 
ATOM     58  C   UNL A   1      43.856  30.716  34.834  1.00  0.00     0.014 A 
ATOM     59  C   UNL A   1      42.694  28.647  35.381  1.00  0.00     0.014 A 
ATOM     60  C   UNL A   1      43.730  30.440  33.476  1.00  0.00     0.010 A 
ATOM     61  C   UNL A   1      42.481  28.430  34.034  1.00  0.00     0.010 A 
ATOM     62  C   UNL A   1      42.955  29.349  33.084  1.00  0.00    -0.014 A 
BRANCH  62  63
ATOM     63  C   UNL A   1      42.506  29.130  31.713  1.00  0.00     0.031 A 
ATOM     64  C   UNL A   1      41.086  29.363  31.358  1.00  0.00     0.074 A 
ATOM     65  C   UNL A   1      43.398  28.814  30.746  1.00  0.00     0.049 A 
ATOM     66  N   UNL A   1      40.502  28.862  30.320  1.00  0.00    -0.248 NA
ATOM     67  C   UNL A   1      40.186  30.158  32.192  1.00  0.00     0.031 C 
ATOM     68  C   UNL A   1      43.181  28.894  29.302  1.00  0.00     0.029 A 
ATOM     69  N   UNL A   1      44.624  28.153  30.861  1.00  0.00    -0.354 N 
ATOM     70  C   UNL A   1      39.285  29.491  30.191  1.00  0.00     0.074 A 
ATOM     71  C   UNL A   1      39.104  30.237  31.413  1.00  0.00     0.031 C 
ATOM     72  C   UNL A   1      44.040  28.063  28.692  1.00  0.00     0.029 A 
ATOM     73  C   UNL A   1      44.731  27.322  29.733  1.00  0.00     0.049 A 
ATOM     74  H   UNL A   1      45.281  28.251  31.588  1.00  0.00     0.167 HD
ATOM     75  C   UNL A   1      38.609  29.438  29.009  1.00  0.00     0.031 A 
ATOM     76  C   UNL A   1      44.849  25.962  29.783  1.00  0.00     0.031 A 
ATOM     77  C   UNL A   1      39.285  28.597  28.031  1.00  0.00     0.049 A 
ATOM     78  C   UNL A   1      43.750  25.246  29.025  1.00  0.00     0.074 A 
ATOM     79  C   UNL A   1      40.146  28.875  26.982  1.00  0.00     0.029 A 
ATOM     80  N   UNL A   1      39.356  27.228  28.251  1.00  0.00    -0.354 N 
ATOM     81  N   UNL A   1      42.649  25.823  28.630  1.00  0.00    -0.248 NA
ATOM     82  C   UNL A   1      43.777  23.823  28.695  1.00  0.00     0.031 C 
ATOM     83  C   UNL A   1      40.807  27.669  26.631  1.00  0.00     0.029 A 
ATOM     84  C   UNL A   1      40.324  26.661  27.446  1.00  0.00     0.049 A 
ATOM     85  H   UNL A   1      38.795  26.732  28.891  1.00  0.00     0.167 HD
ATOM     86  C   UNL A   1      41.835  24.902  28.022  1.00  0.00     0.074 A 
ATOM     87  C   UNL A   1      42.591  23.665  28.078  1.00  0.00     0.031 C 
ATOM     88  C   UNL A   1      40.605  25.236  27.535  1.00  0.00     0.031 A 
BRANCH  75  89
ATOM     89  C   UNL A   1      37.493  30.393  28.672  1.00  0.00    -0.014 A 
ATOM     90  C   UNL A   1      37.698  31.780  28.820  1.00  0.00     0.010 A 
ATOM     91  C   UNL A   1      36.212  29.985  28.256  1.00  0.00     0.010 A 
ATOM     92  C   UNL A   1      36.659  32.705  28.652  1.00  0.00     0.020 A 
ATOM     93  C   UNL A   1      35.153  30.897  28.120  1.00  0.00     0.020 A 
ATOM     94  C   UNL A   1      35.382  32.254  28.327  1.00  0.00     0.054 A 
BRANCH  94  95
ATOM     95  S   UNL A   1      34.035  33.459  28.196  1.00  0.00     0.124 S 
ATOM     96  O   UNL A   1      34.651  34.541  27.430  1.00  0.00    -0.237 OA
ATOM     97  O   UNL A   1      33.005  32.700  27.495  1.00  0.00    -0.237 OA
ATOM     98  O   UNL A   1      33.728  33.789  29.587  1.00  0.00    -0.744 OA
ENDBRANCH  94  95
ENDBRANCH  75  89
BRANCH  76  99
ATOM     99  C   UNL A   1      45.524  25.449  31.005  1.00  0.00    -0.014 A 
ATOM    100  C   UNL A   1      46.713  26.098  31.404  1.00  0.00     0.010 A 
ATOM    101  C   UNL A   1      44.802  24.704  31.954  1.00  0.00     0.010 A 
ATOM    102  C   UNL A   1      47.065  26.164  32.754  1.00  0.00     0.020 A 
ATOM    103  C   UNL A   1      45.160  24.765  33.309  1.00  0.00     0.020 A 
ATOM    104  C   UNL A   1      46.245  25.555  33.703  1.00  0.00     0.054 A 
BRANCH 104 105
ATOM    105  S   UNL A   1      46.500  25.988  35.451  1.00  0.00     0.124 S 
ATOM    106  O   UNL A   1      46.698  27.432  35.391  1.00  0.00    -0.237 OA
ATOM    107  O   UNL A   1      45.243  25.549  36.057  1.00  0.00    -0.237 OA
ATOM    108  O   UNL A   1      47.675  25.205  35.822  1.00  0.00    -0.744 OA
ENDBRANCH 104 105
ENDBRANCH  76  99
BRANCH  88 109
ATOM    109  C   UNL A   1      39.564  24.273  27.025  1.00  0.00    -0.014 A 
ATOM    110  C   UNL A   1      38.249  24.640  26.699  1.00  0.00     0.010 A 
ATOM    111  C   UNL A   1      39.957  22.947  26.719  1.00  0.00     0.010 A 
ATOM    112  C   UNL A   1      37.351  23.711  26.151  1.00  0.00     0.020 A 
ATOM    113  C   UNL A   1      39.083  22.026  26.135  1.00  0.00     0.020 A 
ATOM    114  C   UNL A   1      37.773  22.409  25.877  1.00  0.00     0.054 A 
BRANCH 114 115
ATOM    115  S   UNL A   1      36.627  21.234  25.114  1.00  0.00     0.124 S 
ATOM    116  O   UNL A   1      37.459  20.039  24.994  1.00  0.00    -0.237 OA
ATOM    117  O   UNL A   1      35.544  21.145  26.092  1.00  0.00    -0.237 OA
ATOM    118  O   UNL A   1      36.266  21.878  23.854  1.00  0.00    -0.744 OA
ENDBRANCH 114 115
ENDBRANCH  88 109
ENDBRANCH  62  63
ENDBRANCH  54  57
ENDBRANCH  52  53
ENDBRANCH  51  52
ENDBRANCH  50  51
ENDBRANCH  49  50
ENDBRANCH  48  49
ENDBRANCH   1  48
TORSDOF 25
ENDMDL
MODEL 3
REMARK VINA RESULT:      -9.7      5.321     13.482
REMARK SMILES Cc1ccc(S(=O)(=O)n2cc(C(=O)C(=O)NCC(=O)N[C@@H](Cc3c[nH]c4ccccc34)C(=O)NCCCCCCNC(=O)c3ccc(-c4c5nc(c(-c6ccc(S(=O)(=O)[O-])cc6)c6ccc([nH]6)c(-c6ccc(S(=O)(=O)[O-])cc6)c6nc(c(-c7ccc(S(=O)(=O)[O-])cc7)c7ccc4[nH]7)C=C6)C=C5)cc3)c3ccccc32)cc1
REMARK SMILES IDX 35 1 34 2 32 3 33 4 21 6 20 7 18 8 19 9 17 11 16 12 14 13
REMARK SMILES IDX 15 14 12 16 13 17 11 18 9 19 10 20 109 21 104 22 108 23
REMARK SMILES IDX 105 24 107 25 106 26 6 27 7 28 8 29 5 30 1 31 2 32 3 33
REMARK SMILES IDX 111 34 4 35 110 36 22 37 23 38 24 39 31 40 25 41 26 42 30 43
REMARK SMILES IDX 27 45 29 46 28 47 36 48 37 49 38 50 39 51 40 52 41 53 42 54
REMARK SMILES IDX 43 56 44 57 45 58 103 59 46 60 102 61 47 62 48 63 49 64
REMARK SMILES IDX 96 65 50 66 101 67 95 68 97 69 51 70 100 71 94 72 93 73
REMARK SMILES IDX 52 75 82 76 63 77 81 78 64 79 67 80 80 81 98 82 65 83 66 84
REMARK SMILES IDX 79 86 99 87 68 88 53 89 54 90 62 91 55 92 61 93 56 94 57 95
REMARK SMILES IDX 58 96 59 97 60 98 83 99 84 100 92 101 85 102 91 103 86 104
REMARK SMILES IDX 87 105 88 106 89 107 90 108 69 109 70 110 78 111 71 112
REMARK SMILES IDX 77 113 72 114 73 115 74 116 75 117 76 118
REMARK H PARENT 34 5 20 10 16 15 25 44 41 55 97 74 67 85
REMARK Flexibility Score: inf
ROOT
ATOM      1  C   UNL A   1      45.955  26.497  29.939  1.00  0.00     0.116 C 
ENDROOT
BRANCH   1   2
ATOM      2  N   UNL A   1      47.147  27.282  29.694  1.00  0.00    -0.354 N 
ATOM      3  C   UNL A   1      47.670  27.726  28.516  1.00  0.00     0.242 C 
ATOM      4  O   UNL A   1      48.386  28.735  28.568  1.00  0.00    -0.273 OA
ATOM      5  H   UNL A   1      47.657  27.533  30.499  1.00  0.00     0.163 HD
BRANCH   3   6
ATOM      6  C   UNL A   1      47.359  27.108  27.128  1.00  0.00     0.175 C 
BRANCH   6   7
ATOM      7  N   UNL A   1      47.281  28.038  25.999  1.00  0.00    -0.342 N 
ATOM      8  C   UNL A   1      46.312  28.975  25.752  1.00  0.00     0.240 C 
ATOM      9  O   UNL A   1      46.512  29.817  24.875  1.00  0.00    -0.273 OA
ATOM     10  H   UNL A   1      48.010  27.983  25.340  1.00  0.00     0.164 HD
BRANCH   8  11
ATOM     11  C   UNL A   1      45.011  28.972  26.579  1.00  0.00     0.216 C 
BRANCH  11  12
ATOM     12  N   UNL A   1      44.570  30.345  26.849  1.00  0.00    -0.340 N 
ATOM     13  C   UNL A   1      44.021  30.856  28.012  1.00  0.00     0.292 C 
ATOM     14  O   UNL A   1      43.602  32.007  28.065  1.00  0.00    -0.265 OA
ATOM     15  H   UNL A   1      44.678  30.983  26.108  1.00  0.00     0.164 HD
BRANCH  13  16
ATOM     16  C   UNL A   1      43.939  29.959  29.250  1.00  0.00     0.252 C 
ATOM     17  O   UNL A   1      44.981  29.814  29.890  1.00  0.00    -0.283 OA
BRANCH  16  18
ATOM     18  C   UNL A   1      42.723  29.199  29.560  1.00  0.00     0.054 A 
ATOM     19  N   UNL A   1      41.133  27.617  29.834  1.00  0.00    -0.240 N 
ATOM     20  C   UNL A   1      42.419  27.848  29.353  1.00  0.00     0.117 A 
ATOM     21  C   UNL A   1      40.722  28.761  30.531  1.00  0.00     0.065 A 
ATOM     22  C   UNL A   1      41.539  29.798  30.090  1.00  0.00     0.012 A 
ATOM     23  C   UNL A   1      39.570  29.008  31.301  1.00  0.00     0.028 A 
ATOM     24  C   UNL A   1      41.098  31.126  30.270  1.00  0.00     0.011 A 
ATOM     25  C   UNL A   1      39.129  30.325  31.421  1.00  0.00     0.002 A 
ATOM     26  C   UNL A   1      39.861  31.369  30.875  1.00  0.00     0.001 A 
BRANCH  19  27
ATOM     27  S   UNL A   1      39.827  26.907  28.922  1.00  0.00     0.268 S 
ATOM     28  O   UNL A   1      39.627  27.847  27.832  1.00  0.00    -0.201 OA
ATOM     29  O   UNL A   1      38.799  26.689  29.929  1.00  0.00    -0.201 OA
BRANCH  27  30
ATOM     30  C   UNL A   1      39.911  25.330  28.154  1.00  0.00     0.088 A 
ATOM     31  C   UNL A   1      41.088  21.584  26.355  1.00  0.00     0.044 C 
ATOM     32  C   UNL A   1      40.632  22.860  27.003  1.00  0.00    -0.051 A 
ATOM     33  C   UNL A   1      41.556  23.551  27.777  1.00  0.00     0.005 A 
ATOM     34  C   UNL A   1      39.345  23.411  26.820  1.00  0.00     0.005 A 
ATOM     35  C   UNL A   1      41.192  24.756  28.347  1.00  0.00     0.022 A 
ATOM     36  C   UNL A   1      38.972  24.654  27.392  1.00  0.00     0.022 A 
ENDBRANCH  27  30
ENDBRANCH  19  27
ENDBRANCH  16  18
ENDBRANCH  13  16
ENDBRANCH  11  12
ENDBRANCH   8  11
ENDBRANCH   6   7
BRANCH   6  37
ATOM     37  C   UNL A   1      48.083  25.792  26.793  1.00  0.00     0.072 C 
BRANCH  37  38
ATOM     38  C   UNL A   1      47.504  24.950  25.703  1.00  0.00    -0.020 A 
ATOM     39  C   UNL A   1      47.948  24.930  24.393  1.00  0.00     0.087 A 
ATOM     40  C   UNL A   1      46.471  23.958  25.798  1.00  0.00     0.003 A 
ATOM     41  N   UNL A   1      47.155  24.076  23.678  1.00  0.00    -0.361 N 
ATOM     42  C   UNL A   1      46.247  23.466  24.511  1.00  0.00     0.046 A 
ATOM     43  C   UNL A   1      45.702  23.423  26.854  1.00  0.00     0.010 A 
ATOM     44  H   UNL A   1      47.225  23.919  22.709  1.00  0.00     0.166 HD
ATOM     45  C   UNL A   1      45.261  22.519  24.214  1.00  0.00     0.026 A 
ATOM     46  C   UNL A   1      44.740  22.440  26.582  1.00  0.00     0.001 A 
ATOM     47  C   UNL A   1      44.514  22.008  25.278  1.00  0.00     0.002 A 
ENDBRANCH  37  38
ENDBRANCH   6  37
ENDBRANCH   3   6
ENDBRANCH   1   2
BRANCH   1  48
ATOM     48  C   UNL A   1      45.296  26.735  31.296  1.00  0.00     0.021 C 
BRANCH  48  49
ATOM     49  C   UNL A   1      44.223  25.732  31.743  1.00  0.00     0.002 C 
BRANCH  49  50
ATOM     50  C   UNL A   1      44.150  24.370  31.035  1.00  0.00     0.002 C 
BRANCH  50  51
ATOM     51  C   UNL A   1      44.062  23.118  31.908  1.00  0.00     0.021 C 
BRANCH  51  52
ATOM     52  C   UNL A   1      43.633  23.367  33.348  1.00  0.00     0.116 C 
BRANCH  52  53
ATOM     53  N   UNL A   1      43.968  22.263  34.241  1.00  0.00    -0.352 N 
ATOM     54  C   UNL A   1      45.091  22.146  35.049  1.00  0.00     0.251 C 
ATOM     55  H   UNL A   1      43.326  21.518  34.275  1.00  0.00     0.163 HD
ATOM     56  O   UNL A   1      45.409  21.109  35.597  1.00  0.00    -0.269 OA
BRANCH  54  57
ATOM     57  C   UNL A   1      45.829  23.397  35.310  1.00  0.00     0.039 A 
ATOM     58  C   UNL A   1      45.387  24.180  36.384  1.00  0.00     0.014 A 
ATOM     59  C   UNL A   1      46.663  23.917  34.326  1.00  0.00     0.014 A 
ATOM     60  C   UNL A   1      45.631  25.550  36.371  1.00  0.00     0.010 A 
ATOM     61  C   UNL A   1      46.813  25.288  34.263  1.00  0.00     0.010 A 
ATOM     62  C   UNL A   1      46.257  26.109  35.258  1.00  0.00    -0.014 A 
BRANCH  62  63
ATOM     63  C   UNL A   1      46.302  27.543  34.993  1.00  0.00     0.031 A 
ATOM     64  C   UNL A   1      45.083  28.241  34.519  1.00  0.00     0.074 A 
ATOM     65  C   UNL A   1      47.418  28.254  35.273  1.00  0.00     0.049 A 
ATOM     66  N   UNL A   1      45.086  29.381  33.910  1.00  0.00    -0.248 NA
ATOM     67  C   UNL A   1      43.744  27.673  34.661  1.00  0.00     0.031 C 
ATOM     68  C   UNL A   1      47.518  29.708  35.389  1.00  0.00     0.029 A 
ATOM     69  N   UNL A   1      48.749  27.826  35.307  1.00  0.00    -0.354 N 
ATOM     70  C   UNL A   1      43.782  29.819  33.853  1.00  0.00     0.074 A 
ATOM     71  C   UNL A   1      42.978  28.695  34.271  1.00  0.00     0.031 C 
ATOM     72  C   UNL A   1      48.792  30.070  35.172  1.00  0.00     0.029 A 
ATOM     73  C   UNL A   1      49.514  28.875  34.770  1.00  0.00     0.049 A 
ATOM     74  H   UNL A   1      49.082  26.962  35.642  1.00  0.00     0.167 HD
ATOM     75  C   UNL A   1      43.512  31.129  33.597  1.00  0.00     0.031 A 
ATOM     76  C   UNL A   1      50.296  28.768  33.656  1.00  0.00     0.031 A 
ATOM     77  C   UNL A   1      44.720  31.892  33.319  1.00  0.00     0.049 A 
ATOM     78  C   UNL A   1      49.920  29.758  32.572  1.00  0.00     0.074 A 
ATOM     79  C   UNL A   1      45.525  32.703  34.103  1.00  0.00     0.029 A 
ATOM     80  N   UNL A   1      45.431  31.632  32.156  1.00  0.00    -0.354 N 
ATOM     81  N   UNL A   1      48.799  30.423  32.558  1.00  0.00    -0.248 NA
ATOM     82  C   UNL A   1      50.745  30.040  31.399  1.00  0.00     0.031 C 
ATOM     83  C   UNL A   1      46.770  32.854  33.437  1.00  0.00     0.029 A 
ATOM     84  C   UNL A   1      46.704  32.161  32.241  1.00  0.00     0.049 A 
ATOM     85  H   UNL A   1      45.078  31.140  31.380  1.00  0.00     0.167 HD
ATOM     86  C   UNL A   1      48.730  31.193  31.426  1.00  0.00     0.074 A 
ATOM     87  C   UNL A   1      49.979  30.926  30.736  1.00  0.00     0.031 C 
ATOM     88  C   UNL A   1      47.647  31.975  31.149  1.00  0.00     0.031 A 
BRANCH  75  89
ATOM     89  C   UNL A   1      42.172  31.751  33.894  1.00  0.00    -0.014 A 
ATOM     90  C   UNL A   1      41.179  30.986  34.540  1.00  0.00     0.010 A 
ATOM     91  C   UNL A   1      41.815  33.060  33.520  1.00  0.00     0.010 A 
ATOM     92  C   UNL A   1      39.875  31.464  34.721  1.00  0.00     0.020 A 
ATOM     93  C   UNL A   1      40.503  33.538  33.661  1.00  0.00     0.020 A 
ATOM     94  C   UNL A   1      39.536  32.732  34.256  1.00  0.00     0.054 A 
BRANCH  94  95
ATOM     95  S   UNL A   1      37.823  33.299  34.426  1.00  0.00     0.124 S 
ATOM     96  O   UNL A   1      37.242  32.947  33.132  1.00  0.00    -0.237 OA
ATOM     97  O   UNL A   1      37.348  32.517  35.563  1.00  0.00    -0.237 OA
ATOM     98  O   UNL A   1      37.956  34.735  34.670  1.00  0.00    -0.744 OA
ENDBRANCH  94  95
ENDBRANCH  75  89
BRANCH  76  99
ATOM     99  C   UNL A   1      50.848  27.407  33.421  1.00  0.00    -0.014 A 
ATOM    100  C   UNL A   1      51.713  26.884  34.407  1.00  0.00     0.010 A 
ATOM    101  C   UNL A   1      50.199  26.519  32.544  1.00  0.00     0.010 A 
ATOM    102  C   UNL A   1      51.775  25.508  34.638  1.00  0.00     0.020 A 
ATOM    103  C   UNL A   1      50.266  25.137  32.772  1.00  0.00     0.020 A 
ATOM    104  C   UNL A   1      50.995  24.651  33.863  1.00  0.00     0.054 A 
BRANCH 104 105
ATOM    105  S   UNL A   1      50.789  22.937  34.435  1.00  0.00     0.124 S 
ATOM    106  O   UNL A   1      52.138  22.584  34.864  1.00  0.00    -0.237 OA
ATOM    107  O   UNL A   1      49.807  23.093  35.509  1.00  0.00    -0.237 OA
ATOM    108  O   UNL A   1      50.304  22.243  33.246  1.00  0.00    -0.744 OA
ENDBRANCH 104 105
ENDBRANCH  76  99
BRANCH  88 109
ATOM    109  C   UNL A   1      47.390  32.705  29.855  1.00  0.00    -0.014 A 
ATOM    110  C   UNL A   1      47.321  34.103  29.744  1.00  0.00     0.010 A 
ATOM    111  C   UNL A   1      47.352  31.960  28.651  1.00  0.00     0.010 A 
ATOM    112  C   UNL A   1      47.161  34.724  28.497  1.00  0.00     0.020 A 
ATOM    113  C   UNL A   1      47.235  32.572  27.400  1.00  0.00     0.020 A 
ATOM    114  C   UNL A   1      47.114  33.955  27.333  1.00  0.00     0.054 A 
BRANCH 114 115
ATOM    115  S   UNL A   1      46.968  34.768  25.722  1.00  0.00     0.124 S 
ATOM    116  O   UNL A   1      45.860  34.033  25.115  1.00  0.00    -0.237 OA
ATOM    117  O   UNL A   1      46.676  36.155  26.077  1.00  0.00    -0.237 OA
ATOM    118  O   UNL A   1      48.275  34.551  25.111  1.00  0.00    -0.744 OA
ENDBRANCH 114 115
ENDBRANCH  88 109
ENDBRANCH  62  63
ENDBRANCH  54  57
ENDBRANCH  52  53
ENDBRANCH  51  52
ENDBRANCH  50  51
ENDBRANCH  49  50
ENDBRANCH  48  49
ENDBRANCH   1  48
TORSDOF 25
ENDMDL
