MODEL 1
REMARK VINA RESULT:     -11.4      0.000      0.000
REMARK SMILES CC[NH+]1CC[NH+]([C@@H]2CC(=O)N(c3ccc(C(=O)NCCCCCCNC(=O)c4ccc(-c5c6nc(c(-c7ccc(S(=O)(=O)[O-])cc7)c7ccc([nH]7)c(-c7ccc(S(=O)(=O)[O-])cc7)c7nc(c(-c8ccc(S(=O)(=O)[O-])cc8)c8ccc5[nH]8)C=C7)C=C6)cc4)cc3)C2=O)CC1
REMARK SMILES IDX 21 1 20 2 19 3 18 4 16 5 17 6 15 8 12 9 13 10 89 11 14 12
REMARK SMILES IDX 88 13 11 14 7 15 8 16 90 17 9 18 91 19 10 20 6 21 3 22 4 23
REMARK SMILES IDX 93 24 5 26 92 27 2 29 1 30 22 31 23 32 24 33 25 34 26 35
REMARK SMILES IDX 27 37 28 38 29 39 87 40 30 41 86 42 31 43 32 44 33 45 80 46
REMARK SMILES IDX 34 47 85 48 79 49 81 50 35 51 84 52 78 53 77 54 36 56 66 57
REMARK SMILES IDX 47 58 65 59 48 60 51 61 64 62 82 63 49 64 50 65 63 67 83 68
REMARK SMILES IDX 52 69 37 70 38 71 46 72 39 73 45 74 40 75 41 76 42 77 43 78
REMARK SMILES IDX 44 79 67 80 68 81 76 82 69 83 75 84 70 85 71 86 72 87 73 88
REMARK SMILES IDX 74 89 53 90 54 91 62 92 55 93 61 94 56 95 57 96 58 97 59 98
REMARK SMILES IDX 60 99
REMARK H PARENT 18 7 3 25 6 28 25 36 81 55 51 66
REMARK Flexibility Score: inf
ROOT
ATOM      1  C   UNL A   1      34.299  31.803  28.047  1.00  0.00     0.002 C 
ENDROOT
BRANCH   1   2
ATOM      2  C   UNL A   1      33.857  30.824  26.954  1.00  0.00     0.021 C 
BRANCH   2   3
ATOM      3  C   UNL A   1      32.502  30.177  27.258  1.00  0.00     0.116 C 
BRANCH   3   4
ATOM      4  N   UNL A   1      31.596  30.391  26.146  1.00  0.00    -0.352 N 
ATOM      5  C   UNL A   1      31.296  29.631  25.046  1.00  0.00     0.251 C 
ATOM      6  O   UNL A   1      30.488  30.090  24.238  1.00  0.00    -0.269 OA
ATOM      7  H   UNL A   1      31.104  31.242  26.190  1.00  0.00     0.163 HD
BRANCH   5   8
ATOM      8  C   UNL A   1      31.853  28.266  24.820  1.00  0.00     0.039 A 
ATOM      9  C   UNL A   1      32.733  25.610  24.529  1.00  0.00     0.052 A 
ATOM     10  C   UNL A   1      31.370  25.909  24.448  1.00  0.00     0.027 A 
ATOM     11  C   UNL A   1      33.652  26.641  24.708  1.00  0.00     0.027 A 
ATOM     12  C   UNL A   1      30.932  27.224  24.630  1.00  0.00     0.016 A 
ATOM     13  C   UNL A   1      33.214  27.962  24.778  1.00  0.00     0.016 A 
BRANCH   9  14
ATOM     14  N   UNL A   1      33.194  24.290  24.413  1.00  0.00    -0.245 N 
ATOM     15  C   UNL A   1      33.867  22.120  24.984  1.00  0.00     0.285 C 
ATOM     16  C   UNL A   1      34.038  22.328  23.481  1.00  0.00     0.176 C 
ATOM     17  C   UNL A   1      33.130  23.375  25.436  1.00  0.00     0.292 C 
ATOM     18  C   UNL A   1      33.714  23.769  23.259  1.00  0.00     0.240 C 
ATOM     19  O   UNL A   1      32.599  23.518  26.528  1.00  0.00    -0.267 OA
ATOM     20  O   UNL A   1      33.914  24.343  22.194  1.00  0.00    -0.274 OA
BRANCH  15  21
ATOM     21  N   UNL A   1      35.042  21.876  25.844  1.00  0.00    -0.315 N 
ATOM     22  N   UNL A   1      37.841  22.570  24.966  1.00  0.00    -0.326 N 
ATOM     23  C   UNL A   1      37.164  21.340  24.496  1.00  0.00     0.324 C 
ATOM     24  C   UNL A   1      36.838  23.580  25.344  1.00  0.00     0.324 C 
ATOM     25  H   UNL A   1      38.392  22.972  24.208  1.00  0.00     0.348 HD
ATOM     26  C   UNL A   1      35.968  20.845  25.355  1.00  0.00     0.325 C 
ATOM     27  C   UNL A   1      35.776  23.056  26.324  1.00  0.00     0.325 C 
ATOM     28  H   UNL A   1      34.574  21.504  26.670  1.00  0.00     0.349 HD
BRANCH  22  29
ATOM     29  C   UNL A   1      38.798  22.260  26.038  1.00  0.00     0.259 C 
ATOM     30  C   UNL A   1      39.458  23.496  26.644  1.00  0.00     0.071 C 
ENDBRANCH  22  29
ENDBRANCH  15  21
ENDBRANCH   9  14
ENDBRANCH   5   8
ENDBRANCH   3   4
ENDBRANCH   2   3
ENDBRANCH   1   2
BRANCH   1  31
ATOM     31  C   UNL A   1      35.787  32.170  27.995  1.00  0.00     0.002 C 
BRANCH  31  32
ATOM     32  C   UNL A   1      36.171  33.397  28.826  1.00  0.00     0.021 C 
BRANCH  32  33
ATOM     33  C   UNL A   1      37.101  33.083  29.993  1.00  0.00     0.116 C 
BRANCH  33  34
ATOM     34  N   UNL A   1      36.484  32.149  30.923  1.00  0.00    -0.352 N 
ATOM     35  C   UNL A   1      36.784  30.829  31.149  1.00  0.00     0.251 C 
ATOM     36  H   UNL A   1      35.749  32.514  31.465  1.00  0.00     0.163 HD
ATOM     37  O   UNL A   1      35.996  30.112  31.757  1.00  0.00    -0.269 OA
BRANCH  35  38
ATOM     38  C   UNL A   1      38.059  30.280  30.646  1.00  0.00     0.039 A 
ATOM     39  C   UNL A   1      38.252  30.156  29.268  1.00  0.00     0.014 A 
ATOM     40  C   UNL A   1      39.063  29.895  31.539  1.00  0.00     0.014 A 
ATOM     41  C   UNL A   1      39.483  29.707  28.785  1.00  0.00     0.010 A 
ATOM     42  C   UNL A   1      40.310  29.516  31.056  1.00  0.00     0.010 A 
ATOM     43  C   UNL A   1      40.534  29.423  29.673  1.00  0.00    -0.014 A 
BRANCH  43  44
ATOM     44  C   UNL A   1      41.884  29.058  29.177  1.00  0.00     0.031 A 
ATOM     45  C   UNL A   1      42.971  30.094  29.096  1.00  0.00     0.074 A 
ATOM     46  C   UNL A   1      42.106  27.806  28.731  1.00  0.00     0.049 A 
ATOM     47  N   UNL A   1      44.188  29.976  28.631  1.00  0.00    -0.248 NA
ATOM     48  C   UNL A   1      42.641  31.446  29.579  1.00  0.00     0.031 C 
ATOM     49  C   UNL A   1      41.119  26.721  28.724  1.00  0.00     0.029 A 
ATOM     50  N   UNL A   1      43.230  27.232  28.192  1.00  0.00    -0.354 N 
ATOM     51  C   UNL A   1      44.765  31.234  28.756  1.00  0.00     0.074 A 
ATOM     52  C   UNL A   1      43.749  32.113  29.293  1.00  0.00     0.031 C 
ATOM     53  C   UNL A   1      41.690  25.611  28.232  1.00  0.00     0.029 A 
ATOM     54  C   UNL A   1      43.064  25.912  27.844  1.00  0.00     0.049 A 
ATOM     55  H   UNL A   1      44.076  27.720  28.065  1.00  0.00     0.167 HD
ATOM     56  C   UNL A   1      46.031  31.617  28.466  1.00  0.00     0.031 A 
ATOM     57  C   UNL A   1      43.915  25.043  27.265  1.00  0.00     0.031 A 
ATOM     58  C   UNL A   1      47.037  30.737  27.930  1.00  0.00     0.049 A 
ATOM     59  C   UNL A   1      45.305  25.503  26.919  1.00  0.00     0.074 A 
ATOM     60  C   UNL A   1      48.362  31.016  27.650  1.00  0.00     0.029 A 
ATOM     61  N   UNL A   1      46.826  29.409  27.584  1.00  0.00    -0.354 N 
ATOM     62  N   UNL A   1      45.854  26.680  27.110  1.00  0.00    -0.248 NA
ATOM     63  C   UNL A   1      46.191  24.518  26.285  1.00  0.00     0.031 C 
ATOM     64  C   UNL A   1      48.937  29.877  27.077  1.00  0.00     0.029 A 
ATOM     65  C   UNL A   1      47.988  28.867  27.062  1.00  0.00     0.049 A 
ATOM     66  H   UNL A   1      45.976  28.925  27.694  1.00  0.00     0.167 HD
ATOM     67  C   UNL A   1      47.157  26.568  26.641  1.00  0.00     0.074 A 
ATOM     68  C   UNL A   1      47.320  25.205  26.176  1.00  0.00     0.031 C 
ATOM     69  C   UNL A   1      48.133  27.510  26.597  1.00  0.00     0.031 A 
BRANCH  56  70
ATOM     70  C   UNL A   1      46.401  33.057  28.713  1.00  0.00    -0.014 A 
ATOM     71  C   UNL A   1      46.197  34.040  27.728  1.00  0.00     0.010 A 
ATOM     72  C   UNL A   1      46.917  33.441  29.964  1.00  0.00     0.010 A 
ATOM     73  C   UNL A   1      46.539  35.372  27.975  1.00  0.00     0.020 A 
ATOM     74  C   UNL A   1      47.232  34.778  30.226  1.00  0.00     0.020 A 
ATOM     75  C   UNL A   1      47.056  35.733  29.223  1.00  0.00     0.054 A 
BRANCH  75  76
ATOM     76  S   UNL A   1      47.468  37.474  29.521  1.00  0.00     0.124 S 
ATOM     77  O   UNL A   1      46.815  38.135  28.394  1.00  0.00    -0.237 OA
ATOM     78  O   UNL A   1      46.869  37.725  30.829  1.00  0.00    -0.237 OA
ATOM     79  O   UNL A   1      48.928  37.495  29.493  1.00  0.00    -0.744 OA
ENDBRANCH  75  76
ENDBRANCH  56  70
BRANCH  57  80
ATOM     80  C   UNL A   1      43.475  23.650  26.980  1.00  0.00    -0.014 A 
ATOM     81  C   UNL A   1      43.498  23.148  25.667  1.00  0.00     0.010 A 
ATOM     82  C   UNL A   1      43.043  22.812  28.024  1.00  0.00     0.010 A 
ATOM     83  C   UNL A   1      43.081  21.841  25.400  1.00  0.00     0.020 A 
ATOM     84  C   UNL A   1      42.655  21.494  27.766  1.00  0.00     0.020 A 
ATOM     85  C   UNL A   1      42.665  21.021  26.452  1.00  0.00     0.054 A 
BRANCH  85  86
ATOM     86  S   UNL A   1      42.176  19.312  26.088  1.00  0.00     0.124 S 
ATOM     87  O   UNL A   1      42.578  18.615  27.305  1.00  0.00    -0.237 OA
ATOM     88  O   UNL A   1      40.736  19.436  25.875  1.00  0.00    -0.237 OA
ATOM     89  O   UNL A   1      42.949  18.983  24.891  1.00  0.00    -0.744 OA
ENDBRANCH  85  86
ENDBRANCH  57  80
BRANCH  69  90
ATOM     90  C   UNL A   1      49.473  27.096  26.049  1.00  0.00    -0.014 A 
ATOM     91  C   UNL A   1      50.421  26.445  26.858  1.00  0.00     0.010 A 
ATOM     92  C   UNL A   1      49.761  27.306  24.688  1.00  0.00     0.010 A 
ATOM     93  C   UNL A   1      51.644  26.035  26.321  1.00  0.00     0.020 A 
ATOM     94  C   UNL A   1      50.971  26.870  24.140  1.00  0.00     0.020 A 
ATOM     95  C   UNL A   1      51.910  26.247  24.964  1.00  0.00     0.054 A 
BRANCH  95  96
ATOM     96  S   UNL A   1      53.483  25.656  24.282  1.00  0.00     0.124 S 
ATOM     97  O   UNL A   1      53.510  24.270  24.737  1.00  0.00    -0.237 OA
ATOM     98  O   UNL A   1      53.297  25.843  22.845  1.00  0.00    -0.237 OA
ATOM     99  O   UNL A   1      54.479  26.533  24.894  1.00  0.00    -0.744 OA
ENDBRANCH  95  96
ENDBRANCH  69  90
ENDBRANCH  43  44
ENDBRANCH  35  38
ENDBRANCH  33  34
ENDBRANCH  32  33
ENDBRANCH  31  32
ENDBRANCH   1  31
TORSDOF 19
ENDMDL
MODEL 2
REMARK VINA RESULT:     -11.3      0.558      7.882
REMARK SMILES CC[NH+]1CC[NH+]([C@@H]2CC(=O)N(c3ccc(C(=O)NCCCCCCNC(=O)c4ccc(-c5c6nc(c(-c7ccc(S(=O)(=O)[O-])cc7)c7ccc([nH]7)c(-c7ccc(S(=O)(=O)[O-])cc7)c7nc(c(-c8ccc(S(=O)(=O)[O-])cc8)c8ccc5[nH]8)C=C7)C=C6)cc4)cc3)C2=O)CC1
REMARK SMILES IDX 21 1 20 2 19 3 18 4 16 5 17 6 15 8 12 9 13 10 89 11 14 12
REMARK SMILES IDX 88 13 11 14 7 15 8 16 90 17 9 18 91 19 10 20 6 21 3 22 4 23
REMARK SMILES IDX 93 24 5 26 92 27 2 29 1 30 22 31 23 32 24 33 25 34 26 35
REMARK SMILES IDX 27 37 28 38 29 39 87 40 30 41 86 42 31 43 32 44 33 45 80 46
REMARK SMILES IDX 34 47 85 48 79 49 81 50 35 51 84 52 78 53 77 54 36 56 66 57
REMARK SMILES IDX 47 58 65 59 48 60 51 61 64 62 82 63 49 64 50 65 63 67 83 68
REMARK SMILES IDX 52 69 37 70 38 71 46 72 39 73 45 74 40 75 41 76 42 77 43 78
REMARK SMILES IDX 44 79 67 80 68 81 76 82 69 83 75 84 70 85 71 86 72 87 73 88
REMARK SMILES IDX 74 89 53 90 54 91 62 92 55 93 61 94 56 95 57 96 58 97 59 98
REMARK SMILES IDX 60 99
REMARK H PARENT 18 7 3 25 6 28 25 36 81 55 51 66
REMARK Flexibility Score: inf
ROOT
ATOM      1  C   UNL A   1      33.895  31.721  27.780  1.00  0.00     0.002 C 
ENDROOT
BRANCH   1   2
ATOM      2  C   UNL A   1      33.614  30.461  26.954  1.00  0.00     0.021 C 
BRANCH   2   3
ATOM      3  C   UNL A   1      32.173  29.968  27.105  1.00  0.00     0.116 C 
BRANCH   3   4
ATOM      4  N   UNL A   1      31.443  30.203  25.874  1.00  0.00    -0.352 N 
ATOM      5  C   UNL A   1      31.284  29.448  24.741  1.00  0.00     0.251 C 
ATOM      6  O   UNL A   1      30.614  29.926  23.825  1.00  0.00    -0.269 OA
ATOM      7  H   UNL A   1      30.973  31.067  25.847  1.00  0.00     0.163 HD
BRANCH   5   8
ATOM      8  C   UNL A   1      31.831  28.068  24.597  1.00  0.00     0.039 A 
ATOM      9  C   UNL A   1      32.698  25.395  24.474  1.00  0.00     0.052 A 
ATOM     10  C   UNL A   1      31.333  25.691  24.437  1.00  0.00     0.027 A 
ATOM     11  C   UNL A   1      33.624  26.435  24.524  1.00  0.00     0.027 A 
ATOM     12  C   UNL A   1      30.903  27.017  24.536  1.00  0.00     0.016 A 
ATOM     13  C   UNL A   1      33.189  27.758  24.511  1.00  0.00     0.016 A 
BRANCH   9  14
ATOM     14  N   UNL A   1      33.155  24.069  24.440  1.00  0.00    -0.245 N 
ATOM     15  C   UNL A   1      33.874  21.955  25.147  1.00  0.00     0.285 C 
ATOM     16  C   UNL A   1      33.938  22.032  23.624  1.00  0.00     0.176 C 
ATOM     17  C   UNL A   1      33.167  23.246  25.540  1.00  0.00     0.292 C 
ATOM     18  C   UNL A   1      33.594  23.449  23.301  1.00  0.00     0.240 C 
ATOM     19  O   UNL A   1      32.713  23.484  26.650  1.00  0.00    -0.267 OA
ATOM     20  O   UNL A   1      33.717  23.928  22.179  1.00  0.00    -0.274 OA
BRANCH  15  21
ATOM     21  N   UNL A   1      35.108  21.783  25.940  1.00  0.00    -0.315 N 
ATOM     22  N   UNL A   1      37.806  22.651  24.912  1.00  0.00    -0.326 N 
ATOM     23  C   UNL A   1      37.182  21.383  24.474  1.00  0.00     0.324 C 
ATOM     24  C   UNL A   1      36.764  23.596  25.350  1.00  0.00     0.324 C 
ATOM     25  H   UNL A   1      38.288  23.089  24.128  1.00  0.00     0.348 HD
ATOM     26  C   UNL A   1      36.068  20.813  25.395  1.00  0.00     0.325 C 
ATOM     27  C   UNL A   1      35.793  23.005  26.385  1.00  0.00     0.325 C 
ATOM     28  H   UNL A   1      34.711  21.381  26.788  1.00  0.00     0.349 HD
BRANCH  22  29
ATOM     29  C   UNL A   1      38.838  22.400  25.929  1.00  0.00     0.259 C 
ATOM     30  C   UNL A   1      39.220  23.641  26.732  1.00  0.00     0.071 C 
ENDBRANCH  22  29
ENDBRANCH  15  21
ENDBRANCH   9  14
ENDBRANCH   5   8
ENDBRANCH   3   4
ENDBRANCH   2   3
ENDBRANCH   1   2
BRANCH   1  31
ATOM     31  C   UNL A   1      35.374  32.120  27.833  1.00  0.00     0.002 C 
BRANCH  31  32
ATOM     32  C   UNL A   1      35.681  33.311  28.745  1.00  0.00     0.021 C 
BRANCH  32  33
ATOM     33  C   UNL A   1      36.660  32.989  29.870  1.00  0.00     0.116 C 
BRANCH  33  34
ATOM     34  N   UNL A   1      36.238  31.812  30.614  1.00  0.00    -0.352 N 
ATOM     35  C   UNL A   1      36.796  30.559  30.639  1.00  0.00     0.251 C 
ATOM     36  H   UNL A   1      35.441  31.930  31.178  1.00  0.00     0.163 HD
ATOM     37  O   UNL A   1      36.166  29.610  31.094  1.00  0.00    -0.269 OA
BRANCH  35  38
ATOM     38  C   UNL A   1      38.159  30.363  30.106  1.00  0.00     0.039 A 
ATOM     39  C   UNL A   1      39.244  30.374  30.985  1.00  0.00     0.014 A 
ATOM     40  C   UNL A   1      38.359  30.160  28.737  1.00  0.00     0.014 A 
ATOM     41  C   UNL A   1      40.526  30.116  30.496  1.00  0.00     0.010 A 
ATOM     42  C   UNL A   1      39.625  29.834  28.264  1.00  0.00     0.010 A 
ATOM     43  C   UNL A   1      40.721  29.803  29.140  1.00  0.00    -0.014 A 
BRANCH  43  44
ATOM     44  C   UNL A   1      42.056  29.410  28.624  1.00  0.00     0.031 A 
ATOM     45  C   UNL A   1      42.330  27.986  28.229  1.00  0.00     0.074 A 
ATOM     46  C   UNL A   1      43.042  30.328  28.581  1.00  0.00     0.049 A 
ATOM     47  N   UNL A   1      43.449  27.447  27.819  1.00  0.00    -0.248 NA
ATOM     48  C   UNL A   1      41.207  27.039  28.329  1.00  0.00     0.031 C 
ATOM     49  C   UNL A   1      42.908  31.735  28.974  1.00  0.00     0.029 A 
ATOM     50  N   UNL A   1      44.354  30.217  28.195  1.00  0.00    -0.354 N 
ATOM     51  C   UNL A   1      43.170  26.099  27.622  1.00  0.00     0.074 A 
ATOM     52  C   UNL A   1      41.790  25.893  28.005  1.00  0.00     0.031 C 
ATOM     53  C   UNL A   1      44.081  32.358  28.782  1.00  0.00     0.029 A 
ATOM     54  C   UNL A   1      45.062  31.391  28.301  1.00  0.00     0.049 A 
ATOM     55  H   UNL A   1      44.751  29.376  27.873  1.00  0.00     0.167 HD
ATOM     56  C   UNL A   1      43.984  25.127  27.147  1.00  0.00     0.031 A 
ATOM     57  C   UNL A   1      46.358  31.660  28.052  1.00  0.00     0.031 A 
ATOM     58  C   UNL A   1      45.357  25.339  26.769  1.00  0.00     0.049 A 
ATOM     59  C   UNL A   1      47.252  30.554  27.561  1.00  0.00     0.074 A 
ATOM     60  C   UNL A   1      46.250  24.430  26.231  1.00  0.00     0.029 A 
ATOM     61  N   UNL A   1      46.039  26.540  26.899  1.00  0.00    -0.354 N 
ATOM     62  N   UNL A   1      46.951  29.301  27.313  1.00  0.00    -0.248 NA
ATOM     63  C   UNL A   1      48.658  30.899  27.309  1.00  0.00     0.031 C 
ATOM     64  C   UNL A   1      47.489  25.064  26.092  1.00  0.00     0.029 A 
ATOM     65  C   UNL A   1      47.350  26.387  26.482  1.00  0.00     0.049 A 
ATOM     66  H   UNL A   1      45.648  27.378  27.237  1.00  0.00     0.167 HD
ATOM     67  C   UNL A   1      48.124  28.714  26.855  1.00  0.00     0.074 A 
ATOM     68  C   UNL A   1      49.134  29.753  26.841  1.00  0.00     0.031 C 
ATOM     69  C   UNL A   1      48.347  27.429  26.480  1.00  0.00     0.031 A 
BRANCH  56  70
ATOM     70  C   UNL A   1      43.414  23.738  27.018  1.00  0.00    -0.014 A 
ATOM     71  C   UNL A   1      43.108  23.191  25.758  1.00  0.00     0.010 A 
ATOM     72  C   UNL A   1      43.223  22.950  28.168  1.00  0.00     0.010 A 
ATOM     73  C   UNL A   1      42.585  21.900  25.655  1.00  0.00     0.020 A 
ATOM     74  C   UNL A   1      42.729  21.647  28.067  1.00  0.00     0.020 A 
ATOM     75  C   UNL A   1      42.397  21.135  26.810  1.00  0.00     0.054 A 
BRANCH  75  76
ATOM     76  S   UNL A   1      41.739  19.454  26.641  1.00  0.00     0.124 S 
ATOM     77  O   UNL A   1      40.352  19.629  27.061  1.00  0.00    -0.237 OA
ATOM     78  O   UNL A   1      41.935  19.175  25.221  1.00  0.00    -0.237 OA
ATOM     79  O   UNL A   1      42.568  18.663  27.548  1.00  0.00    -0.744 OA
ENDBRANCH  75  76
ENDBRANCH  56  70
BRANCH  57  80
ATOM     80  C   UNL A   1      46.886  33.035  28.262  1.00  0.00    -0.014 A 
ATOM     81  C   UNL A   1      47.437  33.408  29.501  1.00  0.00     0.010 A 
ATOM     82  C   UNL A   1      46.854  33.978  27.218  1.00  0.00     0.010 A 
ATOM     83  C   UNL A   1      47.929  34.702  29.698  1.00  0.00     0.020 A 
ATOM     84  C   UNL A   1      47.373  35.263  27.401  1.00  0.00     0.020 A 
ATOM     85  C   UNL A   1      47.896  35.620  28.645  1.00  0.00     0.054 A 
BRANCH  85  86
ATOM     86  S   UNL A   1      48.586  37.277  28.909  1.00  0.00     0.124 S 
ATOM     87  O   UNL A   1      50.021  37.012  28.909  1.00  0.00    -0.237 OA
ATOM     88  O   UNL A   1      48.078  38.016  27.755  1.00  0.00    -0.237 OA
ATOM     89  O   UNL A   1      48.022  37.682  30.195  1.00  0.00    -0.744 OA
ENDBRANCH  85  86
ENDBRANCH  57  80
BRANCH  69  90
ATOM     90  C   UNL A   1      49.730  27.077  26.001  1.00  0.00    -0.014 A 
ATOM     91  C   UNL A   1      50.712  26.607  26.892  1.00  0.00     0.010 A 
ATOM     92  C   UNL A   1      50.031  27.158  24.629  1.00  0.00     0.010 A 
ATOM     93  C   UNL A   1      51.978  26.249  26.422  1.00  0.00     0.020 A 
ATOM     94  C   UNL A   1      51.287  26.772  24.151  1.00  0.00     0.020 A 
ATOM     95  C   UNL A   1      52.257  26.331  25.054  1.00  0.00     0.054 A 
BRANCH  95  96
ATOM     96  S   UNL A   1      53.891  25.809  24.465  1.00  0.00     0.124 S 
ATOM     97  O   UNL A   1      53.946  24.421  24.913  1.00  0.00    -0.237 OA
ATOM     98  O   UNL A   1      53.784  25.999  23.020  1.00  0.00    -0.237 OA
ATOM     99  O   UNL A   1      54.812  26.720  25.142  1.00  0.00    -0.744 OA
ENDBRANCH  95  96
ENDBRANCH  69  90
ENDBRANCH  43  44
ENDBRANCH  35  38
ENDBRANCH  33  34
ENDBRANCH  32  33
ENDBRANCH  31  32
ENDBRANCH   1  31
TORSDOF 19
ENDMDL
MODEL 3
REMARK VINA RESULT:     -11.2      5.816     11.751
REMARK SMILES CC[NH+]1CC[NH+]([C@@H]2CC(=O)N(c3ccc(C(=O)NCCCCCCNC(=O)c4ccc(-c5c6nc(c(-c7ccc(S(=O)(=O)[O-])cc7)c7ccc([nH]7)c(-c7ccc(S(=O)(=O)[O-])cc7)c7nc(c(-c8ccc(S(=O)(=O)[O-])cc8)c8ccc5[nH]8)C=C7)C=C6)cc4)cc3)C2=O)CC1
REMARK SMILES IDX 21 1 20 2 19 3 18 4 16 5 17 6 15 8 12 9 13 10 89 11 14 12
REMARK SMILES IDX 88 13 11 14 7 15 8 16 90 17 9 18 91 19 10 20 6 21 3 22 4 23
REMARK SMILES IDX 93 24 5 26 92 27 2 29 1 30 22 31 23 32 24 33 25 34 26 35
REMARK SMILES IDX 27 37 28 38 29 39 87 40 30 41 86 42 31 43 32 44 33 45 80 46
REMARK SMILES IDX 34 47 85 48 79 49 81 50 35 51 84 52 78 53 77 54 36 56 66 57
REMARK SMILES IDX 47 58 65 59 48 60 51 61 64 62 82 63 49 64 50 65 63 67 83 68
REMARK SMILES IDX 52 69 37 70 38 71 46 72 39 73 45 74 40 75 41 76 42 77 43 78
REMARK SMILES IDX 44 79 67 80 68 81 76 82 69 83 75 84 70 85 71 86 72 87 73 88
REMARK SMILES IDX 74 89 53 90 54 91 62 92 55 93 61 94 56 95 57 96 58 97 59 98
REMARK SMILES IDX 60 99
REMARK H PARENT 18 7 3 25 6 28 25 36 81 55 51 66
REMARK Flexibility Score: inf
ROOT
ATOM      1  C   UNL A   1      37.021  22.641  24.259  1.00  0.00     0.002 C 
ENDROOT
BRANCH   1   2
ATOM      2  C   UNL A   1      35.815  21.696  24.253  1.00  0.00     0.021 C 
BRANCH   2   3
ATOM      3  C   UNL A   1      35.860  20.679  25.397  1.00  0.00     0.116 C 
BRANCH   3   4
ATOM      4  N   UNL A   1      34.659  19.867  25.379  1.00  0.00    -0.352 N 
ATOM      5  C   UNL A   1      33.328  20.194  25.386  1.00  0.00     0.251 C 
ATOM      6  O   UNL A   1      32.512  19.271  25.392  1.00  0.00    -0.269 OA
ATOM      7  H   UNL A   1      34.832  18.898  25.357  1.00  0.00     0.163 HD
BRANCH   5   8
ATOM      8  C   UNL A   1      32.833  21.599  25.327  1.00  0.00     0.039 A 
ATOM      9  C   UNL A   1      31.956  24.251  24.991  1.00  0.00     0.052 A 
ATOM     10  C   UNL A   1      31.640  23.282  24.034  1.00  0.00     0.027 A 
ATOM     11  C   UNL A   1      32.665  23.883  26.131  1.00  0.00     0.027 A 
ATOM     12  C   UNL A   1      32.109  21.974  24.185  1.00  0.00     0.016 A 
ATOM     13  C   UNL A   1      33.033  22.553  26.326  1.00  0.00     0.016 A 
BRANCH   9  14
ATOM     14  N   UNL A   1      31.552  25.585  24.833  1.00  0.00    -0.245 N 
ATOM     15  C   UNL A   1      31.537  27.832  24.170  1.00  0.00     0.285 C 
ATOM     16  C   UNL A   1      30.327  27.555  25.058  1.00  0.00     0.176 C 
ATOM     17  C   UNL A   1      32.131  26.448  23.935  1.00  0.00     0.292 C 
ATOM     18  C   UNL A   1      30.514  26.149  25.525  1.00  0.00     0.240 C 
ATOM     19  O   UNL A   1      32.982  26.187  23.097  1.00  0.00    -0.267 OA
ATOM     20  O   UNL A   1      29.825  25.638  26.402  1.00  0.00    -0.274 OA
BRANCH  15  21
ATOM     21  N   UNL A   1      32.586  28.774  24.608  1.00  0.00    -0.315 N 
ATOM     22  N   UNL A   1      33.009  29.464  27.511  1.00  0.00    -0.326 N 
ATOM     23  C   UNL A   1      31.926  30.085  26.717  1.00  0.00     0.324 C 
ATOM     24  C   UNL A   1      33.373  28.162  26.928  1.00  0.00     0.324 C 
ATOM     25  H   UNL A   1      32.682  29.280  28.459  1.00  0.00     0.348 HD
ATOM     26  C   UNL A   1      32.092  30.037  25.174  1.00  0.00     0.325 C 
ATOM     27  C   UNL A   1      33.680  28.226  25.423  1.00  0.00     0.325 C 
ATOM     28  H   UNL A   1      33.012  28.986  23.705  1.00  0.00     0.349 HD
BRANCH  22  29
ATOM     29  C   UNL A   1      34.146  30.386  27.651  1.00  0.00     0.259 C 
ATOM     30  C   UNL A   1      35.420  29.712  28.156  1.00  0.00     0.071 C 
ENDBRANCH  22  29
ENDBRANCH  15  21
ENDBRANCH   9  14
ENDBRANCH   5   8
ENDBRANCH   3   4
ENDBRANCH   2   3
ENDBRANCH   1   2
BRANCH   1  31
ATOM     31  C   UNL A   1      37.533  22.996  25.661  1.00  0.00     0.002 C 
BRANCH  31  32
ATOM     32  C   UNL A   1      38.853  22.322  26.046  1.00  0.00     0.021 C 
BRANCH  32  33
ATOM     33  C   UNL A   1      39.754  23.189  26.919  1.00  0.00     0.116 C 
BRANCH  33  34
ATOM     34  N   UNL A   1      41.043  23.417  26.284  1.00  0.00    -0.352 N 
ATOM     35  C   UNL A   1      41.832  24.540  26.306  1.00  0.00     0.251 C 
ATOM     36  H   UNL A   1      41.400  22.661  25.764  1.00  0.00     0.163 HD
ATOM     37  O   UNL A   1      42.746  24.669  25.498  1.00  0.00    -0.269 OA
BRANCH  35  38
ATOM     38  C   UNL A   1      41.564  25.593  27.305  1.00  0.00     0.039 A 
ATOM     39  C   UNL A   1      40.491  25.442  28.185  1.00  0.00     0.014 A 
ATOM     40  C   UNL A   1      42.382  26.725  27.374  1.00  0.00     0.014 A 
ATOM     41  C   UNL A   1      40.278  26.398  29.180  1.00  0.00     0.010 A 
ATOM     42  C   UNL A   1      42.211  27.639  28.408  1.00  0.00     0.010 A 
ATOM     43  C   UNL A   1      41.161  27.482  29.324  1.00  0.00    -0.014 A 
BRANCH  43  44
ATOM     44  C   UNL A   1      41.021  28.444  30.446  1.00  0.00     0.031 A 
ATOM     45  C   UNL A   1      41.900  28.329  31.660  1.00  0.00     0.074 A 
ATOM     46  C   UNL A   1      40.051  29.378  30.396  1.00  0.00     0.049 A 
ATOM     47  N   UNL A   1      41.880  29.037  32.760  1.00  0.00    -0.248 NA
ATOM     48  C   UNL A   1      42.919  27.267  31.648  1.00  0.00     0.031 C 
ATOM     49  C   UNL A   1      39.111  29.566  29.286  1.00  0.00     0.029 A 
ATOM     50  N   UNL A   1      39.687  30.342  31.302  1.00  0.00    -0.354 N 
ATOM     51  C   UNL A   1      42.873  28.502  33.573  1.00  0.00     0.074 A 
ATOM     52  C   UNL A   1      43.442  27.379  32.860  1.00  0.00     0.031 C 
ATOM     53  C   UNL A   1      38.300  30.597  29.567  1.00  0.00     0.029 A 
ATOM     54  C   UNL A   1      38.626  31.114  30.892  1.00  0.00     0.049 A 
ATOM     55  H   UNL A   1      40.143  30.470  32.166  1.00  0.00     0.167 HD
ATOM     56  C   UNL A   1      43.284  28.920  34.794  1.00  0.00     0.031 A 
ATOM     57  C   UNL A   1      37.977  32.116  31.515  1.00  0.00     0.031 A 
ATOM     58  C   UNL A   1      42.711  30.038  35.497  1.00  0.00     0.049 A 
ATOM     59  C   UNL A   1      38.429  32.538  32.886  1.00  0.00     0.074 A 
ATOM     60  C   UNL A   1      43.091  30.572  36.716  1.00  0.00     0.029 A 
ATOM     61  N   UNL A   1      41.633  30.788  35.051  1.00  0.00    -0.354 N 
ATOM     62  N   UNL A   1      39.416  32.065  33.609  1.00  0.00    -0.248 NA
ATOM     63  C   UNL A   1      37.684  33.633  33.523  1.00  0.00     0.031 C 
ATOM     64  C   UNL A   1      42.204  31.604  37.036  1.00  0.00     0.029 A 
ATOM     65  C   UNL A   1      41.313  31.758  35.986  1.00  0.00     0.049 A 
ATOM     66  H   UNL A   1      41.164  30.651  34.196  1.00  0.00     0.167 HD
ATOM     67  C   UNL A   1      39.425  32.820  34.776  1.00  0.00     0.074 A 
ATOM     68  C   UNL A   1      38.359  33.792  34.654  1.00  0.00     0.031 C 
ATOM     69  C   UNL A   1      40.243  32.716  35.854  1.00  0.00     0.031 A 
BRANCH  56  70
ATOM     70  C   UNL A   1      44.404  28.157  35.453  1.00  0.00    -0.014 A 
ATOM     71  C   UNL A   1      45.749  28.509  35.237  1.00  0.00     0.010 A 
ATOM     72  C   UNL A   1      44.107  27.104  36.337  1.00  0.00     0.010 A 
ATOM     73  C   UNL A   1      46.776  27.796  35.860  1.00  0.00     0.020 A 
ATOM     74  C   UNL A   1      45.131  26.408  36.987  1.00  0.00     0.020 A 
ATOM     75  C   UNL A   1      46.461  26.748  36.731  1.00  0.00     0.054 A 
BRANCH  75  76
ATOM     76  S   UNL A   1      47.815  25.858  37.544  1.00  0.00     0.124 S 
ATOM     77  O   UNL A   1      48.984  26.376  36.838  1.00  0.00    -0.237 OA
ATOM     78  O   UNL A   1      47.685  26.279  38.936  1.00  0.00    -0.237 OA
ATOM     79  O   UNL A   1      47.510  24.452  37.290  1.00  0.00    -0.744 OA
ENDBRANCH  75  76
ENDBRANCH  56  70
BRANCH  57  80
ATOM     80  C   UNL A   1      36.832  32.791  30.844  1.00  0.00    -0.014 A 
ATOM     81  C   UNL A   1      35.509  32.438  31.163  1.00  0.00     0.010 A 
ATOM     82  C   UNL A   1      37.058  33.800  29.891  1.00  0.00     0.010 A 
ATOM     83  C   UNL A   1      34.434  33.070  30.530  1.00  0.00     0.020 A 
ATOM     84  C   UNL A   1      35.987  34.456  29.278  1.00  0.00     0.020 A 
ATOM     85  C   UNL A   1      34.680  34.077  29.594  1.00  0.00     0.054 A 
BRANCH  85  86
ATOM     86  S   UNL A   1      33.269  34.917  28.822  1.00  0.00     0.124 S 
ATOM     87  O   UNL A   1      33.906  36.076  28.205  1.00  0.00    -0.237 OA
ATOM     88  O   UNL A   1      32.767  33.903  27.897  1.00  0.00    -0.237 OA
ATOM     89  O   UNL A   1      32.387  35.211  29.950  1.00  0.00    -0.744 OA
ENDBRANCH  85  86
ENDBRANCH  57  80
BRANCH  69  90
ATOM     90  C   UNL A   1      40.033  33.693  36.980  1.00  0.00    -0.014 A 
ATOM     91  C   UNL A   1      40.743  34.907  37.032  1.00  0.00     0.010 A 
ATOM     92  C   UNL A   1      39.067  33.420  37.965  1.00  0.00     0.010 A 
ATOM     93  C   UNL A   1      40.507  35.818  38.065  1.00  0.00     0.020 A 
ATOM     94  C   UNL A   1      38.807  34.343  38.983  1.00  0.00     0.020 A 
ATOM     95  C   UNL A   1      39.538  35.532  39.032  1.00  0.00     0.054 A 
BRANCH  95  96
ATOM     96  S   UNL A   1      39.215  36.756  40.330  1.00  0.00     0.124 S 
ATOM     97  O   UNL A   1      40.559  37.041  40.822  1.00  0.00    -0.237 OA
ATOM     98  O   UNL A   1      38.573  37.841  39.592  1.00  0.00    -0.237 OA
ATOM     99  O   UNL A   1      38.345  36.048  41.267  1.00  0.00    -0.744 OA
ENDBRANCH  95  96
ENDBRANCH  69  90
ENDBRANCH  43  44
ENDBRANCH  35  38
ENDBRANCH  33  34
ENDBRANCH  32  33
ENDBRANCH  31  32
ENDBRANCH   1  31
TORSDOF 19
ENDMDL
