MODEL 1
REMARK VINA RESULT:     -10.7      0.000      0.000
REMARK SMILES O=C(Cc1ccccc1-c1ccn(C(F)F)c(=O)c1)NCCCCCCNC(=O)c1ccc(-c2c3nc(c(-c4ccc(S(=O)(=O)[O-])cc4)c4ccc([nH]4)c(-c4ccc(S(=O)(=O)[O-])cc4)c4nc(c(-c5ccc(S(=O)(=O)[O-])cc5)c5ccc2[nH]5)C=C4)C=C3)cc1
REMARK SMILES IDX 23 1 22 2 21 3 20 4 1 5 2 6 3 8 4 9 5 10 9 11 6 12 8 13 7 14
REMARK SMILES IDX 10 15 11 16 19 17 12 18 17 19 13 20 18 21 14 22 15 23 16 24
REMARK SMILES IDX 24 25 25 26 26 27 27 28 28 29 29 31 30 32 31 33 89 34 32 35
REMARK SMILES IDX 88 36 33 37 34 38 35 39 82 40 36 41 87 42 81 43 83 44 37 45
REMARK SMILES IDX 86 46 80 47 79 48 38 50 68 51 49 52 67 53 50 54 53 55 66 56
REMARK SMILES IDX 84 57 51 58 52 59 65 61 85 62 54 63 39 64 40 65 48 66 41 67
REMARK SMILES IDX 47 68 42 69 43 70 44 71 45 72 46 73 69 74 70 75 78 76 71 77
REMARK SMILES IDX 77 78 72 79 73 80 74 81 75 82 76 83 55 84 56 85 64 86 57 87
REMARK SMILES IDX 63 88 58 89 59 90 60 91 61 92 62 93
REMARK H PARENT 20 7 27 30 83 49 53 60
REMARK Flexibility Score: inf
ROOT
ATOM      1  C   UNL A   1      33.347  28.932  24.696  1.00  0.00     0.002 C 
ENDROOT
BRANCH   1   2
ATOM      2  C   UNL A   1      34.252  28.933  23.453  1.00  0.00     0.021 C 
BRANCH   2   3
ATOM      3  C   UNL A   1      33.667  28.220  22.231  1.00  0.00     0.116 C 
BRANCH   3   4
ATOM      4  N   UNL A   1      33.157  26.921  22.608  1.00  0.00    -0.356 N 
ATOM      5  O   UNL A   1      33.208  25.890  20.554  1.00  0.00    -0.275 OA
ATOM      6  C   UNL A   1      32.947  25.867  21.752  1.00  0.00     0.224 C 
ATOM      7  H   UNL A   1      32.941  26.780  23.559  1.00  0.00     0.163 HD
BRANCH   6   8
ATOM      8  C   UNL A   1      32.331  24.658  22.447  1.00  0.00     0.136 C 
BRANCH   8   9
ATOM      9  C   UNL A   1      31.637  25.025  23.744  1.00  0.00    -0.031 A 
ATOM     10  C   UNL A   1      30.334  25.560  23.685  1.00  0.00     0.005 A 
ATOM     11  C   UNL A   1      32.246  24.871  25.008  1.00  0.00    -0.014 A 
ATOM     12  C   UNL A   1      29.673  25.988  24.835  1.00  0.00     0.000 A 
ATOM     13  C   UNL A   1      31.570  25.315  26.159  1.00  0.00     0.009 A 
ATOM     14  C   UNL A   1      30.297  25.877  26.070  1.00  0.00     0.001 A 
BRANCH  11  15
ATOM     15  C   UNL A   1      33.537  24.170  25.170  1.00  0.00    -0.011 A 
ATOM     16  C   UNL A   1      34.818  24.843  25.242  1.00  0.00     0.027 A 
ATOM     17  C   UNL A   1      33.505  22.825  25.147  1.00  0.00     0.080 A 
ATOM     18  C   UNL A   1      35.955  24.139  25.194  1.00  0.00     0.095 A 
ATOM     19  C   UNL A   1      34.760  22.027  25.150  1.00  0.00     0.255 A 
ATOM     20  N   UNL A   1      35.936  22.757  25.127  1.00  0.00    -0.258 N 
ATOM     21  O   UNL A   1      34.674  20.803  25.143  1.00  0.00    -0.269 OA
BRANCH  20  22
ATOM     22  C   UNL A   1      37.161  22.012  25.010  1.00  0.00     0.451 C 
ATOM     23  F   UNL A   1      37.325  21.167  26.057  1.00  0.00    -0.185 F 
ATOM     24  F   UNL A   1      37.171  21.271  23.873  1.00  0.00    -0.185 F 
ENDBRANCH  20  22
ENDBRANCH  11  15
ENDBRANCH   8   9
ENDBRANCH   6   8
ENDBRANCH   3   4
ENDBRANCH   2   3
ENDBRANCH   1   2
BRANCH   1  25
ATOM     25  C   UNL A   1      33.876  28.137  25.893  1.00  0.00     0.002 C 
BRANCH  25  26
ATOM     26  C   UNL A   1      33.933  28.918  27.206  1.00  0.00     0.021 C 
BRANCH  26  27
ATOM     27  C   UNL A   1      35.340  29.256  27.685  1.00  0.00     0.116 C 
BRANCH  27  28
ATOM     28  N   UNL A   1      35.338  30.003  28.933  1.00  0.00    -0.352 N 
ATOM     29  C   UNL A   1      36.377  30.233  29.801  1.00  0.00     0.251 C 
ATOM     30  H   UNL A   1      34.474  30.399  29.190  1.00  0.00     0.163 HD
ATOM     31  O   UNL A   1      36.156  30.739  30.899  1.00  0.00    -0.269 OA
BRANCH  29  32
ATOM     32  C   UNL A   1      37.754  29.847  29.422  1.00  0.00     0.039 A 
ATOM     33  C   UNL A   1      38.115  29.861  28.072  1.00  0.00     0.014 A 
ATOM     34  C   UNL A   1      38.687  29.468  30.392  1.00  0.00     0.014 A 
ATOM     35  C   UNL A   1      39.423  29.539  27.702  1.00  0.00     0.010 A 
ATOM     36  C   UNL A   1      40.009  29.227  30.029  1.00  0.00     0.010 A 
ATOM     37  C   UNL A   1      40.389  29.243  28.678  1.00  0.00    -0.014 A 
BRANCH  37  38
ATOM     38  C   UNL A   1      41.788  28.908  28.304  1.00  0.00     0.031 A 
ATOM     39  C   UNL A   1      42.154  27.486  27.962  1.00  0.00     0.074 A 
ATOM     40  C   UNL A   1      42.735  29.869  28.304  1.00  0.00     0.049 A 
ATOM     41  N   UNL A   1      43.326  26.985  27.667  1.00  0.00    -0.248 NA
ATOM     42  C   UNL A   1      41.066  26.494  27.977  1.00  0.00     0.031 C 
ATOM     43  C   UNL A   1      42.518  31.276  28.649  1.00  0.00     0.029 A 
ATOM     44  N   UNL A   1      44.074  29.805  28.006  1.00  0.00    -0.354 N 
ATOM     45  C   UNL A   1      43.115  25.626  27.463  1.00  0.00     0.074 A 
ATOM     46  C   UNL A   1      41.720  25.368  27.737  1.00  0.00     0.031 C 
ATOM     47  C   UNL A   1      43.676  31.944  28.522  1.00  0.00     0.029 A 
ATOM     48  C   UNL A   1      44.726  31.010  28.126  1.00  0.00     0.049 A 
ATOM     49  H   UNL A   1      44.526  28.974  27.732  1.00  0.00     0.167 HD
ATOM     50  C   UNL A   1      43.995  24.681  27.053  1.00  0.00     0.031 A 
ATOM     51  C   UNL A   1      46.024  31.327  27.949  1.00  0.00     0.031 A 
ATOM     52  C   UNL A   1      45.382  24.938  26.773  1.00  0.00     0.049 A 
ATOM     53  C   UNL A   1      46.987  30.251  27.517  1.00  0.00     0.074 A 
ATOM     54  C   UNL A   1      46.351  24.050  26.337  1.00  0.00     0.029 A 
ATOM     55  N   UNL A   1      45.997  26.175  26.891  1.00  0.00    -0.354 N 
ATOM     56  N   UNL A   1      46.758  28.978  27.293  1.00  0.00    -0.248 NA
ATOM     57  C   UNL A   1      48.381  30.658  27.294  1.00  0.00     0.031 C 
ATOM     58  C   UNL A   1      47.562  24.741  26.232  1.00  0.00     0.029 A 
ATOM     59  C   UNL A   1      47.332  26.073  26.539  1.00  0.00     0.049 A 
ATOM     60  H   UNL A   1      45.551  27.002  27.182  1.00  0.00     0.167 HD
ATOM     61  C   UNL A   1      47.967  28.447  26.859  1.00  0.00     0.074 A 
ATOM     62  C   UNL A   1      48.921  29.536  26.839  1.00  0.00     0.031 C 
ATOM     63  C   UNL A   1      48.263  27.171  26.506  1.00  0.00     0.031 A 
BRANCH  50  64
ATOM     64  C   UNL A   1      43.474  23.280  26.859  1.00  0.00    -0.014 A 
ATOM     65  C   UNL A   1      43.277  22.759  25.567  1.00  0.00     0.010 A 
ATOM     66  C   UNL A   1      43.240  22.453  27.972  1.00  0.00     0.010 A 
ATOM     67  C   UNL A   1      42.828  21.448  25.391  1.00  0.00     0.020 A 
ATOM     68  C   UNL A   1      42.820  21.130  27.800  1.00  0.00     0.020 A 
ATOM     69  C   UNL A   1      42.606  20.641  26.510  1.00  0.00     0.054 A 
BRANCH  69  70
ATOM     70  S   UNL A   1      42.072  18.928  26.246  1.00  0.00     0.124 S 
ATOM     71  O   UNL A   1      43.059  18.450  25.280  1.00  0.00    -0.237 OA
ATOM     72  O   UNL A   1      42.173  18.352  27.584  1.00  0.00    -0.237 OA
ATOM     73  O   UNL A   1      40.712  19.062  25.729  1.00  0.00    -0.744 OA
ENDBRANCH  69  70
ENDBRANCH  50  64
BRANCH  51  74
ATOM     74  C   UNL A   1      46.500  32.721  28.179  1.00  0.00    -0.014 A 
ATOM     75  C   UNL A   1      46.940  33.134  29.450  1.00  0.00     0.010 A 
ATOM     76  C   UNL A   1      46.478  33.657  27.129  1.00  0.00     0.010 A 
ATOM     77  C   UNL A   1      47.301  34.466  29.678  1.00  0.00     0.020 A 
ATOM     78  C   UNL A   1      46.873  34.980  27.343  1.00  0.00     0.020 A 
ATOM     79  C   UNL A   1      47.259  35.382  28.623  1.00  0.00     0.054 A 
BRANCH  79  80
ATOM     80  S   UNL A   1      47.731  37.105  28.938  1.00  0.00     0.124 S 
ATOM     81  O   UNL A   1      47.160  37.791  27.784  1.00  0.00    -0.237 OA
ATOM     82  O   UNL A   1      47.087  37.379  30.221  1.00  0.00    -0.237 OA
ATOM     83  O   UNL A   1      49.191  37.057  28.981  1.00  0.00    -0.744 OA
ENDBRANCH  79  80
ENDBRANCH  51  74
BRANCH  63  84
ATOM     84  C   UNL A   1      49.655  26.896  25.995  1.00  0.00    -0.014 A 
ATOM     85  C   UNL A   1      50.057  27.272  24.703  1.00  0.00     0.010 A 
ATOM     86  C   UNL A   1      50.589  26.280  26.851  1.00  0.00     0.010 A 
ATOM     87  C   UNL A   1      51.353  26.993  24.257  1.00  0.00     0.020 A 
ATOM     88  C   UNL A   1      51.893  26.031  26.423  1.00  0.00     0.020 A 
ATOM     89  C   UNL A   1      52.262  26.372  25.120  1.00  0.00     0.054 A 
BRANCH  89  90
ATOM     90  S   UNL A   1      53.944  26.043  24.527  1.00  0.00     0.124 S 
ATOM     91  O   UNL A   1      53.801  26.232  23.087  1.00  0.00    -0.237 OA
ATOM     92  O   UNL A   1      54.732  27.060  25.220  1.00  0.00    -0.237 OA
ATOM     93  O   UNL A   1      54.200  24.669  24.954  1.00  0.00    -0.744 OA
ENDBRANCH  89  90
ENDBRANCH  63  84
ENDBRANCH  37  38
ENDBRANCH  29  32
ENDBRANCH  27  28
ENDBRANCH  26  27
ENDBRANCH  25  26
ENDBRANCH   1  25
TORSDOF 19
ENDMDL
MODEL 2
REMARK VINA RESULT:     -10.4      2.614      8.178
REMARK SMILES O=C(Cc1ccccc1-c1ccn(C(F)F)c(=O)c1)NCCCCCCNC(=O)c1ccc(-c2c3nc(c(-c4ccc(S(=O)(=O)[O-])cc4)c4ccc([nH]4)c(-c4ccc(S(=O)(=O)[O-])cc4)c4nc(c(-c5ccc(S(=O)(=O)[O-])cc5)c5ccc2[nH]5)C=C4)C=C3)cc1
REMARK SMILES IDX 23 1 22 2 21 3 20 4 1 5 2 6 3 8 4 9 5 10 9 11 6 12 8 13 7 14
REMARK SMILES IDX 10 15 11 16 19 17 12 18 17 19 13 20 18 21 14 22 15 23 16 24
REMARK SMILES IDX 24 25 25 26 26 27 27 28 28 29 29 31 30 32 31 33 89 34 32 35
REMARK SMILES IDX 88 36 33 37 34 38 35 39 82 40 36 41 87 42 81 43 83 44 37 45
REMARK SMILES IDX 86 46 80 47 79 48 38 50 68 51 49 52 67 53 50 54 53 55 66 56
REMARK SMILES IDX 84 57 51 58 52 59 65 61 85 62 54 63 39 64 40 65 48 66 41 67
REMARK SMILES IDX 47 68 42 69 43 70 44 71 45 72 46 73 69 74 70 75 78 76 71 77
REMARK SMILES IDX 77 78 72 79 73 80 74 81 75 82 76 83 55 84 56 85 64 86 57 87
REMARK SMILES IDX 63 88 58 89 59 90 60 91 61 92 62 93
REMARK H PARENT 20 7 27 30 83 49 53 60
REMARK Flexibility Score: inf
ROOT
ATOM      1  C   UNL A   1      38.087  23.615  25.992  1.00  0.00     0.002 C 
ENDROOT
BRANCH   1   2
ATOM      2  C   UNL A   1      36.850  22.847  25.495  1.00  0.00     0.021 C 
BRANCH   2   3
ATOM      3  C   UNL A   1      36.774  22.664  23.978  1.00  0.00     0.116 C 
BRANCH   3   4
ATOM      4  N   UNL A   1      35.420  22.348  23.581  1.00  0.00    -0.356 N 
ATOM      5  O   UNL A   1      34.801  24.386  22.715  1.00  0.00    -0.275 OA
ATOM      6  C   UNL A   1      34.533  23.224  23.003  1.00  0.00     0.224 C 
ATOM      7  H   UNL A   1      35.107  21.427  23.739  1.00  0.00     0.163 HD
BRANCH   6   8
ATOM      8  C   UNL A   1      33.160  22.603  22.771  1.00  0.00     0.136 C 
BRANCH   8   9
ATOM      9  C   UNL A   1      32.235  22.777  23.959  1.00  0.00    -0.031 A 
ATOM     10  C   UNL A   1      31.661  24.044  24.189  1.00  0.00     0.005 A 
ATOM     11  C   UNL A   1      31.937  21.730  24.857  1.00  0.00    -0.014 A 
ATOM     12  C   UNL A   1      30.865  24.288  25.305  1.00  0.00     0.000 A 
ATOM     13  C   UNL A   1      31.138  21.992  25.984  1.00  0.00     0.009 A 
ATOM     14  C   UNL A   1      30.614  23.265  26.210  1.00  0.00     0.001 A 
BRANCH  11  15
ATOM     15  C   UNL A   1      32.363  20.339  24.598  1.00  0.00    -0.011 A 
ATOM     16  C   UNL A   1      33.219  19.578  25.485  1.00  0.00     0.027 A 
ATOM     17  C   UNL A   1      32.003  19.803  23.417  1.00  0.00     0.080 A 
ATOM     18  C   UNL A   1      33.719  18.399  25.095  1.00  0.00     0.095 A 
ATOM     19  C   UNL A   1      32.506  18.469  22.995  1.00  0.00     0.255 A 
ATOM     20  N   UNL A   1      33.391  17.856  23.865  1.00  0.00    -0.258 N 
ATOM     21  O   UNL A   1      32.136  18.019  21.914  1.00  0.00    -0.269 OA
BRANCH  20  22
ATOM     22  C   UNL A   1      33.984  16.620  23.428  1.00  0.00     0.451 C 
ATOM     23  F   UNL A   1      34.728  16.801  22.309  1.00  0.00    -0.185 F 
ATOM     24  F   UNL A   1      34.795  16.107  24.387  1.00  0.00    -0.185 F 
ENDBRANCH  20  22
ENDBRANCH  11  15
ENDBRANCH   8   9
ENDBRANCH   6   8
ENDBRANCH   3   4
ENDBRANCH   2   3
ENDBRANCH   1   2
BRANCH   1  25
ATOM     25  C   UNL A   1      39.274  22.745  26.415  1.00  0.00     0.002 C 
BRANCH  25  26
ATOM     26  C   UNL A   1      38.983  21.245  26.462  1.00  0.00     0.021 C 
BRANCH  26  27
ATOM     27  C   UNL A   1      39.729  20.418  25.421  1.00  0.00     0.116 C 
BRANCH  27  28
ATOM     28  N   UNL A   1      40.666  19.482  26.022  1.00  0.00    -0.352 N 
ATOM     29  C   UNL A   1      41.892  19.733  26.587  1.00  0.00     0.251 C 
ATOM     30  H   UNL A   1      40.383  18.539  26.023  1.00  0.00     0.163 HD
ATOM     31  O   UNL A   1      42.630  18.798  26.890  1.00  0.00    -0.269 OA
BRANCH  29  32
ATOM     32  C   UNL A   1      42.330  21.130  26.807  1.00  0.00     0.039 A 
ATOM     33  C   UNL A   1      42.386  21.625  28.112  1.00  0.00     0.014 A 
ATOM     34  C   UNL A   1      42.682  21.949  25.731  1.00  0.00     0.014 A 
ATOM     35  C   UNL A   1      42.837  22.928  28.339  1.00  0.00     0.010 A 
ATOM     36  C   UNL A   1      43.207  23.217  25.965  1.00  0.00     0.010 A 
ATOM     37  C   UNL A   1      43.276  23.728  27.270  1.00  0.00    -0.014 A 
BRANCH  37  38
ATOM     38  C   UNL A   1      43.768  25.112  27.494  1.00  0.00     0.031 A 
ATOM     39  C   UNL A   1      45.228  25.432  27.294  1.00  0.00     0.074 A 
ATOM     40  C   UNL A   1      42.917  26.073  27.909  1.00  0.00     0.049 A 
ATOM     41  N   UNL A   1      45.859  26.560  27.492  1.00  0.00    -0.248 NA
ATOM     42  C   UNL A   1      46.095  24.334  26.834  1.00  0.00     0.031 C 
ATOM     43  C   UNL A   1      41.488  25.885  28.173  1.00  0.00     0.029 A 
ATOM     44  N   UNL A   1      43.132  27.400  28.186  1.00  0.00    -0.354 N 
ATOM     45  C   UNL A   1      47.191  26.308  27.182  1.00  0.00     0.074 A 
ATOM     46  C   UNL A   1      47.290  24.904  26.852  1.00  0.00     0.031 C 
ATOM     47  C   UNL A   1      40.952  27.058  28.551  1.00  0.00     0.029 A 
ATOM     48  C   UNL A   1      42.003  28.070  28.596  1.00  0.00     0.049 A 
ATOM     49  H   UNL A   1      44.012  27.833  28.099  1.00  0.00     0.167 HD
ATOM     50  C   UNL A   1      48.234  27.171  27.144  1.00  0.00     0.031 A 
ATOM     51  C   UNL A   1      41.833  29.352  28.976  1.00  0.00     0.031 A 
ATOM     52  C   UNL A   1      48.135  28.570  27.465  1.00  0.00     0.049 A 
ATOM     53  C   UNL A   1      43.015  30.286  28.948  1.00  0.00     0.074 A 
ATOM     54  C   UNL A   1      49.131  29.531  27.441  1.00  0.00     0.029 A 
ATOM     55  N   UNL A   1      46.971  29.211  27.860  1.00  0.00    -0.354 N 
ATOM     56  N   UNL A   1      44.260  30.034  28.615  1.00  0.00    -0.248 NA
ATOM     57  C   UNL A   1      42.767  31.684  29.328  1.00  0.00     0.031 C 
ATOM     58  C   UNL A   1      48.579  30.744  27.862  1.00  0.00     0.029 A 
ATOM     59  C   UNL A   1      47.224  30.553  28.084  1.00  0.00     0.049 A 
ATOM     60  H   UNL A   1      46.094  28.775  27.964  1.00  0.00     0.167 HD
ATOM     61  C   UNL A   1      44.928  31.251  28.701  1.00  0.00     0.074 A 
ATOM     62  C   UNL A   1      43.950  32.239  29.104  1.00  0.00     0.031 C 
ATOM     63  C   UNL A   1      46.235  31.527  28.466  1.00  0.00     0.031 A 
BRANCH  50  64
ATOM     64  C   UNL A   1      49.573  26.629  26.715  1.00  0.00    -0.014 A 
ATOM     65  C   UNL A   1      50.452  26.059  27.654  1.00  0.00     0.010 A 
ATOM     66  C   UNL A   1      49.933  26.630  25.355  1.00  0.00     0.010 A 
ATOM     67  C   UNL A   1      51.678  25.526  27.247  1.00  0.00     0.020 A 
ATOM     68  C   UNL A   1      51.145  26.069  24.940  1.00  0.00     0.020 A 
ATOM     69  C   UNL A   1      52.014  25.532  25.891  1.00  0.00     0.054 A 
BRANCH  69  70
ATOM     70  S   UNL A   1      53.590  24.786  25.390  1.00  0.00     0.124 S 
ATOM     71  O   UNL A   1      54.379  24.895  26.615  1.00  0.00    -0.237 OA
ATOM     72  O   UNL A   1      53.196  23.431  25.014  1.00  0.00    -0.237 OA
ATOM     73  O   UNL A   1      54.039  25.630  24.285  1.00  0.00    -0.744 OA
ENDBRANCH  69  70
ENDBRANCH  50  64
BRANCH  51  74
ATOM     74  C   UNL A   1      40.495  29.838  29.419  1.00  0.00    -0.014 A 
ATOM     75  C   UNL A   1      39.446  30.008  28.499  1.00  0.00     0.010 A 
ATOM     76  C   UNL A   1      40.277  30.171  30.769  1.00  0.00     0.010 A 
ATOM     77  C   UNL A   1      38.223  30.548  28.908  1.00  0.00     0.020 A 
ATOM     78  C   UNL A   1      39.044  30.677  31.190  1.00  0.00     0.020 A 
ATOM     79  C   UNL A   1      38.032  30.884  30.251  1.00  0.00     0.054 A 
BRANCH  79  80
ATOM     80  S   UNL A   1      36.438  31.584  30.763  1.00  0.00     0.124 S 
ATOM     81  O   UNL A   1      36.733  33.012  30.805  1.00  0.00    -0.237 OA
ATOM     82  O   UNL A   1      35.544  31.152  29.690  1.00  0.00    -0.237 OA
ATOM     83  O   UNL A   1      36.190  30.956  32.059  1.00  0.00    -0.744 OA
ENDBRANCH  79  80
ENDBRANCH  51  74
BRANCH  63  84
ATOM     84  C   UNL A   1      46.670  32.967  28.564  1.00  0.00    -0.014 A 
ATOM     85  C   UNL A   1      46.693  33.812  27.442  1.00  0.00     0.010 A 
ATOM     86  C   UNL A   1      47.026  33.490  29.822  1.00  0.00     0.010 A 
ATOM     87  C   UNL A   1      47.111  35.141  27.566  1.00  0.00     0.020 A 
ATOM     88  C   UNL A   1      47.410  34.825  29.957  1.00  0.00     0.020 A 
ATOM     89  C   UNL A   1      47.469  35.638  28.824  1.00  0.00     0.054 A 
BRANCH  89  90
ATOM     90  S   UNL A   1      47.985  37.371  28.964  1.00  0.00     0.124 S 
ATOM     91  O   UNL A   1      47.717  37.655  30.370  1.00  0.00    -0.237 OA
ATOM     92  O   UNL A   1      49.396  37.315  28.590  1.00  0.00    -0.237 OA
ATOM     93  O   UNL A   1      47.123  38.067  28.012  1.00  0.00    -0.744 OA
ENDBRANCH  89  90
ENDBRANCH  63  84
ENDBRANCH  37  38
ENDBRANCH  29  32
ENDBRANCH  27  28
ENDBRANCH  26  27
ENDBRANCH  25  26
ENDBRANCH   1  25
TORSDOF 19
ENDMDL
MODEL 3
REMARK VINA RESULT:     -10.3      5.199      9.217
REMARK SMILES O=C(Cc1ccccc1-c1ccn(C(F)F)c(=O)c1)NCCCCCCNC(=O)c1ccc(-c2c3nc(c(-c4ccc(S(=O)(=O)[O-])cc4)c4ccc([nH]4)c(-c4ccc(S(=O)(=O)[O-])cc4)c4nc(c(-c5ccc(S(=O)(=O)[O-])cc5)c5ccc2[nH]5)C=C4)C=C3)cc1
REMARK SMILES IDX 23 1 22 2 21 3 20 4 1 5 2 6 3 8 4 9 5 10 9 11 6 12 8 13 7 14
REMARK SMILES IDX 10 15 11 16 19 17 12 18 17 19 13 20 18 21 14 22 15 23 16 24
REMARK SMILES IDX 24 25 25 26 26 27 27 28 28 29 29 31 30 32 31 33 89 34 32 35
REMARK SMILES IDX 88 36 33 37 34 38 35 39 82 40 36 41 87 42 81 43 83 44 37 45
REMARK SMILES IDX 86 46 80 47 79 48 38 50 68 51 49 52 67 53 50 54 53 55 66 56
REMARK SMILES IDX 84 57 51 58 52 59 65 61 85 62 54 63 39 64 40 65 48 66 41 67
REMARK SMILES IDX 47 68 42 69 43 70 44 71 45 72 46 73 69 74 70 75 78 76 71 77
REMARK SMILES IDX 77 78 72 79 73 80 74 81 75 82 76 83 55 84 56 85 64 86 57 87
REMARK SMILES IDX 63 88 58 89 59 90 60 91 61 92 62 93
REMARK H PARENT 20 7 27 30 83 49 53 60
REMARK Flexibility Score: inf
ROOT
ATOM      1  C   UNL A   1      32.826  28.160  24.606  1.00  0.00     0.002 C 
ENDROOT
BRANCH   1   2
ATOM      2  C   UNL A   1      34.095  27.849  23.794  1.00  0.00     0.021 C 
BRANCH   2   3
ATOM      3  C   UNL A   1      33.860  27.032  22.521  1.00  0.00     0.116 C 
BRANCH   3   4
ATOM      4  N   UNL A   1      33.410  25.701  22.859  1.00  0.00    -0.356 N 
ATOM      5  O   UNL A   1      33.229  24.821  20.742  1.00  0.00    -0.275 OA
ATOM      6  C   UNL A   1      33.112  24.707  21.957  1.00  0.00     0.224 C 
ATOM      7  H   UNL A   1      33.309  25.488  23.815  1.00  0.00     0.163 HD
BRANCH   6   8
ATOM      8  C   UNL A   1      32.595  23.440  22.629  1.00  0.00     0.136 C 
BRANCH   8   9
ATOM      9  C   UNL A   1      31.830  23.730  23.906  1.00  0.00    -0.031 A 
ATOM     10  C   UNL A   1      30.964  24.841  23.937  1.00  0.00     0.005 A 
ATOM     11  C   UNL A   1      31.962  22.944  25.071  1.00  0.00    -0.014 A 
ATOM     12  C   UNL A   1      30.293  25.205  25.102  1.00  0.00     0.000 A 
ATOM     13  C   UNL A   1      31.285  23.328  26.242  1.00  0.00     0.009 A 
ATOM     14  C   UNL A   1      30.464  24.456  26.259  1.00  0.00     0.001 A 
BRANCH  11  15
ATOM     15  C   UNL A   1      32.718  21.675  25.073  1.00  0.00    -0.011 A 
ATOM     16  C   UNL A   1      34.164  21.595  25.038  1.00  0.00     0.027 A 
ATOM     17  C   UNL A   1      31.999  20.540  25.003  1.00  0.00     0.080 A 
ATOM     18  C   UNL A   1      34.772  20.419  24.847  1.00  0.00     0.095 A 
ATOM     19  C   UNL A   1      32.663  19.219  24.847  1.00  0.00     0.255 A 
ATOM     20  N   UNL A   1      34.042  19.249  24.730  1.00  0.00    -0.258 N 
ATOM     21  O   UNL A   1      31.961  18.213  24.803  1.00  0.00    -0.269 OA
BRANCH  20  22
ATOM     22  C   UNL A   1      34.700  17.998  24.460  1.00  0.00     0.451 C 
ATOM     23  F   UNL A   1      34.462  17.582  23.192  1.00  0.00    -0.185 F 
ATOM     24  F   UNL A   1      36.044  18.115  24.614  1.00  0.00    -0.185 F 
ENDBRANCH  20  22
ENDBRANCH  11  15
ENDBRANCH   8   9
ENDBRANCH   6   8
ENDBRANCH   3   4
ENDBRANCH   2   3
ENDBRANCH   1   2
BRANCH   1  25
ATOM     25  C   UNL A   1      32.751  27.497  25.985  1.00  0.00     0.002 C 
BRANCH  25  26
ATOM     26  C   UNL A   1      33.288  28.350  27.135  1.00  0.00     0.021 C 
BRANCH  26  27
ATOM     27  C   UNL A   1      34.311  29.403  26.724  1.00  0.00     0.116 C 
BRANCH  27  28
ATOM     28  N   UNL A   1      34.010  30.716  27.272  1.00  0.00    -0.352 N 
ATOM     29  C   UNL A   1      34.653  31.399  28.275  1.00  0.00     0.251 C 
ATOM     30  H   UNL A   1      33.239  31.178  26.870  1.00  0.00     0.163 HD
ATOM     31  O   UNL A   1      34.155  32.426  28.732  1.00  0.00    -0.269 OA
BRANCH  29  32
ATOM     32  C   UNL A   1      35.929  30.883  28.818  1.00  0.00     0.039 A 
ATOM     33  C   UNL A   1      37.122  31.518  28.465  1.00  0.00     0.014 A 
ATOM     34  C   UNL A   1      35.951  29.774  29.669  1.00  0.00     0.014 A 
ATOM     35  C   UNL A   1      38.331  31.068  29.002  1.00  0.00     0.010 A 
ATOM     36  C   UNL A   1      37.145  29.379  30.266  1.00  0.00     0.010 A 
ATOM     37  C   UNL A   1      38.351  30.011  29.927  1.00  0.00    -0.014 A 
BRANCH  37  38
ATOM     38  C   UNL A   1      39.627  29.526  30.516  1.00  0.00     0.031 A 
ATOM     39  C   UNL A   1      40.198  30.206  31.734  1.00  0.00     0.074 A 
ATOM     40  C   UNL A   1      40.289  28.500  29.942  1.00  0.00     0.049 A 
ATOM     41  N   UNL A   1      41.323  29.969  32.359  1.00  0.00    -0.248 NA
ATOM     42  C   UNL A   1      39.417  31.313  32.309  1.00  0.00     0.031 C 
ATOM     43  C   UNL A   1      39.860  27.780  28.741  1.00  0.00     0.029 A 
ATOM     44  N   UNL A   1      41.468  27.889  30.290  1.00  0.00    -0.354 N 
ATOM     45  C   UNL A   1      41.381  30.893  33.396  1.00  0.00     0.074 A 
ATOM     46  C   UNL A   1      40.217  31.741  33.274  1.00  0.00     0.031 C 
ATOM     47  C   UNL A   1      40.751  26.811  28.467  1.00  0.00     0.029 A 
ATOM     48  C   UNL A   1      41.833  26.867  29.446  1.00  0.00     0.049 A 
ATOM     49  H   UNL A   1      42.003  28.157  31.073  1.00  0.00     0.167 HD
ATOM     50  C   UNL A   1      42.303  31.009  34.383  1.00  0.00     0.031 A 
ATOM     51  C   UNL A   1      42.920  26.070  29.451  1.00  0.00     0.031 A 
ATOM     52  C   UNL A   1      43.458  30.161  34.509  1.00  0.00     0.049 A 
ATOM     53  C   UNL A   1      43.943  26.236  30.545  1.00  0.00     0.074 A 
ATOM     54  C   UNL A   1      44.442  30.188  35.482  1.00  0.00     0.029 A 
ATOM     55  N   UNL A   1      43.781  29.128  33.643  1.00  0.00    -0.354 N 
ATOM     56  N   UNL A   1      43.958  27.093  31.539  1.00  0.00    -0.248 NA
ATOM     57  C   UNL A   1      45.086  25.313  30.531  1.00  0.00     0.031 C 
ATOM     58  C   UNL A   1      45.383  29.198  35.181  1.00  0.00     0.029 A 
ATOM     59  C   UNL A   1      44.949  28.513  34.057  1.00  0.00     0.049 A 
ATOM     60  H   UNL A   1      43.256  28.870  32.851  1.00  0.00     0.167 HD
ATOM     61  C   UNL A   1      45.086  26.780  32.291  1.00  0.00     0.074 A 
ATOM     62  C   UNL A   1      45.719  25.649  31.646  1.00  0.00     0.031 C 
ATOM     63  C   UNL A   1      45.556  27.375  33.416  1.00  0.00     0.031 A 
BRANCH  50  64
ATOM     64  C   UNL A   1      42.085  32.079  35.420  1.00  0.00    -0.014 A 
ATOM     65  C   UNL A   1      42.535  33.394  35.201  1.00  0.00     0.010 A 
ATOM     66  C   UNL A   1      41.369  31.790  36.595  1.00  0.00     0.010 A 
ATOM     67  C   UNL A   1      42.300  34.392  36.150  1.00  0.00     0.020 A 
ATOM     68  C   UNL A   1      41.104  32.792  37.533  1.00  0.00     0.020 A 
ATOM     69  C   UNL A   1      41.582  34.085  37.309  1.00  0.00     0.054 A 
BRANCH  69  70
ATOM     70  S   UNL A   1      41.250  35.415  38.496  1.00  0.00     0.124 S 
ATOM     71  O   UNL A   1      41.105  34.673  39.747  1.00  0.00    -0.237 OA
ATOM     72  O   UNL A   1      42.448  36.243  38.392  1.00  0.00    -0.237 OA
ATOM     73  O   UNL A   1      40.023  36.031  37.995  1.00  0.00    -0.744 OA
ENDBRANCH  69  70
ENDBRANCH  50  64
BRANCH  51  74
ATOM     74  C   UNL A   1      43.108  25.042  28.388  1.00  0.00    -0.014 A 
ATOM     75  C   UNL A   1      42.556  23.755  28.521  1.00  0.00     0.010 A 
ATOM     76  C   UNL A   1      43.879  25.337  27.249  1.00  0.00     0.010 A 
ATOM     77  C   UNL A   1      42.812  22.770  27.562  1.00  0.00     0.020 A 
ATOM     78  C   UNL A   1      44.107  24.367  26.269  1.00  0.00     0.020 A 
ATOM     79  C   UNL A   1      43.592  23.082  26.444  1.00  0.00     0.054 A 
BRANCH  79  80
ATOM     80  S   UNL A   1      43.913  21.790  25.211  1.00  0.00     0.124 S 
ATOM     81  O   UNL A   1      43.738  22.518  23.958  1.00  0.00    -0.237 OA
ATOM     82  O   UNL A   1      45.282  21.387  25.524  1.00  0.00    -0.237 OA
ATOM     83  O   UNL A   1      42.894  20.783  25.499  1.00  0.00    -0.744 OA
ENDBRANCH  79  80
ENDBRANCH  51  74
BRANCH  63  84
ATOM     84  C   UNL A   1      46.772  26.768  34.067  1.00  0.00    -0.014 A 
ATOM     85  C   UNL A   1      46.673  25.686  34.958  1.00  0.00     0.010 A 
ATOM     86  C   UNL A   1      48.046  27.274  33.744  1.00  0.00     0.010 A 
ATOM     87  C   UNL A   1      47.821  25.152  35.551  1.00  0.00     0.020 A 
ATOM     88  C   UNL A   1      49.197  26.722  34.307  1.00  0.00     0.020 A 
ATOM     89  C   UNL A   1      49.076  25.676  35.224  1.00  0.00     0.054 A 
BRANCH  89  90
ATOM     90  S   UNL A   1      50.552  24.952  35.989  1.00  0.00     0.124 S 
ATOM     91  O   UNL A   1      50.197  23.538  36.055  1.00  0.00    -0.237 OA
ATOM     92  O   UNL A   1      51.606  25.291  35.035  1.00  0.00    -0.237 OA
ATOM     93  O   UNL A   1      50.645  25.633  37.277  1.00  0.00    -0.744 OA
ENDBRANCH  89  90
ENDBRANCH  63  84
ENDBRANCH  37  38
ENDBRANCH  29  32
ENDBRANCH  27  28
ENDBRANCH  26  27
ENDBRANCH  25  26
ENDBRANCH   1  25
TORSDOF 19
ENDMDL
