MODEL 1
REMARK VINA RESULT:     -10.2      0.000      0.000
REMARK SMILES C/C(=N\Nc1ccccc1C(=O)NCCCCCCNC(=O)c1ccc(-c2c3nc(c(-c4ccc(S(=O)(=O)[O-])cc4)c4ccc([nH]4)c(-c4ccc(S(=O)(=O)[O-])cc4)c4nc(c(-c5ccc(S(=O)(=O)[O-])cc5)c5ccc2[nH]5)C=C4)C=C3)cc1)c1ccc(S(C)(=O)=O)cc1
REMARK SMILES IDX 16 1 15 2 14 3 13 4 11 5 12 6 10 8 5 9 6 10 7 11 9 12 8 13
REMARK SMILES IDX 4 14 3 16 1 17 2 18 83 19 84 20 92 21 85 22 91 23 86 24
REMARK SMILES IDX 87 25 88 26 89 27 90 28 17 29 18 30 19 31 20 32 21 33 22 35
REMARK SMILES IDX 23 36 24 37 82 38 25 39 81 40 26 41 27 42 28 43 75 44 29 45
REMARK SMILES IDX 80 46 74 47 76 48 30 49 79 50 73 51 72 52 31 54 61 55 42 56
REMARK SMILES IDX 60 57 43 58 46 59 59 60 77 61 44 62 45 63 58 65 78 66 47 67
REMARK SMILES IDX 32 68 33 69 41 70 34 71 40 72 35 73 36 74 37 75 38 76 39 77
REMARK SMILES IDX 62 78 63 79 71 80 64 81 70 82 65 83 66 84 67 85 68 86 69 87
REMARK SMILES IDX 48 88 49 89 57 90 50 91 56 92 51 93 52 94 53 95 54 96 55 97
REMARK H PARENT 13 7 4 15 20 34 76 53 46 64
REMARK Flexibility Score: inf
ROOT
ATOM      1  C   UNL A   1      34.714  29.988  26.945  1.00  0.00     0.002 C 
ENDROOT
BRANCH   1   2
ATOM      2  C   UNL A   1      34.477  28.552  27.434  1.00  0.00     0.021 C 
BRANCH   2   3
ATOM      3  C   UNL A   1      33.368  27.782  26.722  1.00  0.00     0.116 C 
BRANCH   3   4
ATOM      4  N   UNL A   1      33.741  27.324  25.398  1.00  0.00    -0.352 N 
ATOM      5  C   UNL A   1      33.774  26.048  24.889  1.00  0.00     0.253 C 
ATOM      6  O   UNL A   1      34.068  25.907  23.699  1.00  0.00    -0.269 OA
ATOM      7  H   UNL A   1      34.011  28.033  24.770  1.00  0.00     0.163 HD
BRANCH   5   8
ATOM      8  C   UNL A   1      33.589  24.832  25.729  1.00  0.00     0.064 A 
ATOM      9  C   UNL A   1      32.383  24.383  26.291  1.00  0.00     0.069 A 
ATOM     10  C   UNL A   1      32.433  23.272  27.167  1.00  0.00     0.028 A 
ATOM     11  C   UNL A   1      33.606  22.549  27.381  1.00  0.00     0.002 A 
ATOM     12  C   UNL A   1      34.762  24.068  25.922  1.00  0.00     0.016 A 
ATOM     13  C   UNL A   1      34.766  22.924  26.724  1.00  0.00     0.001 A 
BRANCH   9  14
ATOM     14  N   UNL A   1      31.081  24.784  25.930  1.00  0.00    -0.277 N 
ATOM     15  H   UNL A   1      30.369  24.114  26.047  1.00  0.00     0.190 HD
BRANCH  14  16
ATOM     16  N   UNL A   1      30.700  25.982  25.447  1.00  0.00    -0.180 NA
ATOM     17  C   UNL A   1      30.611  25.166  23.064  1.00  0.00     0.069 C 
ATOM     18  C   UNL A   1      30.443  26.164  24.184  1.00  0.00     0.065 C 
BRANCH  18  19
ATOM     19  C   UNL A   1      29.929  27.504  23.801  1.00  0.00    -0.002 A 
ATOM     20  C   UNL A   1      30.718  28.632  24.043  1.00  0.00     0.011 A 
ATOM     21  C   UNL A   1      28.637  27.643  23.291  1.00  0.00     0.011 A 
ATOM     22  C   UNL A   1      30.208  29.909  23.807  1.00  0.00     0.021 A 
ATOM     23  C   UNL A   1      28.130  28.917  23.028  1.00  0.00     0.021 A 
ATOM     24  C   UNL A   1      28.910  30.044  23.308  1.00  0.00     0.067 A 
BRANCH  24  25
ATOM     25  S   UNL A   1      28.270  31.664  22.954  1.00  0.00     0.175 S 
ATOM     26  C   UNL A   1      28.090  31.677  21.189  1.00  0.00     0.163 C 
ATOM     27  O   UNL A   1      26.943  31.739  23.546  1.00  0.00    -0.224 OA
ATOM     28  O   UNL A   1      29.290  32.624  23.313  1.00  0.00    -0.224 OA
ENDBRANCH  24  25
ENDBRANCH  18  19
ENDBRANCH  14  16
ENDBRANCH   9  14
ENDBRANCH   5   8
ENDBRANCH   3   4
ENDBRANCH   2   3
ENDBRANCH   1   2
BRANCH   1  29
ATOM     29  C   UNL A   1      34.687  31.096  28.002  1.00  0.00     0.002 C 
BRANCH  29  30
ATOM     30  C   UNL A   1      33.510  32.061  27.964  1.00  0.00     0.021 C 
BRANCH  30  31
ATOM     31  C   UNL A   1      33.877  33.508  27.684  1.00  0.00     0.116 C 
BRANCH  31  32
ATOM     32  N   UNL A   1      33.068  34.453  28.438  1.00  0.00    -0.352 N 
ATOM     33  C   UNL A   1      33.193  34.844  29.750  1.00  0.00     0.251 C 
ATOM     34  H   UNL A   1      32.329  34.871  27.940  1.00  0.00     0.163 HD
ATOM     35  O   UNL A   1      32.333  35.544  30.274  1.00  0.00    -0.269 OA
BRANCH  33  36
ATOM     36  C   UNL A   1      34.359  34.379  30.530  1.00  0.00     0.039 A 
ATOM     37  C   UNL A   1      34.181  33.402  31.511  1.00  0.00     0.014 A 
ATOM     38  C   UNL A   1      35.635  34.876  30.248  1.00  0.00     0.014 A 
ATOM     39  C   UNL A   1      35.296  32.868  32.160  1.00  0.00     0.010 A 
ATOM     40  C   UNL A   1      36.745  34.273  30.821  1.00  0.00     0.010 A 
ATOM     41  C   UNL A   1      36.589  33.269  31.789  1.00  0.00    -0.014 A 
BRANCH  41  42
ATOM     42  C   UNL A   1      37.805  32.681  32.405  1.00  0.00     0.031 A 
ATOM     43  C   UNL A   1      38.479  31.513  31.736  1.00  0.00     0.074 A 
ATOM     44  C   UNL A   1      38.241  33.128  33.599  1.00  0.00     0.049 A 
ATOM     45  N   UNL A   1      39.458  30.764  32.173  1.00  0.00    -0.248 NA
ATOM     46  C   UNL A   1      37.958  31.111  30.419  1.00  0.00     0.031 C 
ATOM     47  C   UNL A   1      37.651  34.231  34.362  1.00  0.00     0.029 A 
ATOM     48  N   UNL A   1      39.275  32.696  34.391  1.00  0.00    -0.354 N 
ATOM     49  C   UNL A   1      39.647  29.790  31.201  1.00  0.00     0.074 A 
ATOM     50  C   UNL A   1      38.649  30.007  30.179  1.00  0.00     0.031 C 
ATOM     51  C   UNL A   1      38.347  34.403  35.498  1.00  0.00     0.029 A 
ATOM     52  C   UNL A   1      39.396  33.392  35.573  1.00  0.00     0.049 A 
ATOM     53  H   UNL A   1      39.874  31.957  34.138  1.00  0.00     0.167 HD
ATOM     54  C   UNL A   1      40.584  28.814  31.151  1.00  0.00     0.031 A 
ATOM     55  C   UNL A   1      40.245  33.224  36.605  1.00  0.00     0.031 A 
ATOM     56  C   UNL A   1      41.587  28.617  32.162  1.00  0.00     0.049 A 
ATOM     57  C   UNL A   1      41.271  32.125  36.534  1.00  0.00     0.074 A 
ATOM     58  C   UNL A   1      42.616  27.693  32.184  1.00  0.00     0.029 A 
ATOM     59  N   UNL A   1      41.689  29.360  33.328  1.00  0.00    -0.354 N 
ATOM     60  N   UNL A   1      41.468  31.243  35.583  1.00  0.00    -0.248 NA
ATOM     61  C   UNL A   1      42.194  32.001  37.671  1.00  0.00     0.031 C 
ATOM     62  C   UNL A   1      43.307  27.840  33.389  1.00  0.00     0.029 A 
ATOM     63  C   UNL A   1      42.752  28.903  34.087  1.00  0.00     0.049 A 
ATOM     64  H   UNL A   1      41.094  30.103  33.581  1.00  0.00     0.167 HD
ATOM     65  C   UNL A   1      42.563  30.488  35.987  1.00  0.00     0.074 A 
ATOM     66  C   UNL A   1      42.988  31.018  37.266  1.00  0.00     0.031 C 
ATOM     67  C   UNL A   1      43.169  29.454  35.352  1.00  0.00     0.031 A 
BRANCH  54  68
ATOM     68  C   UNL A   1      40.559  27.881  29.969  1.00  0.00    -0.014 A 
ATOM     69  C   UNL A   1      39.661  26.799  29.910  1.00  0.00     0.010 A 
ATOM     70  C   UNL A   1      41.424  28.107  28.882  1.00  0.00     0.010 A 
ATOM     71  C   UNL A   1      39.658  25.937  28.811  1.00  0.00     0.020 A 
ATOM     72  C   UNL A   1      41.402  27.268  27.765  1.00  0.00     0.020 A 
ATOM     73  C   UNL A   1      40.531  26.177  27.745  1.00  0.00     0.054 A 
BRANCH  73  74
ATOM     74  S   UNL A   1      40.489  25.056  26.321  1.00  0.00     0.124 S 
ATOM     75  O   UNL A   1      39.065  24.748  26.223  1.00  0.00    -0.237 OA
ATOM     76  O   UNL A   1      41.026  25.886  25.246  1.00  0.00    -0.237 OA
ATOM     77  O   UNL A   1      41.340  23.941  26.730  1.00  0.00    -0.744 OA
ENDBRANCH  73  74
ENDBRANCH  54  68
BRANCH  55  78
ATOM     78  C   UNL A   1      40.169  34.127  37.787  1.00  0.00    -0.014 A 
ATOM     79  C   UNL A   1      39.370  33.790  38.893  1.00  0.00     0.010 A 
ATOM     80  C   UNL A   1      40.908  35.324  37.820  1.00  0.00     0.010 A 
ATOM     81  C   UNL A   1      39.294  34.640  40.000  1.00  0.00     0.020 A 
ATOM     82  C   UNL A   1      40.858  36.162  38.938  1.00  0.00     0.020 A 
ATOM     83  C   UNL A   1      40.042  35.821  40.017  1.00  0.00     0.054 A 
BRANCH  83  84
ATOM     84  S   UNL A   1      39.966  36.883  41.485  1.00  0.00     0.124 S 
ATOM     85  O   UNL A   1      39.540  35.944  42.518  1.00  0.00    -0.237 OA
ATOM     86  O   UNL A   1      41.341  37.367  41.595  1.00  0.00    -0.237 OA
ATOM     87  O   UNL A   1      38.984  37.901  41.119  1.00  0.00    -0.744 OA
ENDBRANCH  83  84
ENDBRANCH  55  78
BRANCH  67  88
ATOM     88  C   UNL A   1      44.394  28.858  35.993  1.00  0.00    -0.014 A 
ATOM     89  C   UNL A   1      45.676  29.382  35.755  1.00  0.00     0.010 A 
ATOM     90  C   UNL A   1      44.240  27.810  36.920  1.00  0.00     0.010 A 
ATOM     91  C   UNL A   1      46.786  28.854  36.420  1.00  0.00     0.020 A 
ATOM     92  C   UNL A   1      45.342  27.301  37.609  1.00  0.00     0.020 A 
ATOM     93  C   UNL A   1      46.611  27.821  37.347  1.00  0.00     0.054 A 
BRANCH  93  94
ATOM     94  S   UNL A   1      48.058  27.203  38.249  1.00  0.00     0.124 S 
ATOM     95  O   UNL A   1      47.805  25.765  38.280  1.00  0.00    -0.237 OA
ATOM     96  O   UNL A   1      49.168  27.628  37.401  1.00  0.00    -0.237 OA
ATOM     97  O   UNL A   1      47.975  27.877  39.542  1.00  0.00    -0.744 OA
ENDBRANCH  93  94
ENDBRANCH  67  88
ENDBRANCH  41  42
ENDBRANCH  33  36
ENDBRANCH  31  32
ENDBRANCH  30  31
ENDBRANCH  29  30
ENDBRANCH   1  29
TORSDOF 20
ENDMDL
MODEL 2
REMARK VINA RESULT:     -10.2      1.047      7.932
REMARK SMILES C/C(=N\Nc1ccccc1C(=O)NCCCCCCNC(=O)c1ccc(-c2c3nc(c(-c4ccc(S(=O)(=O)[O-])cc4)c4ccc([nH]4)c(-c4ccc(S(=O)(=O)[O-])cc4)c4nc(c(-c5ccc(S(=O)(=O)[O-])cc5)c5ccc2[nH]5)C=C4)C=C3)cc1)c1ccc(S(C)(=O)=O)cc1
REMARK SMILES IDX 16 1 15 2 14 3 13 4 11 5 12 6 10 8 5 9 6 10 7 11 9 12 8 13
REMARK SMILES IDX 4 14 3 16 1 17 2 18 83 19 84 20 92 21 85 22 91 23 86 24
REMARK SMILES IDX 87 25 88 26 89 27 90 28 17 29 18 30 19 31 20 32 21 33 22 35
REMARK SMILES IDX 23 36 24 37 82 38 25 39 81 40 26 41 27 42 28 43 75 44 29 45
REMARK SMILES IDX 80 46 74 47 76 48 30 49 79 50 73 51 72 52 31 54 61 55 42 56
REMARK SMILES IDX 60 57 43 58 46 59 59 60 77 61 44 62 45 63 58 65 78 66 47 67
REMARK SMILES IDX 32 68 33 69 41 70 34 71 40 72 35 73 36 74 37 75 38 76 39 77
REMARK SMILES IDX 62 78 63 79 71 80 64 81 70 82 65 83 66 84 67 85 68 86 69 87
REMARK SMILES IDX 48 88 49 89 57 90 50 91 56 92 51 93 52 94 53 95 54 96 55 97
REMARK H PARENT 13 7 4 15 20 34 76 53 46 64
REMARK Flexibility Score: inf
ROOT
ATOM      1  C   UNL A   1      34.673  29.769  26.803  1.00  0.00     0.002 C 
ENDROOT
BRANCH   1   2
ATOM      2  C   UNL A   1      34.333  28.347  27.272  1.00  0.00     0.021 C 
BRANCH   2   3
ATOM      3  C   UNL A   1      33.213  27.646  26.506  1.00  0.00     0.116 C 
BRANCH   3   4
ATOM      4  N   UNL A   1      33.642  27.090  25.238  1.00  0.00    -0.352 N 
ATOM      5  C   UNL A   1      33.713  25.777  24.835  1.00  0.00     0.253 C 
ATOM      6  O   UNL A   1      34.052  25.546  23.672  1.00  0.00    -0.269 OA
ATOM      7  H   UNL A   1      33.923  27.750  24.564  1.00  0.00     0.163 HD
BRANCH   5   8
ATOM      8  C   UNL A   1      33.517  24.630  25.765  1.00  0.00     0.064 A 
ATOM      9  C   UNL A   1      32.308  24.237  26.360  1.00  0.00     0.069 A 
ATOM     10  C   UNL A   1      32.347  23.194  27.316  1.00  0.00     0.028 A 
ATOM     11  C   UNL A   1      33.513  22.477  27.583  1.00  0.00     0.002 A 
ATOM     12  C   UNL A   1      34.683  23.870  26.014  1.00  0.00     0.016 A 
ATOM     13  C   UNL A   1      34.675  22.790  26.899  1.00  0.00     0.001 A 
BRANCH   9  14
ATOM     14  N   UNL A   1      31.008  24.623  25.971  1.00  0.00    -0.277 N 
ATOM     15  H   UNL A   1      30.300  23.949  26.083  1.00  0.00     0.190 HD
BRANCH  14  16
ATOM     16  N   UNL A   1      30.628  25.812  25.465  1.00  0.00    -0.180 NA
ATOM     17  C   UNL A   1      30.423  24.922  23.116  1.00  0.00     0.069 C 
ATOM     18  C   UNL A   1      30.320  25.958  24.209  1.00  0.00     0.065 C 
BRANCH  18  19
ATOM     19  C   UNL A   1      29.812  27.295  23.805  1.00  0.00    -0.002 A 
ATOM     20  C   UNL A   1      30.679  28.390  23.831  1.00  0.00     0.011 A 
ATOM     21  C   UNL A   1      28.463  27.469  23.491  1.00  0.00     0.011 A 
ATOM     22  C   UNL A   1      30.196  29.674  23.576  1.00  0.00     0.021 A 
ATOM     23  C   UNL A   1      27.978  28.748  23.209  1.00  0.00     0.021 A 
ATOM     24  C   UNL A   1      28.843  29.847  23.275  1.00  0.00     0.067 A 
BRANCH  24  25
ATOM     25  S   UNL A   1      28.228  31.470  22.896  1.00  0.00     0.175 S 
ATOM     26  C   UNL A   1      28.037  31.455  21.133  1.00  0.00     0.163 C 
ATOM     27  O   UNL A   1      26.906  31.579  23.495  1.00  0.00    -0.224 OA
ATOM     28  O   UNL A   1      29.267  32.419  23.231  1.00  0.00    -0.224 OA
ENDBRANCH  24  25
ENDBRANCH  18  19
ENDBRANCH  14  16
ENDBRANCH   9  14
ENDBRANCH   5   8
ENDBRANCH   3   4
ENDBRANCH   2   3
ENDBRANCH   1   2
BRANCH   1  29
ATOM     29  C   UNL A   1      34.744  30.857  27.879  1.00  0.00     0.002 C 
BRANCH  29  30
ATOM     30  C   UNL A   1      33.580  31.836  27.953  1.00  0.00     0.021 C 
BRANCH  30  31
ATOM     31  C   UNL A   1      33.933  33.277  27.631  1.00  0.00     0.116 C 
BRANCH  31  32
ATOM     32  N   UNL A   1      33.185  34.235  28.431  1.00  0.00    -0.352 N 
ATOM     33  C   UNL A   1      33.358  34.580  29.750  1.00  0.00     0.251 C 
ATOM     34  H   UNL A   1      32.455  34.701  27.963  1.00  0.00     0.163 HD
ATOM     35  O   UNL A   1      32.543  35.304  30.315  1.00  0.00    -0.269 OA
BRANCH  33  36
ATOM     36  C   UNL A   1      34.519  34.040  30.488  1.00  0.00     0.039 A 
ATOM     37  C   UNL A   1      34.336  32.965  31.360  1.00  0.00     0.014 A 
ATOM     38  C   UNL A   1      35.795  34.567  30.272  1.00  0.00     0.014 A 
ATOM     39  C   UNL A   1      35.447  32.369  31.959  1.00  0.00     0.010 A 
ATOM     40  C   UNL A   1      36.903  33.911  30.789  1.00  0.00     0.010 A 
ATOM     41  C   UNL A   1      36.741  32.810  31.645  1.00  0.00    -0.014 A 
BRANCH  41  42
ATOM     42  C   UNL A   1      37.954  32.165  32.207  1.00  0.00     0.031 A 
ATOM     43  C   UNL A   1      38.363  32.472  33.624  1.00  0.00     0.074 A 
ATOM     44  C   UNL A   1      38.730  31.388  31.426  1.00  0.00     0.049 A 
ATOM     45  N   UNL A   1      39.455  32.134  34.258  1.00  0.00    -0.248 NA
ATOM     46  C   UNL A   1      37.440  33.302  34.416  1.00  0.00     0.031 C 
ATOM     47  C   UNL A   1      38.457  31.044  30.029  1.00  0.00     0.029 A 
ATOM     48  N   UNL A   1      39.921  30.760  31.693  1.00  0.00    -0.354 N 
ATOM     49  C   UNL A   1      39.361  32.732  35.509  1.00  0.00     0.074 A 
ATOM     50  C   UNL A   1      38.137  33.499  35.525  1.00  0.00     0.031 C 
ATOM     51  C   UNL A   1      39.438  30.249  29.570  1.00  0.00     0.029 A 
ATOM     52  C   UNL A   1      40.436  30.071  30.619  1.00  0.00     0.049 A 
ATOM     53  H   UNL A   1      40.365  30.799  32.571  1.00  0.00     0.167 HD
ATOM     54  C   UNL A   1      40.209  32.634  36.560  1.00  0.00     0.031 A 
ATOM     55  C   UNL A   1      41.589  29.385  30.490  1.00  0.00     0.031 A 
ATOM     56  C   UNL A   1      41.415  31.853  36.544  1.00  0.00     0.049 A 
ATOM     57  C   UNL A   1      42.523  29.300  31.667  1.00  0.00     0.074 A 
ATOM     58  C   UNL A   1      42.317  31.641  37.571  1.00  0.00     0.029 A 
ATOM     59  N   UNL A   1      41.885  31.149  35.445  1.00  0.00    -0.354 N 
ATOM     60  N   UNL A   1      42.394  29.831  32.861  1.00  0.00    -0.248 NA
ATOM     61  C   UNL A   1      43.752  28.515  31.487  1.00  0.00     0.031 C 
ATOM     62  C   UNL A   1      43.362  30.856  37.078  1.00  0.00     0.029 A 
ATOM     63  C   UNL A   1      43.076  30.520  35.763  1.00  0.00     0.049 A 
ATOM     64  H   UNL A   1      41.440  31.105  34.568  1.00  0.00     0.167 HD
ATOM     65  C   UNL A   1      43.504  29.411  33.584  1.00  0.00     0.074 A 
ATOM     66  C   UNL A   1      44.292  28.580  32.697  1.00  0.00     0.031 C 
ATOM     67  C   UNL A   1      43.838  29.683  34.870  1.00  0.00     0.031 A 
BRANCH  54  68
ATOM     68  C   UNL A   1      39.863  33.399  37.811  1.00  0.00    -0.014 A 
ATOM     69  C   UNL A   1      40.017  34.796  37.879  1.00  0.00     0.010 A 
ATOM     70  C   UNL A   1      39.342  32.716  38.925  1.00  0.00     0.010 A 
ATOM     71  C   UNL A   1      39.701  35.489  39.050  1.00  0.00     0.020 A 
ATOM     72  C   UNL A   1      38.992  33.409  40.088  1.00  0.00     0.020 A 
ATOM     73  C   UNL A   1      39.191  34.790  40.148  1.00  0.00     0.054 A 
BRANCH  73  74
ATOM     74  S   UNL A   1      38.767  35.718  41.647  1.00  0.00     0.124 S 
ATOM     75  O   UNL A   1      37.398  35.277  41.897  1.00  0.00    -0.237 OA
ATOM     76  O   UNL A   1      39.763  35.247  42.606  1.00  0.00    -0.237 OA
ATOM     77  O   UNL A   1      38.907  37.115  41.242  1.00  0.00    -0.744 OA
ENDBRANCH  73  74
ENDBRANCH  54  68
BRANCH  55  78
ATOM     78  C   UNL A   1      41.918  28.716  29.201  1.00  0.00    -0.014 A 
ATOM     79  C   UNL A   1      42.559  29.427  28.171  1.00  0.00     0.010 A 
ATOM     80  C   UNL A   1      41.604  27.359  29.000  1.00  0.00     0.010 A 
ATOM     81  C   UNL A   1      42.863  28.801  26.958  1.00  0.00     0.020 A 
ATOM     82  C   UNL A   1      41.934  26.721  27.800  1.00  0.00     0.020 A 
ATOM     83  C   UNL A   1      42.550  27.450  26.781  1.00  0.00     0.054 A 
BRANCH  83  84
ATOM     84  S   UNL A   1      42.999  26.646  25.218  1.00  0.00     0.124 S 
ATOM     85  O   UNL A   1      42.971  27.765  24.282  1.00  0.00    -0.237 OA
ATOM     86  O   UNL A   1      44.321  26.098  25.514  1.00  0.00    -0.237 OA
ATOM     87  O   UNL A   1      41.948  25.648  25.034  1.00  0.00    -0.744 OA
ENDBRANCH  83  84
ENDBRANCH  55  78
BRANCH  67  88
ATOM     88  C   UNL A   1      45.076  29.032  35.425  1.00  0.00    -0.014 A 
ATOM     89  C   UNL A   1      45.047  27.732  35.959  1.00  0.00     0.010 A 
ATOM     90  C   UNL A   1      46.308  29.707  35.326  1.00  0.00     0.010 A 
ATOM     91  C   UNL A   1      46.226  27.126  36.401  1.00  0.00     0.020 A 
ATOM     92  C   UNL A   1      47.492  29.093  35.738  1.00  0.00     0.020 A 
ATOM     93  C   UNL A   1      47.442  27.809  36.283  1.00  0.00     0.054 A 
BRANCH  93  94
ATOM     94  S   UNL A   1      48.966  26.971  36.797  1.00  0.00     0.124 S 
ATOM     95  O   UNL A   1      49.749  28.077  37.345  1.00  0.00    -0.237 OA
ATOM     96  O   UNL A   1      48.482  25.999  37.773  1.00  0.00    -0.237 OA
ATOM     97  O   UNL A   1      49.483  26.397  35.557  1.00  0.00    -0.744 OA
ENDBRANCH  93  94
ENDBRANCH  67  88
ENDBRANCH  41  42
ENDBRANCH  33  36
ENDBRANCH  31  32
ENDBRANCH  30  31
ENDBRANCH  29  30
ENDBRANCH   1  29
TORSDOF 20
ENDMDL
MODEL 3
REMARK VINA RESULT:      -9.6      4.722     12.470
REMARK SMILES C/C(=N\Nc1ccccc1C(=O)NCCCCCCNC(=O)c1ccc(-c2c3nc(c(-c4ccc(S(=O)(=O)[O-])cc4)c4ccc([nH]4)c(-c4ccc(S(=O)(=O)[O-])cc4)c4nc(c(-c5ccc(S(=O)(=O)[O-])cc5)c5ccc2[nH]5)C=C4)C=C3)cc1)c1ccc(S(C)(=O)=O)cc1
REMARK SMILES IDX 16 1 15 2 14 3 13 4 11 5 12 6 10 8 5 9 6 10 7 11 9 12 8 13
REMARK SMILES IDX 4 14 3 16 1 17 2 18 83 19 84 20 92 21 85 22 91 23 86 24
REMARK SMILES IDX 87 25 88 26 89 27 90 28 17 29 18 30 19 31 20 32 21 33 22 35
REMARK SMILES IDX 23 36 24 37 82 38 25 39 81 40 26 41 27 42 28 43 75 44 29 45
REMARK SMILES IDX 80 46 74 47 76 48 30 49 79 50 73 51 72 52 31 54 61 55 42 56
REMARK SMILES IDX 60 57 43 58 46 59 59 60 77 61 44 62 45 63 58 65 78 66 47 67
REMARK SMILES IDX 32 68 33 69 41 70 34 71 40 72 35 73 36 74 37 75 38 76 39 77
REMARK SMILES IDX 62 78 63 79 71 80 64 81 70 82 65 83 66 84 67 85 68 86 69 87
REMARK SMILES IDX 48 88 49 89 57 90 50 91 56 92 51 93 52 94 53 95 54 96 55 97
REMARK H PARENT 13 7 4 15 20 34 76 53 46 64
REMARK Flexibility Score: inf
ROOT
ATOM      1  C   UNL A   1      35.442  32.641  31.651  1.00  0.00     0.002 C 
ENDROOT
BRANCH   1   2
ATOM      2  C   UNL A   1      36.425  33.737  32.087  1.00  0.00     0.021 C 
BRANCH   2   3
ATOM      3  C   UNL A   1      37.657  33.257  32.852  1.00  0.00     0.116 C 
BRANCH   3   4
ATOM      4  N   UNL A   1      37.372  32.870  34.219  1.00  0.00    -0.352 N 
ATOM      5  C   UNL A   1      37.820  31.785  34.934  1.00  0.00     0.253 C 
ATOM      6  O   UNL A   1      37.490  31.696  36.119  1.00  0.00    -0.269 OA
ATOM      7  H   UNL A   1      36.769  33.475  34.710  1.00  0.00     0.163 HD
BRANCH   5   8
ATOM      8  C   UNL A   1      38.578  30.661  34.316  1.00  0.00     0.064 A 
ATOM      9  C   UNL A   1      39.935  30.360  34.519  1.00  0.00     0.069 A 
ATOM     10  C   UNL A   1      40.508  29.324  33.743  1.00  0.00     0.028 A 
ATOM     11  C   UNL A   1      39.744  28.526  32.892  1.00  0.00     0.002 A 
ATOM     12  C   UNL A   1      37.807  29.820  33.482  1.00  0.00     0.016 A 
ATOM     13  C   UNL A   1      38.380  28.749  32.793  1.00  0.00     0.001 A 
BRANCH   9  14
ATOM     14  N   UNL A   1      40.762  30.838  35.557  1.00  0.00    -0.277 N 
ATOM     15  H   UNL A   1      41.693  30.518  35.556  1.00  0.00     0.190 HD
BRANCH  14  16
ATOM     16  N   UNL A   1      40.421  31.684  36.547  1.00  0.00    -0.180 NA
ATOM     17  C   UNL A   1      42.813  32.279  37.073  1.00  0.00     0.069 C 
ATOM     18  C   UNL A   1      41.312  32.368  37.205  1.00  0.00     0.065 C 
BRANCH  18  19
ATOM     19  C   UNL A   1      40.793  33.345  38.197  1.00  0.00    -0.002 A 
ATOM     20  C   UNL A   1      39.414  33.452  38.393  1.00  0.00     0.011 A 
ATOM     21  C   UNL A   1      41.669  34.207  38.859  1.00  0.00     0.011 A 
ATOM     22  C   UNL A   1      38.897  34.445  39.227  1.00  0.00     0.021 A 
ATOM     23  C   UNL A   1      41.160  35.187  39.715  1.00  0.00     0.021 A 
ATOM     24  C   UNL A   1      39.776  35.314  39.877  1.00  0.00     0.067 A 
BRANCH  24  25
ATOM     25  S   UNL A   1      39.133  36.548  40.982  1.00  0.00     0.175 S 
ATOM     26  C   UNL A   1      40.582  37.319  41.654  1.00  0.00     0.163 C 
ATOM     27  O   UNL A   1      38.431  37.529  40.168  1.00  0.00    -0.224 OA
ATOM     28  O   UNL A   1      38.448  35.858  42.055  1.00  0.00    -0.224 OA
ENDBRANCH  24  25
ENDBRANCH  18  19
ENDBRANCH  14  16
ENDBRANCH   9  14
ENDBRANCH   5   8
ENDBRANCH   3   4
ENDBRANCH   2   3
ENDBRANCH   1   2
BRANCH   1  29
ATOM     29  C   UNL A   1      34.538  32.955  30.454  1.00  0.00     0.002 C 
BRANCH  29  30
ATOM     30  C   UNL A   1      35.139  33.794  29.334  1.00  0.00     0.021 C 
BRANCH  30  31
ATOM     31  C   UNL A   1      35.278  33.078  28.002  1.00  0.00     0.116 C 
BRANCH  31  32
ATOM     32  N   UNL A   1      34.279  32.038  27.812  1.00  0.00    -0.352 N 
ATOM     33  C   UNL A   1      34.446  30.674  27.790  1.00  0.00     0.251 C 
ATOM     34  H   UNL A   1      33.356  32.354  27.681  1.00  0.00     0.163 HD
ATOM     35  O   UNL A   1      33.517  29.939  27.470  1.00  0.00    -0.269 OA
BRANCH  33  36
ATOM     36  C   UNL A   1      35.769  30.106  28.122  1.00  0.00     0.039 A 
ATOM     37  C   UNL A   1      36.769  30.085  27.147  1.00  0.00     0.014 A 
ATOM     38  C   UNL A   1      36.032  29.646  29.415  1.00  0.00     0.014 A 
ATOM     39  C   UNL A   1      38.057  29.670  27.492  1.00  0.00     0.010 A 
ATOM     40  C   UNL A   1      37.333  29.331  29.779  1.00  0.00     0.010 A 
ATOM     41  C   UNL A   1      38.358  29.331  28.820  1.00  0.00    -0.014 A 
BRANCH  41  42
ATOM     42  C   UNL A   1      39.727  28.947  29.245  1.00  0.00     0.031 A 
ATOM     43  C   UNL A   1      40.590  29.957  29.955  1.00  0.00     0.074 A 
ATOM     44  C   UNL A   1      40.224  27.739  28.913  1.00  0.00     0.049 A 
ATOM     45  N   UNL A   1      41.853  29.879  30.282  1.00  0.00    -0.248 NA
ATOM     46  C   UNL A   1      39.956  31.239  30.308  1.00  0.00     0.031 C 
ATOM     47  C   UNL A   1      39.498  26.688  28.198  1.00  0.00     0.029 A 
ATOM     48  N   UNL A   1      41.469  27.198  29.120  1.00  0.00    -0.354 N 
ATOM     49  C   UNL A   1      42.170  31.107  30.850  1.00  0.00     0.074 A 
ATOM     50  C   UNL A   1      40.985  31.931  30.772  1.00  0.00     0.031 C 
ATOM     51  C   UNL A   1      40.301  25.621  28.047  1.00  0.00     0.029 A 
ATOM     52  C   UNL A   1      41.614  25.930  28.604  1.00  0.00     0.049 A 
ATOM     53  H   UNL A   1      42.190  27.672  29.594  1.00  0.00     0.167 HD
ATOM     54  C   UNL A   1      43.338  31.507  31.406  1.00  0.00     0.031 A 
ATOM     55  C   UNL A   1      42.686  25.115  28.571  1.00  0.00     0.031 A 
ATOM     56  C   UNL A   1      44.506  30.674  31.497  1.00  0.00     0.049 A 
ATOM     57  C   UNL A   1      43.978  25.585  29.185  1.00  0.00     0.074 A 
ATOM     58  C   UNL A   1      45.723  30.961  32.089  1.00  0.00     0.029 A 
ATOM     59  N   UNL A   1      44.601  29.388  30.985  1.00  0.00    -0.354 N 
ATOM     60  N   UNL A   1      44.246  26.732  29.764  1.00  0.00    -0.248 NA
ATOM     61  C   UNL A   1      45.111  24.649  29.151  1.00  0.00     0.031 C 
ATOM     62  C   UNL A   1      46.572  29.870  31.887  1.00  0.00     0.029 A 
ATOM     63  C   UNL A   1      45.862  28.876  31.231  1.00  0.00     0.049 A 
ATOM     64  H   UNL A   1      43.879  28.911  30.517  1.00  0.00     0.167 HD
ATOM     65  C   UNL A   1      45.563  26.639  30.198  1.00  0.00     0.074 A 
ATOM     66  C   UNL A   1      46.037  25.324  29.820  1.00  0.00     0.031 C 
ATOM     67  C   UNL A   1      46.311  27.557  30.859  1.00  0.00     0.031 A 
BRANCH  54  68
ATOM     68  C   UNL A   1      43.408  32.909  31.951  1.00  0.00    -0.014 A 
ATOM     69  C   UNL A   1      43.750  33.997  31.126  1.00  0.00     0.010 A 
ATOM     70  C   UNL A   1      43.094  33.151  33.301  1.00  0.00     0.010 A 
ATOM     71  C   UNL A   1      43.822  35.290  31.650  1.00  0.00     0.020 A 
ATOM     72  C   UNL A   1      43.131  34.447  33.822  1.00  0.00     0.020 A 
ATOM     73  C   UNL A   1      43.512  35.506  32.996  1.00  0.00     0.054 A 
BRANCH  73  74
ATOM     74  S   UNL A   1      43.590  37.199  33.642  1.00  0.00     0.124 S 
ATOM     75  O   UNL A   1      44.755  37.132  34.520  1.00  0.00    -0.237 OA
ATOM     76  O   UNL A   1      43.762  37.995  32.430  1.00  0.00    -0.237 OA
ATOM     77  O   UNL A   1      42.308  37.371  34.322  1.00  0.00    -0.744 OA
ENDBRANCH  73  74
ENDBRANCH  54  68
BRANCH  55  78
ATOM     78  C   UNL A   1      42.580  23.768  27.945  1.00  0.00    -0.014 A 
ATOM     79  C   UNL A   1      42.152  22.662  28.699  1.00  0.00     0.010 A 
ATOM     80  C   UNL A   1      42.894  23.586  26.585  1.00  0.00     0.010 A 
ATOM     81  C   UNL A   1      42.057  21.396  28.113  1.00  0.00     0.020 A 
ATOM     82  C   UNL A   1      42.772  22.328  25.988  1.00  0.00     0.020 A 
ATOM     83  C   UNL A   1      42.366  21.238  26.759  1.00  0.00     0.054 A 
BRANCH  83  84
ATOM     84  S   UNL A   1      42.189  19.596  26.008  1.00  0.00     0.124 S 
ATOM     85  O   UNL A   1      40.764  19.557  25.696  1.00  0.00    -0.237 OA
ATOM     86  O   UNL A   1      43.088  19.677  24.859  1.00  0.00    -0.237 OA
ATOM     87  O   UNL A   1      42.624  18.688  27.067  1.00  0.00    -0.744 OA
ENDBRANCH  83  84
ENDBRANCH  55  78
BRANCH  67  88
ATOM     88  C   UNL A   1      47.702  27.160  31.274  1.00  0.00    -0.014 A 
ATOM     89  C   UNL A   1      48.777  27.195  30.369  1.00  0.00     0.010 A 
ATOM     90  C   UNL A   1      47.948  26.834  32.621  1.00  0.00     0.010 A 
ATOM     91  C   UNL A   1      50.071  26.890  30.802  1.00  0.00     0.020 A 
ATOM     92  C   UNL A   1      49.243  26.560  33.063  1.00  0.00     0.020 A 
ATOM     93  C   UNL A   1      50.296  26.580  32.147  1.00  0.00     0.054 A 
BRANCH  93  94
ATOM     94  S   UNL A   1      51.994  26.259  32.697  1.00  0.00     0.124 S 
ATOM     95  O   UNL A   1      51.783  25.724  34.039  1.00  0.00    -0.237 OA
ATOM     96  O   UNL A   1      52.474  25.300  31.706  1.00  0.00    -0.237 OA
ATOM     97  O   UNL A   1      52.631  27.573  32.644  1.00  0.00    -0.744 OA
ENDBRANCH  93  94
ENDBRANCH  67  88
ENDBRANCH  41  42
ENDBRANCH  33  36
ENDBRANCH  31  32
ENDBRANCH  30  31
ENDBRANCH  29  30
ENDBRANCH   1  29
TORSDOF 20
ENDMDL
