MODEL 1
REMARK VINA RESULT:     -10.2      0.000      0.000
REMARK SMILES C[NH+](C)Cc1noc(C[C@@](C)(C(=O)NCCCCCCNC(=O)c2ccc(-c3c4nc(c(-c5ccc(S(=O)(=O)[O-])cc5)c5ccc([nH]5)c(-c5ccc(S(=O)(=O)[O-])cc5)c5nc(c(-c6ccc(S(=O)(=O)[O-])cc6)c6ccc3[nH]6)C=C5)C=C4)cc2)c2ccccc2)n1
REMARK SMILES IDX 17 1 16 2 15 3 14 4 12 5 13 6 10 8 11 9 9 10 8 11 5 12 6 13
REMARK SMILES IDX 90 14 7 15 4 16 2 17 1 18 3 19 84 21 85 22 89 23 86 24 88 25
REMARK SMILES IDX 87 26 18 27 19 28 20 29 21 30 22 31 23 33 24 34 25 35 83 36
REMARK SMILES IDX 26 37 82 38 27 39 28 40 29 41 76 42 30 43 81 44 75 45 77 46
REMARK SMILES IDX 31 47 80 48 74 49 73 50 32 52 62 53 43 54 61 55 44 56 47 57
REMARK SMILES IDX 60 58 78 59 45 60 46 61 59 63 79 64 48 65 33 66 34 67 42 68
REMARK SMILES IDX 35 69 41 70 36 71 37 72 38 73 39 74 40 75 63 76 64 77 72 78
REMARK SMILES IDX 65 79 71 80 66 81 67 82 68 83 69 84 70 85 49 86 50 87 58 88
REMARK SMILES IDX 51 89 57 90 52 91 53 92 54 93 55 94 56 95
REMARK H PARENT 14 7 2 20 21 32 77 51 47 62
REMARK Flexibility Score: inf
ROOT
ATOM      1  C   UNL A   1      35.157  31.139  28.326  1.00  0.00     0.002 C 
ENDROOT
BRANCH   1   2
ATOM      2  C   UNL A   1      34.582  30.504  27.056  1.00  0.00     0.021 C 
BRANCH   2   3
ATOM      3  C   UNL A   1      34.456  28.983  27.138  1.00  0.00     0.116 C 
BRANCH   3   4
ATOM      4  N   UNL A   1      33.195  28.604  27.749  1.00  0.00    -0.355 N 
ATOM      5  C   UNL A   1      32.148  27.837  27.329  1.00  0.00     0.230 C 
ATOM      6  O   UNL A   1      31.172  27.828  28.085  1.00  0.00    -0.274 OA
ATOM      7  H   UNL A   1      33.069  28.977  28.651  1.00  0.00     0.163 HD
BRANCH   5   8
ATOM      8  C   UNL A   1      32.182  27.026  26.000  1.00  0.00     0.080 C 
ATOM      9  C   UNL A   1      31.716  25.574  26.306  1.00  0.00     0.027 C 
BRANCH   8  10
ATOM     10  C   UNL A   1      33.647  27.049  25.471  1.00  0.00     0.122 C 
BRANCH  10  11
ATOM     11  C   UNL A   1      34.047  25.847  24.701  1.00  0.00     0.228 A 
ATOM     12  C   UNL A   1      34.863  24.087  23.935  1.00  0.00     0.226 A 
ATOM     13  N   UNL A   1      34.197  24.596  22.888  1.00  0.00    -0.056 NA
ATOM     14  N   UNL A   1      34.740  24.809  25.099  1.00  0.00    -0.190 NA
ATOM     15  O   UNL A   1      33.636  25.763  23.404  1.00  0.00    -0.339 OA
BRANCH  12  16
ATOM     16  C   UNL A   1      35.730  22.873  23.826  1.00  0.00     0.344 C 
BRANCH  16  17
ATOM     17  N   UNL A   1      35.213  21.680  24.543  1.00  0.00    -0.333 N 
ATOM     18  C   UNL A   1      35.544  21.710  25.968  1.00  0.00     0.332 C 
ATOM     19  C   UNL A   1      33.778  21.495  24.347  1.00  0.00     0.332 C 
ATOM     20  H   UNL A   1      35.685  20.875  24.131  1.00  0.00     0.348 HD
ENDBRANCH  16  17
ENDBRANCH  12  16
ENDBRANCH  10  11
ENDBRANCH   8  10
BRANCH   8  21
ATOM     21  C   UNL A   1      31.175  27.665  24.986  1.00  0.00    -0.032 A 
ATOM     22  C   UNL A   1      30.231  26.872  24.301  1.00  0.00     0.005 A 
ATOM     23  C   UNL A   1      31.161  29.045  24.711  1.00  0.00     0.005 A 
ATOM     24  C   UNL A   1      29.395  27.412  23.319  1.00  0.00     0.000 A 
ATOM     25  C   UNL A   1      30.325  29.585  23.729  1.00  0.00     0.000 A 
ATOM     26  C   UNL A   1      29.458  28.766  23.016  1.00  0.00     0.000 A 
ENDBRANCH   8  21
ENDBRANCH   5   8
ENDBRANCH   3   4
ENDBRANCH   2   3
ENDBRANCH   1   2
BRANCH   1  27
ATOM     27  C   UNL A   1      35.889  32.466  28.100  1.00  0.00     0.002 C 
BRANCH  27  28
ATOM     28  C   UNL A   1      34.979  33.694  27.994  1.00  0.00     0.021 C 
BRANCH  28  29
ATOM     29  C   UNL A   1      33.525  33.431  28.369  1.00  0.00     0.116 C 
BRANCH  29  30
ATOM     30  N   UNL A   1      32.989  34.488  29.212  1.00  0.00    -0.352 N 
ATOM     31  C   UNL A   1      33.320  34.816  30.501  1.00  0.00     0.251 C 
ATOM     32  H   UNL A   1      32.292  35.047  28.799  1.00  0.00     0.163 HD
ATOM     33  O   UNL A   1      32.605  35.588  31.140  1.00  0.00    -0.269 OA
BRANCH  31  34
ATOM     34  C   UNL A   1      34.525  34.231  31.122  1.00  0.00     0.039 A 
ATOM     35  C   UNL A   1      34.457  32.937  31.645  1.00  0.00     0.014 A 
ATOM     36  C   UNL A   1      35.717  34.959  31.196  1.00  0.00     0.014 A 
ATOM     37  C   UNL A   1      35.602  32.354  32.193  1.00  0.00     0.010 A 
ATOM     38  C   UNL A   1      36.872  34.350  31.675  1.00  0.00     0.010 A 
ATOM     39  C   UNL A   1      36.827  33.043  32.185  1.00  0.00    -0.014 A 
BRANCH  39  40
ATOM     40  C   UNL A   1      38.067  32.411  32.701  1.00  0.00     0.031 A 
ATOM     41  C   UNL A   1      38.548  32.714  34.096  1.00  0.00     0.074 A 
ATOM     42  C   UNL A   1      38.792  31.611  31.892  1.00  0.00     0.049 A 
ATOM     43  N   UNL A   1      39.633  32.301  34.698  1.00  0.00    -0.248 NA
ATOM     44  C   UNL A   1      37.718  33.616  34.913  1.00  0.00     0.031 C 
ATOM     45  C   UNL A   1      38.455  31.278  30.506  1.00  0.00     0.029 A 
ATOM     46  N   UNL A   1      39.969  30.939  32.115  1.00  0.00    -0.354 N 
ATOM     47  C   UNL A   1      39.629  32.907  35.949  1.00  0.00     0.074 A 
ATOM     48  C   UNL A   1      38.452  33.747  36.009  1.00  0.00     0.031 C 
ATOM     49  C   UNL A   1      39.392  30.453  30.009  1.00  0.00     0.029 A 
ATOM     50  C   UNL A   1      40.418  30.232  31.023  1.00  0.00     0.049 A 
ATOM     51  H   UNL A   1      40.447  30.962  32.975  1.00  0.00     0.167 HD
ATOM     52  C   UNL A   1      40.515  32.767  36.962  1.00  0.00     0.031 A 
ATOM     53  C   UNL A   1      41.538  29.502  30.850  1.00  0.00     0.031 A 
ATOM     54  C   UNL A   1      41.670  31.909  36.908  1.00  0.00     0.049 A 
ATOM     55  C   UNL A   1      42.503  29.361  31.996  1.00  0.00     0.074 A 
ATOM     56  C   UNL A   1      42.583  31.638  37.913  1.00  0.00     0.029 A 
ATOM     57  N   UNL A   1      42.075  31.190  35.795  1.00  0.00    -0.354 N 
ATOM     58  N   UNL A   1      42.429  29.871  33.204  1.00  0.00    -0.248 NA
ATOM     59  C   UNL A   1      43.697  28.537  31.764  1.00  0.00     0.031 C 
ATOM     60  C   UNL A   1      43.575  30.807  37.388  1.00  0.00     0.029 A 
ATOM     61  C   UNL A   1      43.243  30.502  36.078  1.00  0.00     0.049 A 
ATOM     62  H   UNL A   1      41.602  31.171  34.932  1.00  0.00     0.167 HD
ATOM     63  C   UNL A   1      43.549  29.401  33.881  1.00  0.00     0.074 A 
ATOM     64  C   UNL A   1      44.272  28.553  32.957  1.00  0.00     0.031 C 
ATOM     65  C   UNL A   1      43.946  29.652  35.152  1.00  0.00     0.031 A 
BRANCH  52  66
ATOM     66  C   UNL A   1      40.288  33.555  38.225  1.00  0.00    -0.014 A 
ATOM     67  C   UNL A   1      40.814  34.850  38.381  1.00  0.00     0.010 A 
ATOM     68  C   UNL A   1      39.447  33.032  39.225  1.00  0.00     0.010 A 
ATOM     69  C   UNL A   1      40.512  35.601  39.520  1.00  0.00     0.020 A 
ATOM     70  C   UNL A   1      39.121  33.791  40.352  1.00  0.00     0.020 A 
ATOM     71  C   UNL A   1      39.661  35.070  40.495  1.00  0.00     0.054 A 
BRANCH  71  72
ATOM     72  S   UNL A   1      39.226  36.100  41.923  1.00  0.00     0.124 S 
ATOM     73  O   UNL A   1      40.330  35.825  42.840  1.00  0.00    -0.237 OA
ATOM     74  O   UNL A   1      39.206  37.444  41.352  1.00  0.00    -0.237 OA
ATOM     75  O   UNL A   1      37.925  35.584  42.342  1.00  0.00    -0.744 OA
ENDBRANCH  71  72
ENDBRANCH  52  66
BRANCH  53  76
ATOM     76  C   UNL A   1      41.823  28.860  29.535  1.00  0.00    -0.014 A 
ATOM     77  C   UNL A   1      42.515  29.554  28.527  1.00  0.00     0.010 A 
ATOM     78  C   UNL A   1      41.365  27.556  29.273  1.00  0.00     0.010 A 
ATOM     79  C   UNL A   1      42.705  28.975  27.268  1.00  0.00     0.020 A 
ATOM     80  C   UNL A   1      41.584  26.959  28.029  1.00  0.00     0.020 A 
ATOM     81  C   UNL A   1      42.234  27.682  27.027  1.00  0.00     0.054 A 
BRANCH  81  82
ATOM     82  S   UNL A   1      42.493  26.946  25.389  1.00  0.00     0.124 S 
ATOM     83  O   UNL A   1      41.316  26.094  25.251  1.00  0.00    -0.237 OA
ATOM     84  O   UNL A   1      42.534  28.118  24.519  1.00  0.00    -0.237 OA
ATOM     85  O   UNL A   1      43.764  26.239  25.530  1.00  0.00    -0.744 OA
ENDBRANCH  81  82
ENDBRANCH  53  76
BRANCH  65  86
ATOM     86  C   UNL A   1      45.193  28.965  35.644  1.00  0.00    -0.014 A 
ATOM     87  C   UNL A   1      46.462  29.547  35.484  1.00  0.00     0.010 A 
ATOM     88  C   UNL A   1      45.082  27.740  36.329  1.00  0.00     0.010 A 
ATOM     89  C   UNL A   1      47.601  28.900  35.970  1.00  0.00     0.020 A 
ATOM     90  C   UNL A   1      46.214  27.106  36.845  1.00  0.00     0.020 A 
ATOM     91  C   UNL A   1      47.470  27.684  36.649  1.00  0.00     0.054 A 
BRANCH  91  92
ATOM     92  S   UNL A   1      48.960  26.887  37.308  1.00  0.00     0.124 S 
ATOM     93  O   UNL A   1      48.528  25.498  37.440  1.00  0.00    -0.237 OA
ATOM     94  O   UNL A   1      49.948  27.142  36.263  1.00  0.00    -0.237 OA
ATOM     95  O   UNL A   1      49.199  27.588  38.568  1.00  0.00    -0.744 OA
ENDBRANCH  91  92
ENDBRANCH  65  86
ENDBRANCH  39  40
ENDBRANCH  31  34
ENDBRANCH  29  30
ENDBRANCH  28  29
ENDBRANCH  27  28
ENDBRANCH   1  27
TORSDOF 21
ENDMDL
MODEL 2
REMARK VINA RESULT:      -9.8      6.075     12.044
REMARK SMILES C[NH+](C)Cc1noc(C[C@@](C)(C(=O)NCCCCCCNC(=O)c2ccc(-c3c4nc(c(-c5ccc(S(=O)(=O)[O-])cc5)c5ccc([nH]5)c(-c5ccc(S(=O)(=O)[O-])cc5)c5nc(c(-c6ccc(S(=O)(=O)[O-])cc6)c6ccc3[nH]6)C=C5)C=C4)cc2)c2ccccc2)n1
REMARK SMILES IDX 17 1 16 2 15 3 14 4 12 5 13 6 10 8 11 9 9 10 8 11 5 12 6 13
REMARK SMILES IDX 90 14 7 15 4 16 2 17 1 18 3 19 84 21 85 22 89 23 86 24 88 25
REMARK SMILES IDX 87 26 18 27 19 28 20 29 21 30 22 31 23 33 24 34 25 35 83 36
REMARK SMILES IDX 26 37 82 38 27 39 28 40 29 41 76 42 30 43 81 44 75 45 77 46
REMARK SMILES IDX 31 47 80 48 74 49 73 50 32 52 62 53 43 54 61 55 44 56 47 57
REMARK SMILES IDX 60 58 78 59 45 60 46 61 59 63 79 64 48 65 33 66 34 67 42 68
REMARK SMILES IDX 35 69 41 70 36 71 37 72 38 73 39 74 40 75 63 76 64 77 72 78
REMARK SMILES IDX 65 79 71 80 66 81 67 82 68 83 69 84 70 85 49 86 50 87 58 88
REMARK SMILES IDX 51 89 57 90 52 91 53 92 54 93 55 94 56 95
REMARK H PARENT 14 7 2 20 21 32 77 51 47 62
REMARK Flexibility Score: inf
ROOT
ATOM      1  C   UNL A   1      38.676  23.346  25.745  1.00  0.00     0.002 C 
ENDROOT
BRANCH   1   2
ATOM      2  C   UNL A   1      37.235  23.569  26.213  1.00  0.00     0.021 C 
BRANCH   2   3
ATOM      3  C   UNL A   1      36.222  22.656  25.524  1.00  0.00     0.116 C 
BRANCH   3   4
ATOM      4  N   UNL A   1      35.385  21.985  26.503  1.00  0.00    -0.355 N 
ATOM      5  C   UNL A   1      34.129  21.457  26.452  1.00  0.00     0.230 C 
ATOM      6  O   UNL A   1      33.685  21.059  27.533  1.00  0.00    -0.274 OA
ATOM      7  H   UNL A   1      35.812  21.893  27.385  1.00  0.00     0.163 HD
BRANCH   5   8
ATOM      8  C   UNL A   1      33.315  21.355  25.128  1.00  0.00     0.080 C 
ATOM      9  C   UNL A   1      33.871  22.412  24.133  1.00  0.00     0.027 C 
BRANCH   8  10
ATOM     10  C   UNL A   1      31.821  21.634  25.471  1.00  0.00     0.122 C 
BRANCH  10  11
ATOM     11  C   UNL A   1      31.477  23.068  25.621  1.00  0.00     0.228 A 
ATOM     12  C   UNL A   1      30.974  25.083  25.420  1.00  0.00     0.226 A 
ATOM     13  N   UNL A   1      31.337  24.986  26.707  1.00  0.00    -0.056 NA
ATOM     14  N   UNL A   1      30.990  23.894  24.728  1.00  0.00    -0.190 NA
ATOM     15  O   UNL A   1      31.656  23.636  26.847  1.00  0.00    -0.339 OA
BRANCH  12  16
ATOM     16  C   UNL A   1      30.651  26.391  24.770  1.00  0.00     0.344 C 
BRANCH  16  17
ATOM     17  N   UNL A   1      31.659  26.855  23.783  1.00  0.00    -0.333 N 
ATOM     18  C   UNL A   1      31.098  27.821  22.839  1.00  0.00     0.332 C 
ATOM     19  C   UNL A   1      32.856  27.392  24.426  1.00  0.00     0.332 C 
ATOM     20  H   UNL A   1      31.939  26.029  23.255  1.00  0.00     0.348 HD
ENDBRANCH  16  17
ENDBRANCH  12  16
ENDBRANCH  10  11
ENDBRANCH   8  10
BRANCH   8  21
ATOM     21  C   UNL A   1      33.525  19.934  24.507  1.00  0.00    -0.032 A 
ATOM     22  C   UNL A   1      32.551  19.356  23.667  1.00  0.00     0.005 A 
ATOM     23  C   UNL A   1      34.682  19.172  24.751  1.00  0.00     0.005 A 
ATOM     24  C   UNL A   1      32.678  18.048  23.187  1.00  0.00     0.000 A 
ATOM     25  C   UNL A   1      34.810  17.864  24.272  1.00  0.00     0.000 A 
ATOM     26  C   UNL A   1      33.799  17.293  23.509  1.00  0.00     0.000 A 
ENDBRANCH   8  21
ENDBRANCH   5   8
ENDBRANCH   3   4
ENDBRANCH   2   3
ENDBRANCH   1   2
BRANCH   1  27
ATOM     27  C   UNL A   1      39.499  22.410  26.637  1.00  0.00     0.002 C 
BRANCH  27  28
ATOM     28  C   UNL A   1      39.717  21.005  26.068  1.00  0.00     0.021 C 
BRANCH  28  29
ATOM     29  C   UNL A   1      40.573  20.098  26.945  1.00  0.00     0.116 C 
BRANCH  29  30
ATOM     30  N   UNL A   1      41.672  19.509  26.196  1.00  0.00    -0.352 N 
ATOM     31  C   UNL A   1      42.763  20.121  25.637  1.00  0.00     0.251 C 
ATOM     32  H   UNL A   1      41.626  18.533  26.074  1.00  0.00     0.163 HD
ATOM     33  O   UNL A   1      43.471  19.506  24.841  1.00  0.00    -0.269 OA
BRANCH  31  34
ATOM     34  C   UNL A   1      43.076  21.523  25.982  1.00  0.00     0.039 A 
ATOM     35  C   UNL A   1      43.475  21.826  27.286  1.00  0.00     0.014 A 
ATOM     36  C   UNL A   1      42.970  22.536  25.024  1.00  0.00     0.014 A 
ATOM     37  C   UNL A   1      43.819  23.139  27.614  1.00  0.00     0.010 A 
ATOM     38  C   UNL A   1      43.383  23.828  25.334  1.00  0.00     0.010 A 
ATOM     39  C   UNL A   1      43.806  24.146  26.633  1.00  0.00    -0.014 A 
BRANCH  39  40
ATOM     40  C   UNL A   1      44.236  25.532  26.949  1.00  0.00     0.031 A 
ATOM     41  C   UNL A   1      45.653  25.966  26.678  1.00  0.00     0.074 A 
ATOM     42  C   UNL A   1      43.366  26.381  27.534  1.00  0.00     0.049 A 
ATOM     43  N   UNL A   1      46.223  27.114  26.937  1.00  0.00    -0.248 NA
ATOM     44  C   UNL A   1      46.553  24.978  26.059  1.00  0.00     0.031 C 
ATOM     45  C   UNL A   1      41.980  26.063  27.889  1.00  0.00     0.029 A 
ATOM     46  N   UNL A   1      43.520  27.682  27.945  1.00  0.00    -0.354 N 
ATOM     47  C   UNL A   1      47.547  26.980  26.537  1.00  0.00     0.074 A 
ATOM     48  C   UNL A   1      47.709  25.627  26.051  1.00  0.00     0.031 C 
ATOM     49  C   UNL A   1      41.408  27.144  28.446  1.00  0.00     0.029 A 
ATOM     50  C   UNL A   1      42.395  28.216  28.529  1.00  0.00     0.049 A 
ATOM     51  H   UNL A   1      44.359  28.186  27.832  1.00  0.00     0.167 HD
ATOM     52  C   UNL A   1      48.537  27.904  26.558  1.00  0.00     0.031 A 
ATOM     53  C   UNL A   1      42.184  29.426  29.084  1.00  0.00     0.031 A 
ATOM     54  C   UNL A   1      48.365  29.257  27.015  1.00  0.00     0.049 A 
ATOM     55  C   UNL A   1      43.302  30.433  29.090  1.00  0.00     0.074 A 
ATOM     56  C   UNL A   1      49.287  30.290  27.000  1.00  0.00     0.029 A 
ATOM     57  N   UNL A   1      47.203  29.766  27.575  1.00  0.00    -0.354 N 
ATOM     58  N   UNL A   1      44.522  30.313  28.619  1.00  0.00    -0.248 NA
ATOM     59  C   UNL A   1      43.014  31.744  29.687  1.00  0.00     0.031 C 
ATOM     60  C   UNL A   1      48.704  31.404  27.609  1.00  0.00     0.029 A 
ATOM     61  C   UNL A   1      47.396  31.088  27.939  1.00  0.00     0.049 A 
ATOM     62  H   UNL A   1      46.366  29.263  27.695  1.00  0.00     0.167 HD
ATOM     63  C   UNL A   1      45.133  31.543  28.837  1.00  0.00     0.074 A 
ATOM     64  C   UNL A   1      44.145  32.398  29.461  1.00  0.00     0.031 C 
ATOM     65  C   UNL A   1      46.400  31.930  28.549  1.00  0.00     0.031 A 
BRANCH  52  66
ATOM     66  C   UNL A   1      49.904  27.497  26.076  1.00  0.00    -0.014 A 
ATOM     67  C   UNL A   1      50.855  26.949  26.956  1.00  0.00     0.010 A 
ATOM     68  C   UNL A   1      50.203  27.567  24.702  1.00  0.00     0.010 A 
ATOM     69  C   UNL A   1      52.082  26.489  26.472  1.00  0.00     0.020 A 
ATOM     70  C   UNL A   1      51.418  27.084  24.211  1.00  0.00     0.020 A 
ATOM     71  C   UNL A   1      52.354  26.552  25.101  1.00  0.00     0.054 A 
BRANCH  71  72
ATOM     72  S   UNL A   1      53.923  25.877  24.494  1.00  0.00     0.124 S 
ATOM     73  O   UNL A   1      54.892  26.530  25.371  1.00  0.00    -0.237 OA
ATOM     74  O   UNL A   1      53.755  24.442  24.704  1.00  0.00    -0.237 OA
ATOM     75  O   UNL A   1      53.967  26.298  23.096  1.00  0.00    -0.744 OA
ENDBRANCH  71  72
ENDBRANCH  52  66
BRANCH  53  76
ATOM     76  C   UNL A   1      40.867  29.752  29.702  1.00  0.00    -0.014 A 
ATOM     77  C   UNL A   1      39.778  30.158  28.910  1.00  0.00     0.010 A 
ATOM     78  C   UNL A   1      40.708  29.693  31.099  1.00  0.00     0.010 A 
ATOM     79  C   UNL A   1      38.572  30.542  29.504  1.00  0.00     0.020 A 
ATOM     80  C   UNL A   1      39.494  30.041  31.695  1.00  0.00     0.020 A 
ATOM     81  C   UNL A   1      38.440  30.484  30.894  1.00  0.00     0.054 A 
BRANCH  81  82
ATOM     82  S   UNL A   1      36.866  30.983  31.647  1.00  0.00     0.124 S 
ATOM     83  O   UNL A   1      36.199  31.654  30.536  1.00  0.00    -0.237 OA
ATOM     84  O   UNL A   1      36.291  29.703  32.053  1.00  0.00    -0.237 OA
ATOM     85  O   UNL A   1      37.275  31.851  32.749  1.00  0.00    -0.744 OA
ENDBRANCH  81  82
ENDBRANCH  53  76
BRANCH  65  86
ATOM     86  C   UNL A   1      46.782  33.354  28.857  1.00  0.00    -0.014 A 
ATOM     87  C   UNL A   1      46.574  34.387  27.927  1.00  0.00     0.010 A 
ATOM     88  C   UNL A   1      47.307  33.669  30.125  1.00  0.00     0.010 A 
ATOM     89  C   UNL A   1      46.915  35.703  28.246  1.00  0.00     0.020 A 
ATOM     90  C   UNL A   1      47.619  34.988  30.460  1.00  0.00     0.020 A 
ATOM     91  C   UNL A   1      47.434  35.996  29.512  1.00  0.00     0.054 A 
BRANCH  91  92
ATOM     92  S   UNL A   1      47.828  37.720  29.916  1.00  0.00     0.124 S 
ATOM     93  O   UNL A   1      48.818  38.053  28.895  1.00  0.00    -0.237 OA
ATOM     94  O   UNL A   1      46.535  38.384  29.780  1.00  0.00    -0.237 OA
ATOM     95  O   UNL A   1      48.343  37.646  31.282  1.00  0.00    -0.744 OA
ENDBRANCH  91  92
ENDBRANCH  65  86
ENDBRANCH  39  40
ENDBRANCH  31  34
ENDBRANCH  29  30
ENDBRANCH  28  29
ENDBRANCH  27  28
ENDBRANCH   1  27
TORSDOF 21
ENDMDL
MODEL 3
REMARK VINA RESULT:      -9.7      2.672      9.256
REMARK SMILES C[NH+](C)Cc1noc(C[C@@](C)(C(=O)NCCCCCCNC(=O)c2ccc(-c3c4nc(c(-c5ccc(S(=O)(=O)[O-])cc5)c5ccc([nH]5)c(-c5ccc(S(=O)(=O)[O-])cc5)c5nc(c(-c6ccc(S(=O)(=O)[O-])cc6)c6ccc3[nH]6)C=C5)C=C4)cc2)c2ccccc2)n1
REMARK SMILES IDX 17 1 16 2 15 3 14 4 12 5 13 6 10 8 11 9 9 10 8 11 5 12 6 13
REMARK SMILES IDX 90 14 7 15 4 16 2 17 1 18 3 19 84 21 85 22 89 23 86 24 88 25
REMARK SMILES IDX 87 26 18 27 19 28 20 29 21 30 22 31 23 33 24 34 25 35 83 36
REMARK SMILES IDX 26 37 82 38 27 39 28 40 29 41 76 42 30 43 81 44 75 45 77 46
REMARK SMILES IDX 31 47 80 48 74 49 73 50 32 52 62 53 43 54 61 55 44 56 47 57
REMARK SMILES IDX 60 58 78 59 45 60 46 61 59 63 79 64 48 65 33 66 34 67 42 68
REMARK SMILES IDX 35 69 41 70 36 71 37 72 38 73 39 74 40 75 63 76 64 77 72 78
REMARK SMILES IDX 65 79 71 80 66 81 67 82 68 83 69 84 70 85 49 86 50 87 58 88
REMARK SMILES IDX 51 89 57 90 52 91 53 92 54 93 55 94 56 95
REMARK H PARENT 14 7 2 20 21 32 77 51 47 62
REMARK Flexibility Score: inf
ROOT
ATOM      1  C   UNL A   1      31.265  26.136  26.217  1.00  0.00     0.002 C 
ENDROOT
BRANCH   1   2
ATOM      2  C   UNL A   1      31.829  24.721  26.367  1.00  0.00     0.021 C 
BRANCH   2   3
ATOM      3  C   UNL A   1      33.339  24.639  26.144  1.00  0.00     0.116 C 
BRANCH   3   4
ATOM      4  N   UNL A   1      33.895  23.475  26.810  1.00  0.00    -0.355 N 
ATOM      5  C   UNL A   1      34.831  22.552  26.449  1.00  0.00     0.230 C 
ATOM      6  O   UNL A   1      34.972  21.614  27.240  1.00  0.00    -0.274 OA
ATOM      7  H   UNL A   1      33.519  23.320  27.706  1.00  0.00     0.163 HD
BRANCH   5   8
ATOM      8  C   UNL A   1      35.668  22.672  25.141  1.00  0.00     0.080 C 
ATOM      9  C   UNL A   1      35.999  24.174  24.913  1.00  0.00     0.027 C 
BRANCH   8  10
ATOM     10  C   UNL A   1      34.805  22.102  23.976  1.00  0.00     0.122 C 
BRANCH  10  11
ATOM     11  C   UNL A   1      33.863  21.028  24.370  1.00  0.00     0.228 A 
ATOM     12  C   UNL A   1      32.801  19.268  24.727  1.00  0.00     0.226 A 
ATOM     13  N   UNL A   1      31.934  20.227  25.086  1.00  0.00    -0.056 NA
ATOM     14  N   UNL A   1      34.035  19.729  24.334  1.00  0.00    -0.190 NA
ATOM     15  O   UNL A   1      32.649  21.402  24.865  1.00  0.00    -0.339 OA
BRANCH  12  16
ATOM     16  C   UNL A   1      32.429  17.820  24.685  1.00  0.00     0.344 C 
BRANCH  16  17
ATOM     17  N   UNL A   1      33.293  16.938  25.510  1.00  0.00    -0.333 N 
ATOM     18  C   UNL A   1      32.584  15.737  25.955  1.00  0.00     0.332 C 
ATOM     19  C   UNL A   1      34.536  16.585  24.829  1.00  0.00     0.332 C 
ATOM     20  H   UNL A   1      33.540  17.478  26.339  1.00  0.00     0.348 HD
ENDBRANCH  16  17
ENDBRANCH  12  16
ENDBRANCH  10  11
ENDBRANCH   8  10
BRANCH   8  21
ATOM     21  C   UNL A   1      37.013  21.891  25.320  1.00  0.00    -0.032 A 
ATOM     22  C   UNL A   1      37.153  20.568  24.853  1.00  0.00     0.005 A 
ATOM     23  C   UNL A   1      38.135  22.464  25.947  1.00  0.00     0.005 A 
ATOM     24  C   UNL A   1      38.313  19.824  25.095  1.00  0.00     0.000 A 
ATOM     25  C   UNL A   1      39.294  21.720  26.190  1.00  0.00     0.000 A 
ATOM     26  C   UNL A   1      39.376  20.394  25.784  1.00  0.00     0.000 A 
ENDBRANCH   8  21
ENDBRANCH   5   8
ENDBRANCH   3   4
ENDBRANCH   2   3
ENDBRANCH   1   2
BRANCH   1  27
ATOM     27  C   UNL A   1      32.275  27.176  25.719  1.00  0.00     0.002 C 
BRANCH  27  28
ATOM     28  C   UNL A   1      32.816  28.118  26.799  1.00  0.00     0.021 C 
BRANCH  28  29
ATOM     29  C   UNL A   1      33.904  29.070  26.315  1.00  0.00     0.116 C 
BRANCH  29  30
ATOM     30  N   UNL A   1      33.597  30.451  26.653  1.00  0.00    -0.352 N 
ATOM     31  C   UNL A   1      34.201  31.270  27.571  1.00  0.00     0.251 C 
ATOM     32  H   UNL A   1      32.853  30.854  26.151  1.00  0.00     0.163 HD
ATOM     33  O   UNL A   1      33.665  32.330  27.893  1.00  0.00    -0.269 OA
BRANCH  31  34
ATOM     34  C   UNL A   1      35.484  30.869  28.182  1.00  0.00     0.039 A 
ATOM     35  C   UNL A   1      36.617  31.654  27.956  1.00  0.00     0.014 A 
ATOM     36  C   UNL A   1      35.571  29.717  28.972  1.00  0.00     0.014 A 
ATOM     37  C   UNL A   1      37.826  31.313  28.565  1.00  0.00     0.010 A 
ATOM     38  C   UNL A   1      36.758  29.422  29.636  1.00  0.00     0.010 A 
ATOM     39  C   UNL A   1      37.900  30.212  29.435  1.00  0.00    -0.014 A 
BRANCH  39  40
ATOM     40  C   UNL A   1      39.160  29.877  30.145  1.00  0.00     0.031 A 
ATOM     41  C   UNL A   1      40.040  28.762  29.642  1.00  0.00     0.074 A 
ATOM     42  C   UNL A   1      39.482  30.536  31.277  1.00  0.00     0.049 A 
ATOM     43  N   UNL A   1      41.145  28.291  30.159  1.00  0.00    -0.248 NA
ATOM     44  C   UNL A   1      39.612  28.070  28.414  1.00  0.00     0.031 C 
ATOM     45  C   UNL A   1      38.688  31.604  31.891  1.00  0.00     0.029 A 
ATOM     46  N   UNL A   1      40.557  30.401  32.120  1.00  0.00    -0.354 N 
ATOM     47  C   UNL A   1      41.531  27.239  29.337  1.00  0.00     0.074 A 
ATOM     48  C   UNL A   1      40.524  27.113  28.307  1.00  0.00     0.031 C 
ATOM     49  C   UNL A   1      39.311  32.037  32.999  1.00  0.00     0.029 A 
ATOM     50  C   UNL A   1      40.524  31.251  33.201  1.00  0.00     0.049 A 
ATOM     51  H   UNL A   1      41.284  29.754  31.965  1.00  0.00     0.167 HD
ATOM     52  C   UNL A   1      42.633  26.456  29.423  1.00  0.00     0.031 A 
ATOM     53  C   UNL A   1      41.366  31.375  34.247  1.00  0.00     0.031 A 
ATOM     54  C   UNL A   1      43.647  26.603  30.434  1.00  0.00     0.049 A 
ATOM     55  C   UNL A   1      42.584  30.493  34.313  1.00  0.00     0.074 A 
ATOM     56  C   UNL A   1      44.840  25.911  30.556  1.00  0.00     0.029 A 
ATOM     57  N   UNL A   1      43.590  27.493  31.495  1.00  0.00    -0.354 N 
ATOM     58  N   UNL A   1      42.977  29.565  33.472  1.00  0.00    -0.248 NA
ATOM     59  C   UNL A   1      43.481  30.682  35.461  1.00  0.00     0.031 C 
ATOM     60  C   UNL A   1      45.473  26.336  31.727  1.00  0.00     0.029 A 
ATOM     61  C   UNL A   1      44.710  27.344  32.294  1.00  0.00     0.049 A 
ATOM     62  H   UNL A   1      42.862  28.136  31.655  1.00  0.00     0.167 HD
ATOM     63  C   UNL A   1      44.181  29.085  33.975  1.00  0.00     0.074 A 
ATOM     64  C   UNL A   1      44.462  29.837  35.179  1.00  0.00     0.031 C 
ATOM     65  C   UNL A   1      44.982  28.107  33.485  1.00  0.00     0.031 A 
BRANCH  52  66
ATOM     66  C   UNL A   1      42.813  25.362  28.405  1.00  0.00    -0.014 A 
ATOM     67  C   UNL A   1      43.507  25.591  27.203  1.00  0.00     0.010 A 
ATOM     68  C   UNL A   1      42.374  24.058  28.705  1.00  0.00     0.010 A 
ATOM     69  C   UNL A   1      43.746  24.539  26.315  1.00  0.00     0.020 A 
ATOM     70  C   UNL A   1      42.634  22.999  27.832  1.00  0.00     0.020 A 
ATOM     71  C   UNL A   1      43.315  23.248  26.638  1.00  0.00     0.054 A 
BRANCH  71  72
ATOM     72  S   UNL A   1      43.709  21.890  25.503  1.00  0.00     0.124 S 
ATOM     73  O   UNL A   1      42.793  20.845  25.953  1.00  0.00    -0.237 OA
ATOM     74  O   UNL A   1      43.406  22.470  24.197  1.00  0.00    -0.237 OA
ATOM     75  O   UNL A   1      45.124  21.627  25.750  1.00  0.00    -0.744 OA
ENDBRANCH  71  72
ENDBRANCH  52  66
BRANCH  53  76
ATOM     76  C   UNL A   1      41.081  32.358  35.331  1.00  0.00    -0.014 A 
ATOM     77  C   UNL A   1      40.226  32.030  36.398  1.00  0.00     0.010 A 
ATOM     78  C   UNL A   1      41.639  33.648  35.277  1.00  0.00     0.010 A 
ATOM     79  C   UNL A   1      39.899  32.985  37.365  1.00  0.00     0.020 A 
ATOM     80  C   UNL A   1      41.344  34.595  36.261  1.00  0.00     0.020 A 
ATOM     81  C   UNL A   1      40.458  34.264  37.287  1.00  0.00     0.054 A 
BRANCH  81  82
ATOM     82  S   UNL A   1      40.024  35.489  38.554  1.00  0.00     0.124 S 
ATOM     83  O   UNL A   1      38.905  34.841  39.230  1.00  0.00    -0.237 OA
ATOM     84  O   UNL A   1      41.259  35.594  39.326  1.00  0.00    -0.237 OA
ATOM     85  O   UNL A   1      39.682  36.677  37.775  1.00  0.00    -0.744 OA
ENDBRANCH  81  82
ENDBRANCH  53  76
BRANCH  65  86
ATOM     86  C   UNL A   1      46.266  27.823  34.220  1.00  0.00    -0.014 A 
ATOM     87  C   UNL A   1      47.410  28.618  34.031  1.00  0.00     0.010 A 
ATOM     88  C   UNL A   1      46.307  26.774  35.158  1.00  0.00     0.010 A 
ATOM     89  C   UNL A   1      48.582  28.347  34.743  1.00  0.00     0.020 A 
ATOM     90  C   UNL A   1      47.466  26.521  35.895  1.00  0.00     0.020 A 
ATOM     91  C   UNL A   1      48.602  27.301  35.671  1.00  0.00     0.054 A 
BRANCH  91  92
ATOM     92  S   UNL A   1      50.122  26.999  36.613  1.00  0.00     0.124 S 
ATOM     93  O   UNL A   1      49.630  26.204  37.736  1.00  0.00    -0.237 OA
ATOM     94  O   UNL A   1      50.957  26.283  35.653  1.00  0.00    -0.237 OA
ATOM     95  O   UNL A   1      50.588  28.341  36.958  1.00  0.00    -0.744 OA
ENDBRANCH  91  92
ENDBRANCH  65  86
ENDBRANCH  39  40
ENDBRANCH  31  34
ENDBRANCH  29  30
ENDBRANCH  28  29
ENDBRANCH  27  28
ENDBRANCH   1  27
TORSDOF 21
ENDMDL
