MODEL 1
REMARK VINA RESULT:     -11.9      0.000      0.000
REMARK SMILES CCc1ccc2c(CC(=O)NCCCCCCNC(=O)c3ccc(-c4c5nc(c(-c6ccc(S(=O)(=O)[O-])cc6)c6ccc([nH]6)c(-c6ccc(S(=O)(=O)[O-])cc6)c6nc(c(-c7ccc(S(=O)(=O)[O-])cc7)c7ccc4[nH]7)C=C6)C=C5)cc3)c(C(=O)c3cc(C)ccn3)[nH]c2c1
REMARK SMILES IDX 14 1 13 2 12 3 11 4 9 5 10 6 8 8 7 9 3 10 4 11 93 12 5 13
REMARK SMILES IDX 92 14 6 15 91 16 81 17 2 19 1 20 82 21 83 22 84 23 85 24
REMARK SMILES IDX 90 25 86 26 89 27 87 28 88 29 15 30 16 31 17 32 18 33 19 34
REMARK SMILES IDX 20 36 21 37 22 38 80 39 23 40 79 41 24 42 25 43 26 44 73 45
REMARK SMILES IDX 27 46 78 47 72 48 74 49 28 50 77 51 71 52 70 53 29 55 59 56
REMARK SMILES IDX 40 57 58 58 41 59 44 60 57 61 75 62 42 63 43 64 56 66 76 67
REMARK SMILES IDX 45 68 30 69 31 70 39 71 32 72 38 73 33 74 34 75 35 76 36 77
REMARK SMILES IDX 37 78 60 79 61 80 69 81 62 82 68 83 63 84 64 85 65 86 66 87
REMARK SMILES IDX 67 88 46 89 47 90 55 91 48 92 54 93 49 94 50 95 51 96 52 97
REMARK SMILES IDX 53 98
REMARK H PARENT 11 7 91 18 18 35 74 54 44 65
REMARK Flexibility Score: inf
ROOT
ATOM      1  C   UNL A   1      35.441  31.458  27.726  1.00  0.00     0.002 C 
ENDROOT
BRANCH   1   2
ATOM      2  C   UNL A   1      35.362  29.930  27.837  1.00  0.00     0.021 C 
BRANCH   2   3
ATOM      3  C   UNL A   1      34.325  29.288  26.917  1.00  0.00     0.116 C 
BRANCH   3   4
ATOM      4  N   UNL A   1      33.105  28.956  27.620  1.00  0.00    -0.356 N 
ATOM      5  C   UNL A   1      32.229  27.928  27.425  1.00  0.00     0.224 C 
ATOM      6  O   UNL A   1      31.345  27.783  28.274  1.00  0.00    -0.275 OA
ATOM      7  H   UNL A   1      32.870  29.568  28.355  1.00  0.00     0.163 HD
BRANCH   5   8
ATOM      8  C   UNL A   1      32.421  26.915  26.301  1.00  0.00     0.138 C 
BRANCH   8   9
ATOM      9  C   UNL A   1      31.218  26.660  25.430  1.00  0.00    -0.002 A 
ATOM     10  C   UNL A   1      28.938  29.060  22.798  1.00  0.00    -0.046 A 
ATOM     11  C   UNL A   1      30.065  29.669  23.360  1.00  0.00     0.004 A 
ATOM     12  C   UNL A   1      28.640  27.721  23.107  1.00  0.00     0.030 A 
ATOM     13  C   UNL A   1      30.909  28.966  24.223  1.00  0.00     0.011 A 
ATOM     14  C   UNL A   1      29.494  27.037  23.985  1.00  0.00     0.046 A 
ATOM     15  C   UNL A   1      30.616  27.626  24.554  1.00  0.00     0.004 A 
ATOM     16  N   UNL A   1      29.433  25.749  24.464  1.00  0.00    -0.352 N 
ATOM     17  C   UNL A   1      30.514  25.463  25.274  1.00  0.00     0.093 A 
ATOM     18  H   UNL A   1      28.711  25.114  24.256  1.00  0.00     0.167 HD
BRANCH  10  19
ATOM     19  C   UNL A   1      28.041  29.853  21.875  1.00  0.00     0.032 C 
ATOM     20  C   UNL A   1      28.046  31.342  22.194  1.00  0.00     0.009 C 
ENDBRANCH  10  19
BRANCH  17  21
ATOM     21  C   UNL A   1      30.820  24.161  25.860  1.00  0.00     0.227 C 
ATOM     22  O   UNL A   1      30.674  23.910  27.054  1.00  0.00    -0.285 OA
BRANCH  21  23
ATOM     23  C   UNL A   1      31.401  23.087  25.011  1.00  0.00     0.113 A 
ATOM     24  C   UNL A   1      31.820  21.893  25.590  1.00  0.00     0.036 A 
ATOM     25  N   UNL A   1      31.418  23.326  23.675  1.00  0.00    -0.253 NA
ATOM     26  C   UNL A   1      32.288  20.879  24.751  1.00  0.00    -0.047 A 
ATOM     27  C   UNL A   1      31.852  22.322  22.887  1.00  0.00     0.112 A 
ATOM     28  C   UNL A   1      32.743  19.560  25.301  1.00  0.00     0.044 C 
ATOM     29  C   UNL A   1      32.293  21.100  23.371  1.00  0.00     0.023 A 
ENDBRANCH  21  23
ENDBRANCH  17  21
ENDBRANCH   8   9
ENDBRANCH   5   8
ENDBRANCH   3   4
ENDBRANCH   2   3
ENDBRANCH   1   2
BRANCH   1  30
ATOM     30  C   UNL A   1      35.028  32.235  28.982  1.00  0.00     0.002 C 
BRANCH  30  31
ATOM     31  C   UNL A   1      35.956  33.389  29.370  1.00  0.00     0.021 C 
BRANCH  31  32
ATOM     32  C   UNL A   1      37.092  33.002  30.307  1.00  0.00     0.116 C 
BRANCH  32  33
ATOM     33  N   UNL A   1      36.660  32.072  31.341  1.00  0.00    -0.352 N 
ATOM     34  C   UNL A   1      37.148  30.817  31.622  1.00  0.00     0.251 C 
ATOM     35  H   UNL A   1      35.922  32.382  31.914  1.00  0.00     0.163 HD
ATOM     36  O   UNL A   1      36.564  30.084  32.415  1.00  0.00    -0.269 OA
BRANCH  34  37
ATOM     37  C   UNL A   1      38.373  30.353  30.940  1.00  0.00     0.039 A 
ATOM     38  C   UNL A   1      38.341  30.105  29.565  1.00  0.00     0.014 A 
ATOM     39  C   UNL A   1      39.559  30.195  31.661  1.00  0.00     0.014 A 
ATOM     40  C   UNL A   1      39.521  29.767  28.897  1.00  0.00     0.010 A 
ATOM     41  C   UNL A   1      40.741  29.918  30.986  1.00  0.00     0.010 A 
ATOM     42  C   UNL A   1      40.735  29.705  29.598  1.00  0.00    -0.014 A 
BRANCH  42  43
ATOM     43  C   UNL A   1      42.024  29.410  28.924  1.00  0.00     0.031 A 
ATOM     44  C   UNL A   1      42.288  28.024  28.406  1.00  0.00     0.074 A 
ATOM     45  C   UNL A   1      42.992  30.345  28.878  1.00  0.00     0.049 A 
ATOM     46  N   UNL A   1      43.400  27.508  27.952  1.00  0.00    -0.248 NA
ATOM     47  C   UNL A   1      41.153  27.088  28.433  1.00  0.00     0.031 C 
ATOM     48  C   UNL A   1      42.865  31.725  29.349  1.00  0.00     0.029 A 
ATOM     49  N   UNL A   1      44.286  30.266  28.425  1.00  0.00    -0.354 N 
ATOM     50  C   UNL A   1      43.109  26.177  27.675  1.00  0.00     0.074 A 
ATOM     51  C   UNL A   1      41.728  25.960  28.045  1.00  0.00     0.031 C 
ATOM     52  C   UNL A   1      44.025  32.368  29.141  1.00  0.00     0.029 A 
ATOM     53  C   UNL A   1      44.993  31.434  28.573  1.00  0.00     0.049 A 
ATOM     54  H   UNL A   1      44.670  29.450  28.031  1.00  0.00     0.167 HD
ATOM     55  C   UNL A   1      43.918  25.223  27.154  1.00  0.00     0.031 A 
ATOM     56  C   UNL A   1      46.282  31.718  28.299  1.00  0.00     0.031 A 
ATOM     57  C   UNL A   1      45.288  25.447  26.778  1.00  0.00     0.049 A 
ATOM     58  C   UNL A   1      47.172  30.640  27.747  1.00  0.00     0.074 A 
ATOM     59  C   UNL A   1      46.180  24.560  26.203  1.00  0.00     0.029 A 
ATOM     60  N   UNL A   1      45.964  26.647  26.941  1.00  0.00    -0.354 N 
ATOM     61  N   UNL A   1      46.878  29.393  27.470  1.00  0.00    -0.248 NA
ATOM     62  C   UNL A   1      48.568  31.007  27.471  1.00  0.00     0.031 C 
ATOM     63  C   UNL A   1      47.410  25.213  26.056  1.00  0.00     0.029 A 
ATOM     64  C   UNL A   1      47.267  26.522  26.493  1.00  0.00     0.049 A 
ATOM     65  H   UNL A   1      45.575  27.469  27.320  1.00  0.00     0.167 HD
ATOM     66  C   UNL A   1      48.041  28.834  26.952  1.00  0.00     0.074 A 
ATOM     67  C   UNL A   1      49.046  29.879  26.961  1.00  0.00     0.031 C 
ATOM     68  C   UNL A   1      48.252  27.574  26.500  1.00  0.00     0.031 A 
BRANCH  55  69
ATOM     69  C   UNL A   1      43.334  23.844  26.997  1.00  0.00    -0.014 A 
ATOM     70  C   UNL A   1      43.368  22.911  28.049  1.00  0.00     0.010 A 
ATOM     71  C   UNL A   1      42.766  23.466  25.767  1.00  0.00     0.010 A 
ATOM     72  C   UNL A   1      42.918  21.604  27.851  1.00  0.00     0.020 A 
ATOM     73  C   UNL A   1      42.286  22.168  25.573  1.00  0.00     0.020 A 
ATOM     74  C   UNL A   1      42.395  21.236  26.608  1.00  0.00     0.054 A 
BRANCH  74  75
ATOM     75  S   UNL A   1      41.856  19.523  26.358  1.00  0.00     0.124 S 
ATOM     76  O   UNL A   1      40.409  19.681  26.231  1.00  0.00    -0.237 OA
ATOM     77  O   UNL A   1      42.554  19.138  25.133  1.00  0.00    -0.237 OA
ATOM     78  O   UNL A   1      42.305  18.839  27.568  1.00  0.00    -0.744 OA
ENDBRANCH  74  75
ENDBRANCH  55  69
BRANCH  56  79
ATOM     79  C   UNL A   1      46.791  33.099  28.514  1.00  0.00    -0.014 A 
ATOM     80  C   UNL A   1      46.874  33.990  27.429  1.00  0.00     0.010 A 
ATOM     81  C   UNL A   1      47.148  33.546  29.798  1.00  0.00     0.010 A 
ATOM     82  C   UNL A   1      47.302  35.306  27.626  1.00  0.00     0.020 A 
ATOM     83  C   UNL A   1      47.556  34.867  30.002  1.00  0.00     0.020 A 
ATOM     84  C   UNL A   1      47.634  35.739  28.913  1.00  0.00     0.054 A 
BRANCH  84  85
ATOM     85  S   UNL A   1      48.107  37.474  29.155  1.00  0.00     0.124 S 
ATOM     86  O   UNL A   1      49.400  37.348  29.817  1.00  0.00    -0.237 OA
ATOM     87  O   UNL A   1      48.142  37.984  27.786  1.00  0.00    -0.237 OA
ATOM     88  O   UNL A   1      47.027  38.009  29.982  1.00  0.00    -0.744 OA
ENDBRANCH  84  85
ENDBRANCH  56  79
BRANCH  68  89
ATOM     89  C   UNL A   1      49.606  27.255  25.928  1.00  0.00    -0.014 A 
ATOM     90  C   UNL A   1      50.624  26.702  26.723  1.00  0.00     0.010 A 
ATOM     91  C   UNL A   1      49.828  27.432  24.550  1.00  0.00     0.010 A 
ATOM     92  C   UNL A   1      51.846  26.337  26.150  1.00  0.00     0.020 A 
ATOM     93  C   UNL A   1      51.040  27.049  23.969  1.00  0.00     0.020 A 
ATOM     94  C   UNL A   1      52.043  26.509  24.775  1.00  0.00     0.054 A 
BRANCH  94  95
ATOM     95  S   UNL A   1      53.606  25.952  24.039  1.00  0.00     0.124 S 
ATOM     96  O   UNL A   1      53.294  25.971  22.613  1.00  0.00    -0.237 OA
ATOM     97  O   UNL A   1      54.552  26.971  24.488  1.00  0.00    -0.237 OA
ATOM     98  O   UNL A   1      53.808  24.626  24.618  1.00  0.00    -0.744 OA
ENDBRANCH  94  95
ENDBRANCH  68  89
ENDBRANCH  42  43
ENDBRANCH  34  37
ENDBRANCH  32  33
ENDBRANCH  31  32
ENDBRANCH  30  31
ENDBRANCH   1  30
TORSDOF 20
ENDMDL
MODEL 2
REMARK VINA RESULT:     -11.5      4.980      9.729
REMARK SMILES CCc1ccc2c(CC(=O)NCCCCCCNC(=O)c3ccc(-c4c5nc(c(-c6ccc(S(=O)(=O)[O-])cc6)c6ccc([nH]6)c(-c6ccc(S(=O)(=O)[O-])cc6)c6nc(c(-c7ccc(S(=O)(=O)[O-])cc7)c7ccc4[nH]7)C=C6)C=C5)cc3)c(C(=O)c3cc(C)ccn3)[nH]c2c1
REMARK SMILES IDX 14 1 13 2 12 3 11 4 9 5 10 6 8 8 7 9 3 10 4 11 93 12 5 13
REMARK SMILES IDX 92 14 6 15 91 16 81 17 2 19 1 20 82 21 83 22 84 23 85 24
REMARK SMILES IDX 90 25 86 26 89 27 87 28 88 29 15 30 16 31 17 32 18 33 19 34
REMARK SMILES IDX 20 36 21 37 22 38 80 39 23 40 79 41 24 42 25 43 26 44 73 45
REMARK SMILES IDX 27 46 78 47 72 48 74 49 28 50 77 51 71 52 70 53 29 55 59 56
REMARK SMILES IDX 40 57 58 58 41 59 44 60 57 61 75 62 42 63 43 64 56 66 76 67
REMARK SMILES IDX 45 68 30 69 31 70 39 71 32 72 38 73 33 74 34 75 35 76 36 77
REMARK SMILES IDX 37 78 60 79 61 80 69 81 62 82 68 83 63 84 64 85 65 86 66 87
REMARK SMILES IDX 67 88 46 89 47 90 55 91 48 92 54 93 49 94 50 95 51 96 52 97
REMARK SMILES IDX 53 98
REMARK H PARENT 11 7 91 18 18 35 74 54 44 65
REMARK Flexibility Score: inf
ROOT
ATOM      1  C   UNL A   1      31.545  26.992  24.738  1.00  0.00     0.002 C 
ENDROOT
BRANCH   1   2
ATOM      2  C   UNL A   1      30.731  26.452  25.923  1.00  0.00     0.021 C 
BRANCH   2   3
ATOM      3  C   UNL A   1      30.362  24.975  25.808  1.00  0.00     0.116 C 
BRANCH   3   4
ATOM      4  N   UNL A   1      31.012  24.172  26.820  1.00  0.00    -0.356 N 
ATOM      5  C   UNL A   1      32.090  23.341  26.725  1.00  0.00     0.224 C 
ATOM      6  O   UNL A   1      32.543  22.895  27.784  1.00  0.00    -0.275 OA
ATOM      7  H   UNL A   1      30.613  24.233  27.718  1.00  0.00     0.163 HD
BRANCH   5   8
ATOM      8  C   UNL A   1      32.799  23.097  25.397  1.00  0.00     0.138 C 
BRANCH   8   9
ATOM      9  C   UNL A   1      34.013  22.206  25.451  1.00  0.00    -0.002 A 
ATOM     10  C   UNL A   1      38.141  22.904  26.050  1.00  0.00    -0.046 A 
ATOM     11  C   UNL A   1      37.308  24.022  26.168  1.00  0.00     0.004 A 
ATOM     12  C   UNL A   1      37.584  21.645  25.769  1.00  0.00     0.030 A 
ATOM     13  C   UNL A   1      35.923  23.908  26.018  1.00  0.00     0.011 A 
ATOM     14  C   UNL A   1      36.193  21.554  25.610  1.00  0.00     0.046 A 
ATOM     15  C   UNL A   1      35.351  22.653  25.722  1.00  0.00     0.004 A 
ATOM     16  N   UNL A   1      35.398  20.470  25.319  1.00  0.00    -0.352 N 
ATOM     17  C   UNL A   1      34.062  20.818  25.303  1.00  0.00     0.093 A 
ATOM     18  H   UNL A   1      35.739  19.564  25.145  1.00  0.00     0.167 HD
BRANCH  10  19
ATOM     19  C   UNL A   1      39.636  23.065  26.210  1.00  0.00     0.032 C 
ATOM     20  C   UNL A   1      40.353  21.730  26.360  1.00  0.00     0.009 C 
ENDBRANCH  10  19
BRANCH  17  21
ATOM     21  C   UNL A   1      32.943  19.895  25.135  1.00  0.00     0.227 C 
ATOM     22  O   UNL A   1      31.768  20.236  25.248  1.00  0.00    -0.285 OA
BRANCH  21  23
ATOM     23  C   UNL A   1      33.206  18.453  24.881  1.00  0.00     0.113 A 
ATOM     24  C   UNL A   1      32.566  17.484  25.649  1.00  0.00     0.036 A 
ATOM     25  N   UNL A   1      34.025  18.170  23.837  1.00  0.00    -0.253 NA
ATOM     26  C   UNL A   1      32.779  16.140  25.330  1.00  0.00    -0.047 A 
ATOM     27  C   UNL A   1      34.194  16.868  23.536  1.00  0.00     0.112 A 
ATOM     28  C   UNL A   1      32.113  15.041  26.103  1.00  0.00     0.044 C 
ATOM     29  C   UNL A   1      33.603  15.832  24.245  1.00  0.00     0.023 A 
ENDBRANCH  21  23
ENDBRANCH  17  21
ENDBRANCH   8   9
ENDBRANCH   5   8
ENDBRANCH   3   4
ENDBRANCH   2   3
ENDBRANCH   1   2
BRANCH   1  30
ATOM     30  C   UNL A   1      32.092  28.415  24.905  1.00  0.00     0.002 C 
BRANCH  30  31
ATOM     31  C   UNL A   1      33.594  28.507  25.189  1.00  0.00     0.021 C 
BRANCH  31  32
ATOM     32  C   UNL A   1      33.947  28.833  26.635  1.00  0.00     0.116 C 
BRANCH  32  33
ATOM     33  N   UNL A   1      33.826  30.256  26.923  1.00  0.00    -0.352 N 
ATOM     34  C   UNL A   1      34.614  31.036  27.738  1.00  0.00     0.251 C 
ATOM     35  H   UNL A   1      33.082  30.721  26.476  1.00  0.00     0.163 HD
ATOM     36  O   UNL A   1      34.281  32.184  28.015  1.00  0.00    -0.269 OA
BRANCH  34  37
ATOM     37  C   UNL A   1      35.857  30.464  28.294  1.00  0.00     0.039 A 
ATOM     38  C   UNL A   1      37.082  30.768  27.693  1.00  0.00     0.014 A 
ATOM     39  C   UNL A   1      35.807  29.651  29.430  1.00  0.00     0.014 A 
ATOM     40  C   UNL A   1      38.269  30.315  28.277  1.00  0.00     0.010 A 
ATOM     41  C   UNL A   1      36.989  29.253  30.041  1.00  0.00     0.010 A 
ATOM     42  C   UNL A   1      38.231  29.583  29.474  1.00  0.00    -0.014 A 
BRANCH  42  43
ATOM     43  C   UNL A   1      39.464  29.132  30.164  1.00  0.00     0.031 A 
ATOM     44  C   UNL A   1      39.921  29.846  31.404  1.00  0.00     0.074 A 
ATOM     45  C   UNL A   1      40.227  28.164  29.621  1.00  0.00     0.049 A 
ATOM     46  N   UNL A   1      41.051  29.736  32.055  1.00  0.00    -0.248 NA
ATOM     47  C   UNL A   1      38.994  30.841  31.967  1.00  0.00     0.031 C 
ATOM     48  C   UNL A   1      39.899  27.396  28.419  1.00  0.00     0.029 A 
ATOM     49  N   UNL A   1      41.451  27.674  30.004  1.00  0.00    -0.354 N 
ATOM     50  C   UNL A   1      40.985  30.673  33.080  1.00  0.00     0.074 A 
ATOM     51  C   UNL A   1      39.722  31.364  32.942  1.00  0.00     0.031 C 
ATOM     52  C   UNL A   1      40.885  26.518  28.177  1.00  0.00     0.029 A 
ATOM     53  C   UNL A   1      41.939  26.697  29.171  1.00  0.00     0.049 A 
ATOM     54  H   UNL A   1      41.933  27.992  30.802  1.00  0.00     0.167 HD
ATOM     55  C   UNL A   1      41.892  30.930  34.053  1.00  0.00     0.031 A 
ATOM     56  C   UNL A   1      43.110  26.030  29.194  1.00  0.00     0.031 A 
ATOM     57  C   UNL A   1      43.143  30.233  34.192  1.00  0.00     0.049 A 
ATOM     58  C   UNL A   1      44.116  26.348  30.266  1.00  0.00     0.074 A 
ATOM     59  C   UNL A   1      44.112  30.387  35.166  1.00  0.00     0.029 A 
ATOM     60  N   UNL A   1      43.595  29.246  33.328  1.00  0.00    -0.354 N 
ATOM     61  N   UNL A   1      44.032  27.220  31.241  1.00  0.00    -0.248 NA
ATOM     62  C   UNL A   1      45.376  25.592  30.238  1.00  0.00     0.031 C 
ATOM     63  C   UNL A   1      45.171  29.522  34.868  1.00  0.00     0.029 A 
ATOM     64  C   UNL A   1      44.837  28.793  33.736  1.00  0.00     0.049 A 
ATOM     65  H   UNL A   1      43.105  28.916  32.540  1.00  0.00     0.167 HD
ATOM     66  C   UNL A   1      45.211  27.094  31.967  1.00  0.00     0.074 A 
ATOM     67  C   UNL A   1      45.995  26.065  31.313  1.00  0.00     0.031 C 
ATOM     68  C   UNL A   1      45.601  27.762  33.080  1.00  0.00     0.031 A 
BRANCH  55  69
ATOM     69  C   UNL A   1      41.563  32.038  35.017  1.00  0.00    -0.014 A 
ATOM     70  C   UNL A   1      40.871  31.783  36.216  1.00  0.00     0.010 A 
ATOM     71  C   UNL A   1      41.928  33.361  34.707  1.00  0.00     0.010 A 
ATOM     72  C   UNL A   1      40.482  32.836  37.045  1.00  0.00     0.020 A 
ATOM     73  C   UNL A   1      41.567  34.415  35.550  1.00  0.00     0.020 A 
ATOM     74  C   UNL A   1      40.818  34.148  36.699  1.00  0.00     0.054 A 
BRANCH  74  75
ATOM     75  S   UNL A   1      40.266  35.506  37.767  1.00  0.00     0.124 S 
ATOM     76  O   UNL A   1      39.091  34.921  38.409  1.00  0.00    -0.237 OA
ATOM     77  O   UNL A   1      41.417  35.720  38.641  1.00  0.00    -0.237 OA
ATOM     78  O   UNL A   1      39.989  36.592  36.831  1.00  0.00    -0.744 OA
ENDBRANCH  74  75
ENDBRANCH  55  69
BRANCH  56  79
ATOM     79  C   UNL A   1      43.373  24.971  28.185  1.00  0.00    -0.014 A 
ATOM     80  C   UNL A   1      43.929  25.313  26.939  1.00  0.00     0.010 A 
ATOM     81  C   UNL A   1      43.118  23.619  28.474  1.00  0.00     0.010 A 
ATOM     82  C   UNL A   1      44.228  24.321  26.002  1.00  0.00     0.020 A 
ATOM     83  C   UNL A   1      43.435  22.622  27.547  1.00  0.00     0.020 A 
ATOM     84  C   UNL A   1      43.986  22.981  26.313  1.00  0.00     0.054 A 
BRANCH  84  85
ATOM     85  S   UNL A   1      44.460  21.706  25.112  1.00  0.00     0.124 S 
ATOM     86  O   UNL A   1      44.287  22.405  23.843  1.00  0.00    -0.237 OA
ATOM     87  O   UNL A   1      45.841  21.414  25.492  1.00  0.00    -0.237 OA
ATOM     88  O   UNL A   1      43.510  20.626  25.368  1.00  0.00    -0.744 OA
ENDBRANCH  84  85
ENDBRANCH  56  79
BRANCH  68  89
ATOM     89  C   UNL A   1      46.915  27.374  33.701  1.00  0.00    -0.014 A 
ATOM     90  C   UNL A   1      46.994  26.358  34.668  1.00  0.00     0.010 A 
ATOM     91  C   UNL A   1      48.098  27.980  33.241  1.00  0.00     0.010 A 
ATOM     92  C   UNL A   1      48.237  25.959  35.170  1.00  0.00     0.020 A 
ATOM     93  C   UNL A   1      49.342  27.570  33.724  1.00  0.00     0.020 A 
ATOM     94  C   UNL A   1      49.403  26.565  34.690  1.00  0.00     0.054 A 
BRANCH  94  95
ATOM     95  S   UNL A   1      51.009  25.974  35.295  1.00  0.00     0.124 S 
ATOM     96  O   UNL A   1      51.792  25.908  34.065  1.00  0.00    -0.237 OA
ATOM     97  O   UNL A   1      51.402  27.022  36.234  1.00  0.00    -0.237 OA
ATOM     98  O   UNL A   1      50.695  24.684  35.906  1.00  0.00    -0.744 OA
ENDBRANCH  94  95
ENDBRANCH  68  89
ENDBRANCH  42  43
ENDBRANCH  34  37
ENDBRANCH  32  33
ENDBRANCH  31  32
ENDBRANCH  30  31
ENDBRANCH   1  30
TORSDOF 20
ENDMDL
MODEL 3
REMARK VINA RESULT:     -11.4      6.078     11.537
REMARK SMILES CCc1ccc2c(CC(=O)NCCCCCCNC(=O)c3ccc(-c4c5nc(c(-c6ccc(S(=O)(=O)[O-])cc6)c6ccc([nH]6)c(-c6ccc(S(=O)(=O)[O-])cc6)c6nc(c(-c7ccc(S(=O)(=O)[O-])cc7)c7ccc4[nH]7)C=C6)C=C5)cc3)c(C(=O)c3cc(C)ccn3)[nH]c2c1
REMARK SMILES IDX 14 1 13 2 12 3 11 4 9 5 10 6 8 8 7 9 3 10 4 11 93 12 5 13
REMARK SMILES IDX 92 14 6 15 91 16 81 17 2 19 1 20 82 21 83 22 84 23 85 24
REMARK SMILES IDX 90 25 86 26 89 27 87 28 88 29 15 30 16 31 17 32 18 33 19 34
REMARK SMILES IDX 20 36 21 37 22 38 80 39 23 40 79 41 24 42 25 43 26 44 73 45
REMARK SMILES IDX 27 46 78 47 72 48 74 49 28 50 77 51 71 52 70 53 29 55 59 56
REMARK SMILES IDX 40 57 58 58 41 59 44 60 57 61 75 62 42 63 43 64 56 66 76 67
REMARK SMILES IDX 45 68 30 69 31 70 39 71 32 72 38 73 33 74 34 75 35 76 36 77
REMARK SMILES IDX 37 78 60 79 61 80 69 81 62 82 68 83 63 84 64 85 65 86 66 87
REMARK SMILES IDX 67 88 46 89 47 90 55 91 48 92 54 93 49 94 50 95 51 96 52 97
REMARK SMILES IDX 53 98
REMARK H PARENT 11 7 91 18 18 35 74 54 44 65
REMARK Flexibility Score: inf
ROOT
ATOM      1  C   UNL A   1      39.458  22.412  26.477  1.00  0.00     0.002 C 
ENDROOT
BRANCH   1   2
ATOM      2  C   UNL A   1      38.514  21.583  25.595  1.00  0.00     0.021 C 
BRANCH   2   3
ATOM      3  C   UNL A   1      37.056  22.036  25.640  1.00  0.00     0.116 C 
BRANCH   3   4
ATOM      4  N   UNL A   1      36.514  22.250  24.316  1.00  0.00    -0.356 N 
ATOM      5  C   UNL A   1      35.615  23.176  23.873  1.00  0.00     0.224 C 
ATOM      6  O   UNL A   1      35.441  23.244  22.652  1.00  0.00    -0.275 OA
ATOM      7  H   UNL A   1      36.845  21.631  23.626  1.00  0.00     0.163 HD
BRANCH   5   8
ATOM      8  C   UNL A   1      34.970  24.183  24.820  1.00  0.00     0.138 C 
BRANCH   8   9
ATOM      9  C   UNL A   1      33.468  24.277  24.761  1.00  0.00    -0.002 A 
ATOM     10  C   UNL A   1      30.763  27.159  23.256  1.00  0.00    -0.046 A 
ATOM     11  C   UNL A   1      32.119  27.414  23.026  1.00  0.00     0.004 A 
ATOM     12  C   UNL A   1      30.377  25.990  23.934  1.00  0.00     0.030 A 
ATOM     13  C   UNL A   1      33.103  26.519  23.453  1.00  0.00     0.011 A 
ATOM     14  C   UNL A   1      31.381  25.110  24.365  1.00  0.00     0.046 A 
ATOM     15  C   UNL A   1      32.732  25.347  24.146  1.00  0.00     0.004 A 
ATOM     16  N   UNL A   1      31.290  23.922  25.053  1.00  0.00    -0.352 N 
ATOM     17  C   UNL A   1      32.534  23.349  25.231  1.00  0.00     0.093 A 
ATOM     18  H   UNL A   1      30.447  23.532  25.376  1.00  0.00     0.167 HD
BRANCH  10  19
ATOM     19  C   UNL A   1      29.725  28.154  22.788  1.00  0.00     0.032 C 
ATOM     20  C   UNL A   1      30.347  29.420  22.215  1.00  0.00     0.009 C 
ENDBRANCH  10  19
BRANCH  17  21
ATOM     21  C   UNL A   1      32.792  22.040  25.823  1.00  0.00     0.227 C 
ATOM     22  O   UNL A   1      33.119  21.885  26.997  1.00  0.00    -0.285 OA
BRANCH  21  23
ATOM     23  C   UNL A   1      32.731  20.820  24.973  1.00  0.00     0.113 A 
ATOM     24  C   UNL A   1      32.978  19.570  25.532  1.00  0.00     0.036 A 
ATOM     25  N   UNL A   1      32.356  21.010  23.683  1.00  0.00    -0.253 NA
ATOM     26  C   UNL A   1      32.835  18.442  24.721  1.00  0.00    -0.047 A 
ATOM     27  C   UNL A   1      32.202  19.904  22.929  1.00  0.00     0.112 A 
ATOM     28  C   UNL A   1      33.070  17.061  25.257  1.00  0.00     0.044 C 
ATOM     29  C   UNL A   1      32.430  18.617  23.395  1.00  0.00     0.023 A 
ENDBRANCH  21  23
ENDBRANCH  17  21
ENDBRANCH   8   9
ENDBRANCH   5   8
ENDBRANCH   3   4
ENDBRANCH   2   3
ENDBRANCH   1   2
BRANCH   1  30
ATOM     30  C   UNL A   1      40.946  22.055  26.373  1.00  0.00     0.002 C 
BRANCH  30  31
ATOM     31  C   UNL A   1      41.826  22.586  27.507  1.00  0.00     0.021 C 
BRANCH  31  32
ATOM     32  C   UNL A   1      42.903  23.571  27.067  1.00  0.00     0.116 C 
BRANCH  32  33
ATOM     33  N   UNL A   1      42.459  24.416  25.966  1.00  0.00    -0.352 N 
ATOM     34  C   UNL A   1      41.826  25.635  26.024  1.00  0.00     0.251 C 
ATOM     35  H   UNL A   1      42.637  24.068  25.063  1.00  0.00     0.163 HD
ATOM     36  O   UNL A   1      41.360  26.145  25.009  1.00  0.00    -0.269 OA
BRANCH  34  37
ATOM     37  C   UNL A   1      41.692  26.314  27.329  1.00  0.00     0.039 A 
ATOM     38  C   UNL A   1      42.620  27.295  27.691  1.00  0.00     0.014 A 
ATOM     39  C   UNL A   1      40.628  25.996  28.177  1.00  0.00     0.014 A 
ATOM     40  C   UNL A   1      42.438  28.012  28.877  1.00  0.00     0.010 A 
ATOM     41  C   UNL A   1      40.416  26.751  29.325  1.00  0.00     0.010 A 
ATOM     42  C   UNL A   1      41.316  27.767  29.684  1.00  0.00    -0.014 A 
BRANCH  42  43
ATOM     43  C   UNL A   1      41.047  28.543  30.920  1.00  0.00     0.031 A 
ATOM     44  C   UNL A   1      39.932  29.550  30.933  1.00  0.00     0.074 A 
ATOM     45  C   UNL A   1      41.865  28.427  31.983  1.00  0.00     0.049 A 
ATOM     46  N   UNL A   1      39.642  30.453  31.834  1.00  0.00    -0.248 NA
ATOM     47  C   UNL A   1      39.045  29.562  29.758  1.00  0.00     0.031 C 
ATOM     48  C   UNL A   1      42.985  27.490  32.096  1.00  0.00     0.029 A 
ATOM     49  N   UNL A   1      41.890  29.118  33.169  1.00  0.00    -0.354 N 
ATOM     50  C   UNL A   1      38.565  31.164  31.318  1.00  0.00     0.074 A 
ATOM     51  C   UNL A   1      38.277  30.610  30.013  1.00  0.00     0.031 C 
ATOM     52  C   UNL A   1      43.573  27.651  33.292  1.00  0.00     0.029 A 
ATOM     53  C   UNL A   1      42.908  28.736  34.009  1.00  0.00     0.049 A 
ATOM     54  H   UNL A   1      41.239  29.821  33.397  1.00  0.00     0.167 HD
ATOM     55  C   UNL A   1      37.872  32.182  31.884  1.00  0.00     0.031 A 
ATOM     56  C   UNL A   1      43.277  29.216  35.213  1.00  0.00     0.031 A 
ATOM     57  C   UNL A   1      38.155  32.723  33.186  1.00  0.00     0.049 A 
ATOM     58  C   UNL A   1      42.513  30.364  35.813  1.00  0.00     0.074 A 
ATOM     59  C   UNL A   1      37.488  33.724  33.868  1.00  0.00     0.029 A 
ATOM     60  N   UNL A   1      39.193  32.302  34.005  1.00  0.00    -0.354 N 
ATOM     61  N   UNL A   1      41.484  31.011  35.324  1.00  0.00    -0.248 NA
ATOM     62  C   UNL A   1      42.963  30.846  37.126  1.00  0.00     0.031 C 
ATOM     63  C   UNL A   1      38.149  33.939  35.083  1.00  0.00     0.029 A 
ATOM     64  C   UNL A   1      39.196  33.035  35.179  1.00  0.00     0.049 A 
ATOM     65  H   UNL A   1      39.834  31.588  33.784  1.00  0.00     0.167 HD
ATOM     66  C   UNL A   1      41.137  31.955  36.284  1.00  0.00     0.074 A 
ATOM     67  C   UNL A   1      42.073  31.798  37.380  1.00  0.00     0.031 C 
ATOM     68  C   UNL A   1      40.129  32.860  36.264  1.00  0.00     0.031 A 
BRANCH  55  69
ATOM     69  C   UNL A   1      36.763  32.790  31.067  1.00  0.00    -0.014 A 
ATOM     70  C   UNL A   1      37.034  33.700  30.028  1.00  0.00     0.010 A 
ATOM     71  C   UNL A   1      35.426  32.466  31.360  1.00  0.00     0.010 A 
ATOM     72  C   UNL A   1      35.990  34.334  29.353  1.00  0.00     0.020 A 
ATOM     73  C   UNL A   1      34.378  33.075  30.665  1.00  0.00     0.020 A 
ATOM     74  C   UNL A   1      34.667  34.029  29.687  1.00  0.00     0.054 A 
BRANCH  74  75
ATOM     75  S   UNL A   1      33.325  34.895  28.828  1.00  0.00     0.124 S 
ATOM     76  O   UNL A   1      32.436  35.239  29.934  1.00  0.00    -0.237 OA
ATOM     77  O   UNL A   1      34.013  36.022  28.202  1.00  0.00    -0.237 OA
ATOM     78  O   UNL A   1      32.805  33.893  27.899  1.00  0.00    -0.744 OA
ENDBRANCH  74  75
ENDBRANCH  55  69
BRANCH  56  79
ATOM     79  C   UNL A   1      44.406  28.580  35.942  1.00  0.00    -0.014 A 
ATOM     80  C   UNL A   1      44.159  27.501  36.810  1.00  0.00     0.010 A 
ATOM     81  C   UNL A   1      45.729  29.010  35.742  1.00  0.00     0.010 A 
ATOM     82  C   UNL A   1      45.217  26.861  37.462  1.00  0.00     0.020 A 
ATOM     83  C   UNL A   1      46.791  28.359  36.376  1.00  0.00     0.020 A 
ATOM     84  C   UNL A   1      46.528  27.289  37.235  1.00  0.00     0.054 A 
BRANCH  84  85
ATOM     85  S   UNL A   1      47.889  26.390  38.029  1.00  0.00     0.124 S 
ATOM     86  O   UNL A   1      48.919  26.423  36.996  1.00  0.00    -0.237 OA
ATOM     87  O   UNL A   1      48.154  27.201  39.215  1.00  0.00    -0.237 OA
ATOM     88  O   UNL A   1      47.314  25.074  38.300  1.00  0.00    -0.744 OA
ENDBRANCH  84  85
ENDBRANCH  56  79
BRANCH  68  89
ATOM     89  C   UNL A   1      39.942  33.725  37.481  1.00  0.00    -0.014 A 
ATOM     90  C   UNL A   1      40.388  35.057  37.505  1.00  0.00     0.010 A 
ATOM     91  C   UNL A   1      39.228  33.217  38.581  1.00  0.00     0.010 A 
ATOM     92  C   UNL A   1      40.129  35.866  38.616  1.00  0.00     0.020 A 
ATOM     93  C   UNL A   1      38.949  34.028  39.684  1.00  0.00     0.020 A 
ATOM     94  C   UNL A   1      39.406  35.347  39.696  1.00  0.00     0.054 A 
BRANCH  94  95
ATOM     95  S   UNL A   1      39.011  36.439  41.090  1.00  0.00     0.124 S 
ATOM     96  O   UNL A   1      37.901  35.734  41.724  1.00  0.00    -0.237 OA
ATOM     97  O   UNL A   1      40.260  36.455  41.848  1.00  0.00    -0.237 OA
ATOM     98  O   UNL A   1      38.663  37.705  40.450  1.00  0.00    -0.744 OA
ENDBRANCH  94  95
ENDBRANCH  68  89
ENDBRANCH  42  43
ENDBRANCH  34  37
ENDBRANCH  32  33
ENDBRANCH  31  32
ENDBRANCH  30  31
ENDBRANCH   1  30
TORSDOF 20
ENDMDL
