MODEL 1
REMARK VINA RESULT:     -11.3      0.000      0.000
REMARK SMILES CCN1C(=O)[C@@H](CC(=O)Nc2cccc(C(=O)NCCCCCCNC(=O)c3ccc(-c4c5nc(c(-c6ccc(S(=O)(=O)[O-])cc6)c6ccc([nH]6)c(-c6ccc(S(=O)(=O)[O-])cc6)c6nc(c(-c7ccc(S(=O)(=O)[O-])cc7)c7ccc4[nH]7)C=C6)C=C5)cc3)c2)S/C1=[NH+]\c1cc(Cl)c(O)c(Cl)c1
REMARK SMILES IDX 20 1 19 2 18 3 16 4 17 5 15 7 11 8 12 9 88 10 13 11 14 12
REMARK SMILES IDX 10 13 8 14 9 15 7 17 6 18 3 19 4 20 90 21 5 22 89 23 91 24
REMARK SMILES IDX 2 26 1 27 92 28 93 29 100 30 94 31 98 32 95 33 96 34 99 35
REMARK SMILES IDX 97 36 21 38 22 39 23 40 24 41 25 42 26 43 27 45 28 46 29 47
REMARK SMILES IDX 87 48 30 49 86 50 31 51 32 52 33 53 80 54 34 55 85 56 79 57
REMARK SMILES IDX 81 58 35 59 84 60 78 61 77 62 36 64 66 65 47 66 65 67 48 68
REMARK SMILES IDX 51 69 64 70 82 71 49 72 50 73 63 75 83 76 52 77 37 78 38 79
REMARK SMILES IDX 46 80 39 81 45 82 40 83 41 84 42 85 43 86 44 87 67 88 68 89
REMARK SMILES IDX 76 90 69 91 75 92 70 93 71 94 72 95 73 96 74 97 53 98 54 99
REMARK SMILES IDX 62 100 55 101 61 102 56 103 57 104 58 105 59 106 60 107
REMARK H PARENT 18 6 10 16 91 25 97 37 25 44 81 63 51 74
REMARK Flexibility Score: inf
ROOT
ATOM      1  C   UNL A   1      44.750  20.932  24.536  1.00  0.00     0.021 C 
ENDROOT
BRANCH   1   2
ATOM      2  C   UNL A   1      44.991  19.885  25.643  1.00  0.00     0.116 C 
BRANCH   2   3
ATOM      3  N   UNL A   1      44.135  18.724  25.715  1.00  0.00    -0.352 N 
ATOM      4  C   UNL A   1      42.774  18.617  25.963  1.00  0.00     0.251 C 
ATOM      5  O   UNL A   1      42.284  17.486  25.898  1.00  0.00    -0.269 OA
ATOM      6  H   UNL A   1      44.593  17.867  25.565  1.00  0.00     0.163 HD
BRANCH   4   7
ATOM      7  C   UNL A   1      41.860  19.745  26.370  1.00  0.00     0.041 A 
ATOM      8  C   UNL A   1      40.012  21.336  26.116  1.00  0.00     0.041 A 
ATOM      9  C   UNL A   1      40.318  21.868  27.380  1.00  0.00     0.026 A 
ATOM     10  C   UNL A   1      40.745  20.221  25.649  1.00  0.00     0.040 A 
ATOM     11  C   UNL A   1      41.375  21.370  28.130  1.00  0.00     0.003 A 
ATOM     12  C   UNL A   1      42.146  20.327  27.620  1.00  0.00     0.014 A 
BRANCH   8  13
ATOM     13  N   UNL A   1      39.089  22.130  25.393  1.00  0.00    -0.326 N 
ATOM     14  C   UNL A   1      37.765  22.045  25.105  1.00  0.00     0.226 C 
ATOM     15  O   UNL A   1      37.331  22.750  24.187  1.00  0.00    -0.275 OA
ATOM     16  H   UNL A   1      39.506  22.934  25.007  1.00  0.00     0.169 HD
BRANCH  14  17
ATOM     17  C   UNL A   1      36.831  21.129  25.820  1.00  0.00     0.128 C 
BRANCH  17  18
ATOM     18  C   UNL A   1      35.434  21.678  26.028  1.00  0.00     0.183 C 
ATOM     19  N   UNL A   1      33.389  22.165  24.837  1.00  0.00    -0.190 N 
ATOM     20  C   UNL A   1      34.243  21.166  25.217  1.00  0.00     0.324 C 
ATOM     21  C   UNL A   1      33.873  23.429  24.924  1.00  0.00     0.319 C 
ATOM     22  O   UNL A   1      33.983  19.995  24.998  1.00  0.00    -0.245 OA
ATOM     23  S   UNL A   1      35.335  23.465  25.890  1.00  0.00    -0.022 SA
ATOM     24  N   UNL A   1      33.246  24.430  24.392  1.00  0.00    -0.235 N 
ATOM     25  H   UNL A   1      32.664  24.320  23.606  1.00  0.00     0.313 HD
BRANCH  19  26
ATOM     26  C   UNL A   1      32.043  21.850  24.364  1.00  0.00     0.243 C 
ATOM     27  C   UNL A   1      32.039  21.097  23.028  1.00  0.00     0.054 C 
ENDBRANCH  19  26
BRANCH  24  28
ATOM     28  C   UNL A   1      33.444  25.671  24.992  1.00  0.00     0.128 A 
ATOM     29  C   UNL A   1      33.988  26.592  24.112  1.00  0.00     0.076 A 
ATOM     30  C   UNL A   1      32.812  26.079  26.164  1.00  0.00     0.076 A 
ATOM     31  C   UNL A   1      33.597  27.905  24.192  1.00  0.00     0.088 A 
ATOM     32  C   UNL A   1      32.419  27.403  26.256  1.00  0.00     0.088 A 
ATOM     33  Cl  UNL A   1      34.113  28.825  22.835  1.00  0.00    -0.080 Cl
ATOM     34  C   UNL A   1      32.731  28.292  25.224  1.00  0.00     0.153 A 
ATOM     35  Cl  UNL A   1      31.321  27.868  27.503  1.00  0.00    -0.080 Cl
BRANCH  34  36
ATOM     36  O   UNL A   1      32.065  29.482  25.196  1.00  0.00    -0.505 OA
ATOM     37  H   UNL A   1      31.634  29.796  25.968  1.00  0.00     0.293 HD
ENDBRANCH  34  36
ENDBRANCH  24  28
ENDBRANCH  17  18
ENDBRANCH  14  17
ENDBRANCH   8  13
ENDBRANCH   4   7
ENDBRANCH   2   3
ENDBRANCH   1   2
BRANCH   1  38
ATOM     38  C   UNL A   1      45.149  22.408  24.713  1.00  0.00     0.002 C 
BRANCH  38  39
ATOM     39  C   UNL A   1      44.190  23.555  24.319  1.00  0.00     0.002 C 
BRANCH  39  40
ATOM     40  C   UNL A   1      44.080  24.848  25.173  1.00  0.00     0.021 C 
BRANCH  40  41
ATOM     41  C   UNL A   1      43.123  24.899  26.397  1.00  0.00     0.116 C 
BRANCH  41  42
ATOM     42  N   UNL A   1      41.675  24.705  26.190  1.00  0.00    -0.352 N 
ATOM     43  C   UNL A   1      40.515  25.383  26.596  1.00  0.00     0.251 C 
ATOM     44  H   UNL A   1      41.477  23.915  25.638  1.00  0.00     0.163 HD
ATOM     45  O   UNL A   1      39.478  25.114  25.981  1.00  0.00    -0.269 OA
BRANCH  43  46
ATOM     46  C   UNL A   1      40.365  26.345  27.745  1.00  0.00     0.039 A 
ATOM     47  C   UNL A   1      39.522  26.038  28.819  1.00  0.00     0.014 A 
ATOM     48  C   UNL A   1      40.838  27.650  27.731  1.00  0.00     0.014 A 
ATOM     49  C   UNL A   1      39.352  26.933  29.920  1.00  0.00     0.010 A 
ATOM     50  C   UNL A   1      40.817  28.463  28.907  1.00  0.00     0.010 A 
ATOM     51  C   UNL A   1      40.097  28.123  30.065  1.00  0.00    -0.014 A 
BRANCH  51  52
ATOM     52  C   UNL A   1      40.109  28.938  31.379  1.00  0.00     0.031 A 
ATOM     53  C   UNL A   1      41.139  28.722  32.507  1.00  0.00     0.074 A 
ATOM     54  C   UNL A   1      39.149  29.867  31.652  1.00  0.00     0.049 A 
ATOM     55  N   UNL A   1      41.275  29.373  33.649  1.00  0.00    -0.248 NA
ATOM     56  C   UNL A   1      42.099  27.619  32.373  1.00  0.00     0.031 C 
ATOM     57  C   UNL A   1      37.979  30.167  30.822  1.00  0.00     0.029 A 
ATOM     58  N   UNL A   1      38.993  30.745  32.719  1.00  0.00    -0.354 N 
ATOM     59  C   UNL A   1      42.303  28.739  34.352  1.00  0.00     0.074 A 
ATOM     60  C   UNL A   1      42.674  27.587  33.566  1.00  0.00     0.031 C 
ATOM     61  C   UNL A   1      37.275  31.175  31.363  1.00  0.00     0.029 A 
ATOM     62  C   UNL A   1      37.911  31.599  32.605  1.00  0.00     0.049 A 
ATOM     63  H   UNL A   1      39.602  30.757  33.491  1.00  0.00     0.167 HD
ATOM     64  C   UNL A   1      42.951  29.090  35.497  1.00  0.00     0.031 A 
ATOM     65  C   UNL A   1      37.466  32.625  33.369  1.00  0.00     0.031 A 
ATOM     66  C   UNL A   1      42.666  30.260  36.287  1.00  0.00     0.049 A 
ATOM     67  C   UNL A   1      38.222  33.048  34.604  1.00  0.00     0.074 A 
ATOM     68  C   UNL A   1      43.362  30.753  37.381  1.00  0.00     0.029 A 
ATOM     69  N   UNL A   1      41.607  31.123  36.073  1.00  0.00    -0.354 N 
ATOM     70  N   UNL A   1      39.297  32.518  35.133  1.00  0.00    -0.248 NA
ATOM     71  C   UNL A   1      37.724  34.232  35.326  1.00  0.00     0.031 C 
ATOM     72  C   UNL A   1      42.695  31.886  37.858  1.00  0.00     0.029 A 
ATOM     73  C   UNL A   1      41.620  32.133  37.023  1.00  0.00     0.049 A 
ATOM     74  H   UNL A   1      40.942  31.033  35.352  1.00  0.00     0.167 HD
ATOM     75  C   UNL A   1      39.628  33.333  36.216  1.00  0.00     0.074 A 
ATOM     76  C   UNL A   1      38.646  34.392  36.265  1.00  0.00     0.031 C 
ATOM     77  C   UNL A   1      40.664  33.208  37.080  1.00  0.00     0.031 A 
BRANCH  64  78
ATOM     78  C   UNL A   1      44.109  28.217  35.945  1.00  0.00    -0.014 A 
ATOM     79  C   UNL A   1      45.433  28.550  35.598  1.00  0.00     0.010 A 
ATOM     80  C   UNL A   1      43.888  27.092  36.760  1.00  0.00     0.010 A 
ATOM     81  C   UNL A   1      46.500  27.735  35.986  1.00  0.00     0.020 A 
ATOM     82  C   UNL A   1      44.959  26.293  37.185  1.00  0.00     0.020 A 
ATOM     83  C   UNL A   1      46.256  26.606  36.771  1.00  0.00     0.054 A 
BRANCH  83  84
ATOM     84  S   UNL A   1      47.663  25.569  37.255  1.00  0.00     0.124 S 
ATOM     85  O   UNL A   1      47.500  24.413  36.375  1.00  0.00    -0.237 OA
ATOM     86  O   UNL A   1      48.809  26.424  36.960  1.00  0.00    -0.237 OA
ATOM     87  O   UNL A   1      47.432  25.307  38.673  1.00  0.00    -0.744 OA
ENDBRANCH  83  84
ENDBRANCH  64  78
BRANCH  65  88
ATOM     88  C   UNL A   1      36.257  33.407  32.953  1.00  0.00    -0.014 A 
ATOM     89  C   UNL A   1      35.080  33.365  33.729  1.00  0.00     0.010 A 
ATOM     90  C   UNL A   1      36.259  34.174  31.774  1.00  0.00     0.010 A 
ATOM     91  C   UNL A   1      33.930  34.052  33.324  1.00  0.00     0.020 A 
ATOM     92  C   UNL A   1      35.119  34.887  31.380  1.00  0.00     0.020 A 
ATOM     93  C   UNL A   1      33.959  34.813  32.153  1.00  0.00     0.054 A 
BRANCH  93  94
ATOM     94  S   UNL A   1      32.469  35.740  31.677  1.00  0.00     0.124 S 
ATOM     95  O   UNL A   1      32.853  37.114  31.986  1.00  0.00    -0.237 OA
ATOM     96  O   UNL A   1      32.343  35.422  30.256  1.00  0.00    -0.237 OA
ATOM     97  O   UNL A   1      31.427  35.173  32.528  1.00  0.00    -0.744 OA
ENDBRANCH  93  94
ENDBRANCH  65  88
BRANCH  77  98
ATOM     98  C   UNL A   1      40.850  34.269  38.135  1.00  0.00    -0.014 A 
ATOM     99  C   UNL A   1      41.697  35.373  37.932  1.00  0.00     0.010 A 
ATOM    100  C   UNL A   1      40.105  34.194  39.328  1.00  0.00     0.010 A 
ATOM    101  C   UNL A   1      41.816  36.365  38.913  1.00  0.00     0.020 A 
ATOM    102  C   UNL A   1      40.199  35.197  40.298  1.00  0.00     0.020 A 
ATOM    103  C   UNL A   1      41.065  36.271  40.089  1.00  0.00     0.054 A 
BRANCH 103 104
ATOM    104  S   UNL A   1      41.198  37.598  41.321  1.00  0.00     0.124 S 
ATOM    105  O   UNL A   1      40.454  37.042  42.448  1.00  0.00    -0.237 OA
ATOM    106  O   UNL A   1      42.641  37.712  41.515  1.00  0.00    -0.237 OA
ATOM    107  O   UNL A   1      40.571  38.744  40.666  1.00  0.00    -0.744 OA
ENDBRANCH 103 104
ENDBRANCH  77  98
ENDBRANCH  51  52
ENDBRANCH  43  46
ENDBRANCH  41  42
ENDBRANCH  40  41
ENDBRANCH  39  40
ENDBRANCH  38  39
ENDBRANCH   1  38
TORSDOF 22
ENDMDL
MODEL 2
REMARK VINA RESULT:     -11.0      1.500      7.663
REMARK SMILES CCN1C(=O)[C@@H](CC(=O)Nc2cccc(C(=O)NCCCCCCNC(=O)c3ccc(-c4c5nc(c(-c6ccc(S(=O)(=O)[O-])cc6)c6ccc([nH]6)c(-c6ccc(S(=O)(=O)[O-])cc6)c6nc(c(-c7ccc(S(=O)(=O)[O-])cc7)c7ccc4[nH]7)C=C6)C=C5)cc3)c2)S/C1=[NH+]\c1cc(Cl)c(O)c(Cl)c1
REMARK SMILES IDX 20 1 19 2 18 3 16 4 17 5 15 7 11 8 12 9 88 10 13 11 14 12
REMARK SMILES IDX 10 13 8 14 9 15 7 17 6 18 3 19 4 20 90 21 5 22 89 23 91 24
REMARK SMILES IDX 2 26 1 27 92 28 93 29 100 30 94 31 98 32 95 33 96 34 99 35
REMARK SMILES IDX 97 36 21 38 22 39 23 40 24 41 25 42 26 43 27 45 28 46 29 47
REMARK SMILES IDX 87 48 30 49 86 50 31 51 32 52 33 53 80 54 34 55 85 56 79 57
REMARK SMILES IDX 81 58 35 59 84 60 78 61 77 62 36 64 66 65 47 66 65 67 48 68
REMARK SMILES IDX 51 69 64 70 82 71 49 72 50 73 63 75 83 76 52 77 37 78 38 79
REMARK SMILES IDX 46 80 39 81 45 82 40 83 41 84 42 85 43 86 44 87 67 88 68 89
REMARK SMILES IDX 76 90 69 91 75 92 70 93 71 94 72 95 73 96 74 97 53 98 54 99
REMARK SMILES IDX 62 100 55 101 61 102 56 103 57 104 58 105 59 106 60 107
REMARK H PARENT 18 6 10 16 91 25 97 37 25 44 81 63 51 74
REMARK Flexibility Score: inf
ROOT
ATOM      1  C   UNL A   1      44.670  21.117  24.075  1.00  0.00     0.021 C 
ENDROOT
BRANCH   1   2
ATOM      2  C   UNL A   1      44.773  20.377  25.424  1.00  0.00     0.116 C 
BRANCH   2   3
ATOM      3  N   UNL A   1      44.014  19.164  25.623  1.00  0.00    -0.352 N 
ATOM      4  C   UNL A   1      42.676  18.975  25.939  1.00  0.00     0.251 C 
ATOM      5  O   UNL A   1      42.274  17.810  25.982  1.00  0.00    -0.269 OA
ATOM      6  H   UNL A   1      44.532  18.334  25.519  1.00  0.00     0.163 HD
BRANCH   4   7
ATOM      7  C   UNL A   1      41.694  20.061  26.298  1.00  0.00     0.041 A 
ATOM      8  C   UNL A   1      39.751  21.523  25.978  1.00  0.00     0.041 A 
ATOM      9  C   UNL A   1      40.020  22.124  27.219  1.00  0.00     0.026 A 
ATOM     10  C   UNL A   1      40.554  20.437  25.558  1.00  0.00     0.040 A 
ATOM     11  C   UNL A   1      41.104  21.723  27.990  1.00  0.00     0.003 A 
ATOM     12  C   UNL A   1      41.939  20.710  27.524  1.00  0.00     0.014 A 
BRANCH   8  13
ATOM     13  N   UNL A   1      38.784  22.228  25.222  1.00  0.00    -0.326 N 
ATOM     14  C   UNL A   1      37.450  22.100  25.007  1.00  0.00     0.226 C 
ATOM     15  O   UNL A   1      36.963  22.701  24.044  1.00  0.00    -0.275 OA
ATOM     16  H   UNL A   1      39.170  22.993  24.737  1.00  0.00     0.169 HD
BRANCH  14  17
ATOM     17  C   UNL A   1      36.564  21.252  25.856  1.00  0.00     0.128 C 
BRANCH  17  18
ATOM     18  C   UNL A   1      35.263  21.908  26.273  1.00  0.00     0.183 C 
ATOM     19  N   UNL A   1      33.043  22.407  25.461  1.00  0.00    -0.190 N 
ATOM     20  C   UNL A   1      33.912  21.397  25.773  1.00  0.00     0.324 C 
ATOM     21  C   UNL A   1      33.589  23.639  25.313  1.00  0.00     0.319 C 
ATOM     22  O   UNL A   1      33.562  20.229  25.737  1.00  0.00    -0.245 OA
ATOM     23  S   UNL A   1      35.217  23.675  25.964  1.00  0.00    -0.022 SA
ATOM     24  N   UNL A   1      32.913  24.622  24.809  1.00  0.00    -0.235 N 
ATOM     25  H   UNL A   1      32.179  24.473  24.169  1.00  0.00     0.313 HD
BRANCH  19  26
ATOM     26  C   UNL A   1      31.616  22.135  25.298  1.00  0.00     0.243 C 
ATOM     27  C   UNL A   1      30.765  22.709  26.437  1.00  0.00     0.054 C 
ENDBRANCH  19  26
BRANCH  24  28
ATOM     28  C   UNL A   1      33.281  25.901  25.220  1.00  0.00     0.128 A 
ATOM     29  C   UNL A   1      33.902  26.612  24.206  1.00  0.00     0.076 A 
ATOM     30  C   UNL A   1      32.746  26.546  26.331  1.00  0.00     0.076 A 
ATOM     31  C   UNL A   1      33.676  27.962  24.103  1.00  0.00     0.088 A 
ATOM     32  C   UNL A   1      32.520  27.908  26.238  1.00  0.00     0.088 A 
ATOM     33  Cl  UNL A   1      34.252  28.609  22.618  1.00  0.00    -0.080 Cl
ATOM     34  C   UNL A   1      32.902  28.597  25.084  1.00  0.00     0.153 A 
ATOM     35  Cl  UNL A   1      31.533  28.679  27.425  1.00  0.00    -0.080 Cl
BRANCH  34  36
ATOM     36  O   UNL A   1      32.385  29.845  24.896  1.00  0.00    -0.505 OA
ATOM     37  H   UNL A   1      32.680  30.371  24.178  1.00  0.00     0.293 HD
ENDBRANCH  34  36
ENDBRANCH  24  28
ENDBRANCH  17  18
ENDBRANCH  14  17
ENDBRANCH   8  13
ENDBRANCH   4   7
ENDBRANCH   2   3
ENDBRANCH   1   2
BRANCH   1  38
ATOM     38  C   UNL A   1      45.157  22.569  23.907  1.00  0.00     0.002 C 
BRANCH  38  39
ATOM     39  C   UNL A   1      46.429  23.080  24.621  1.00  0.00     0.002 C 
BRANCH  39  40
ATOM     40  C   UNL A   1      46.549  24.549  25.111  1.00  0.00     0.021 C 
BRANCH  40  41
ATOM     41  C   UNL A   1      45.388  25.205  25.909  1.00  0.00     0.116 C 
BRANCH  41  42
ATOM     42  N   UNL A   1      44.023  24.661  25.775  1.00  0.00    -0.352 N 
ATOM     43  C   UNL A   1      42.739  25.102  26.131  1.00  0.00     0.251 C 
ATOM     44  H   UNL A   1      44.010  23.782  25.332  1.00  0.00     0.163 HD
ATOM     45  O   UNL A   1      41.790  24.526  25.589  1.00  0.00    -0.269 OA
BRANCH  43  46
ATOM     46  C   UNL A   1      42.374  26.144  27.156  1.00  0.00     0.039 A 
ATOM     47  C   UNL A   1      41.507  25.829  28.208  1.00  0.00     0.014 A 
ATOM     48  C   UNL A   1      42.663  27.496  27.025  1.00  0.00     0.014 A 
ATOM     49  C   UNL A   1      41.135  26.798  29.191  1.00  0.00     0.010 A 
ATOM     50  C   UNL A   1      42.445  28.413  28.100  1.00  0.00     0.010 A 
ATOM     51  C   UNL A   1      41.697  28.091  29.245  1.00  0.00    -0.014 A 
BRANCH  51  52
ATOM     52  C   UNL A   1      41.502  29.029  30.460  1.00  0.00     0.031 A 
ATOM     53  C   UNL A   1      40.345  30.043  30.577  1.00  0.00     0.074 A 
ATOM     54  C   UNL A   1      42.398  29.063  31.487  1.00  0.00     0.049 A 
ATOM     55  N   UNL A   1      40.054  30.864  31.570  1.00  0.00    -0.248 NA
ATOM     56  C   UNL A   1      39.437  30.200  29.434  1.00  0.00     0.031 C 
ATOM     57  C   UNL A   1      43.655  28.311  31.560  1.00  0.00     0.029 A 
ATOM     58  N   UNL A   1      42.399  29.766  32.686  1.00  0.00    -0.354 N 
ATOM     59  C   UNL A   1      38.961  31.630  31.151  1.00  0.00     0.074 A 
ATOM     60  C   UNL A   1      38.719  31.260  29.777  1.00  0.00     0.031 C 
ATOM     61  C   UNL A   1      44.261  28.539  32.736  1.00  0.00     0.029 A 
ATOM     62  C   UNL A   1      43.466  29.478  33.518  1.00  0.00     0.049 A 
ATOM     63  H   UNL A   1      41.699  30.415  32.923  1.00  0.00     0.167 HD
ATOM     64  C   UNL A   1      38.169  32.503  31.830  1.00  0.00     0.031 A 
ATOM     65  C   UNL A   1      43.788  29.879  34.772  1.00  0.00     0.031 A 
ATOM     66  C   UNL A   1      38.325  32.861  33.217  1.00  0.00     0.049 A 
ATOM     67  C   UNL A   1      42.874  30.800  35.542  1.00  0.00     0.074 A 
ATOM     68  C   UNL A   1      37.487  33.632  34.008  1.00  0.00     0.029 A 
ATOM     69  N   UNL A   1      39.381  32.474  34.021  1.00  0.00    -0.354 N 
ATOM     70  N   UNL A   1      41.756  31.362  35.157  1.00  0.00    -0.248 NA
ATOM     71  C   UNL A   1      43.251  31.112  36.932  1.00  0.00     0.031 C 
ATOM     72  C   UNL A   1      38.062  33.752  35.277  1.00  0.00     0.029 A 
ATOM     73  C   UNL A   1      39.226  33.004  35.293  1.00  0.00     0.049 A 
ATOM     74  H   UNL A   1      40.133  31.906  33.733  1.00  0.00     0.167 HD
ATOM     75  C   UNL A   1      41.273  32.049  36.270  1.00  0.00     0.074 A 
ATOM     76  C   UNL A   1      42.215  31.831  37.344  1.00  0.00     0.031 C 
ATOM     77  C   UNL A   1      40.141  32.786  36.382  1.00  0.00     0.031 A 
BRANCH  64  78
ATOM     78  C   UNL A   1      36.985  33.099  31.090  1.00  0.00    -0.014 A 
ATOM     79  C   UNL A   1      37.165  33.743  29.850  1.00  0.00     0.010 A 
ATOM     80  C   UNL A   1      35.680  32.973  31.601  1.00  0.00     0.010 A 
ATOM     81  C   UNL A   1      36.082  34.316  29.178  1.00  0.00     0.020 A 
ATOM     82  C   UNL A   1      34.585  33.511  30.911  1.00  0.00     0.020 A 
ATOM     83  C   UNL A   1      34.798  34.204  29.718  1.00  0.00     0.054 A 
BRANCH  83  84
ATOM     84  S   UNL A   1      33.415  34.962  28.821  1.00  0.00     0.124 S 
ATOM     85  O   UNL A   1      33.232  34.029  27.710  1.00  0.00    -0.237 OA
ATOM     86  O   UNL A   1      32.349  34.966  29.818  1.00  0.00    -0.237 OA
ATOM     87  O   UNL A   1      33.922  36.280  28.448  1.00  0.00    -0.744 OA
ENDBRANCH  83  84
ENDBRANCH  64  78
BRANCH  65  88
ATOM     88  C   UNL A   1      45.020  29.350  35.441  1.00  0.00    -0.014 A 
ATOM     89  C   UNL A   1      44.971  28.146  36.173  1.00  0.00     0.010 A 
ATOM     90  C   UNL A   1      46.238  30.051  35.376  1.00  0.00     0.010 A 
ATOM     91  C   UNL A   1      46.103  27.669  36.843  1.00  0.00     0.020 A 
ATOM     92  C   UNL A   1      47.381  29.560  36.020  1.00  0.00     0.020 A 
ATOM     93  C   UNL A   1      47.304  28.377  36.758  1.00  0.00     0.054 A 
BRANCH  93  94
ATOM     94  S   UNL A   1      48.774  27.708  37.591  1.00  0.00     0.124 S 
ATOM     95  O   UNL A   1      48.199  27.106  38.790  1.00  0.00    -0.237 OA
ATOM     96  O   UNL A   1      49.296  26.769  36.599  1.00  0.00    -0.237 OA
ATOM     97  O   UNL A   1      49.606  28.887  37.818  1.00  0.00    -0.744 OA
ENDBRANCH  93  94
ENDBRANCH  65  88
BRANCH  77  98
ATOM     98  C   UNL A   1      39.801  33.377  37.727  1.00  0.00    -0.014 A 
ATOM     99  C   UNL A   1      40.413  34.555  38.193  1.00  0.00     0.010 A 
ATOM    100  C   UNL A   1      38.794  32.779  38.509  1.00  0.00     0.010 A 
ATOM    101  C   UNL A   1      40.044  35.104  39.427  1.00  0.00     0.020 A 
ATOM    102  C   UNL A   1      38.403  33.340  39.728  1.00  0.00     0.020 A 
ATOM    103  C   UNL A   1      39.041  34.494  40.186  1.00  0.00     0.054 A 
BRANCH 103 104
ATOM    104  S   UNL A   1      38.545  35.256  41.757  1.00  0.00     0.124 S 
ATOM    105  O   UNL A   1      38.760  36.675  41.488  1.00  0.00    -0.237 OA
ATOM    106  O   UNL A   1      37.150  34.845  41.888  1.00  0.00    -0.237 OA
ATOM    107  O   UNL A   1      39.457  34.664  42.733  1.00  0.00    -0.744 OA
ENDBRANCH 103 104
ENDBRANCH  77  98
ENDBRANCH  51  52
ENDBRANCH  43  46
ENDBRANCH  41  42
ENDBRANCH  40  41
ENDBRANCH  39  40
ENDBRANCH  38  39
ENDBRANCH   1  38
TORSDOF 22
ENDMDL
MODEL 3
REMARK VINA RESULT:     -11.0      3.582      8.793
REMARK SMILES CCN1C(=O)[C@@H](CC(=O)Nc2cccc(C(=O)NCCCCCCNC(=O)c3ccc(-c4c5nc(c(-c6ccc(S(=O)(=O)[O-])cc6)c6ccc([nH]6)c(-c6ccc(S(=O)(=O)[O-])cc6)c6nc(c(-c7ccc(S(=O)(=O)[O-])cc7)c7ccc4[nH]7)C=C6)C=C5)cc3)c2)S/C1=[NH+]\c1cc(Cl)c(O)c(Cl)c1
REMARK SMILES IDX 20 1 19 2 18 3 16 4 17 5 15 7 11 8 12 9 88 10 13 11 14 12
REMARK SMILES IDX 10 13 8 14 9 15 7 17 6 18 3 19 4 20 90 21 5 22 89 23 91 24
REMARK SMILES IDX 2 26 1 27 92 28 93 29 100 30 94 31 98 32 95 33 96 34 99 35
REMARK SMILES IDX 97 36 21 38 22 39 23 40 24 41 25 42 26 43 27 45 28 46 29 47
REMARK SMILES IDX 87 48 30 49 86 50 31 51 32 52 33 53 80 54 34 55 85 56 79 57
REMARK SMILES IDX 81 58 35 59 84 60 78 61 77 62 36 64 66 65 47 66 65 67 48 68
REMARK SMILES IDX 51 69 64 70 82 71 49 72 50 73 63 75 83 76 52 77 37 78 38 79
REMARK SMILES IDX 46 80 39 81 45 82 40 83 41 84 42 85 43 86 44 87 67 88 68 89
REMARK SMILES IDX 76 90 69 91 75 92 70 93 71 94 72 95 73 96 74 97 53 98 54 99
REMARK SMILES IDX 62 100 55 101 61 102 56 103 57 104 58 105 59 106 60 107
REMARK H PARENT 18 6 10 16 91 25 97 37 25 44 81 63 51 74
REMARK Flexibility Score: inf
ROOT
ATOM      1  C   UNL A   1      35.810  33.014  28.873  1.00  0.00     0.021 C 
ENDROOT
BRANCH   1   2
ATOM      2  C   UNL A   1      36.567  31.672  28.806  1.00  0.00     0.116 C 
BRANCH   2   3
ATOM      3  N   UNL A   1      36.426  30.727  29.890  1.00  0.00    -0.352 N 
ATOM      4  C   UNL A   1      37.115  29.555  30.164  1.00  0.00     0.251 C 
ATOM      5  O   UNL A   1      36.826  28.971  31.212  1.00  0.00    -0.269 OA
ATOM      6  H   UNL A   1      35.723  30.952  30.541  1.00  0.00     0.163 HD
BRANCH   4   7
ATOM      7  C   UNL A   1      38.133  28.899  29.265  1.00  0.00     0.041 A 
ATOM      8  C   UNL A   1      39.537  27.073  28.425  1.00  0.00     0.041 A 
ATOM      9  C   UNL A   1      40.057  27.943  27.452  1.00  0.00     0.026 A 
ATOM     10  C   UNL A   1      38.516  27.542  29.283  1.00  0.00     0.040 A 
ATOM     11  C   UNL A   1      39.645  29.267  27.381  1.00  0.00     0.003 A 
ATOM     12  C   UNL A   1      38.701  29.742  28.290  1.00  0.00     0.014 A 
BRANCH   8  13
ATOM     13  N   UNL A   1      40.256  25.857  28.518  1.00  0.00    -0.326 N 
ATOM     14  C   UNL A   1      40.250  24.681  27.840  1.00  0.00     0.226 C 
ATOM     15  O   UNL A   1      40.792  23.708  28.374  1.00  0.00    -0.275 OA
ATOM     16  H   UNL A   1      40.917  25.866  29.247  1.00  0.00     0.169 HD
BRANCH  14  17
ATOM     17  C   UNL A   1      39.600  24.510  26.509  1.00  0.00     0.128 C 
BRANCH  17  18
ATOM     18  C   UNL A   1      38.506  23.462  26.463  1.00  0.00     0.183 C 
ATOM     19  N   UNL A   1      37.618  21.704  25.065  1.00  0.00    -0.190 N 
ATOM     20  C   UNL A   1      38.715  22.114  25.773  1.00  0.00     0.324 C 
ATOM     21  C   UNL A   1      36.687  22.654  24.802  1.00  0.00     0.319 C 
ATOM     22  O   UNL A   1      39.694  21.397  25.895  1.00  0.00    -0.245 OA
ATOM     23  S   UNL A   1      36.955  24.072  25.798  1.00  0.00    -0.022 SA
ATOM     24  N   UNL A   1      35.724  22.442  23.962  1.00  0.00    -0.235 N 
ATOM     25  H   UNL A   1      35.818  21.812  23.212  1.00  0.00     0.313 HD
BRANCH  19  26
ATOM     26  C   UNL A   1      37.495  20.314  24.629  1.00  0.00     0.243 C 
ATOM     27  C   UNL A   1      36.156  19.680  25.025  1.00  0.00     0.054 C 
ENDBRANCH  19  26
BRANCH  24  28
ATOM     28  C   UNL A   1      34.548  23.156  24.179  1.00  0.00     0.128 A 
ATOM     29  C   UNL A   1      34.272  24.028  23.139  1.00  0.00     0.076 A 
ATOM     30  C   UNL A   1      33.559  22.771  25.080  1.00  0.00     0.076 A 
ATOM     31  C   UNL A   1      32.967  24.233  22.767  1.00  0.00     0.088 A 
ATOM     32  C   UNL A   1      32.240  22.979  24.716  1.00  0.00     0.088 A 
ATOM     33  Cl  UNL A   1      32.837  25.074  21.274  1.00  0.00    -0.080 Cl
ATOM     34  C   UNL A   1      31.946  23.627  23.513  1.00  0.00     0.153 A 
ATOM     35  Cl  UNL A   1      30.988  22.199  25.612  1.00  0.00    -0.080 Cl
BRANCH  34  36
ATOM     36  O   UNL A   1      30.671  23.529  23.041  1.00  0.00    -0.505 OA
ATOM     37  H   UNL A   1      30.005  23.131  23.568  1.00  0.00     0.293 HD
ENDBRANCH  34  36
ENDBRANCH  24  28
ENDBRANCH  17  18
ENDBRANCH  14  17
ENDBRANCH   8  13
ENDBRANCH   4   7
ENDBRANCH   2   3
ENDBRANCH   1   2
BRANCH   1  38
ATOM     38  C   UNL A   1      34.292  33.077  29.124  1.00  0.00     0.002 C 
BRANCH  38  39
ATOM     39  C   UNL A   1      33.433  34.244  28.583  1.00  0.00     0.002 C 
BRANCH  39  40
ATOM     40  C   UNL A   1      33.859  35.724  28.783  1.00  0.00     0.021 C 
BRANCH  40  41
ATOM     41  C   UNL A   1      33.081  36.636  29.772  1.00  0.00     0.116 C 
BRANCH  41  42
ATOM     42  N   UNL A   1      32.302  36.018  30.862  1.00  0.00    -0.352 N 
ATOM     43  C   UNL A   1      32.619  35.389  32.076  1.00  0.00     0.251 C 
ATOM     44  H   UNL A   1      31.331  36.056  30.699  1.00  0.00     0.163 HD
ATOM     45  O   UNL A   1      31.697  35.263  32.888  1.00  0.00    -0.269 OA
BRANCH  43  46
ATOM     46  C   UNL A   1      33.935  34.776  32.479  1.00  0.00     0.039 A 
ATOM     47  C   UNL A   1      35.100  35.551  32.502  1.00  0.00     0.014 A 
ATOM     48  C   UNL A   1      34.141  33.411  32.628  1.00  0.00     0.014 A 
ATOM     49  C   UNL A   1      36.364  34.997  32.872  1.00  0.00     0.010 A 
ATOM     50  C   UNL A   1      35.359  32.896  33.174  1.00  0.00     0.010 A 
ATOM     51  C   UNL A   1      36.514  33.677  33.348  1.00  0.00    -0.014 A 
BRANCH  51  52
ATOM     52  C   UNL A   1      37.823  33.176  34.001  1.00  0.00     0.031 A 
ATOM     53  C   UNL A   1      38.992  32.558  33.206  1.00  0.00     0.074 A 
ATOM     54  C   UNL A   1      37.996  33.188  35.354  1.00  0.00     0.049 A 
ATOM     55  N   UNL A   1      40.164  32.131  33.641  1.00  0.00    -0.248 NA
ATOM     56  C   UNL A   1      38.816  32.342  31.764  1.00  0.00     0.031 C 
ATOM     57  C   UNL A   1      36.994  33.586  36.348  1.00  0.00     0.029 A 
ATOM     58  N   UNL A   1      39.087  32.851  36.146  1.00  0.00    -0.354 N 
ATOM     59  C   UNL A   1      40.828  31.587  32.538  1.00  0.00     0.074 A 
ATOM     60  C   UNL A   1      39.886  31.629  31.445  1.00  0.00     0.031 C 
ATOM     61  C   UNL A   1      37.521  33.531  37.582  1.00  0.00     0.029 A 
ATOM     62  C   UNL A   1      38.901  33.067  37.500  1.00  0.00     0.049 A 
ATOM     63  H   UNL A   1      39.923  32.488  35.775  1.00  0.00     0.167 HD
ATOM     64  C   UNL A   1      42.111  31.156  32.390  1.00  0.00     0.031 A 
ATOM     65  C   UNL A   1      39.721  32.943  38.572  1.00  0.00     0.031 A 
ATOM     66  C   UNL A   1      43.110  31.151  33.428  1.00  0.00     0.049 A 
ATOM     67  C   UNL A   1      41.159  32.523  38.394  1.00  0.00     0.074 A 
ATOM     68  C   UNL A   1      44.461  30.856  33.323  1.00  0.00     0.029 A 
ATOM     69  N   UNL A   1      42.874  31.454  34.756  1.00  0.00    -0.354 N 
ATOM     70  N   UNL A   1      41.789  32.184  37.297  1.00  0.00    -0.248 NA
ATOM     71  C   UNL A   1      42.008  32.505  39.599  1.00  0.00     0.031 C 
ATOM     72  C   UNL A   1      45.032  30.934  34.597  1.00  0.00     0.029 A 
ATOM     73  C   UNL A   1      44.049  31.337  35.484  1.00  0.00     0.049 A 
ATOM     74  H   UNL A   1      42.001  31.715  35.131  1.00  0.00     0.167 HD
ATOM     75  C   UNL A   1      43.113  31.962  37.673  1.00  0.00     0.074 A 
ATOM     76  C   UNL A   1      43.198  32.209  39.094  1.00  0.00     0.031 C 
ATOM     77  C   UNL A   1      44.161  31.595  36.896  1.00  0.00     0.031 A 
BRANCH  64  78
ATOM     78  C   UNL A   1      42.547  30.708  31.007  1.00  0.00    -0.014 A 
ATOM     79  C   UNL A   1      42.416  29.361  30.616  1.00  0.00     0.010 A 
ATOM     80  C   UNL A   1      43.037  31.637  30.071  1.00  0.00     0.010 A 
ATOM     81  C   UNL A   1      42.840  28.939  29.353  1.00  0.00     0.020 A 
ATOM     82  C   UNL A   1      43.426  31.225  28.789  1.00  0.00     0.020 A 
ATOM     83  C   UNL A   1      43.351  29.873  28.450  1.00  0.00     0.054 A 
BRANCH  83  84
ATOM     84  S   UNL A   1      43.895  29.290  26.820  1.00  0.00     0.124 S 
ATOM     85  O   UNL A   1      44.140  27.872  27.075  1.00  0.00    -0.237 OA
ATOM     86  O   UNL A   1      42.743  29.584  25.972  1.00  0.00    -0.237 OA
ATOM     87  O   UNL A   1      45.087  30.087  26.545  1.00  0.00    -0.744 OA
ENDBRANCH  83  84
ENDBRANCH  64  78
BRANCH  65  88
ATOM     88  C   UNL A   1      39.230  33.299  39.943  1.00  0.00    -0.014 A 
ATOM     89  C   UNL A   1      38.656  32.313  40.771  1.00  0.00     0.010 A 
ATOM     90  C   UNL A   1      39.307  34.620  40.419  1.00  0.00     0.010 A 
ATOM     91  C   UNL A   1      38.150  32.645  42.033  1.00  0.00     0.020 A 
ATOM     92  C   UNL A   1      38.828  34.950  41.694  1.00  0.00     0.020 A 
ATOM     93  C   UNL A   1      38.244  33.962  42.489  1.00  0.00     0.054 A 
BRANCH  93  94
ATOM     94  S   UNL A   1      37.630  34.356  44.154  1.00  0.00     0.124 S 
ATOM     95  O   UNL A   1      38.867  34.622  44.882  1.00  0.00    -0.237 OA
ATOM     96  O   UNL A   1      36.779  35.518  43.907  1.00  0.00    -0.237 OA
ATOM     97  O   UNL A   1      36.916  33.145  44.551  1.00  0.00    -0.744 OA
ENDBRANCH  93  94
ENDBRANCH  65  88
BRANCH  77  98
ATOM     98  C   UNL A   1      45.523  31.488  37.532  1.00  0.00    -0.014 A 
ATOM     99  C   UNL A   1      46.323  32.621  37.764  1.00  0.00     0.010 A 
ATOM    100  C   UNL A   1      45.983  30.231  37.972  1.00  0.00     0.010 A 
ATOM    101  C   UNL A   1      47.565  32.495  38.397  1.00  0.00     0.020 A 
ATOM    102  C   UNL A   1      47.210  30.105  38.629  1.00  0.00     0.020 A 
ATOM    103  C   UNL A   1      48.000  31.237  38.826  1.00  0.00     0.054 A 
BRANCH 103 104
ATOM    104  S   UNL A   1      49.591  31.110  39.691  1.00  0.00     0.124 S 
ATOM    105  O   UNL A   1      49.195  31.286  41.085  1.00  0.00    -0.237 OA
ATOM    106  O   UNL A   1      50.045  29.769  39.331  1.00  0.00    -0.237 OA
ATOM    107  O   UNL A   1      50.382  32.201  39.126  1.00  0.00    -0.744 OA
ENDBRANCH 103 104
ENDBRANCH  77  98
ENDBRANCH  51  52
ENDBRANCH  43  46
ENDBRANCH  41  42
ENDBRANCH  40  41
ENDBRANCH  39  40
ENDBRANCH  38  39
ENDBRANCH   1  38
TORSDOF 22
ENDMDL
