MODEL 1
REMARK VINA RESULT:     -11.3      0.000      0.000
REMARK SMILES C[NH2+][C@@]1(C(=O)NCCCCCCNC(=O)c2ccc(-c3c4nc(c(-c5ccc(S(=O)(=O)[O-])cc5)c5ccc([nH]5)c(-c5ccc(S(=O)(=O)[O-])cc5)c5nc(c(-c6ccc(S(=O)(=O)[O-])cc6)c6ccc3[nH]6)C=C5)C=C4)cc2)CC[C@H](Oc2cc(C)cc(C)c2C)C1
REMARK SMILES IDX 10 1 9 2 8 3 7 4 6 5 4 6 5 7 3 9 76 10 89 11 77 12 78 13
REMARK SMILES IDX 2 14 1 15 79 18 80 19 81 20 87 21 82 22 85 23 88 24 83 25
REMARK SMILES IDX 84 26 86 27 11 28 12 29 13 30 14 31 15 33 16 34 17 35 75 36
REMARK SMILES IDX 18 37 74 38 19 39 20 40 21 41 68 42 22 43 73 44 67 45 69 46
REMARK SMILES IDX 23 47 72 48 66 49 65 50 24 52 54 53 35 54 53 55 36 56 39 57
REMARK SMILES IDX 52 58 70 59 37 60 38 61 51 63 71 64 40 65 25 66 26 67 34 68
REMARK SMILES IDX 27 69 33 70 28 71 29 72 30 73 31 74 32 75 55 76 56 77 64 78
REMARK SMILES IDX 57 79 63 80 58 81 59 82 60 83 61 84 62 85 41 86 42 87 50 88
REMARK SMILES IDX 43 89 49 90 44 91 45 92 46 93 47 94 48 95
REMARK H PARENT 6 8 2 16 2 17 13 32 69 51 39 62
REMARK Flexibility Score: inf
ROOT
ATOM      1  C   UNL A   1      35.355  30.769  27.507  1.00  0.00     0.002 C 
ENDROOT
BRANCH   1   2
ATOM      2  C   UNL A   1      34.277  29.740  27.141  1.00  0.00     0.002 C 
BRANCH   2   3
ATOM      3  C   UNL A   1      32.864  30.301  26.971  1.00  0.00     0.021 C 
BRANCH   3   4
ATOM      4  C   UNL A   1      32.166  29.962  25.649  1.00  0.00     0.116 C 
BRANCH   4   5
ATOM      5  N   UNL A   1      33.137  29.659  24.613  1.00  0.00    -0.351 N 
ATOM      6  C   UNL A   1      33.145  28.868  23.510  1.00  0.00     0.281 C 
ATOM      7  O   UNL A   1      34.288  28.678  23.058  1.00  0.00    -0.268 OA
ATOM      8  H   UNL A   1      33.987  30.139  24.741  1.00  0.00     0.163 HD
BRANCH   6   9
ATOM      9  C   UNL A   1      31.877  28.225  22.797  1.00  0.00     0.179 C 
ATOM     10  C   UNL A   1      30.840  27.549  23.694  1.00  0.00     0.083 C 
ATOM     11  C   UNL A   1      32.283  27.136  21.777  1.00  0.00     0.124 C 
ATOM     12  C   UNL A   1      30.965  26.043  23.496  1.00  0.00     0.052 C 
ATOM     13  C   UNL A   1      32.042  25.774  22.442  1.00  0.00     0.180 C 
BRANCH   9  14
ATOM     14  N   UNL A   1      31.199  29.310  22.006  1.00  0.00    -0.336 N 
ATOM     15  C   UNL A   1      29.781  29.484  22.295  1.00  0.00     0.331 C 
ATOM     16  H   UNL A   1      31.674  30.191  22.205  1.00  0.00     0.346 HD
ATOM     17  H   UNL A   1      31.260  29.031  21.027  1.00  0.00     0.346 HD
ENDBRANCH   9  14
BRANCH  13  18
ATOM     18  O   UNL A   1      33.304  25.351  22.942  1.00  0.00    -0.490 OA
BRANCH  18  19
ATOM     19  C   UNL A   1      33.453  24.118  23.519  1.00  0.00     0.123 A 
ATOM     20  C   UNL A   1      33.053  22.929  22.908  1.00  0.00     0.050 A 
ATOM     21  C   UNL A   1      33.820  24.121  24.881  1.00  0.00    -0.006 A 
ATOM     22  C   UNL A   1      32.849  21.769  23.661  1.00  0.00    -0.047 A 
ATOM     23  C   UNL A   1      33.668  22.940  25.635  1.00  0.00    -0.044 A 
ATOM     24  C   UNL A   1      34.302  25.389  25.540  1.00  0.00     0.049 C 
ATOM     25  C   UNL A   1      32.259  20.550  23.013  1.00  0.00     0.044 C 
ATOM     26  C   UNL A   1      33.169  21.779  25.019  1.00  0.00     0.007 A 
ATOM     27  C   UNL A   1      33.991  22.866  27.099  1.00  0.00     0.045 C 
ENDBRANCH  18  19
ENDBRANCH  13  18
ENDBRANCH   6   9
ENDBRANCH   4   5
ENDBRANCH   3   4
ENDBRANCH   2   3
ENDBRANCH   1   2
BRANCH   1  28
ATOM     28  C   UNL A   1      34.920  31.951  28.391  1.00  0.00     0.021 C 
BRANCH  28  29
ATOM     29  C   UNL A   1      35.860  32.330  29.542  1.00  0.00     0.116 C 
BRANCH  29  30
ATOM     30  N   UNL A   1      35.691  31.473  30.709  1.00  0.00    -0.352 N 
ATOM     31  C   UNL A   1      36.511  30.491  31.211  1.00  0.00     0.251 C 
ATOM     32  H   UNL A   1      34.860  31.620  31.216  1.00  0.00     0.163 HD
ATOM     33  O   UNL A   1      36.118  29.790  32.150  1.00  0.00    -0.269 OA
BRANCH  31  34
ATOM     34  C   UNL A   1      37.855  30.249  30.642  1.00  0.00     0.039 A 
ATOM     35  C   UNL A   1      38.949  30.089  31.490  1.00  0.00     0.014 A 
ATOM     36  C   UNL A   1      38.055  30.241  29.263  1.00  0.00     0.014 A 
ATOM     37  C   UNL A   1      40.222  29.847  30.953  1.00  0.00     0.010 A 
ATOM     38  C   UNL A   1      39.310  29.918  28.726  1.00  0.00     0.010 A 
ATOM     39  C   UNL A   1      40.416  29.709  29.564  1.00  0.00    -0.014 A 
BRANCH  39  40
ATOM     40  C   UNL A   1      41.755  29.318  29.016  1.00  0.00     0.031 A 
ATOM     41  C   UNL A   1      42.907  30.295  28.934  1.00  0.00     0.074 A 
ATOM     42  C   UNL A   1      41.946  28.062  28.552  1.00  0.00     0.049 A 
ATOM     43  N   UNL A   1      44.130  30.091  28.503  1.00  0.00    -0.248 NA
ATOM     44  C   UNL A   1      42.652  31.677  29.362  1.00  0.00     0.031 C 
ATOM     45  C   UNL A   1      40.922  27.016  28.493  1.00  0.00     0.029 A 
ATOM     46  N   UNL A   1      43.071  27.447  28.055  1.00  0.00    -0.354 N 
ATOM     47  C   UNL A   1      44.779  31.320  28.583  1.00  0.00     0.074 A 
ATOM     48  C   UNL A   1      43.801  32.272  29.067  1.00  0.00     0.031 C 
ATOM     49  C   UNL A   1      41.478  25.879  28.047  1.00  0.00     0.029 A 
ATOM     50  C   UNL A   1      42.885  26.118  27.747  1.00  0.00     0.049 A 
ATOM     51  H   UNL A   1      43.929  27.912  27.931  1.00  0.00     0.167 HD
ATOM     52  C   UNL A   1      46.069  31.632  28.303  1.00  0.00     0.031 A 
ATOM     53  C   UNL A   1      43.742  25.184  27.283  1.00  0.00     0.031 A 
ATOM     54  C   UNL A   1      47.069  30.693  27.861  1.00  0.00     0.049 A 
ATOM     55  C   UNL A   1      45.179  25.540  27.027  1.00  0.00     0.074 A 
ATOM     56  C   UNL A   1      48.418  30.917  27.636  1.00  0.00     0.029 A 
ATOM     57  N   UNL A   1      46.837  29.356  27.582  1.00  0.00    -0.354 N 
ATOM     58  N   UNL A   1      45.781  26.693  27.181  1.00  0.00    -0.248 NA
ATOM     59  C   UNL A   1      46.055  24.461  26.542  1.00  0.00     0.031 C 
ATOM     60  C   UNL A   1      48.995  29.724  27.185  1.00  0.00     0.029 A 
ATOM     61  C   UNL A   1      48.014  28.747  27.172  1.00  0.00     0.049 A 
ATOM     62  H   UNL A   1      45.966  28.905  27.663  1.00  0.00     0.167 HD
ATOM     63  C   UNL A   1      47.109  26.474  26.831  1.00  0.00     0.074 A 
ATOM     64  C   UNL A   1      47.227  25.077  26.472  1.00  0.00     0.031 C 
ATOM     65  C   UNL A   1      48.136  27.359  26.811  1.00  0.00     0.031 A 
BRANCH  52  66
ATOM     66  C   UNL A   1      46.492  33.069  28.476  1.00  0.00    -0.014 A 
ATOM     67  C   UNL A   1      46.376  33.991  27.420  1.00  0.00     0.010 A 
ATOM     68  C   UNL A   1      46.953  33.519  29.728  1.00  0.00     0.010 A 
ATOM     69  C   UNL A   1      46.758  35.323  27.597  1.00  0.00     0.020 A 
ATOM     70  C   UNL A   1      47.312  34.857  29.917  1.00  0.00     0.020 A 
ATOM     71  C   UNL A   1      47.231  35.746  28.843  1.00  0.00     0.054 A 
BRANCH  71  72
ATOM     72  S   UNL A   1      47.707  37.484  29.052  1.00  0.00     0.124 S 
ATOM     73  O   UNL A   1      46.586  38.180  28.424  1.00  0.00    -0.237 OA
ATOM     74  O   UNL A   1      47.796  37.622  30.504  1.00  0.00    -0.237 OA
ATOM     75  O   UNL A   1      48.979  37.583  28.341  1.00  0.00    -0.744 OA
ENDBRANCH  71  72
ENDBRANCH  52  66
BRANCH  53  76
ATOM     76  C   UNL A   1      43.260  23.795  27.055  1.00  0.00    -0.014 A 
ATOM     77  C   UNL A   1      42.838  23.390  25.776  1.00  0.00     0.010 A 
ATOM     78  C   UNL A   1      43.239  22.868  28.112  1.00  0.00     0.010 A 
ATOM     79  C   UNL A   1      42.391  22.083  25.560  1.00  0.00     0.020 A 
ATOM     80  C   UNL A   1      42.816  21.555  27.894  1.00  0.00     0.020 A 
ATOM     81  C   UNL A   1      42.385  21.173  26.621  1.00  0.00     0.054 A 
BRANCH  81  82
ATOM     82  S   UNL A   1      41.867  19.462  26.308  1.00  0.00     0.124 S 
ATOM     83  O   UNL A   1      40.426  19.610  26.137  1.00  0.00    -0.237 OA
ATOM     84  O   UNL A   1      42.618  19.118  25.103  1.00  0.00    -0.237 OA
ATOM     85  O   UNL A   1      42.288  18.756  27.516  1.00  0.00    -0.744 OA
ENDBRANCH  81  82
ENDBRANCH  53  76
BRANCH  65  86
ATOM     86  C   UNL A   1      49.492  26.843  26.409  1.00  0.00    -0.014 A 
ATOM     87  C   UNL A   1      50.304  26.144  27.318  1.00  0.00     0.010 A 
ATOM     88  C   UNL A   1      49.942  27.023  25.087  1.00  0.00     0.010 A 
ATOM     89  C   UNL A   1      51.555  25.658  26.922  1.00  0.00     0.020 A 
ATOM     90  C   UNL A   1      51.181  26.520  24.682  1.00  0.00     0.020 A 
ATOM     91  C   UNL A   1      51.986  25.851  25.606  1.00  0.00     0.054 A 
BRANCH  91  92
ATOM     92  S   UNL A   1      53.594  25.177  25.103  1.00  0.00     0.124 S 
ATOM     93  O   UNL A   1      54.500  25.805  26.060  1.00  0.00    -0.237 OA
ATOM     94  O   UNL A   1      53.407  23.737  25.269  1.00  0.00    -0.237 OA
ATOM     95  O   UNL A   1      53.740  25.625  23.720  1.00  0.00    -0.744 OA
ENDBRANCH  91  92
ENDBRANCH  65  86
ENDBRANCH  39  40
ENDBRANCH  31  34
ENDBRANCH  29  30
ENDBRANCH  28  29
ENDBRANCH   1  28
TORSDOF 19
ENDMDL
MODEL 2
REMARK VINA RESULT:     -11.2      1.234      1.989
REMARK SMILES C[NH2+][C@@]1(C(=O)NCCCCCCNC(=O)c2ccc(-c3c4nc(c(-c5ccc(S(=O)(=O)[O-])cc5)c5ccc([nH]5)c(-c5ccc(S(=O)(=O)[O-])cc5)c5nc(c(-c6ccc(S(=O)(=O)[O-])cc6)c6ccc3[nH]6)C=C5)C=C4)cc2)CC[C@H](Oc2cc(C)cc(C)c2C)C1
REMARK SMILES IDX 10 1 9 2 8 3 7 4 6 5 4 6 5 7 3 9 76 10 89 11 77 12 78 13
REMARK SMILES IDX 2 14 1 15 79 18 80 19 81 20 87 21 82 22 85 23 88 24 83 25
REMARK SMILES IDX 84 26 86 27 11 28 12 29 13 30 14 31 15 33 16 34 17 35 75 36
REMARK SMILES IDX 18 37 74 38 19 39 20 40 21 41 68 42 22 43 73 44 67 45 69 46
REMARK SMILES IDX 23 47 72 48 66 49 65 50 24 52 54 53 35 54 53 55 36 56 39 57
REMARK SMILES IDX 52 58 70 59 37 60 38 61 51 63 71 64 40 65 25 66 26 67 34 68
REMARK SMILES IDX 27 69 33 70 28 71 29 72 30 73 31 74 32 75 55 76 56 77 64 78
REMARK SMILES IDX 57 79 63 80 58 81 59 82 60 83 61 84 62 85 41 86 42 87 50 88
REMARK SMILES IDX 43 89 49 90 44 91 45 92 46 93 47 94 48 95
REMARK H PARENT 6 8 2 16 2 17 13 32 69 51 39 62
REMARK Flexibility Score: inf
ROOT
ATOM      1  C   UNL A   1      32.950  29.929  26.836  1.00  0.00     0.002 C 
ENDROOT
BRANCH   1   2
ATOM      2  C   UNL A   1      32.100  29.545  25.617  1.00  0.00     0.002 C 
BRANCH   2   3
ATOM      3  C   UNL A   1      32.883  29.272  24.331  1.00  0.00     0.021 C 
BRANCH   3   4
ATOM      4  C   UNL A   1      32.044  29.147  23.054  1.00  0.00     0.116 C 
BRANCH   4   5
ATOM      5  N   UNL A   1      32.266  27.864  22.412  1.00  0.00    -0.351 N 
ATOM      6  C   UNL A   1      32.068  26.569  22.768  1.00  0.00     0.281 C 
ATOM      7  O   UNL A   1      32.667  25.767  22.030  1.00  0.00    -0.268 OA
ATOM      8  H   UNL A   1      32.648  27.955  21.510  1.00  0.00     0.163 HD
BRANCH   6   9
ATOM      9  C   UNL A   1      31.172  26.044  23.972  1.00  0.00     0.179 C 
ATOM     10  C   UNL A   1      31.859  25.855  25.324  1.00  0.00     0.083 C 
ATOM     11  C   UNL A   1      30.537  24.669  23.659  1.00  0.00     0.124 C 
ATOM     12  C   UNL A   1      32.002  24.358  25.567  1.00  0.00     0.052 C 
ATOM     13  C   UNL A   1      31.362  23.607  24.398  1.00  0.00     0.180 C 
BRANCH   9  14
ATOM     14  N   UNL A   1      30.027  27.006  24.142  1.00  0.00    -0.336 N 
ATOM     15  C   UNL A   1      28.716  26.463  23.809  1.00  0.00     0.331 C 
ATOM     16  H   UNL A   1      30.008  27.308  25.116  1.00  0.00     0.346 HD
ATOM     17  H   UNL A   1      30.195  27.769  23.486  1.00  0.00     0.346 HD
ENDBRANCH   9  14
BRANCH  13  18
ATOM     18  O   UNL A   1      32.265  23.073  23.438  1.00  0.00    -0.490 OA
BRANCH  18  19
ATOM     19  C   UNL A   1      33.037  21.980  23.733  1.00  0.00     0.123 A 
ATOM     20  C   UNL A   1      32.509  20.729  24.055  1.00  0.00     0.050 A 
ATOM     21  C   UNL A   1      34.410  22.237  23.930  1.00  0.00    -0.006 A 
ATOM     22  C   UNL A   1      33.281  19.777  24.726  1.00  0.00    -0.047 A 
ATOM     23  C   UNL A   1      35.207  21.259  24.558  1.00  0.00    -0.044 A 
ATOM     24  C   UNL A   1      35.001  23.568  23.539  1.00  0.00     0.049 C 
ATOM     25  C   UNL A   1      32.646  18.505  25.211  1.00  0.00     0.044 C 
ATOM     26  C   UNL A   1      34.629  20.043  24.963  1.00  0.00     0.007 A 
ATOM     27  C   UNL A   1      36.665  21.466  24.847  1.00  0.00     0.045 C 
ENDBRANCH  18  19
ENDBRANCH  13  18
ENDBRANCH   6   9
ENDBRANCH   4   5
ENDBRANCH   3   4
ENDBRANCH   2   3
ENDBRANCH   1   2
BRANCH   1  28
ATOM     28  C   UNL A   1      34.115  28.992  27.199  1.00  0.00     0.021 C 
BRANCH  28  29
ATOM     29  C   UNL A   1      35.395  29.657  27.717  1.00  0.00     0.116 C 
BRANCH  29  30
ATOM     30  N   UNL A   1      35.388  29.836  29.164  1.00  0.00    -0.352 N 
ATOM     31  C   UNL A   1      36.414  29.737  30.072  1.00  0.00     0.251 C 
ATOM     32  H   UNL A   1      34.511  30.063  29.550  1.00  0.00     0.163 HD
ATOM     33  O   UNL A   1      36.167  29.804  31.281  1.00  0.00    -0.269 OA
BRANCH  31  34
ATOM     34  C   UNL A   1      37.813  29.539  29.631  1.00  0.00     0.039 A 
ATOM     35  C   UNL A   1      38.788  29.177  30.558  1.00  0.00     0.014 A 
ATOM     36  C   UNL A   1      38.183  29.772  28.308  1.00  0.00     0.014 A 
ATOM     37  C   UNL A   1      40.111  28.977  30.140  1.00  0.00     0.010 A 
ATOM     38  C   UNL A   1      39.487  29.493  27.873  1.00  0.00     0.010 A 
ATOM     39  C   UNL A   1      40.475  29.084  28.782  1.00  0.00    -0.014 A 
BRANCH  39  40
ATOM     40  C   UNL A   1      41.862  28.737  28.333  1.00  0.00     0.031 A 
ATOM     41  C   UNL A   1      42.969  29.766  28.274  1.00  0.00     0.074 A 
ATOM     42  C   UNL A   1      42.139  27.473  27.941  1.00  0.00     0.049 A 
ATOM     43  N   UNL A   1      44.224  29.604  27.926  1.00  0.00    -0.248 NA
ATOM     44  C   UNL A   1      42.623  31.151  28.620  1.00  0.00     0.031 C 
ATOM     45  C   UNL A   1      41.172  26.375  27.872  1.00  0.00     0.029 A 
ATOM     46  N   UNL A   1      43.321  26.893  27.542  1.00  0.00    -0.354 N 
ATOM     47  C   UNL A   1      44.808  30.867  27.987  1.00  0.00     0.074 A 
ATOM     48  C   UNL A   1      43.758  31.789  28.366  1.00  0.00     0.031 C 
ATOM     49  C   UNL A   1      41.807  25.248  27.513  1.00  0.00     0.029 A 
ATOM     50  C   UNL A   1      43.218  25.544  27.286  1.00  0.00     0.049 A 
ATOM     51  H   UNL A   1      44.162  27.395  27.446  1.00  0.00     0.167 HD
ATOM     52  C   UNL A   1      46.097  31.230  27.769  1.00  0.00     0.031 A 
ATOM     53  C   UNL A   1      44.144  24.635  26.918  1.00  0.00     0.031 A 
ATOM     54  C   UNL A   1      47.165  30.324  27.432  1.00  0.00     0.049 A 
ATOM     55  C   UNL A   1      45.576  25.051  26.731  1.00  0.00     0.074 A 
ATOM     56  C   UNL A   1      48.513  30.605  27.277  1.00  0.00     0.029 A 
ATOM     57  N   UNL A   1      47.015  28.966  27.203  1.00  0.00    -0.354 N 
ATOM     58  N   UNL A   1      46.112  26.238  26.866  1.00  0.00    -0.248 NA
ATOM     59  C   UNL A   1      46.530  23.997  26.350  1.00  0.00     0.031 C 
ATOM     60  C   UNL A   1      49.173  29.424  26.917  1.00  0.00     0.029 A 
ATOM     61  C   UNL A   1      48.242  28.399  26.892  1.00  0.00     0.049 A 
ATOM     62  H   UNL A   1      46.162  28.475  27.253  1.00  0.00     0.167 HD
ATOM     63  C   UNL A   1      47.468  26.071  26.606  1.00  0.00     0.074 A 
ATOM     64  C   UNL A   1      47.674  24.666  26.321  1.00  0.00     0.031 C 
ATOM     65  C   UNL A   1      48.451  27.004  26.605  1.00  0.00     0.031 A 
BRANCH  52  66
ATOM     66  C   UNL A   1      46.440  32.693  27.899  1.00  0.00    -0.014 A 
ATOM     67  C   UNL A   1      46.828  33.240  29.135  1.00  0.00     0.010 A 
ATOM     68  C   UNL A   1      46.434  33.518  26.759  1.00  0.00     0.010 A 
ATOM     69  C   UNL A   1      47.157  34.594  29.239  1.00  0.00     0.020 A 
ATOM     70  C   UNL A   1      46.787  34.868  26.853  1.00  0.00     0.020 A 
ATOM     71  C   UNL A   1      47.127  35.401  28.098  1.00  0.00     0.054 A 
BRANCH  71  72
ATOM     72  S   UNL A   1      47.572  37.153  28.256  1.00  0.00     0.124 S 
ATOM     73  O   UNL A   1      48.582  37.301  27.210  1.00  0.00    -0.237 OA
ATOM     74  O   UNL A   1      46.304  37.832  28.003  1.00  0.00    -0.237 OA
ATOM     75  O   UNL A   1      48.071  37.262  29.625  1.00  0.00    -0.744 OA
ENDBRANCH  71  72
ENDBRANCH  52  66
BRANCH  53  76
ATOM     76  C   UNL A   1      43.744  23.214  26.728  1.00  0.00    -0.014 A 
ATOM     77  C   UNL A   1      43.124  22.505  27.773  1.00  0.00     0.010 A 
ATOM     78  C   UNL A   1      43.966  22.572  25.497  1.00  0.00     0.010 A 
ATOM     79  C   UNL A   1      42.742  21.173  27.593  1.00  0.00     0.020 A 
ATOM     80  C   UNL A   1      43.564  21.249  25.307  1.00  0.00     0.020 A 
ATOM     81  C   UNL A   1      42.963  20.554  26.359  1.00  0.00     0.054 A 
BRANCH  81  82
ATOM     82  S   UNL A   1      42.401  18.845  26.120  1.00  0.00     0.124 S 
ATOM     83  O   UNL A   1      42.632  18.263  27.437  1.00  0.00    -0.237 OA
ATOM     84  O   UNL A   1      41.000  19.021  25.741  1.00  0.00    -0.237 OA
ATOM     85  O   UNL A   1      43.267  18.350  25.052  1.00  0.00    -0.744 OA
ENDBRANCH  81  82
ENDBRANCH  53  76
BRANCH  65  86
ATOM     86  C   UNL A   1      49.852  26.540  26.308  1.00  0.00    -0.014 A 
ATOM     87  C   UNL A   1      50.644  25.934  27.300  1.00  0.00     0.010 A 
ATOM     88  C   UNL A   1      50.369  26.671  25.006  1.00  0.00     0.010 A 
ATOM     89  C   UNL A   1      51.938  25.495  27.002  1.00  0.00     0.020 A 
ATOM     90  C   UNL A   1      51.653  26.212  24.699  1.00  0.00     0.020 A 
ATOM     91  C   UNL A   1      52.435  25.639  25.703  1.00  0.00     0.054 A 
BRANCH  91  92
ATOM     92  S   UNL A   1      54.101  25.024  25.329  1.00  0.00     0.124 S 
ATOM     93  O   UNL A   1      54.495  25.873  24.209  1.00  0.00    -0.237 OA
ATOM     94  O   UNL A   1      54.821  25.259  26.579  1.00  0.00    -0.237 OA
ATOM     95  O   UNL A   1      53.884  23.617  24.998  1.00  0.00    -0.744 OA
ENDBRANCH  91  92
ENDBRANCH  65  86
ENDBRANCH  39  40
ENDBRANCH  31  34
ENDBRANCH  29  30
ENDBRANCH  28  29
ENDBRANCH   1  28
TORSDOF 19
ENDMDL
MODEL 3
REMARK VINA RESULT:     -11.0      1.407      8.261
REMARK SMILES C[NH2+][C@@]1(C(=O)NCCCCCCNC(=O)c2ccc(-c3c4nc(c(-c5ccc(S(=O)(=O)[O-])cc5)c5ccc([nH]5)c(-c5ccc(S(=O)(=O)[O-])cc5)c5nc(c(-c6ccc(S(=O)(=O)[O-])cc6)c6ccc3[nH]6)C=C5)C=C4)cc2)CC[C@H](Oc2cc(C)cc(C)c2C)C1
REMARK SMILES IDX 10 1 9 2 8 3 7 4 6 5 4 6 5 7 3 9 76 10 89 11 77 12 78 13
REMARK SMILES IDX 2 14 1 15 79 18 80 19 81 20 87 21 82 22 85 23 88 24 83 25
REMARK SMILES IDX 84 26 86 27 11 28 12 29 13 30 14 31 15 33 16 34 17 35 75 36
REMARK SMILES IDX 18 37 74 38 19 39 20 40 21 41 68 42 22 43 73 44 67 45 69 46
REMARK SMILES IDX 23 47 72 48 66 49 65 50 24 52 54 53 35 54 53 55 36 56 39 57
REMARK SMILES IDX 52 58 70 59 37 60 38 61 51 63 71 64 40 65 25 66 26 67 34 68
REMARK SMILES IDX 27 69 33 70 28 71 29 72 30 73 31 74 32 75 55 76 56 77 64 78
REMARK SMILES IDX 57 79 63 80 58 81 59 82 60 83 61 84 62 85 41 86 42 87 50 88
REMARK SMILES IDX 43 89 49 90 44 91 45 92 46 93 47 94 48 95
REMARK H PARENT 6 8 2 16 2 17 13 32 69 51 39 62
REMARK Flexibility Score: inf
ROOT
ATOM      1  C   UNL A   1      32.927  30.046  26.517  1.00  0.00     0.002 C 
ENDROOT
BRANCH   1   2
ATOM      2  C   UNL A   1      32.324  29.705  25.148  1.00  0.00     0.002 C 
BRANCH   2   3
ATOM      3  C   UNL A   1      33.320  29.214  24.096  1.00  0.00     0.021 C 
BRANCH   3   4
ATOM      4  C   UNL A   1      32.768  29.059  22.675  1.00  0.00     0.116 C 
BRANCH   4   5
ATOM      5  N   UNL A   1      33.183  27.796  22.092  1.00  0.00    -0.351 N 
ATOM      6  C   UNL A   1      32.992  26.488  22.405  1.00  0.00     0.281 C 
ATOM      7  O   UNL A   1      33.769  25.728  21.801  1.00  0.00    -0.268 OA
ATOM      8  H   UNL A   1      33.731  27.915  21.283  1.00  0.00     0.163 HD
BRANCH   6   9
ATOM      9  C   UNL A   1      31.906  25.904  23.409  1.00  0.00     0.179 C 
ATOM     10  C   UNL A   1      32.106  26.190  24.897  1.00  0.00     0.083 C 
ATOM     11  C   UNL A   1      31.807  24.364  23.314  1.00  0.00     0.124 C 
ATOM     12  C   UNL A   1      32.545  24.893  25.564  1.00  0.00     0.052 C 
ATOM     13  C   UNL A   1      32.574  23.783  24.511  1.00  0.00     0.180 C 
BRANCH   9  14
ATOM     14  N   UNL A   1      30.563  26.438  22.989  1.00  0.00    -0.336 N 
ATOM     15  C   UNL A   1      29.480  26.178  23.930  1.00  0.00     0.331 C 
ATOM     16  H   UNL A   1      30.646  27.447  22.872  1.00  0.00     0.346 HD
ATOM     17  H   UNL A   1      30.318  25.950  22.128  1.00  0.00     0.346 HD
ENDBRANCH   9  14
BRANCH  13  18
ATOM     18  O   UNL A   1      33.860  23.430  24.020  1.00  0.00    -0.490 OA
BRANCH  18  19
ATOM     19  C   UNL A   1      34.323  22.145  24.122  1.00  0.00     0.123 A 
ATOM     20  C   UNL A   1      33.488  21.036  24.269  1.00  0.00     0.050 A 
ATOM     21  C   UNL A   1      35.714  22.010  24.314  1.00  0.00    -0.006 A 
ATOM     22  C   UNL A   1      33.984  19.827  24.764  1.00  0.00    -0.047 A 
ATOM     23  C   UNL A   1      36.228  20.777  24.763  1.00  0.00    -0.044 A 
ATOM     24  C   UNL A   1      36.631  23.190  24.110  1.00  0.00     0.049 C 
ATOM     25  C   UNL A   1      33.039  18.701  25.071  1.00  0.00     0.044 C 
ATOM     26  C   UNL A   1      35.354  19.701  24.997  1.00  0.00     0.007 A 
ATOM     27  C   UNL A   1      37.687  20.558  25.035  1.00  0.00     0.045 C 
ENDBRANCH  18  19
ENDBRANCH  13  18
ENDBRANCH   6   9
ENDBRANCH   4   5
ENDBRANCH   3   4
ENDBRANCH   2   3
ENDBRANCH   1   2
BRANCH   1  28
ATOM     28  C   UNL A   1      33.778  28.959  27.196  1.00  0.00     0.021 C 
BRANCH  28  29
ATOM     29  C   UNL A   1      35.213  29.346  27.572  1.00  0.00     0.116 C 
BRANCH  29  30
ATOM     30  N   UNL A   1      35.287  30.071  28.834  1.00  0.00    -0.352 N 
ATOM     31  C   UNL A   1      36.343  30.245  29.694  1.00  0.00     0.251 C 
ATOM     32  H   UNL A   1      34.447  30.504  29.114  1.00  0.00     0.163 HD
ATOM     33  O   UNL A   1      36.158  30.796  30.785  1.00  0.00    -0.269 OA
BRANCH  31  34
ATOM     34  C   UNL A   1      37.702  29.774  29.344  1.00  0.00     0.039 A 
ATOM     35  C   UNL A   1      38.140  29.840  28.023  1.00  0.00     0.014 A 
ATOM     36  C   UNL A   1      38.531  29.206  30.310  1.00  0.00     0.014 A 
ATOM     37  C   UNL A   1      39.432  29.406  27.692  1.00  0.00     0.010 A 
ATOM     38  C   UNL A   1      39.850  28.849  29.996  1.00  0.00     0.010 A 
ATOM     39  C   UNL A   1      40.327  28.948  28.680  1.00  0.00    -0.014 A 
BRANCH  39  40
ATOM     40  C   UNL A   1      41.745  28.615  28.329  1.00  0.00     0.031 A 
ATOM     41  C   UNL A   1      42.164  27.224  27.906  1.00  0.00     0.074 A 
ATOM     42  C   UNL A   1      42.696  29.572  28.415  1.00  0.00     0.049 A 
ATOM     43  N   UNL A   1      43.353  26.795  27.552  1.00  0.00    -0.248 NA
ATOM     44  C   UNL A   1      41.132  26.180  27.904  1.00  0.00     0.031 C 
ATOM     45  C   UNL A   1      42.476  30.947  28.873  1.00  0.00     0.029 A 
ATOM     46  N   UNL A   1      44.037  29.541  28.108  1.00  0.00    -0.354 N 
ATOM     47  C   UNL A   1      43.216  25.431  27.312  1.00  0.00     0.074 A 
ATOM     48  C   UNL A   1      41.837  25.098  27.600  1.00  0.00     0.031 C 
ATOM     49  C   UNL A   1      43.621  31.638  28.760  1.00  0.00     0.029 A 
ATOM     50  C   UNL A   1      44.670  30.753  28.263  1.00  0.00     0.049 A 
ATOM     51  H   UNL A   1      44.500  28.728  27.805  1.00  0.00     0.167 HD
ATOM     52  C   UNL A   1      44.139  24.537  26.874  1.00  0.00     0.031 A 
ATOM     53  C   UNL A   1      45.945  31.128  28.029  1.00  0.00     0.031 A 
ATOM     54  C   UNL A   1      45.504  24.855  26.542  1.00  0.00     0.049 A 
ATOM     55  C   UNL A   1      46.937  30.133  27.497  1.00  0.00     0.074 A 
ATOM     56  C   UNL A   1      46.476  24.021  26.015  1.00  0.00     0.029 A 
ATOM     57  N   UNL A   1      46.092  26.099  26.698  1.00  0.00    -0.354 N 
ATOM     58  N   UNL A   1      46.760  28.867  27.211  1.00  0.00    -0.248 NA
ATOM     59  C   UNL A   1      48.302  30.624  27.249  1.00  0.00     0.031 C 
ATOM     60  C   UNL A   1      47.664  24.750  25.886  1.00  0.00     0.029 A 
ATOM     61  C   UNL A   1      47.418  26.051  26.292  1.00  0.00     0.049 A 
ATOM     62  H   UNL A   1      45.637  26.900  27.047  1.00  0.00     0.167 HD
ATOM     63  C   UNL A   1      47.985  28.415  26.731  1.00  0.00     0.074 A 
ATOM     64  C   UNL A   1      48.889  29.545  26.749  1.00  0.00     0.031 C 
ATOM     65  C   UNL A   1      48.322  27.171  26.312  1.00  0.00     0.031 A 
BRANCH  52  66
ATOM     66  C   UNL A   1      43.699  23.103  26.715  1.00  0.00    -0.014 A 
ATOM     67  C   UNL A   1      43.040  22.427  27.758  1.00  0.00     0.010 A 
ATOM     68  C   UNL A   1      43.891  22.444  25.487  1.00  0.00     0.010 A 
ATOM     69  C   UNL A   1      42.625  21.103  27.592  1.00  0.00     0.020 A 
ATOM     70  C   UNL A   1      43.455  21.127  25.308  1.00  0.00     0.020 A 
ATOM     71  C   UNL A   1      42.842  20.459  26.371  1.00  0.00     0.054 A 
BRANCH  71  72
ATOM     72  S   UNL A   1      42.281  18.744  26.176  1.00  0.00     0.124 S 
ATOM     73  O   UNL A   1      42.429  18.225  27.533  1.00  0.00    -0.237 OA
ATOM     74  O   UNL A   1      40.905  18.905  25.713  1.00  0.00    -0.237 OA
ATOM     75  O   UNL A   1      43.205  18.188  25.191  1.00  0.00    -0.744 OA
ENDBRANCH  71  72
ENDBRANCH  52  66
BRANCH  53  76
ATOM     76  C   UNL A   1      46.352  32.538  28.273  1.00  0.00    -0.014 A 
ATOM     77  C   UNL A   1      46.776  32.944  29.551  1.00  0.00     0.010 A 
ATOM     78  C   UNL A   1      46.335  33.474  27.225  1.00  0.00     0.010 A 
ATOM     79  C   UNL A   1      47.165  34.266  29.780  1.00  0.00     0.020 A 
ATOM     80  C   UNL A   1      46.746  34.791  27.444  1.00  0.00     0.020 A 
ATOM     81  C   UNL A   1      47.149  35.181  28.724  1.00  0.00     0.054 A 
BRANCH  81  82
ATOM     82  S   UNL A   1      47.721  36.878  29.021  1.00  0.00     0.124 S 
ATOM     83  O   UNL A   1      49.167  36.702  29.086  1.00  0.00    -0.237 OA
ATOM     84  O   UNL A   1      47.221  37.592  27.849  1.00  0.00    -0.237 OA
ATOM     85  O   UNL A   1      47.073  37.237  30.281  1.00  0.00    -0.744 OA
ENDBRANCH  81  82
ENDBRANCH  53  76
BRANCH  65  86
ATOM     86  C   UNL A   1      49.727  26.961  25.814  1.00  0.00    -0.014 A 
ATOM     87  C   UNL A   1      50.098  27.320  24.507  1.00  0.00     0.010 A 
ATOM     88  C   UNL A   1      50.704  26.437  26.682  1.00  0.00     0.010 A 
ATOM     89  C   UNL A   1      51.412  27.132  24.066  1.00  0.00     0.020 A 
ATOM     90  C   UNL A   1      52.023  26.268  26.253  1.00  0.00     0.020 A 
ATOM     91  C   UNL A   1      52.366  26.605  24.942  1.00  0.00     0.054 A 
BRANCH  91  92
ATOM     92  S   UNL A   1      54.074  26.409  24.362  1.00  0.00     0.124 S 
ATOM     93  O   UNL A   1      54.474  25.163  25.010  1.00  0.00    -0.237 OA
ATOM     94  O   UNL A   1      53.918  26.340  22.911  1.00  0.00    -0.237 OA
ATOM     95  O   UNL A   1      54.747  27.610  24.853  1.00  0.00    -0.744 OA
ENDBRANCH  91  92
ENDBRANCH  65  86
ENDBRANCH  39  40
ENDBRANCH  31  34
ENDBRANCH  29  30
ENDBRANCH  28  29
ENDBRANCH   1  28
TORSDOF 19
ENDMDL
