MODEL 1
REMARK VINA RESULT:     -10.4      0.000      0.000
REMARK SMILES COc1ccc([C@H](C)NC(=O)c2cnn(C)c2C(=O)NCCCCCCNC(=O)c2ccc(-c3c4nc(c(-c5ccc(S(=O)(=O)[O-])cc5)c5ccc([nH]5)c(-c5ccc(S(=O)(=O)[O-])cc5)c5nc(c(-c6ccc(S(=O)(=O)[O-])cc6)c6ccc3[nH]6)C=C5)C=C4)cc2)cc1
REMARK SMILES IDX 23 1 22 2 21 3 20 4 18 5 19 6 17 8 12 9 13 10 14 11 15 12
REMARK SMILES IDX 16 13 10 14 9 15 11 17 7 18 8 19 6 20 3 21 4 22 91 23 5 24
REMARK SMILES IDX 90 25 2 26 1 27 24 28 25 29 26 30 27 31 28 32 29 34 30 35
REMARK SMILES IDX 31 36 89 37 32 38 88 39 33 40 34 41 35 42 82 43 36 44 87 45
REMARK SMILES IDX 81 46 83 47 37 48 86 49 80 50 79 51 38 53 68 54 49 55 67 56
REMARK SMILES IDX 50 57 53 58 66 59 84 60 51 61 52 62 65 64 85 65 54 66 39 67
REMARK SMILES IDX 40 68 48 69 41 70 47 71 42 72 43 73 44 74 45 75 46 76 69 77
REMARK SMILES IDX 70 78 78 79 71 80 77 81 72 82 73 83 74 84 75 85 76 86 55 87
REMARK SMILES IDX 56 88 64 89 57 90 63 91 58 92 59 93 60 94 61 95 62 96
REMARK H PARENT 20 7 9 16 27 33 83 52 53 63
REMARK Flexibility Score: inf
ROOT
ATOM      1  C   UNL A   1      36.771  22.331  24.197  1.00  0.00     0.002 C 
ENDROOT
BRANCH   1   2
ATOM      2  C   UNL A   1      35.384  22.856  23.810  1.00  0.00     0.021 C 
BRANCH   2   3
ATOM      3  C   UNL A   1      35.094  24.261  24.329  1.00  0.00     0.116 C 
BRANCH   3   4
ATOM      4  N   UNL A   1      33.870  24.778  23.753  1.00  0.00    -0.351 N 
ATOM      5  C   UNL A   1      33.487  26.090  23.868  1.00  0.00     0.270 C 
ATOM      6  O   UNL A   1      33.631  26.810  22.882  1.00  0.00    -0.268 OA
ATOM      7  H   UNL A   1      33.287  24.160  23.256  1.00  0.00     0.163 HD
BRANCH   5   8
ATOM      8  C   UNL A   1      32.692  26.488  25.009  1.00  0.00     0.138 A 
ATOM      9  C   UNL A   1      31.353  26.137  25.208  1.00  0.00     0.090 A 
ATOM     10  C   UNL A   1      30.914  26.955  26.262  1.00  0.00     0.149 A 
ATOM     11  N   UNL A   1      31.906  27.645  26.813  1.00  0.00    -0.180 NA
ATOM     12  N   UNL A   1      32.984  27.320  26.066  1.00  0.00    -0.262 N 
ATOM     13  C   UNL A   1      34.233  27.930  26.452  1.00  0.00     0.174 C 
BRANCH   9  14
ATOM     14  C   UNL A   1      30.531  25.226  24.440  1.00  0.00     0.255 C 
ATOM     15  N   UNL A   1      30.613  23.877  24.678  1.00  0.00    -0.345 N 
ATOM     16  H   UNL A   1      30.156  23.312  24.014  1.00  0.00     0.164 HD
ATOM     17  O   UNL A   1      29.696  25.633  23.636  1.00  0.00    -0.269 OA
BRANCH  15  18
ATOM     18  C   UNL A   1      31.270  23.145  25.760  1.00  0.00     0.109 C 
ATOM     19  C   UNL A   1      30.214  22.816  26.821  1.00  0.00     0.036 C 
BRANCH  18  20
ATOM     20  C   UNL A   1      32.042  21.944  25.212  1.00  0.00    -0.026 A 
ATOM     21  C   UNL A   1      33.300  19.566  24.336  1.00  0.00     0.118 A 
ATOM     22  C   UNL A   1      33.419  19.969  25.659  1.00  0.00     0.047 A 
ATOM     23  C   UNL A   1      32.554  20.331  23.444  1.00  0.00     0.047 A 
ATOM     24  C   UNL A   1      32.809  21.151  26.086  1.00  0.00     0.009 A 
ATOM     25  C   UNL A   1      31.929  21.509  23.880  1.00  0.00     0.009 A 
BRANCH  21  26
ATOM     26  O   UNL A   1      33.850  18.358  24.008  1.00  0.00    -0.497 OA
ATOM     27  C   UNL A   1      32.983  17.553  23.215  1.00  0.00     0.278 C 
ENDBRANCH  21  26
ENDBRANCH  18  20
ENDBRANCH  15  18
ENDBRANCH   9  14
ENDBRANCH   5   8
ENDBRANCH   3   4
ENDBRANCH   2   3
ENDBRANCH   1   2
BRANCH   1  28
ATOM     28  C   UNL A   1      36.768  21.042  25.030  1.00  0.00     0.002 C 
BRANCH  28  29
ATOM     29  C   UNL A   1      38.051  20.209  24.953  1.00  0.00     0.021 C 
BRANCH  29  30
ATOM     30  C   UNL A   1      39.128  20.605  25.958  1.00  0.00     0.116 C 
BRANCH  30  31
ATOM     31  N   UNL A   1      40.185  19.610  26.034  1.00  0.00    -0.352 N 
ATOM     32  C   UNL A   1      41.542  19.792  26.125  1.00  0.00     0.251 C 
ATOM     33  H   UNL A   1      39.884  18.672  26.017  1.00  0.00     0.163 HD
ATOM     34  O   UNL A   1      42.300  18.843  25.946  1.00  0.00    -0.269 OA
BRANCH  32  35
ATOM     35  C   UNL A   1      42.088  21.133  26.428  1.00  0.00     0.039 A 
ATOM     36  C   UNL A   1      42.389  21.457  27.753  1.00  0.00     0.014 A 
ATOM     37  C   UNL A   1      42.279  22.075  25.412  1.00  0.00     0.014 A 
ATOM     38  C   UNL A   1      42.931  22.710  28.053  1.00  0.00     0.010 A 
ATOM     39  C   UNL A   1      42.877  23.298  25.704  1.00  0.00     0.010 A 
ATOM     40  C   UNL A   1      43.203  23.631  27.027  1.00  0.00    -0.014 A 
BRANCH  40  41
ATOM     41  C   UNL A   1      43.817  24.951  27.322  1.00  0.00     0.031 A 
ATOM     42  C   UNL A   1      42.967  26.078  27.844  1.00  0.00     0.074 A 
ATOM     43  C   UNL A   1      45.126  25.151  27.067  1.00  0.00     0.049 A 
ATOM     44  N   UNL A   1      43.305  27.318  28.091  1.00  0.00    -0.248 NA
ATOM     45  C   UNL A   1      41.549  25.780  28.100  1.00  0.00     0.031 C 
ATOM     46  C   UNL A   1      46.048  24.148  26.528  1.00  0.00     0.029 A 
ATOM     47  N   UNL A   1      45.906  26.269  27.221  1.00  0.00    -0.354 N 
ATOM     48  C   UNL A   1      42.144  27.947  28.525  1.00  0.00     0.074 A 
ATOM     49  C   UNL A   1      41.081  26.968  28.454  1.00  0.00     0.031 C 
ATOM     50  C   UNL A   1      47.271  24.692  26.412  1.00  0.00     0.029 A 
ATOM     51  C   UNL A   1      47.213  26.089  26.833  1.00  0.00     0.049 A 
ATOM     52  H   UNL A   1      45.562  27.121  27.575  1.00  0.00     0.167 HD
ATOM     53  C   UNL A   1      41.979  29.218  28.966  1.00  0.00     0.031 A 
ATOM     54  C   UNL A   1      48.247  26.952  26.808  1.00  0.00     0.031 A 
ATOM     55  C   UNL A   1      43.038  30.190  29.041  1.00  0.00     0.049 A 
ATOM     56  C   UNL A   1      48.035  28.363  27.286  1.00  0.00     0.074 A 
ATOM     57  C   UNL A   1      42.978  31.494  29.498  1.00  0.00     0.029 A 
ATOM     58  N   UNL A   1      44.349  29.960  28.654  1.00  0.00    -0.354 N 
ATOM     59  N   UNL A   1      46.937  28.925  27.734  1.00  0.00    -0.248 NA
ATOM     60  C   UNL A   1      49.204  29.253  27.266  1.00  0.00     0.031 C 
ATOM     61  C   UNL A   1      44.246  32.067  29.350  1.00  0.00     0.029 A 
ATOM     62  C   UNL A   1      45.106  31.103  28.851  1.00  0.00     0.049 A 
ATOM     63  H   UNL A   1      44.692  29.112  28.292  1.00  0.00     0.167 HD
ATOM     64  C   UNL A   1      47.292  30.225  28.075  1.00  0.00     0.074 A 
ATOM     65  C   UNL A   1      48.707  30.361  27.797  1.00  0.00     0.031 C 
ATOM     66  C   UNL A   1      46.515  31.218  28.574  1.00  0.00     0.031 A 
BRANCH  53  67
ATOM     67  C   UNL A   1      40.598  29.625  29.409  1.00  0.00    -0.014 A 
ATOM     68  C   UNL A   1      39.615  29.979  28.468  1.00  0.00     0.010 A 
ATOM     69  C   UNL A   1      40.264  29.613  30.775  1.00  0.00     0.010 A 
ATOM     70  C   UNL A   1      38.336  30.356  28.885  1.00  0.00     0.020 A 
ATOM     71  C   UNL A   1      38.977  29.962  31.196  1.00  0.00     0.020 A 
ATOM     72  C   UNL A   1      38.026  30.349  30.248  1.00  0.00     0.054 A 
BRANCH  72  73
ATOM     73  S   UNL A   1      36.351  30.822  30.760  1.00  0.00     0.124 S 
ATOM     74  O   UNL A   1      36.570  32.161  31.300  1.00  0.00    -0.237 OA
ATOM     75  O   UNL A   1      35.604  30.765  29.506  1.00  0.00    -0.237 OA
ATOM     76  O   UNL A   1      35.990  29.805  31.745  1.00  0.00    -0.744 OA
ENDBRANCH  72  73
ENDBRANCH  53  67
BRANCH  54  77
ATOM     77  C   UNL A   1      49.579  26.508  26.315  1.00  0.00    -0.014 A 
ATOM     78  C   UNL A   1      49.991  26.801  25.003  1.00  0.00     0.010 A 
ATOM     79  C   UNL A   1      50.442  25.782  27.157  1.00  0.00     0.010 A 
ATOM     80  C   UNL A   1      51.228  26.350  24.532  1.00  0.00     0.020 A 
ATOM     81  C   UNL A   1      51.690  25.354  26.699  1.00  0.00     0.020 A 
ATOM     82  C   UNL A   1      52.069  25.627  25.384  1.00  0.00     0.054 A 
BRANCH  82  83
ATOM     83  S   UNL A   1      53.684  25.077  24.763  1.00  0.00     0.124 S 
ATOM     84  O   UNL A   1      53.626  23.640  25.004  1.00  0.00    -0.237 OA
ATOM     85  O   UNL A   1      53.642  25.489  23.363  1.00  0.00    -0.237 OA
ATOM     86  O   UNL A   1      54.636  25.815  25.592  1.00  0.00    -0.744 OA
ENDBRANCH  82  83
ENDBRANCH  54  77
BRANCH  66  87
ATOM     87  C   UNL A   1      47.185  32.529  28.889  1.00  0.00    -0.014 A 
ATOM     88  C   UNL A   1      47.193  33.585  27.961  1.00  0.00     0.010 A 
ATOM     89  C   UNL A   1      47.771  32.721  30.154  1.00  0.00     0.010 A 
ATOM     90  C   UNL A   1      47.804  34.800  28.282  1.00  0.00     0.020 A 
ATOM     91  C   UNL A   1      48.358  33.944  30.487  1.00  0.00     0.020 A 
ATOM     92  C   UNL A   1      48.382  34.971  29.544  1.00  0.00     0.054 A 
BRANCH  92  93
ATOM     93  S   UNL A   1      49.128  36.574  29.953  1.00  0.00     0.124 S 
ATOM     94  O   UNL A   1      48.365  36.972  31.134  1.00  0.00    -0.237 OA
ATOM     95  O   UNL A   1      50.526  36.225  30.196  1.00  0.00    -0.237 OA
ATOM     96  O   UNL A   1      48.892  37.380  28.758  1.00  0.00    -0.744 OA
ENDBRANCH  92  93
ENDBRANCH  66  87
ENDBRANCH  40  41
ENDBRANCH  32  35
ENDBRANCH  30  31
ENDBRANCH  29  30
ENDBRANCH  28  29
ENDBRANCH   1  28
TORSDOF 20
ENDMDL
MODEL 2
REMARK VINA RESULT:     -10.2      3.426      7.695
REMARK SMILES COc1ccc([C@H](C)NC(=O)c2cnn(C)c2C(=O)NCCCCCCNC(=O)c2ccc(-c3c4nc(c(-c5ccc(S(=O)(=O)[O-])cc5)c5ccc([nH]5)c(-c5ccc(S(=O)(=O)[O-])cc5)c5nc(c(-c6ccc(S(=O)(=O)[O-])cc6)c6ccc3[nH]6)C=C5)C=C4)cc2)cc1
REMARK SMILES IDX 23 1 22 2 21 3 20 4 18 5 19 6 17 8 12 9 13 10 14 11 15 12
REMARK SMILES IDX 16 13 10 14 9 15 11 17 7 18 8 19 6 20 3 21 4 22 91 23 5 24
REMARK SMILES IDX 90 25 2 26 1 27 24 28 25 29 26 30 27 31 28 32 29 34 30 35
REMARK SMILES IDX 31 36 89 37 32 38 88 39 33 40 34 41 35 42 82 43 36 44 87 45
REMARK SMILES IDX 81 46 83 47 37 48 86 49 80 50 79 51 38 53 68 54 49 55 67 56
REMARK SMILES IDX 50 57 53 58 66 59 84 60 51 61 52 62 65 64 85 65 54 66 39 67
REMARK SMILES IDX 40 68 48 69 41 70 47 71 42 72 43 73 44 74 45 75 46 76 69 77
REMARK SMILES IDX 70 78 78 79 71 80 77 81 72 82 73 83 74 84 75 85 76 86 55 87
REMARK SMILES IDX 56 88 64 89 57 90 63 91 58 92 59 93 60 94 61 95 62 96
REMARK H PARENT 20 7 9 16 27 33 83 52 53 63
REMARK Flexibility Score: inf
ROOT
ATOM      1  C   UNL A   1      31.415  29.585  24.856  1.00  0.00     0.002 C 
ENDROOT
BRANCH   1   2
ATOM      2  C   UNL A   1      32.669  29.437  23.987  1.00  0.00     0.021 C 
BRANCH   2   3
ATOM      3  C   UNL A   1      32.406  28.762  22.644  1.00  0.00     0.116 C 
BRANCH   3   4
ATOM      4  N   UNL A   1      32.751  27.357  22.700  1.00  0.00    -0.351 N 
ATOM      5  C   UNL A   1      31.814  26.356  22.687  1.00  0.00     0.270 C 
ATOM      6  O   UNL A   1      31.664  25.734  21.636  1.00  0.00    -0.268 OA
ATOM      7  H   UNL A   1      33.703  27.109  22.748  1.00  0.00     0.163 HD
BRANCH   5   8
ATOM      8  C   UNL A   1      31.263  25.899  23.944  1.00  0.00     0.138 A 
ATOM      9  C   UNL A   1      31.941  25.094  24.865  1.00  0.00     0.090 A 
ATOM     10  C   UNL A   1      30.958  24.669  25.772  1.00  0.00     0.149 A 
ATOM     11  N   UNL A   1      29.791  25.271  25.571  1.00  0.00    -0.180 NA
ATOM     12  N   UNL A   1      30.004  26.043  24.483  1.00  0.00    -0.262 N 
ATOM     13  C   UNL A   1      28.886  26.834  24.034  1.00  0.00     0.174 C 
BRANCH   9  14
ATOM     14  C   UNL A   1      33.325  24.670  24.850  1.00  0.00     0.255 C 
ATOM     15  N   UNL A   1      33.642  23.415  24.395  1.00  0.00    -0.345 N 
ATOM     16  H   UNL A   1      34.570  23.135  24.567  1.00  0.00     0.164 HD
ATOM     17  O   UNL A   1      34.237  25.435  25.155  1.00  0.00    -0.269 OA
BRANCH  15  18
ATOM     18  C   UNL A   1      32.822  22.427  23.696  1.00  0.00     0.109 C 
ATOM     19  C   UNL A   1      32.884  22.735  22.195  1.00  0.00     0.036 C 
BRANCH  18  20
ATOM     20  C   UNL A   1      33.231  21.007  24.088  1.00  0.00    -0.026 A 
ATOM     21  C   UNL A   1      34.022  18.330  24.552  1.00  0.00     0.118 A 
ATOM     22  C   UNL A   1      32.794  18.600  23.963  1.00  0.00     0.047 A 
ATOM     23  C   UNL A   1      34.865  19.379  24.907  1.00  0.00     0.047 A 
ATOM     24  C   UNL A   1      32.400  19.923  23.748  1.00  0.00     0.009 A 
ATOM     25  C   UNL A   1      34.473  20.706  24.674  1.00  0.00     0.009 A 
BRANCH  21  26
ATOM     26  O   UNL A   1      34.380  17.014  24.655  1.00  0.00    -0.497 OA
ATOM     27  C   UNL A   1      34.234  16.305  23.428  1.00  0.00     0.278 C 
ENDBRANCH  21  26
ENDBRANCH  18  20
ENDBRANCH  15  18
ENDBRANCH   9  14
ENDBRANCH   5   8
ENDBRANCH   3   4
ENDBRANCH   2   3
ENDBRANCH   1   2
BRANCH   1  28
ATOM     28  C   UNL A   1      31.564  29.086  26.300  1.00  0.00     0.002 C 
BRANCH  28  29
ATOM     29  C   UNL A   1      32.659  28.038  26.522  1.00  0.00     0.021 C 
BRANCH  29  30
ATOM     30  C   UNL A   1      33.948  28.584  27.130  1.00  0.00     0.116 C 
BRANCH  30  31
ATOM     31  N   UNL A   1      33.817  29.983  27.499  1.00  0.00    -0.352 N 
ATOM     32  C   UNL A   1      34.674  30.772  28.226  1.00  0.00     0.251 C 
ATOM     33  H   UNL A   1      32.997  30.429  27.184  1.00  0.00     0.163 HD
ATOM     34  O   UNL A   1      34.298  31.865  28.638  1.00  0.00    -0.269 OA
BRANCH  32  35
ATOM     35  C   UNL A   1      36.044  30.298  28.517  1.00  0.00     0.039 A 
ATOM     36  C   UNL A   1      37.024  30.410  27.527  1.00  0.00     0.014 A 
ATOM     37  C   UNL A   1      36.355  29.724  29.754  1.00  0.00     0.014 A 
ATOM     38  C   UNL A   1      38.330  29.992  27.797  1.00  0.00     0.010 A 
ATOM     39  C   UNL A   1      37.670  29.368  30.042  1.00  0.00     0.010 A 
ATOM     40  C   UNL A   1      38.670  29.491  29.065  1.00  0.00    -0.014 A 
BRANCH  40  41
ATOM     41  C   UNL A   1      40.061  29.081  29.382  1.00  0.00     0.031 A 
ATOM     42  C   UNL A   1      41.001  30.054  30.043  1.00  0.00     0.074 A 
ATOM     43  C   UNL A   1      40.495  27.856  29.026  1.00  0.00     0.049 A 
ATOM     44  N   UNL A   1      42.269  29.906  30.333  1.00  0.00    -0.248 NA
ATOM     45  C   UNL A   1      40.452  31.371  30.404  1.00  0.00     0.031 C 
ATOM     46  C   UNL A   1      39.690  26.835  28.349  1.00  0.00     0.029 A 
ATOM     47  N   UNL A   1      41.723  27.263  29.177  1.00  0.00    -0.354 N 
ATOM     48  C   UNL A   1      42.669  31.110  30.904  1.00  0.00     0.074 A 
ATOM     49  C   UNL A   1      41.525  31.995  30.868  1.00  0.00     0.031 C 
ATOM     50  C   UNL A   1      40.441  25.738  28.159  1.00  0.00     0.029 A 
ATOM     51  C   UNL A   1      41.788  25.988  28.665  1.00  0.00     0.049 A 
ATOM     52  H   UNL A   1      42.487  27.709  29.610  1.00  0.00     0.167 HD
ATOM     53  C   UNL A   1      43.872  31.442  31.432  1.00  0.00     0.031 A 
ATOM     54  C   UNL A   1      42.816  25.121  28.601  1.00  0.00     0.031 A 
ATOM     55  C   UNL A   1      45.007  30.559  31.471  1.00  0.00     0.049 A 
ATOM     56  C   UNL A   1      44.148  25.519  29.178  1.00  0.00     0.074 A 
ATOM     57  C   UNL A   1      46.261  30.792  32.008  1.00  0.00     0.029 A 
ATOM     58  N   UNL A   1      45.024  29.271  30.957  1.00  0.00    -0.354 N 
ATOM     59  N   UNL A   1      44.492  26.647  29.753  1.00  0.00    -0.248 NA
ATOM     60  C   UNL A   1      45.226  24.523  29.109  1.00  0.00     0.031 C 
ATOM     61  C   UNL A   1      47.049  29.658  31.784  1.00  0.00     0.029 A 
ATOM     62  C   UNL A   1      46.271  28.701  31.155  1.00  0.00     0.049 A 
ATOM     63  H   UNL A   1      44.264  28.827  30.517  1.00  0.00     0.167 HD
ATOM     64  C   UNL A   1      45.818  26.484  30.139  1.00  0.00     0.074 A 
ATOM     65  C   UNL A   1      46.208  25.145  29.747  1.00  0.00     0.031 C 
ATOM     66  C   UNL A   1      46.640  27.364  30.762  1.00  0.00     0.031 A 
BRANCH  53  67
ATOM     67  C   UNL A   1      44.014  32.822  32.018  1.00  0.00    -0.014 A 
ATOM     68  C   UNL A   1      44.592  33.865  31.272  1.00  0.00     0.010 A 
ATOM     69  C   UNL A   1      43.530  33.092  33.310  1.00  0.00     0.010 A 
ATOM     70  C   UNL A   1      44.723  35.142  31.821  1.00  0.00     0.020 A 
ATOM     71  C   UNL A   1      43.633  34.377  33.854  1.00  0.00     0.020 A 
ATOM     72  C   UNL A   1      44.245  35.390  33.111  1.00  0.00     0.054 A 
BRANCH  72  73
ATOM     73  S   UNL A   1      44.407  37.063  33.792  1.00  0.00     0.124 S 
ATOM     74  O   UNL A   1      43.011  37.460  33.947  1.00  0.00    -0.237 OA
ATOM     75  O   UNL A   1      45.137  36.834  35.037  1.00  0.00    -0.237 OA
ATOM     76  O   UNL A   1      45.149  37.786  32.761  1.00  0.00    -0.744 OA
ENDBRANCH  72  73
ENDBRANCH  53  67
BRANCH  54  77
ATOM     77  C   UNL A   1      42.631  23.787  27.967  1.00  0.00    -0.014 A 
ATOM     78  C   UNL A   1      42.151  22.699  28.718  1.00  0.00     0.010 A 
ATOM     79  C   UNL A   1      42.940  23.597  26.608  1.00  0.00     0.010 A 
ATOM     80  C   UNL A   1      42.013  21.438  28.129  1.00  0.00     0.020 A 
ATOM     81  C   UNL A   1      42.776  22.345  26.009  1.00  0.00     0.020 A 
ATOM     82  C   UNL A   1      42.329  21.270  26.778  1.00  0.00     0.054 A 
BRANCH  82  83
ATOM     83  S   UNL A   1      42.114  19.632  26.024  1.00  0.00     0.124 S 
ATOM     84  O   UNL A   1      40.685  19.622  25.729  1.00  0.00    -0.237 OA
ATOM     85  O   UNL A   1      43.001  19.698  24.866  1.00  0.00    -0.237 OA
ATOM     86  O   UNL A   1      42.544  18.714  27.077  1.00  0.00    -0.744 OA
ENDBRANCH  82  83
ENDBRANCH  54  77
BRANCH  66  87
ATOM     87  C   UNL A   1      48.031  26.896  31.094  1.00  0.00    -0.014 A 
ATOM     88  C   UNL A   1      49.116  27.172  30.243  1.00  0.00     0.010 A 
ATOM     89  C   UNL A   1      48.263  26.214  32.303  1.00  0.00     0.010 A 
ATOM     90  C   UNL A   1      50.403  26.745  30.581  1.00  0.00     0.020 A 
ATOM     91  C   UNL A   1      49.552  25.810  32.656  1.00  0.00     0.020 A 
ATOM     92  C   UNL A   1      50.612  26.067  31.786  1.00  0.00     0.054 A 
BRANCH  92  93
ATOM     93  S   UNL A   1      52.300  25.564  32.223  1.00  0.00     0.124 S 
ATOM     94  O   UNL A   1      52.122  24.149  32.541  1.00  0.00    -0.237 OA
ATOM     95  O   UNL A   1      53.046  25.845  30.999  1.00  0.00    -0.237 OA
ATOM     96  O   UNL A   1      52.633  26.421  33.358  1.00  0.00    -0.744 OA
ENDBRANCH  92  93
ENDBRANCH  66  87
ENDBRANCH  40  41
ENDBRANCH  32  35
ENDBRANCH  30  31
ENDBRANCH  29  30
ENDBRANCH  28  29
ENDBRANCH   1  28
TORSDOF 20
ENDMDL
MODEL 3
REMARK VINA RESULT:     -10.2      5.580     10.930
REMARK SMILES COc1ccc([C@H](C)NC(=O)c2cnn(C)c2C(=O)NCCCCCCNC(=O)c2ccc(-c3c4nc(c(-c5ccc(S(=O)(=O)[O-])cc5)c5ccc([nH]5)c(-c5ccc(S(=O)(=O)[O-])cc5)c5nc(c(-c6ccc(S(=O)(=O)[O-])cc6)c6ccc3[nH]6)C=C5)C=C4)cc2)cc1
REMARK SMILES IDX 23 1 22 2 21 3 20 4 18 5 19 6 17 8 12 9 13 10 14 11 15 12
REMARK SMILES IDX 16 13 10 14 9 15 11 17 7 18 8 19 6 20 3 21 4 22 91 23 5 24
REMARK SMILES IDX 90 25 2 26 1 27 24 28 25 29 26 30 27 31 28 32 29 34 30 35
REMARK SMILES IDX 31 36 89 37 32 38 88 39 33 40 34 41 35 42 82 43 36 44 87 45
REMARK SMILES IDX 81 46 83 47 37 48 86 49 80 50 79 51 38 53 68 54 49 55 67 56
REMARK SMILES IDX 50 57 53 58 66 59 84 60 51 61 52 62 65 64 85 65 54 66 39 67
REMARK SMILES IDX 40 68 48 69 41 70 47 71 42 72 43 73 44 74 45 75 46 76 69 77
REMARK SMILES IDX 70 78 78 79 71 80 77 81 72 82 73 83 74 84 75 85 76 86 55 87
REMARK SMILES IDX 56 88 64 89 57 90 63 91 58 92 59 93 60 94 61 95 62 96
REMARK H PARENT 20 7 9 16 27 33 83 52 53 63
REMARK Flexibility Score: inf
ROOT
ATOM      1  C   UNL A   1      32.321  28.372  26.164  1.00  0.00     0.002 C 
ENDROOT
BRANCH   1   2
ATOM      2  C   UNL A   1      32.289  28.683  24.663  1.00  0.00     0.021 C 
BRANCH   2   3
ATOM      3  C   UNL A   1      31.529  27.647  23.840  1.00  0.00     0.116 C 
BRANCH   3   4
ATOM      4  N   UNL A   1      32.309  26.436  23.693  1.00  0.00    -0.351 N 
ATOM      5  C   UNL A   1      31.757  25.182  23.737  1.00  0.00     0.270 C 
ATOM      6  O   UNL A   1      31.613  24.588  22.669  1.00  0.00    -0.268 OA
ATOM      7  H   UNL A   1      33.280  26.517  23.553  1.00  0.00     0.163 HD
BRANCH   5   8
ATOM      8  C   UNL A   1      31.635  24.517  25.016  1.00  0.00     0.138 A 
ATOM      9  C   UNL A   1      32.460  23.476  25.454  1.00  0.00     0.090 A 
ATOM     10  C   UNL A   1      31.820  22.956  26.590  1.00  0.00     0.149 A 
ATOM     11  N   UNL A   1      30.776  23.689  26.961  1.00  0.00    -0.180 NA
ATOM     12  N   UNL A   1      30.703  24.654  26.019  1.00  0.00    -0.262 N 
ATOM     13  C   UNL A   1      29.644  25.620  26.178  1.00  0.00     0.174 C 
BRANCH   9  14
ATOM     14  C   UNL A   1      33.653  22.942  24.831  1.00  0.00     0.255 C 
ATOM     15  N   UNL A   1      33.612  21.704  24.242  1.00  0.00    -0.345 N 
ATOM     16  H   UNL A   1      34.489  21.337  23.989  1.00  0.00     0.164 HD
ATOM     17  O   UNL A   1      34.684  23.605  24.738  1.00  0.00    -0.269 OA
BRANCH  15  18
ATOM     18  C   UNL A   1      32.472  20.841  23.931  1.00  0.00     0.109 C 
ATOM     19  C   UNL A   1      31.977  21.197  22.525  1.00  0.00     0.036 C 
BRANCH  18  20
ATOM     20  C   UNL A   1      32.831  19.370  24.145  1.00  0.00    -0.026 A 
ATOM     21  C   UNL A   1      33.240  16.610  24.612  1.00  0.00     0.118 A 
ATOM     22  C   UNL A   1      33.013  17.469  25.678  1.00  0.00     0.047 A 
ATOM     23  C   UNL A   1      33.258  17.109  23.312  1.00  0.00     0.047 A 
ATOM     24  C   UNL A   1      32.825  18.833  25.446  1.00  0.00     0.009 A 
ATOM     25  C   UNL A   1      33.053  18.478  23.082  1.00  0.00     0.009 A 
BRANCH  21  26
ATOM     26  O   UNL A   1      33.330  15.277  24.903  1.00  0.00    -0.497 OA
ATOM     27  C   UNL A   1      32.238  14.809  25.690  1.00  0.00     0.278 C 
ENDBRANCH  21  26
ENDBRANCH  18  20
ENDBRANCH  15  18
ENDBRANCH   9  14
ENDBRANCH   5   8
ENDBRANCH   3   4
ENDBRANCH   2   3
ENDBRANCH   1   2
BRANCH   1  28
ATOM     28  C   UNL A   1      31.901  29.532  27.076  1.00  0.00     0.002 C 
BRANCH  28  29
ATOM     29  C   UNL A   1      32.288  30.929  26.581  1.00  0.00     0.021 C 
BRANCH  29  30
ATOM     30  C   UNL A   1      33.324  31.645  27.443  1.00  0.00     0.116 C 
BRANCH  30  31
ATOM     31  N   UNL A   1      32.969  33.037  27.665  1.00  0.00    -0.352 N 
ATOM     32  C   UNL A   1      33.470  33.923  28.585  1.00  0.00     0.251 C 
ATOM     33  H   UNL A   1      32.269  33.394  27.072  1.00  0.00     0.163 HD
ATOM     34  O   UNL A   1      32.894  34.988  28.785  1.00  0.00    -0.269 OA
BRANCH  32  35
ATOM     35  C   UNL A   1      34.698  33.588  29.339  1.00  0.00     0.039 A 
ATOM     36  C   UNL A   1      34.603  32.743  30.447  1.00  0.00     0.014 A 
ATOM     37  C   UNL A   1      35.934  34.127  28.968  1.00  0.00     0.014 A 
ATOM     38  C   UNL A   1      35.758  32.397  31.153  1.00  0.00     0.010 A 
ATOM     39  C   UNL A   1      37.091  33.730  29.633  1.00  0.00     0.010 A 
ATOM     40  C   UNL A   1      37.015  32.866  30.736  1.00  0.00    -0.014 A 
BRANCH  40  41
ATOM     41  C   UNL A   1      38.258  32.475  31.449  1.00  0.00     0.031 A 
ATOM     42  C   UNL A   1      39.137  31.389  30.890  1.00  0.00     0.074 A 
ATOM     43  C   UNL A   1      38.564  33.056  32.626  1.00  0.00     0.049 A 
ATOM     44  N   UNL A   1      40.219  30.861  31.402  1.00  0.00    -0.248 NA
ATOM     45  C   UNL A   1      38.737  30.806  29.599  1.00  0.00     0.031 C 
ATOM     46  C   UNL A   1      37.774  34.096  33.290  1.00  0.00     0.029 A 
ATOM     47  N   UNL A   1      39.620  32.848  33.478  1.00  0.00    -0.354 N 
ATOM     48  C   UNL A   1      40.625  29.882  30.501  1.00  0.00     0.074 A 
ATOM     49  C   UNL A   1      39.643  29.851  29.440  1.00  0.00     0.031 C 
ATOM     50  C   UNL A   1      38.381  34.446  34.436  1.00  0.00     0.029 A 
ATOM     51  C   UNL A   1      39.581  33.632  34.607  1.00  0.00     0.049 A 
ATOM     52  H   UNL A   1      40.337  32.198  33.298  1.00  0.00     0.167 HD
ATOM     53  C   UNL A   1      41.727  29.094  30.540  1.00  0.00     0.031 A 
ATOM     54  C   UNL A   1      40.412  33.685  35.666  1.00  0.00     0.031 A 
ATOM     55  C   UNL A   1      42.706  29.129  31.594  1.00  0.00     0.049 A 
ATOM     56  C   UNL A   1      41.620  32.789  35.695  1.00  0.00     0.074 A 
ATOM     57  C   UNL A   1      43.871  28.391  31.711  1.00  0.00     0.029 A 
ATOM     58  N   UNL A   1      42.638  29.949  32.709  1.00  0.00    -0.354 N 
ATOM     59  N   UNL A   1      42.009  31.901  34.811  1.00  0.00    -0.248 NA
ATOM     60  C   UNL A   1      42.509  32.910  36.859  1.00  0.00     0.031 C 
ATOM     61  C   UNL A   1      44.487  28.737  32.919  1.00  0.00     0.029 A 
ATOM     62  C   UNL A   1      43.734  29.728  33.526  1.00  0.00     0.049 A 
ATOM     63  H   UNL A   1      41.917  30.593  32.894  1.00  0.00     0.167 HD
ATOM     64  C   UNL A   1      43.201  31.379  35.299  1.00  0.00     0.074 A 
ATOM     65  C   UNL A   1      43.478  32.060  36.547  1.00  0.00     0.031 C 
ATOM     66  C   UNL A   1      43.996  30.420  34.763  1.00  0.00     0.031 A 
BRANCH  53  67
ATOM     67  C   UNL A   1      41.934  28.133  29.399  1.00  0.00    -0.014 A 
ATOM     68  C   UNL A   1      41.456  26.812  29.475  1.00  0.00     0.010 A 
ATOM     69  C   UNL A   1      42.574  28.562  28.222  1.00  0.00     0.010 A 
ATOM     70  C   UNL A   1      41.651  25.925  28.414  1.00  0.00     0.020 A 
ATOM     71  C   UNL A   1      42.746  27.686  27.146  1.00  0.00     0.020 A 
ATOM     72  C   UNL A   1      42.298  26.367  27.257  1.00  0.00     0.054 A 
BRANCH  72  73
ATOM     73  S   UNL A   1      42.518  25.200  25.885  1.00  0.00     0.124 S 
ATOM     74  O   UNL A   1      43.785  24.563  26.235  1.00  0.00    -0.237 OA
ATOM     75  O   UNL A   1      41.336  24.348  25.996  1.00  0.00    -0.237 OA
ATOM     76  O   UNL A   1      42.558  26.057  24.703  1.00  0.00    -0.744 OA
ENDBRANCH  72  73
ENDBRANCH  53  67
BRANCH  54  77
ATOM     77  C   UNL A   1      40.134  34.622  36.788  1.00  0.00    -0.014 A 
ATOM     78  C   UNL A   1      40.754  35.883  36.839  1.00  0.00     0.010 A 
ATOM     79  C   UNL A   1      39.248  34.254  37.818  1.00  0.00     0.010 A 
ATOM     80  C   UNL A   1      40.519  36.745  37.914  1.00  0.00     0.020 A 
ATOM     81  C   UNL A   1      38.988  35.125  38.879  1.00  0.00     0.020 A 
ATOM     82  C   UNL A   1      39.638  36.359  38.929  1.00  0.00     0.054 A 
BRANCH  82  83
ATOM     83  S   UNL A   1      39.322  37.506  40.300  1.00  0.00     0.124 S 
ATOM     84  O   UNL A   1      40.645  38.077  40.526  1.00  0.00    -0.237 OA
ATOM     85  O   UNL A   1      38.327  38.411  39.733  1.00  0.00    -0.237 OA
ATOM     86  O   UNL A   1      38.824  36.634  41.363  1.00  0.00    -0.744 OA
ENDBRANCH  82  83
ENDBRANCH  54  77
BRANCH  66  87
ATOM     87  C   UNL A   1      45.262  30.077  35.502  1.00  0.00    -0.014 A 
ATOM     88  C   UNL A   1      46.435  30.832  35.328  1.00  0.00     0.010 A 
ATOM     89  C   UNL A   1      45.259  29.014  36.423  1.00  0.00     0.010 A 
ATOM     90  C   UNL A   1      47.593  30.508  36.040  1.00  0.00     0.020 A 
ATOM     91  C   UNL A   1      46.407  28.705  37.156  1.00  0.00     0.020 A 
ATOM     92  C   UNL A   1      47.571  29.447  36.950  1.00  0.00     0.054 A 
BRANCH  92  93
ATOM     93  S   UNL A   1      49.074  29.076  37.895  1.00  0.00     0.124 S 
ATOM     94  O   UNL A   1      49.612  30.410  38.148  1.00  0.00    -0.237 OA
ATOM     95  O   UNL A   1      48.552  28.377  39.067  1.00  0.00    -0.237 OA
ATOM     96  O   UNL A   1      49.861  28.248  36.984  1.00  0.00    -0.744 OA
ENDBRANCH  92  93
ENDBRANCH  66  87
ENDBRANCH  40  41
ENDBRANCH  32  35
ENDBRANCH  30  31
ENDBRANCH  29  30
ENDBRANCH  28  29
ENDBRANCH   1  28
TORSDOF 20
ENDMDL
