MODEL 1
REMARK VINA RESULT:     -12.3      0.000      0.000
REMARK SMILES Cc1cccc([C@H]([NH3+])[C@H](O)C(=O)NCCCCCCNC(=O)c2ccc(-c3c4nc(c(-c5ccc(S(=O)(=O)[O-])cc5)c5ccc([nH]5)c(-c5ccc(S(=O)(=O)[O-])cc5)c5nc(c(-c6ccc(S(=O)(=O)[O-])cc6)c6ccc3[nH]6)C=C5)C=C4)cc2)c1
REMARK SMILES IDX 17 1 16 2 15 3 14 4 13 5 11 6 12 7 9 9 7 10 6 11 1 12 2 13
REMARK SMILES IDX 3 14 83 15 4 16 5 17 8 18 10 22 18 24 19 25 20 26 21 27
REMARK SMILES IDX 22 29 23 30 24 31 82 32 25 33 81 34 26 35 27 36 28 37 75 38
REMARK SMILES IDX 29 39 80 40 74 41 76 42 30 43 79 44 73 45 72 46 31 48 61 49
REMARK SMILES IDX 42 50 60 51 43 52 46 53 59 54 77 55 44 56 45 57 58 59 78 60
REMARK SMILES IDX 47 61 32 62 33 63 41 64 34 65 40 66 35 67 36 68 37 69 38 70
REMARK SMILES IDX 39 71 62 72 63 73 71 74 64 75 70 76 65 77 66 78 67 79 68 80
REMARK SMILES IDX 69 81 48 82 49 83 57 84 50 85 56 86 51 87 52 88 53 89 54 90
REMARK SMILES IDX 55 91
REMARK H PARENT 13 8 8 19 8 20 8 21 10 23 20 28 76 47 46 58
REMARK Flexibility Score: inf
ROOT
ATOM      1  C   UNL A   1      36.974  22.447  23.993  1.00  0.00     0.002 C 
ENDROOT
BRANCH   1   2
ATOM      2  C   UNL A   1      35.500  22.874  24.074  1.00  0.00     0.002 C 
BRANCH   2   3
ATOM      3  C   UNL A   1      35.154  24.125  24.891  1.00  0.00     0.021 C 
BRANCH   3   4
ATOM      4  C   UNL A   1      34.292  23.928  26.133  1.00  0.00     0.116 C 
BRANCH   4   5
ATOM      5  N   UNL A   1      32.891  23.686  25.883  1.00  0.00    -0.354 N 
ATOM      6  C   UNL A   1      32.245  22.482  25.903  1.00  0.00     0.255 C 
ATOM      7  O   UNL A   1      31.009  22.489  25.937  1.00  0.00    -0.272 OA
ATOM      8  H   UNL A   1      32.340  24.475  25.676  1.00  0.00     0.163 HD
BRANCH   6   9
ATOM      9  C   UNL A   1      33.017  21.137  25.910  1.00  0.00     0.266 C 
BRANCH   9  10
ATOM     10  C   UNL A   1      32.362  20.059  24.973  1.00  0.00     0.250 C 
BRANCH  10  11
ATOM     11  C   UNL A   1      33.080  18.712  24.900  1.00  0.00     0.013 A 
ATOM     12  C   UNL A   1      32.430  15.018  25.664  1.00  0.00     0.044 C 
ATOM     13  C   UNL A   1      33.107  16.281  25.221  1.00  0.00    -0.051 A 
ATOM     14  C   UNL A   1      34.395  16.230  24.680  1.00  0.00     0.003 A 
ATOM     15  C   UNL A   1      32.455  17.519  25.313  1.00  0.00     0.013 A 
ATOM     16  C   UNL A   1      35.043  17.402  24.300  1.00  0.00     0.001 A 
ATOM     17  C   UNL A   1      34.402  18.636  24.438  1.00  0.00     0.010 A 
ENDBRANCH  10  11
BRANCH  10  18
ATOM     18  N   UNL A   1      32.226  20.583  23.587  1.00  0.00    -0.349 N 
ATOM     19  H   UNL A   1      32.731  21.465  23.507  1.00  0.00     0.345 HD
ATOM     20  H   UNL A   1      31.240  20.735  23.377  1.00  0.00     0.345 HD
ATOM     21  H   UNL A   1      32.614  19.907  22.929  1.00  0.00     0.345 HD
ENDBRANCH  10  18
ENDBRANCH   9  10
BRANCH   9  22
ATOM     22  O   UNL A   1      33.354  20.680  27.215  1.00  0.00    -0.378 OA
ATOM     23  H   UNL A   1      34.315  20.732  27.338  1.00  0.00     0.211 HD
ENDBRANCH   9  22
ENDBRANCH   6   9
ENDBRANCH   4   5
ENDBRANCH   3   4
ENDBRANCH   2   3
ENDBRANCH   1   2
BRANCH   1  24
ATOM     24  C   UNL A   1      37.675  22.080  25.301  1.00  0.00     0.021 C 
BRANCH  24  25
ATOM     25  C   UNL A   1      38.190  23.266  26.108  1.00  0.00     0.116 C 
BRANCH  25  26
ATOM     26  N   UNL A   1      39.428  22.975  26.813  1.00  0.00    -0.352 N 
ATOM     27  C   UNL A   1      40.304  23.881  27.423  1.00  0.00     0.251 C 
ATOM     28  H   UNL A   1      39.679  22.025  26.870  1.00  0.00     0.163 HD
ATOM     29  O   UNL A   1      41.398  23.593  27.800  1.00  0.00    -0.269 OA
BRANCH  27  30
ATOM     30  C   UNL A   1      39.734  25.222  27.679  1.00  0.00     0.039 A 
ATOM     31  C   UNL A   1      40.213  26.271  26.885  1.00  0.00     0.014 A 
ATOM     32  C   UNL A   1      39.026  25.459  28.853  1.00  0.00     0.014 A 
ATOM     33  C   UNL A   1      40.148  27.572  27.371  1.00  0.00     0.010 A 
ATOM     34  C   UNL A   1      39.044  26.738  29.375  1.00  0.00     0.010 A 
ATOM     35  C   UNL A   1      39.652  27.780  28.658  1.00  0.00    -0.014 A 
BRANCH  35  36
ATOM     36  C   UNL A   1      39.820  29.033  29.382  1.00  0.00     0.031 A 
ATOM     37  C   UNL A   1      38.796  30.093  29.272  1.00  0.00     0.074 A 
ATOM     38  C   UNL A   1      40.873  29.206  30.212  1.00  0.00     0.049 A 
ATOM     39  N   UNL A   1      39.031  31.346  29.473  1.00  0.00    -0.248 NA
ATOM     40  C   UNL A   1      37.417  29.820  28.878  1.00  0.00     0.031 C 
ATOM     41  C   UNL A   1      41.040  30.264  31.206  1.00  0.00     0.029 A 
ATOM     42  N   UNL A   1      42.122  28.579  30.181  1.00  0.00    -0.354 N 
ATOM     43  C   UNL A   1      37.813  31.977  29.558  1.00  0.00     0.074 A 
ATOM     44  C   UNL A   1      36.846  31.010  29.092  1.00  0.00     0.031 C 
ATOM     45  C   UNL A   1      42.350  30.417  31.452  1.00  0.00     0.029 A 
ATOM     46  C   UNL A   1      43.063  29.567  30.514  1.00  0.00     0.049 A 
ATOM     47  H   UNL A   1      42.305  27.636  29.967  1.00  0.00     0.167 HD
ATOM     48  C   UNL A   1      37.721  33.197  30.157  1.00  0.00     0.031 A 
ATOM     49  C   UNL A   1      44.063  29.977  29.679  1.00  0.00     0.031 A 
ATOM     50  C   UNL A   1      39.022  33.701  30.590  1.00  0.00     0.049 A 
ATOM     51  C   UNL A   1      44.019  31.463  29.359  1.00  0.00     0.074 A 
ATOM     52  C   UNL A   1      39.657  33.801  31.818  1.00  0.00     0.029 A 
ATOM     53  N   UNL A   1      39.998  33.938  29.635  1.00  0.00    -0.354 N 
ATOM     54  N   UNL A   1      43.084  32.281  29.758  1.00  0.00    -0.248 NA
ATOM     55  C   UNL A   1      44.979  32.123  28.479  1.00  0.00     0.031 C 
ATOM     56  C   UNL A   1      41.029  34.106  31.588  1.00  0.00     0.029 A 
ATOM     57  C   UNL A   1      41.221  34.206  30.224  1.00  0.00     0.049 A 
ATOM     58  H   UNL A   1      39.843  33.916  28.663  1.00  0.00     0.167 HD
ATOM     59  C   UNL A   1      43.255  33.515  29.178  1.00  0.00     0.074 A 
ATOM     60  C   UNL A   1      44.463  33.362  28.386  1.00  0.00     0.031 C 
ATOM     61  C   UNL A   1      42.358  34.532  29.370  1.00  0.00     0.031 A 
BRANCH  48  62
ATOM     62  C   UNL A   1      36.398  33.786  30.587  1.00  0.00    -0.014 A 
ATOM     63  C   UNL A   1      35.429  34.111  29.617  1.00  0.00     0.010 A 
ATOM     64  C   UNL A   1      36.070  34.082  31.924  1.00  0.00     0.010 A 
ATOM     65  C   UNL A   1      34.249  34.793  29.945  1.00  0.00     0.020 A 
ATOM     66  C   UNL A   1      34.910  34.799  32.264  1.00  0.00     0.020 A 
ATOM     67  C   UNL A   1      34.011  35.162  31.266  1.00  0.00     0.054 A 
BRANCH  67  68
ATOM     68  S   UNL A   1      32.528  36.131  31.653  1.00  0.00     0.124 S 
ATOM     69  O   UNL A   1      32.008  36.456  30.327  1.00  0.00    -0.237 OA
ATOM     70  O   UNL A   1      31.730  35.185  32.427  1.00  0.00    -0.237 OA
ATOM     71  O   UNL A   1      33.046  37.271  32.406  1.00  0.00    -0.744 OA
ENDBRANCH  67  68
ENDBRANCH  48  62
BRANCH  49  72
ATOM     72  C   UNL A   1      44.553  28.915  28.752  1.00  0.00    -0.014 A 
ATOM     73  C   UNL A   1      43.882  28.764  27.518  1.00  0.00     0.010 A 
ATOM     74  C   UNL A   1      45.849  28.389  28.888  1.00  0.00     0.010 A 
ATOM     75  C   UNL A   1      44.548  28.248  26.402  1.00  0.00     0.020 A 
ATOM     76  C   UNL A   1      46.517  27.866  27.770  1.00  0.00     0.020 A 
ATOM     77  C   UNL A   1      45.882  27.858  26.524  1.00  0.00     0.054 A 
BRANCH  77  78
ATOM     78  S   UNL A   1      46.819  27.528  25.000  1.00  0.00     0.124 S 
ATOM     79  O   UNL A   1      46.681  28.785  24.272  1.00  0.00    -0.237 OA
ATOM     80  O   UNL A   1      48.158  27.244  25.517  1.00  0.00    -0.237 OA
ATOM     81  O   UNL A   1      46.123  26.384  24.421  1.00  0.00    -0.744 OA
ENDBRANCH  77  78
ENDBRANCH  49  72
BRANCH  61  82
ATOM     82  C   UNL A   1      42.396  35.926  28.761  1.00  0.00    -0.014 A 
ATOM     83  C   UNL A   1      41.867  36.276  27.511  1.00  0.00     0.010 A 
ATOM     84  C   UNL A   1      43.069  36.961  29.463  1.00  0.00     0.010 A 
ATOM     85  C   UNL A   1      41.929  37.598  27.032  1.00  0.00     0.020 A 
ATOM     86  C   UNL A   1      43.150  38.275  28.996  1.00  0.00     0.020 A 
ATOM     87  C   UNL A   1      42.560  38.591  27.784  1.00  0.00     0.054 A 
BRANCH  87  88
ATOM     88  S   UNL A   1      42.615  40.285  27.150  1.00  0.00     0.124 S 
ATOM     89  O   UNL A   1      41.246  40.486  26.685  1.00  0.00    -0.237 OA
ATOM     90  O   UNL A   1      42.993  41.046  28.339  1.00  0.00    -0.237 OA
ATOM     91  O   UNL A   1      43.627  40.236  26.099  1.00  0.00    -0.744 OA
ENDBRANCH  87  88
ENDBRANCH  61  82
ENDBRANCH  35  36
ENDBRANCH  27  30
ENDBRANCH  25  26
ENDBRANCH  24  25
ENDBRANCH   1  24
TORSDOF 20
ENDMDL
MODEL 2
REMARK VINA RESULT:     -12.2      5.069     11.655
REMARK SMILES Cc1cccc([C@H]([NH3+])[C@H](O)C(=O)NCCCCCCNC(=O)c2ccc(-c3c4nc(c(-c5ccc(S(=O)(=O)[O-])cc5)c5ccc([nH]5)c(-c5ccc(S(=O)(=O)[O-])cc5)c5nc(c(-c6ccc(S(=O)(=O)[O-])cc6)c6ccc3[nH]6)C=C5)C=C4)cc2)c1
REMARK SMILES IDX 17 1 16 2 15 3 14 4 13 5 11 6 12 7 9 9 7 10 6 11 1 12 2 13
REMARK SMILES IDX 3 14 83 15 4 16 5 17 8 18 10 22 18 24 19 25 20 26 21 27
REMARK SMILES IDX 22 29 23 30 24 31 82 32 25 33 81 34 26 35 27 36 28 37 75 38
REMARK SMILES IDX 29 39 80 40 74 41 76 42 30 43 79 44 73 45 72 46 31 48 61 49
REMARK SMILES IDX 42 50 60 51 43 52 46 53 59 54 77 55 44 56 45 57 58 59 78 60
REMARK SMILES IDX 47 61 32 62 33 63 41 64 34 65 40 66 35 67 36 68 37 69 38 70
REMARK SMILES IDX 39 71 62 72 63 73 71 74 64 75 70 76 65 77 66 78 67 79 68 80
REMARK SMILES IDX 69 81 48 82 49 83 57 84 50 85 56 86 51 87 52 88 53 89 54 90
REMARK SMILES IDX 55 91
REMARK H PARENT 13 8 8 19 8 20 8 21 10 23 20 28 76 47 46 58
REMARK Flexibility Score: inf
ROOT
ATOM      1  C   UNL A   1      32.283  28.618  26.125  1.00  0.00     0.002 C 
ENDROOT
BRANCH   1   2
ATOM      2  C   UNL A   1      32.778  27.247  26.610  1.00  0.00     0.002 C 
BRANCH   2   3
ATOM      3  C   UNL A   1      32.057  25.996  26.096  1.00  0.00     0.021 C 
BRANCH   3   4
ATOM      4  C   UNL A   1      32.736  24.652  26.340  1.00  0.00     0.116 C 
BRANCH   4   5
ATOM      5  N   UNL A   1      32.067  23.506  25.771  1.00  0.00    -0.354 N 
ATOM      6  C   UNL A   1      32.551  22.658  24.816  1.00  0.00     0.255 C 
ATOM      7  O   UNL A   1      31.963  21.584  24.645  1.00  0.00    -0.272 OA
ATOM      8  H   UNL A   1      31.162  23.315  26.109  1.00  0.00     0.163 HD
BRANCH   6   9
ATOM      9  C   UNL A   1      33.811  22.999  23.979  1.00  0.00     0.266 C 
BRANCH   9  10
ATOM     10  C   UNL A   1      33.457  23.620  22.579  1.00  0.00     0.250 C 
BRANCH  10  11
ATOM     11  C   UNL A   1      32.881  25.034  22.602  1.00  0.00     0.013 A 
ATOM     12  C   UNL A   1      34.078  28.667  22.751  1.00  0.00     0.044 C 
ATOM     13  C   UNL A   1      33.182  27.467  22.671  1.00  0.00    -0.051 A 
ATOM     14  C   UNL A   1      31.799  27.635  22.559  1.00  0.00     0.003 A 
ATOM     15  C   UNL A   1      33.712  26.169  22.677  1.00  0.00     0.013 A 
ATOM     16  C   UNL A   1      30.958  26.526  22.521  1.00  0.00     0.001 A 
ATOM     17  C   UNL A   1      31.493  25.237  22.573  1.00  0.00     0.010 A 
ENDBRANCH  10  11
BRANCH  10  18
ATOM     18  N   UNL A   1      32.503  22.746  21.846  1.00  0.00    -0.349 N 
ATOM     19  H   UNL A   1      31.600  23.213  21.775  1.00  0.00     0.345 HD
ATOM     20  H   UNL A   1      32.392  21.866  22.350  1.00  0.00     0.345 HD
ATOM     21  H   UNL A   1      32.863  22.559  20.910  1.00  0.00     0.345 HD
ENDBRANCH  10  18
ENDBRANCH   9  10
BRANCH   9  22
ATOM     22  O   UNL A   1      34.776  21.953  23.950  1.00  0.00    -0.378 OA
ATOM     23  H   UNL A   1      35.655  22.329  23.785  1.00  0.00     0.211 HD
ENDBRANCH   9  22
ENDBRANCH   6   9
ENDBRANCH   4   5
ENDBRANCH   3   4
ENDBRANCH   2   3
ENDBRANCH   1   2
BRANCH   1  24
ATOM     24  C   UNL A   1      33.253  29.795  26.225  1.00  0.00     0.021 C 
BRANCH  24  25
ATOM     25  C   UNL A   1      34.438  29.572  27.157  1.00  0.00     0.116 C 
BRANCH  25  26
ATOM     26  N   UNL A   1      35.107  30.809  27.526  1.00  0.00    -0.352 N 
ATOM     27  C   UNL A   1      36.370  30.963  28.112  1.00  0.00     0.251 C 
ATOM     28  H   UNL A   1      34.612  31.640  27.342  1.00  0.00     0.163 HD
ATOM     29  O   UNL A   1      36.765  31.988  28.575  1.00  0.00    -0.269 OA
BRANCH  27  30
ATOM     30  C   UNL A   1      37.249  29.776  28.017  1.00  0.00     0.039 A 
ATOM     31  C   UNL A   1      37.347  28.975  29.161  1.00  0.00     0.014 A 
ATOM     32  C   UNL A   1      38.161  29.674  26.972  1.00  0.00     0.014 A 
ATOM     33  C   UNL A   1      38.484  28.195  29.344  1.00  0.00     0.010 A 
ATOM     34  C   UNL A   1      39.329  28.971  27.197  1.00  0.00     0.010 A 
ATOM     35  C   UNL A   1      39.511  28.279  28.403  1.00  0.00    -0.014 A 
BRANCH  35  36
ATOM     36  C   UNL A   1      40.852  27.761  28.641  1.00  0.00     0.031 A 
ATOM     37  C   UNL A   1      41.183  26.371  28.267  1.00  0.00     0.074 A 
ATOM     38  C   UNL A   1      41.816  28.567  29.138  1.00  0.00     0.049 A 
ATOM     39  N   UNL A   1      42.131  25.684  28.811  1.00  0.00    -0.248 NA
ATOM     40  C   UNL A   1      40.432  25.623  27.263  1.00  0.00     0.031 C 
ATOM     41  C   UNL A   1      43.252  28.295  29.173  1.00  0.00     0.029 A 
ATOM     42  N   UNL A   1      41.676  29.718  29.918  1.00  0.00    -0.354 N 
ATOM     43  C   UNL A   1      42.321  24.568  28.032  1.00  0.00     0.074 A 
ATOM     44  C   UNL A   1      41.187  24.526  27.138  1.00  0.00     0.031 C 
ATOM     45  C   UNL A   1      43.803  29.031  30.151  1.00  0.00     0.029 A 
ATOM     46  C   UNL A   1      42.714  29.678  30.864  1.00  0.00     0.049 A 
ATOM     47  H   UNL A   1      40.989  30.416  29.824  1.00  0.00     0.167 HD
ATOM     48  C   UNL A   1      43.492  23.875  28.111  1.00  0.00     0.031 A 
ATOM     49  C   UNL A   1      42.511  29.623  32.213  1.00  0.00     0.031 A 
ATOM     50  C   UNL A   1      44.395  24.428  29.118  1.00  0.00     0.049 A 
ATOM     51  C   UNL A   1      43.133  28.403  32.874  1.00  0.00     0.074 A 
ATOM     52  C   UNL A   1      45.540  25.206  29.064  1.00  0.00     0.029 A 
ATOM     53  N   UNL A   1      43.991  24.437  30.445  1.00  0.00    -0.354 N 
ATOM     54  N   UNL A   1      43.737  27.439  32.234  1.00  0.00    -0.248 NA
ATOM     55  C   UNL A   1      43.036  28.128  34.305  1.00  0.00     0.031 C 
ATOM     56  C   UNL A   1      45.823  25.679  30.376  1.00  0.00     0.029 A 
ATOM     57  C   UNL A   1      44.858  25.176  31.228  1.00  0.00     0.049 A 
ATOM     58  H   UNL A   1      43.189  23.978  30.785  1.00  0.00     0.167 HD
ATOM     59  C   UNL A   1      44.052  26.420  33.101  1.00  0.00     0.074 A 
ATOM     60  C   UNL A   1      43.591  26.906  34.390  1.00  0.00     0.031 C 
ATOM     61  C   UNL A   1      44.620  25.252  32.665  1.00  0.00     0.031 A 
BRANCH  48  62
ATOM     62  C   UNL A   1      43.905  22.867  27.066  1.00  0.00    -0.014 A 
ATOM     63  C   UNL A   1      42.992  21.877  26.650  1.00  0.00     0.010 A 
ATOM     64  C   UNL A   1      45.189  22.817  26.489  1.00  0.00     0.010 A 
ATOM     65  C   UNL A   1      43.368  20.832  25.796  1.00  0.00     0.020 A 
ATOM     66  C   UNL A   1      45.591  21.756  25.662  1.00  0.00     0.020 A 
ATOM     67  C   UNL A   1      44.678  20.759  25.331  1.00  0.00     0.054 A 
BRANCH  67  68
ATOM     68  S   UNL A   1      45.170  19.344  24.308  1.00  0.00     0.124 S 
ATOM     69  O   UNL A   1      46.618  19.513  24.212  1.00  0.00    -0.237 OA
ATOM     70  O   UNL A   1      44.720  18.209  25.109  1.00  0.00    -0.237 OA
ATOM     71  O   UNL A   1      44.442  19.551  23.058  1.00  0.00    -0.744 OA
ENDBRANCH  67  68
ENDBRANCH  48  62
BRANCH  49  72
ATOM     72  C   UNL A   1      41.261  30.299  32.666  1.00  0.00    -0.014 A 
ATOM     73  C   UNL A   1      40.171  29.479  33.036  1.00  0.00     0.010 A 
ATOM     74  C   UNL A   1      41.289  31.630  33.114  1.00  0.00     0.010 A 
ATOM     75  C   UNL A   1      39.222  29.926  33.960  1.00  0.00     0.020 A 
ATOM     76  C   UNL A   1      40.334  32.083  34.038  1.00  0.00     0.020 A 
ATOM     77  C   UNL A   1      39.346  31.207  34.500  1.00  0.00     0.054 A 
BRANCH  77  78
ATOM     78  S   UNL A   1      38.322  31.631  35.942  1.00  0.00     0.124 S 
ATOM     79  O   UNL A   1      38.132  30.333  36.581  1.00  0.00    -0.237 OA
ATOM     80  O   UNL A   1      39.180  32.570  36.665  1.00  0.00    -0.237 OA
ATOM     81  O   UNL A   1      37.128  32.218  35.342  1.00  0.00    -0.744 OA
ENDBRANCH  77  78
ENDBRANCH  49  72
BRANCH  61  82
ATOM     82  C   UNL A   1      44.978  24.031  33.498  1.00  0.00    -0.014 A 
ATOM     83  C   UNL A   1      44.184  22.884  33.633  1.00  0.00     0.010 A 
ATOM     84  C   UNL A   1      46.176  24.051  34.261  1.00  0.00     0.010 A 
ATOM     85  C   UNL A   1      44.605  21.788  34.411  1.00  0.00     0.020 A 
ATOM     86  C   UNL A   1      46.601  22.977  35.047  1.00  0.00     0.020 A 
ATOM     87  C   UNL A   1      45.815  21.838  35.103  1.00  0.00     0.054 A 
BRANCH  87  88
ATOM     88  S   UNL A   1      46.337  20.411  36.086  1.00  0.00     0.124 S 
ATOM     89  O   UNL A   1      46.146  20.890  37.452  1.00  0.00    -0.237 OA
ATOM     90  O   UNL A   1      45.403  19.377  35.647  1.00  0.00    -0.237 OA
ATOM     91  O   UNL A   1      47.726  20.199  35.690  1.00  0.00    -0.744 OA
ENDBRANCH  87  88
ENDBRANCH  61  82
ENDBRANCH  35  36
ENDBRANCH  27  30
ENDBRANCH  25  26
ENDBRANCH  24  25
ENDBRANCH   1  24
TORSDOF 20
ENDMDL
MODEL 3
REMARK VINA RESULT:     -12.0      1.387      2.946
REMARK SMILES Cc1cccc([C@H]([NH3+])[C@H](O)C(=O)NCCCCCCNC(=O)c2ccc(-c3c4nc(c(-c5ccc(S(=O)(=O)[O-])cc5)c5ccc([nH]5)c(-c5ccc(S(=O)(=O)[O-])cc5)c5nc(c(-c6ccc(S(=O)(=O)[O-])cc6)c6ccc3[nH]6)C=C5)C=C4)cc2)c1
REMARK SMILES IDX 17 1 16 2 15 3 14 4 13 5 11 6 12 7 9 9 7 10 6 11 1 12 2 13
REMARK SMILES IDX 3 14 83 15 4 16 5 17 8 18 10 22 18 24 19 25 20 26 21 27
REMARK SMILES IDX 22 29 23 30 24 31 82 32 25 33 81 34 26 35 27 36 28 37 75 38
REMARK SMILES IDX 29 39 80 40 74 41 76 42 30 43 79 44 73 45 72 46 31 48 61 49
REMARK SMILES IDX 42 50 60 51 43 52 46 53 59 54 77 55 44 56 45 57 58 59 78 60
REMARK SMILES IDX 47 61 32 62 33 63 41 64 34 65 40 66 35 67 36 68 37 69 38 70
REMARK SMILES IDX 39 71 62 72 63 73 71 74 64 75 70 76 65 77 66 78 67 79 68 80
REMARK SMILES IDX 69 81 48 82 49 83 57 84 50 85 56 86 51 87 52 88 53 89 54 90
REMARK SMILES IDX 55 91
REMARK H PARENT 13 8 8 19 8 20 8 21 10 23 20 28 76 47 46 58
REMARK Flexibility Score: inf
ROOT
ATOM      1  C   UNL A   1      36.650  21.425  25.190  1.00  0.00     0.002 C 
ENDROOT
BRANCH   1   2
ATOM      2  C   UNL A   1      35.336  22.110  24.784  1.00  0.00     0.002 C 
BRANCH   2   3
ATOM      3  C   UNL A   1      34.171  21.225  24.327  1.00  0.00     0.021 C 
BRANCH   3   4
ATOM      4  C   UNL A   1      33.137  20.838  25.379  1.00  0.00     0.116 C 
BRANCH   4   5
ATOM      5  N   UNL A   1      33.037  21.732  26.509  1.00  0.00    -0.354 N 
ATOM      6  C   UNL A   1      31.942  22.451  26.899  1.00  0.00     0.255 C 
ATOM      7  O   UNL A   1      31.949  22.946  28.032  1.00  0.00    -0.272 OA
ATOM      8  H   UNL A   1      33.847  21.835  27.059  1.00  0.00     0.163 HD
BRANCH   6   9
ATOM      9  C   UNL A   1      30.709  22.630  25.977  1.00  0.00     0.266 C 
BRANCH   9  10
ATOM     10  C   UNL A   1      30.471  24.130  25.569  1.00  0.00     0.250 C 
BRANCH  10  11
ATOM     11  C   UNL A   1      31.695  24.882  25.049  1.00  0.00     0.013 A 
ATOM     12  C   UNL A   1      33.962  27.801  26.045  1.00  0.00     0.044 C 
ATOM     13  C   UNL A   1      33.385  26.643  25.286  1.00  0.00    -0.051 A 
ATOM     14  C   UNL A   1      34.002  26.200  24.113  1.00  0.00     0.003 A 
ATOM     15  C   UNL A   1      32.246  25.971  25.752  1.00  0.00     0.013 A 
ATOM     16  C   UNL A   1      33.452  25.149  23.384  1.00  0.00     0.001 A 
ATOM     17  C   UNL A   1      32.291  24.516  23.833  1.00  0.00     0.010 A 
ENDBRANCH  10  11
BRANCH  10  18
ATOM     18  N   UNL A   1      29.909  24.899  26.711  1.00  0.00    -0.349 N 
ATOM     19  H   UNL A   1      30.579  24.902  27.481  1.00  0.00     0.345 HD
ATOM     20  H   UNL A   1      29.039  24.464  27.019  1.00  0.00     0.345 HD
ATOM     21  H   UNL A   1      29.725  25.858  26.417  1.00  0.00     0.345 HD
ENDBRANCH  10  18
ENDBRANCH   9  10
BRANCH   9  22
ATOM     22  O   UNL A   1      29.552  21.937  26.432  1.00  0.00    -0.378 OA
ATOM     23  H   UNL A   1      28.998  22.540  26.953  1.00  0.00     0.211 HD
ENDBRANCH   9  22
ENDBRANCH   6   9
ENDBRANCH   4   5
ENDBRANCH   3   4
ENDBRANCH   2   3
ENDBRANCH   1   2
BRANCH   1  24
ATOM     24  C   UNL A   1      37.932  22.253  25.109  1.00  0.00     0.021 C 
BRANCH  24  25
ATOM     25  C   UNL A   1      38.166  23.189  26.289  1.00  0.00     0.116 C 
BRANCH  25  26
ATOM     26  N   UNL A   1      39.413  22.919  26.987  1.00  0.00    -0.352 N 
ATOM     27  C   UNL A   1      40.294  23.842  27.563  1.00  0.00     0.251 C 
ATOM     28  H   UNL A   1      39.668  21.971  27.064  1.00  0.00     0.163 HD
ATOM     29  O   UNL A   1      41.392  23.566  27.934  1.00  0.00    -0.269 OA
BRANCH  27  30
ATOM     30  C   UNL A   1      39.723  25.187  27.793  1.00  0.00     0.039 A 
ATOM     31  C   UNL A   1      40.213  26.223  26.989  1.00  0.00     0.014 A 
ATOM     32  C   UNL A   1      39.002  25.443  28.955  1.00  0.00     0.014 A 
ATOM     33  C   UNL A   1      40.144  27.532  27.456  1.00  0.00     0.010 A 
ATOM     34  C   UNL A   1      39.016  26.730  29.458  1.00  0.00     0.010 A 
ATOM     35  C   UNL A   1      39.634  27.760  28.734  1.00  0.00    -0.014 A 
BRANCH  35  36
ATOM     36  C   UNL A   1      39.796  29.023  29.441  1.00  0.00     0.031 A 
ATOM     37  C   UNL A   1      38.770  30.079  29.311  1.00  0.00     0.074 A 
ATOM     38  C   UNL A   1      40.845  29.210  30.273  1.00  0.00     0.049 A 
ATOM     39  N   UNL A   1      39.001  31.335  29.496  1.00  0.00    -0.248 NA
ATOM     40  C   UNL A   1      37.393  29.797  28.914  1.00  0.00     0.031 C 
ATOM     41  C   UNL A   1      41.004  30.282  31.253  1.00  0.00     0.029 A 
ATOM     42  N   UNL A   1      42.095  28.585  30.256  1.00  0.00    -0.354 N 
ATOM     43  C   UNL A   1      37.782  31.965  29.567  1.00  0.00     0.074 A 
ATOM     44  C   UNL A   1      36.819  30.989  29.110  1.00  0.00     0.031 C 
ATOM     45  C   UNL A   1      42.313  30.442  31.503  1.00  0.00     0.029 A 
ATOM     46  C   UNL A   1      43.033  29.580  30.580  1.00  0.00     0.049 A 
ATOM     47  H   UNL A   1      42.281  27.640  30.057  1.00  0.00     0.167 HD
ATOM     48  C   UNL A   1      37.683  33.193  30.148  1.00  0.00     0.031 A 
ATOM     49  C   UNL A   1      44.035  29.980  29.744  1.00  0.00     0.031 A 
ATOM     50  C   UNL A   1      38.982  33.706  30.581  1.00  0.00     0.049 A 
ATOM     51  C   UNL A   1      43.989  31.462  29.404  1.00  0.00     0.074 A 
ATOM     52  C   UNL A   1      39.611  33.824  31.809  1.00  0.00     0.029 A 
ATOM     53  N   UNL A   1      39.962  33.931  29.627  1.00  0.00    -0.354 N 
ATOM     54  N   UNL A   1      43.050  32.283  29.787  1.00  0.00    -0.248 NA
ATOM     55  C   UNL A   1      44.952  32.112  28.519  1.00  0.00     0.031 C 
ATOM     56  C   UNL A   1      40.983  34.128  31.582  1.00  0.00     0.029 A 
ATOM     57  C   UNL A   1      41.181  34.210  30.217  1.00  0.00     0.049 A 
ATOM     58  H   UNL A   1      39.811  33.896  28.654  1.00  0.00     0.167 HD
ATOM     59  C   UNL A   1      43.221  33.510  29.191  1.00  0.00     0.074 A 
ATOM     60  C   UNL A   1      44.433  33.349  28.407  1.00  0.00     0.031 C 
ATOM     61  C   UNL A   1      42.321  34.528  29.365  1.00  0.00     0.031 A 
BRANCH  48  62
ATOM     62  C   UNL A   1      36.358  33.784  30.564  1.00  0.00    -0.014 A 
ATOM     63  C   UNL A   1      35.425  34.171  29.581  1.00  0.00     0.010 A 
ATOM     64  C   UNL A   1      35.992  34.024  31.903  1.00  0.00     0.010 A 
ATOM     65  C   UNL A   1      34.247  34.857  29.903  1.00  0.00     0.020 A 
ATOM     66  C   UNL A   1      34.834  34.745  32.239  1.00  0.00     0.020 A 
ATOM     67  C   UNL A   1      33.973  35.169  31.232  1.00  0.00     0.054 A 
BRANCH  67  68
ATOM     68  S   UNL A   1      32.494  36.145  31.617  1.00  0.00     0.124 S 
ATOM     69  O   UNL A   1      33.054  37.318  32.283  1.00  0.00    -0.237 OA
ATOM     70  O   UNL A   1      31.924  36.385  30.294  1.00  0.00    -0.237 OA
ATOM     71  O   UNL A   1      31.712  35.263  32.481  1.00  0.00    -0.744 OA
ENDBRANCH  67  68
ENDBRANCH  48  62
BRANCH  49  72
ATOM     72  C   UNL A   1      44.532  28.908  28.835  1.00  0.00    -0.014 A 
ATOM     73  C   UNL A   1      43.836  28.704  27.622  1.00  0.00     0.010 A 
ATOM     74  C   UNL A   1      45.845  28.420  28.953  1.00  0.00     0.010 A 
ATOM     75  C   UNL A   1      44.489  28.176  26.504  1.00  0.00     0.020 A 
ATOM     76  C   UNL A   1      46.500  27.885  27.833  1.00  0.00     0.020 A 
ATOM     77  C   UNL A   1      45.836  27.825  26.603  1.00  0.00     0.054 A 
BRANCH  77  78
ATOM     78  S   UNL A   1      46.746  27.479  25.066  1.00  0.00     0.124 S 
ATOM     79  O   UNL A   1      46.472  28.670  24.269  1.00  0.00    -0.237 OA
ATOM     80  O   UNL A   1      48.122  27.345  25.546  1.00  0.00    -0.237 OA
ATOM     81  O   UNL A   1      46.133  26.245  24.587  1.00  0.00    -0.744 OA
ENDBRANCH  77  78
ENDBRANCH  49  72
BRANCH  61  82
ATOM     82  C   UNL A   1      42.359  35.913  28.737  1.00  0.00    -0.014 A 
ATOM     83  C   UNL A   1      41.830  36.245  27.482  1.00  0.00     0.010 A 
ATOM     84  C   UNL A   1      43.032  36.957  29.424  1.00  0.00     0.010 A 
ATOM     85  C   UNL A   1      41.891  37.561  26.986  1.00  0.00     0.020 A 
ATOM     86  C   UNL A   1      43.113  38.265  28.939  1.00  0.00     0.020 A 
ATOM     87  C   UNL A   1      42.523  38.564  27.723  1.00  0.00     0.054 A 
BRANCH  87  88
ATOM     88  S   UNL A   1      42.577  40.249  27.066  1.00  0.00     0.124 S 
ATOM     89  O   UNL A   1      41.162  40.554  26.878  1.00  0.00    -0.237 OA
ATOM     90  O   UNL A   1      43.239  40.979  28.145  1.00  0.00    -0.237 OA
ATOM     91  O   UNL A   1      43.355  40.124  25.836  1.00  0.00    -0.744 OA
ENDBRANCH  87  88
ENDBRANCH  61  82
ENDBRANCH  35  36
ENDBRANCH  27  30
ENDBRANCH  25  26
ENDBRANCH  24  25
ENDBRANCH   1  24
TORSDOF 20
ENDMDL
