MODEL 1
REMARK VINA RESULT:      -9.0      0.000      0.000
REMARK SMILES C[C@H](C(=O)NCCCCCCNC(=O)c1ccc(-c2c3nc(c(-c4ccc(S(=O)(=O)[O-])cc4)c4ccc([nH]4)c(-c4ccc(S(=O)(=O)[O-])cc4)c4nc(c(-c5ccc(S(=O)(=O)[O-])cc5)c5ccc2[nH]5)C=C4)C=C3)cc1)[C@H](C)[N@H+](Cc1ccsc1)C1CC1
REMARK SMILES IDX 8 1 7 2 6 3 5 4 3 5 4 6 2 8 1 9 75 10 76 11 77 12 78 14
REMARK SMILES IDX 79 15 80 16 83 17 81 18 82 19 84 20 85 21 86 22 9 23 10 24
REMARK SMILES IDX 11 25 12 26 13 27 14 29 15 30 16 31 74 32 17 33 73 34 18 35
REMARK SMILES IDX 19 36 20 37 67 38 21 39 72 40 66 41 68 42 22 43 71 44 65 45
REMARK SMILES IDX 64 46 23 48 53 49 34 50 52 51 35 52 38 53 51 54 69 55 36 56
REMARK SMILES IDX 37 57 50 59 70 60 39 61 24 62 25 63 33 64 26 65 32 66 27 67
REMARK SMILES IDX 28 68 29 69 30 70 31 71 54 72 55 73 63 74 56 75 62 76 57 77
REMARK SMILES IDX 58 78 59 79 60 80 61 81 40 82 41 83 49 84 42 85 48 86 43 87
REMARK SMILES IDX 44 88 45 89 46 90 47 91
REMARK H PARENT 5 7 77 13 12 28 68 47 38 58
REMARK Flexibility Score: inf
ROOT
ATOM      1  C   UNL A   1      36.674  22.336  25.362  1.00  0.00     0.002 C 
ENDROOT
BRANCH   1   2
ATOM      2  C   UNL A   1      36.263  23.564  24.540  1.00  0.00     0.021 C 
BRANCH   2   3
ATOM      3  C   UNL A   1      34.909  23.411  23.852  1.00  0.00     0.116 C 
BRANCH   3   4
ATOM      4  N   UNL A   1      33.848  23.464  24.839  1.00  0.00    -0.356 N 
ATOM      5  C   UNL A   1      32.599  23.987  24.748  1.00  0.00     0.228 C 
ATOM      6  O   UNL A   1      31.944  24.107  25.784  1.00  0.00    -0.275 OA
ATOM      7  H   UNL A   1      34.068  23.057  25.708  1.00  0.00     0.163 HD
BRANCH   5   8
ATOM      8  C   UNL A   1      32.053  24.355  23.380  1.00  0.00     0.133 C 
ATOM      9  C   UNL A   1      30.731  23.615  23.177  1.00  0.00     0.024 C 
BRANCH   8  10
ATOM     10  C   UNL A   1      31.992  25.890  23.143  1.00  0.00     0.193 C 
ATOM     11  C   UNL A   1      32.879  26.337  21.964  1.00  0.00     0.076 C 
BRANCH  10  12
ATOM     12  N   UNL A   1      32.245  26.617  24.409  1.00  0.00    -0.326 N 
ATOM     13  H   UNL A   1      32.400  25.807  25.009  1.00  0.00     0.348 HD
BRANCH  12  14
ATOM     14  C   UNL A   1      31.081  27.253  25.033  1.00  0.00     0.300 C 
BRANCH  14  15
ATOM     15  C   UNL A   1      30.330  28.030  23.982  1.00  0.00     0.017 A 
ATOM     16  C   UNL A   1      29.067  27.643  23.416  1.00  0.00     0.021 A 
ATOM     17  C   UNL A   1      30.742  29.240  23.445  1.00  0.00     0.074 A 
ATOM     18  C   UNL A   1      28.544  28.602  22.575  1.00  0.00     0.065 A 
ATOM     19  S   UNL A   1      29.596  29.933  22.387  1.00  0.00    -0.152 S 
ENDBRANCH  14  15
ENDBRANCH  12  14
BRANCH  12  20
ATOM     20  C   UNL A   1      33.559  27.209  24.660  1.00  0.00     0.184 C 
ATOM     21  C   UNL A   1      33.739  28.492  25.430  1.00  0.00     0.071 C 
ATOM     22  C   UNL A   1      34.069  27.188  26.081  1.00  0.00     0.071 C 
ENDBRANCH  12  20
ENDBRANCH  10  12
ENDBRANCH   8  10
ENDBRANCH   5   8
ENDBRANCH   3   4
ENDBRANCH   2   3
ENDBRANCH   1   2
BRANCH   1  23
ATOM     23  C   UNL A   1      38.156  22.299  25.746  1.00  0.00     0.002 C 
BRANCH  23  24
ATOM     24  C   UNL A   1      38.842  20.961  25.472  1.00  0.00     0.021 C 
BRANCH  24  25
ATOM     25  C   UNL A   1      39.730  20.478  26.610  1.00  0.00     0.116 C 
BRANCH  25  26
ATOM     26  N   UNL A   1      40.788  19.601  26.136  1.00  0.00    -0.352 N 
ATOM     27  C   UNL A   1      42.078  19.921  25.796  1.00  0.00     0.251 C 
ATOM     28  H   UNL A   1      40.547  18.651  26.049  1.00  0.00     0.163 HD
ATOM     29  O   UNL A   1      42.786  19.108  25.218  1.00  0.00    -0.269 OA
BRANCH  27  30
ATOM     30  C   UNL A   1      42.592  21.267  26.126  1.00  0.00     0.039 A 
ATOM     31  C   UNL A   1      42.677  22.227  25.118  1.00  0.00     0.014 A 
ATOM     32  C   UNL A   1      42.976  21.575  27.434  1.00  0.00     0.014 A 
ATOM     33  C   UNL A   1      43.118  23.513  25.431  1.00  0.00     0.010 A 
ATOM     34  C   UNL A   1      43.328  22.877  27.761  1.00  0.00     0.010 A 
ATOM     35  C   UNL A   1      43.428  23.853  26.758  1.00  0.00    -0.014 A 
BRANCH  35  36
ATOM     36  C   UNL A   1      43.902  25.213  27.115  1.00  0.00     0.031 A 
ATOM     37  C   UNL A   1      45.348  25.578  26.907  1.00  0.00     0.074 A 
ATOM     38  C   UNL A   1      43.051  26.099  27.668  1.00  0.00     0.049 A 
ATOM     39  N   UNL A   1      45.964  26.698  27.183  1.00  0.00    -0.248 NA
ATOM     40  C   UNL A   1      46.223  24.536  26.344  1.00  0.00     0.031 C 
ATOM     41  C   UNL A   1      41.635  25.852  27.948  1.00  0.00     0.029 A 
ATOM     42  N   UNL A   1      43.254  27.387  28.092  1.00  0.00    -0.354 N 
ATOM     43  C   UNL A   1      47.298  26.487  26.850  1.00  0.00     0.074 A 
ATOM     44  C   UNL A   1      47.411  25.114  26.411  1.00  0.00     0.031 C 
ATOM     45  C   UNL A   1      41.088  26.968  28.457  1.00  0.00     0.029 A 
ATOM     46  C   UNL A   1      42.121  27.992  28.581  1.00  0.00     0.049 A 
ATOM     47  H   UNL A   1      44.129  27.837  28.050  1.00  0.00     0.167 HD
ATOM     48  C   UNL A   1      48.332  27.361  26.887  1.00  0.00     0.031 A 
ATOM     49  C   UNL A   1      41.934  29.233  29.071  1.00  0.00     0.031 A 
ATOM     50  C   UNL A   1      48.209  28.728  27.317  1.00  0.00     0.049 A 
ATOM     51  C   UNL A   1      43.098  30.184  29.116  1.00  0.00     0.074 A 
ATOM     52  C   UNL A   1      49.177  29.715  27.337  1.00  0.00     0.029 A 
ATOM     53  N   UNL A   1      47.044  29.301  27.811  1.00  0.00    -0.354 N 
ATOM     54  N   UNL A   1      44.339  29.989  28.736  1.00  0.00    -0.248 NA
ATOM     55  C   UNL A   1      42.832  31.529  29.640  1.00  0.00     0.031 C 
ATOM     56  C   UNL A   1      48.617  30.864  27.903  1.00  0.00     0.029 A 
ATOM     57  C   UNL A   1      47.278  30.619  28.165  1.00  0.00     0.049 A 
ATOM     58  H   UNL A   1      46.180  28.838  27.896  1.00  0.00     0.167 HD
ATOM     59  C   UNL A   1      44.993  31.200  28.937  1.00  0.00     0.074 A 
ATOM     60  C   UNL A   1      44.007  32.121  29.468  1.00  0.00     0.031 C 
ATOM     61  C   UNL A   1      46.287  31.523  28.694  1.00  0.00     0.031 A 
BRANCH  48  62
ATOM     62  C   UNL A   1      49.689  26.848  26.474  1.00  0.00    -0.014 A 
ATOM     63  C   UNL A   1      50.105  26.867  25.129  1.00  0.00     0.010 A 
ATOM     64  C   UNL A   1      50.564  26.339  27.450  1.00  0.00     0.010 A 
ATOM     65  C   UNL A   1      51.340  26.328  24.761  1.00  0.00     0.020 A 
ATOM     66  C   UNL A   1      51.817  25.832  27.091  1.00  0.00     0.020 A 
ATOM     67  C   UNL A   1      52.185  25.806  25.744  1.00  0.00     0.054 A 
BRANCH  67  68
ATOM     68  S   UNL A   1      53.778  25.102  25.238  1.00  0.00     0.124 S 
ATOM     69  O   UNL A   1      53.521  23.668  25.350  1.00  0.00    -0.237 OA
ATOM     70  O   UNL A   1      53.933  25.607  23.877  1.00  0.00    -0.237 OA
ATOM     71  O   UNL A   1      54.722  25.643  26.212  1.00  0.00    -0.744 OA
ENDBRANCH  67  68
ENDBRANCH  48  62
BRANCH  49  72
ATOM     72  C   UNL A   1      40.577  29.656  29.515  1.00  0.00    -0.014 A 
ATOM     73  C   UNL A   1      40.273  29.736  30.885  1.00  0.00     0.010 A 
ATOM     74  C   UNL A   1      39.594  30.011  28.574  1.00  0.00     0.010 A 
ATOM     75  C   UNL A   1      39.007  30.154  31.308  1.00  0.00     0.020 A 
ATOM     76  C   UNL A   1      38.337  30.457  28.993  1.00  0.00     0.020 A 
ATOM     77  C   UNL A   1      38.049  30.520  30.358  1.00  0.00     0.054 A 
BRANCH  77  78
ATOM     78  S   UNL A   1      36.439  31.126  30.933  1.00  0.00     0.124 S 
ATOM     79  O   UNL A   1      36.101  30.154  31.968  1.00  0.00    -0.237 OA
ATOM     80  O   UNL A   1      36.760  32.469  31.406  1.00  0.00    -0.237 OA
ATOM     81  O   UNL A   1      35.607  31.077  29.733  1.00  0.00    -0.744 OA
ENDBRANCH  77  78
ENDBRANCH  49  72
BRANCH  61  82
ATOM     82  C   UNL A   1      46.708  32.947  28.950  1.00  0.00    -0.014 A 
ATOM     83  C   UNL A   1      47.250  33.349  30.183  1.00  0.00     0.010 A 
ATOM     84  C   UNL A   1      46.601  33.890  27.909  1.00  0.00     0.010 A 
ATOM     85  C   UNL A   1      47.642  34.676  30.382  1.00  0.00     0.020 A 
ATOM     86  C   UNL A   1      47.023  35.208  28.093  1.00  0.00     0.020 A 
ATOM     87  C   UNL A   1      47.526  35.597  29.335  1.00  0.00     0.054 A 
BRANCH  87  88
ATOM     88  S   UNL A   1      48.076  37.303  29.609  1.00  0.00     0.124 S 
ATOM     89  O   UNL A   1      47.289  37.692  30.777  1.00  0.00    -0.237 OA
ATOM     90  O   UNL A   1      49.509  37.144  29.841  1.00  0.00    -0.237 OA
ATOM     91  O   UNL A   1      47.723  37.985  28.366  1.00  0.00    -0.744 OA
ENDBRANCH  87  88
ENDBRANCH  61  82
ENDBRANCH  35  36
ENDBRANCH  27  30
ENDBRANCH  25  26
ENDBRANCH  24  25
ENDBRANCH  23  24
ENDBRANCH   1  23
TORSDOF 21
ENDMDL
MODEL 2
REMARK VINA RESULT:      -8.6      2.476      3.703
REMARK SMILES C[C@H](C(=O)NCCCCCCNC(=O)c1ccc(-c2c3nc(c(-c4ccc(S(=O)(=O)[O-])cc4)c4ccc([nH]4)c(-c4ccc(S(=O)(=O)[O-])cc4)c4nc(c(-c5ccc(S(=O)(=O)[O-])cc5)c5ccc2[nH]5)C=C4)C=C3)cc1)[C@H](C)[N@H+](Cc1ccsc1)C1CC1
REMARK SMILES IDX 8 1 7 2 6 3 5 4 3 5 4 6 2 8 1 9 75 10 76 11 77 12 78 14
REMARK SMILES IDX 79 15 80 16 83 17 81 18 82 19 84 20 85 21 86 22 9 23 10 24
REMARK SMILES IDX 11 25 12 26 13 27 14 29 15 30 16 31 74 32 17 33 73 34 18 35
REMARK SMILES IDX 19 36 20 37 67 38 21 39 72 40 66 41 68 42 22 43 71 44 65 45
REMARK SMILES IDX 64 46 23 48 53 49 34 50 52 51 35 52 38 53 51 54 69 55 36 56
REMARK SMILES IDX 37 57 50 59 70 60 39 61 24 62 25 63 33 64 26 65 32 66 27 67
REMARK SMILES IDX 28 68 29 69 30 70 31 71 54 72 55 73 63 74 56 75 62 76 57 77
REMARK SMILES IDX 58 78 59 79 60 80 61 81 40 82 41 83 49 84 42 85 48 86 43 87
REMARK SMILES IDX 44 88 45 89 46 90 47 91
REMARK H PARENT 5 7 77 13 12 28 68 47 38 58
REMARK Flexibility Score: inf
ROOT
ATOM      1  C   UNL A   1      35.340  21.490  26.075  1.00  0.00     0.002 C 
ENDROOT
BRANCH   1   2
ATOM      2  C   UNL A   1      34.179  20.891  25.271  1.00  0.00     0.021 C 
BRANCH   2   3
ATOM      3  C   UNL A   1      33.143  21.923  24.833  1.00  0.00     0.116 C 
BRANCH   3   4
ATOM      4  N   UNL A   1      33.460  22.403  23.503  1.00  0.00    -0.356 N 
ATOM      5  C   UNL A   1      33.304  23.639  22.962  1.00  0.00     0.228 C 
ATOM      6  O   UNL A   1      33.445  23.761  21.745  1.00  0.00    -0.275 OA
ATOM      7  H   UNL A   1      33.848  21.729  22.899  1.00  0.00     0.163 HD
BRANCH   5   8
ATOM      8  C   UNL A   1      33.010  24.811  23.880  1.00  0.00     0.133 C 
ATOM      9  C   UNL A   1      33.658  26.061  23.283  1.00  0.00     0.024 C 
BRANCH   8  10
ATOM     10  C   UNL A   1      31.500  24.952  24.221  1.00  0.00     0.193 C 
ATOM     11  C   UNL A   1      30.593  24.396  23.105  1.00  0.00     0.076 C 
BRANCH  10  12
ATOM     12  N   UNL A   1      31.191  26.344  24.624  1.00  0.00    -0.326 N 
ATOM     13  H   UNL A   1      32.085  26.766  24.375  1.00  0.00     0.348 HD
BRANCH  12  14
ATOM     14  C   UNL A   1      31.114  26.598  26.066  1.00  0.00     0.300 C 
BRANCH  14  15
ATOM     15  C   UNL A   1      32.139  27.642  26.431  1.00  0.00     0.017 A 
ATOM     16  C   UNL A   1      33.562  27.455  26.371  1.00  0.00     0.021 A 
ATOM     17  C   UNL A   1      31.845  28.932  26.842  1.00  0.00     0.074 A 
ATOM     18  C   UNL A   1      34.263  28.613  26.633  1.00  0.00     0.065 A 
ATOM     19  S   UNL A   1      33.230  29.910  27.036  1.00  0.00    -0.152 S 
ENDBRANCH  14  15
ENDBRANCH  12  14
BRANCH  12  20
ATOM     20  C   UNL A   1      30.400  27.201  23.740  1.00  0.00     0.184 C 
ATOM     21  C   UNL A   1      30.439  28.706  23.818  1.00  0.00     0.071 C 
ATOM     22  C   UNL A   1      31.149  28.006  22.704  1.00  0.00     0.071 C 
ENDBRANCH  12  20
ENDBRANCH  10  12
ENDBRANCH   8  10
ENDBRANCH   5   8
ENDBRANCH   3   4
ENDBRANCH   2   3
ENDBRANCH   1   2
BRANCH   1  23
ATOM     23  C   UNL A   1      35.367  23.021  26.101  1.00  0.00     0.002 C 
BRANCH  23  24
ATOM     24  C   UNL A   1      36.633  23.635  25.504  1.00  0.00     0.021 C 
BRANCH  24  25
ATOM     25  C   UNL A   1      37.759  23.826  26.510  1.00  0.00     0.116 C 
BRANCH  25  26
ATOM     26  N   UNL A   1      38.799  22.822  26.354  1.00  0.00    -0.352 N 
ATOM     27  C   UNL A   1      40.161  22.985  26.397  1.00  0.00     0.251 C 
ATOM     28  H   UNL A   1      38.485  21.903  26.197  1.00  0.00     0.163 HD
ATOM     29  O   UNL A   1      40.905  22.081  26.042  1.00  0.00    -0.269 OA
BRANCH  27  30
ATOM     30  C   UNL A   1      40.713  24.273  26.866  1.00  0.00     0.039 A 
ATOM     31  C   UNL A   1      40.750  25.356  25.988  1.00  0.00     0.014 A 
ATOM     32  C   UNL A   1      41.179  24.406  28.177  1.00  0.00     0.014 A 
ATOM     33  C   UNL A   1      41.227  26.587  26.437  1.00  0.00     0.010 A 
ATOM     34  C   UNL A   1      41.569  25.653  28.648  1.00  0.00     0.010 A 
ATOM     35  C   UNL A   1      41.621  26.750  27.776  1.00  0.00    -0.014 A 
BRANCH  35  36
ATOM     36  C   UNL A   1      42.136  28.049  28.275  1.00  0.00     0.031 A 
ATOM     37  C   UNL A   1      43.614  28.331  28.240  1.00  0.00     0.074 A 
ATOM     38  C   UNL A   1      41.285  28.951  28.803  1.00  0.00     0.049 A 
ATOM     39  N   UNL A   1      44.263  29.387  28.656  1.00  0.00    -0.248 NA
ATOM     40  C   UNL A   1      44.480  27.272  27.694  1.00  0.00     0.031 C 
ATOM     41  C   UNL A   1      39.835  28.781  28.921  1.00  0.00     0.029 A 
ATOM     42  N   UNL A   1      41.518  30.192  29.336  1.00  0.00    -0.354 N 
ATOM     43  C   UNL A   1      45.609  29.110  28.444  1.00  0.00     0.074 A 
ATOM     44  C   UNL A   1      45.687  27.765  27.921  1.00  0.00     0.031 C 
ATOM     45  C   UNL A   1      39.305  29.894  29.452  1.00  0.00     0.029 A 
ATOM     46  C   UNL A   1      40.378  30.837  29.752  1.00  0.00     0.049 A 
ATOM     47  H   UNL A   1      42.417  30.585  29.415  1.00  0.00     0.167 HD
ATOM     48  C   UNL A   1      46.684  29.910  28.648  1.00  0.00     0.031 A 
ATOM     49  C   UNL A   1      40.215  32.053  30.309  1.00  0.00     0.031 A 
ATOM     50  C   UNL A   1      46.597  31.251  29.161  1.00  0.00     0.049 A 
ATOM     51  C   UNL A   1      41.421  32.920  30.539  1.00  0.00     0.074 A 
ATOM     52  C   UNL A   1      47.615  32.168  29.349  1.00  0.00     0.029 A 
ATOM     53  N   UNL A   1      45.423  31.865  29.575  1.00  0.00    -0.354 N 
ATOM     54  N   UNL A   1      42.681  32.668  30.272  1.00  0.00    -0.248 NA
ATOM     55  C   UNL A   1      41.182  34.243  31.130  1.00  0.00     0.031 C 
ATOM     56  C   UNL A   1      47.067  33.312  29.937  1.00  0.00     0.029 A 
ATOM     57  C   UNL A   1      45.696  33.139  30.045  1.00  0.00     0.049 A 
ATOM     58  H   UNL A   1      44.529  31.456  29.540  1.00  0.00     0.167 HD
ATOM     59  C   UNL A   1      43.381  33.817  30.625  1.00  0.00     0.074 A 
ATOM     60  C   UNL A   1      42.401  34.765  31.119  1.00  0.00     0.031 C 
ATOM     61  C   UNL A   1      44.711  34.070  30.537  1.00  0.00     0.031 A 
BRANCH  48  62
ATOM     62  C   UNL A   1      48.044  29.336  28.337  1.00  0.00    -0.014 A 
ATOM     63  C   UNL A   1      48.776  28.614  29.299  1.00  0.00     0.010 A 
ATOM     64  C   UNL A   1      48.598  29.521  27.057  1.00  0.00     0.010 A 
ATOM     65  C   UNL A   1      50.060  28.147  29.009  1.00  0.00     0.020 A 
ATOM     66  C   UNL A   1      49.868  29.023  26.751  1.00  0.00     0.020 A 
ATOM     67  C   UNL A   1      50.601  28.362  27.738  1.00  0.00     0.054 A 
BRANCH  67  68
ATOM     68  S   UNL A   1      52.275  27.755  27.391  1.00  0.00     0.124 S 
ATOM     69  O   UNL A   1      52.572  28.407  26.118  1.00  0.00    -0.237 OA
ATOM     70  O   UNL A   1      53.036  28.242  28.539  1.00  0.00    -0.237 OA
ATOM     71  O   UNL A   1      52.112  26.305  27.325  1.00  0.00    -0.744 OA
ENDBRANCH  67  68
ENDBRANCH  48  62
BRANCH  49  72
ATOM     72  C   UNL A   1      38.846  32.534  30.644  1.00  0.00    -0.014 A 
ATOM     73  C   UNL A   1      38.347  32.400  31.952  1.00  0.00     0.010 A 
ATOM     74  C   UNL A   1      38.047  33.158  29.669  1.00  0.00     0.010 A 
ATOM     75  C   UNL A   1      37.072  32.871  32.277  1.00  0.00     0.020 A 
ATOM     76  C   UNL A   1      36.782  33.656  29.997  1.00  0.00     0.020 A 
ATOM     77  C   UNL A   1      36.300  33.503  31.298  1.00  0.00     0.054 A 
BRANCH  77  78
ATOM     78  S   UNL A   1      34.678  34.168  31.764  1.00  0.00     0.124 S 
ATOM     79  O   UNL A   1      33.963  32.964  32.178  1.00  0.00    -0.237 OA
ATOM     80  O   UNL A   1      35.016  35.103  32.833  1.00  0.00    -0.237 OA
ATOM     81  O   UNL A   1      34.197  34.788  30.531  1.00  0.00    -0.744 OA
ENDBRANCH  77  78
ENDBRANCH  49  72
BRANCH  61  82
ATOM     82  C   UNL A   1      45.185  35.443  30.935  1.00  0.00    -0.014 A 
ATOM     83  C   UNL A   1      45.224  36.508  30.018  1.00  0.00     0.010 A 
ATOM     84  C   UNL A   1      45.552  35.679  32.275  1.00  0.00     0.010 A 
ATOM     85  C   UNL A   1      45.658  37.773  30.424  1.00  0.00     0.020 A 
ATOM     86  C   UNL A   1      45.954  36.949  32.692  1.00  0.00     0.020 A 
ATOM     87  C   UNL A   1      46.020  37.986  31.759  1.00  0.00     0.054 A 
BRANCH  87  88
ATOM     88  S   UNL A   1      46.544  39.645  32.268  1.00  0.00     0.124 S 
ATOM     89  O   UNL A   1      45.382  40.114  33.018  1.00  0.00    -0.237 OA
ATOM     90  O   UNL A   1      47.739  39.374  33.064  1.00  0.00    -0.237 OA
ATOM     91  O   UNL A   1      46.788  40.335  31.003  1.00  0.00    -0.744 OA
ENDBRANCH  87  88
ENDBRANCH  61  82
ENDBRANCH  35  36
ENDBRANCH  27  30
ENDBRANCH  25  26
ENDBRANCH  24  25
ENDBRANCH  23  24
ENDBRANCH   1  23
TORSDOF 21
ENDMDL
MODEL 3
REMARK VINA RESULT:      -8.3      5.568     10.207
REMARK SMILES C[C@H](C(=O)NCCCCCCNC(=O)c1ccc(-c2c3nc(c(-c4ccc(S(=O)(=O)[O-])cc4)c4ccc([nH]4)c(-c4ccc(S(=O)(=O)[O-])cc4)c4nc(c(-c5ccc(S(=O)(=O)[O-])cc5)c5ccc2[nH]5)C=C4)C=C3)cc1)[C@H](C)[N@H+](Cc1ccsc1)C1CC1
REMARK SMILES IDX 8 1 7 2 6 3 5 4 3 5 4 6 2 8 1 9 75 10 76 11 77 12 78 14
REMARK SMILES IDX 79 15 80 16 83 17 81 18 82 19 84 20 85 21 86 22 9 23 10 24
REMARK SMILES IDX 11 25 12 26 13 27 14 29 15 30 16 31 74 32 17 33 73 34 18 35
REMARK SMILES IDX 19 36 20 37 67 38 21 39 72 40 66 41 68 42 22 43 71 44 65 45
REMARK SMILES IDX 64 46 23 48 53 49 34 50 52 51 35 52 38 53 51 54 69 55 36 56
REMARK SMILES IDX 37 57 50 59 70 60 39 61 24 62 25 63 33 64 26 65 32 66 27 67
REMARK SMILES IDX 28 68 29 69 30 70 31 71 54 72 55 73 63 74 56 75 62 76 57 77
REMARK SMILES IDX 58 78 59 79 60 80 61 81 40 82 41 83 49 84 42 85 48 86 43 87
REMARK SMILES IDX 44 88 45 89 46 90 47 91
REMARK H PARENT 5 7 77 13 12 28 68 47 38 58
REMARK Flexibility Score: inf
ROOT
ATOM      1  C   UNL A   1      48.547  25.471  28.180  1.00  0.00     0.002 C 
ENDROOT
BRANCH   1   2
ATOM      2  C   UNL A   1      47.586  24.959  27.099  1.00  0.00     0.021 C 
BRANCH   2   3
ATOM      3  C   UNL A   1      46.303  24.352  27.662  1.00  0.00     0.116 C 
BRANCH   3   4
ATOM      4  N   UNL A   1      45.934  23.182  26.890  1.00  0.00    -0.356 N 
ATOM      5  C   UNL A   1      44.712  22.767  26.467  1.00  0.00     0.228 C 
ATOM      6  O   UNL A   1      44.614  21.630  26.007  1.00  0.00    -0.275 OA
ATOM      7  H   UNL A   1      46.684  22.600  26.632  1.00  0.00     0.163 HD
BRANCH   5   8
ATOM      8  C   UNL A   1      43.543  23.733  26.539  1.00  0.00     0.133 C 
ATOM      9  C   UNL A   1      42.714  23.575  25.264  1.00  0.00     0.024 C 
BRANCH   8  10
ATOM     10  C   UNL A   1      42.740  23.616  27.865  1.00  0.00     0.193 C 
ATOM     11  C   UNL A   1      41.767  22.420  27.857  1.00  0.00     0.076 C 
BRANCH  10  12
ATOM     12  N   UNL A   1      42.110  24.915  28.201  1.00  0.00    -0.326 N 
ATOM     13  H   UNL A   1      42.132  25.329  27.269  1.00  0.00     0.348 HD
BRANCH  12  14
ATOM     14  C   UNL A   1      42.930  25.849  28.978  1.00  0.00     0.300 C 
BRANCH  14  15
ATOM     15  C   UNL A   1      43.187  27.080  28.146  1.00  0.00     0.017 A 
ATOM     16  C   UNL A   1      43.776  27.079  26.835  1.00  0.00     0.021 A 
ATOM     17  C   UNL A   1      42.859  28.373  28.520  1.00  0.00     0.074 A 
ATOM     18  C   UNL A   1      43.773  28.326  26.249  1.00  0.00     0.065 A 
ATOM     19  S   UNL A   1      43.146  29.523  27.292  1.00  0.00    -0.152 S 
ENDBRANCH  14  15
ENDBRANCH  12  14
BRANCH  12  20
ATOM     20  C   UNL A   1      40.656  25.006  28.343  1.00  0.00     0.184 C 
ATOM     21  C   UNL A   1      39.935  26.322  28.483  1.00  0.00     0.071 C 
ATOM     22  C   UNL A   1      39.882  25.585  27.183  1.00  0.00     0.071 C 
ENDBRANCH  12  20
ENDBRANCH  10  12
ENDBRANCH   8  10
ENDBRANCH   5   8
ENDBRANCH   3   4
ENDBRANCH   2   3
ENDBRANCH   1   2
BRANCH   1  23
ATOM     23  C   UNL A   1      49.926  24.805  28.167  1.00  0.00     0.002 C 
BRANCH  23  24
ATOM     24  C   UNL A   1      50.944  25.490  27.256  1.00  0.00     0.021 C 
BRANCH  24  25
ATOM     25  C   UNL A   1      50.376  25.919  25.910  1.00  0.00     0.116 C 
BRANCH  25  26
ATOM     26  N   UNL A   1      51.053  27.095  25.388  1.00  0.00    -0.352 N 
ATOM     27  C   UNL A   1      50.704  28.415  25.522  1.00  0.00     0.251 C 
ATOM     28  H   UNL A   1      51.871  26.921  24.869  1.00  0.00     0.163 HD
ATOM     29  O   UNL A   1      51.259  29.275  24.851  1.00  0.00    -0.269 OA
BRANCH  27  30
ATOM     30  C   UNL A   1      49.638  28.779  26.479  1.00  0.00     0.039 A 
ATOM     31  C   UNL A   1      48.308  28.536  26.139  1.00  0.00     0.014 A 
ATOM     32  C   UNL A   1      49.962  29.349  27.713  1.00  0.00     0.014 A 
ATOM     33  C   UNL A   1      47.300  28.834  27.056  1.00  0.00     0.010 A 
ATOM     34  C   UNL A   1      48.967  29.562  28.658  1.00  0.00     0.010 A 
ATOM     35  C   UNL A   1      47.623  29.331  28.330  1.00  0.00    -0.014 A 
BRANCH  35  36
ATOM     36  C   UNL A   1      46.568  29.660  29.320  1.00  0.00     0.031 A 
ATOM     37  C   UNL A   1      46.215  28.666  30.394  1.00  0.00     0.074 A 
ATOM     38  C   UNL A   1      45.895  30.823  29.223  1.00  0.00     0.049 A 
ATOM     39  N   UNL A   1      45.305  28.750  31.329  1.00  0.00    -0.248 NA
ATOM     40  C   UNL A   1      46.964  27.398  30.398  1.00  0.00     0.031 C 
ATOM     41  C   UNL A   1      46.123  31.854  28.208  1.00  0.00     0.029 A 
ATOM     42  N   UNL A   1      44.883  31.335  29.994  1.00  0.00    -0.354 N 
ATOM     43  C   UNL A   1      45.356  27.541  32.014  1.00  0.00     0.074 A 
ATOM     44  C   UNL A   1      46.342  26.719  31.349  1.00  0.00     0.031 C 
ATOM     45  C   UNL A   1      45.305  32.891  28.444  1.00  0.00     0.029 A 
ATOM     46  C   UNL A   1      44.466  32.584  29.598  1.00  0.00     0.049 A 
ATOM     47  H   UNL A   1      44.492  30.854  30.759  1.00  0.00     0.167 HD
ATOM     48  C   UNL A   1      44.660  27.155  33.111  1.00  0.00     0.031 A 
ATOM     49  C   UNL A   1      43.516  33.391  30.110  1.00  0.00     0.031 A 
ATOM     50  C   UNL A   1      43.686  27.982  33.772  1.00  0.00     0.049 A 
ATOM     51  C   UNL A   1      42.745  32.939  31.319  1.00  0.00     0.074 A 
ATOM     52  C   UNL A   1      42.968  27.714  34.923  1.00  0.00     0.029 A 
ATOM     53  N   UNL A   1      43.289  29.238  33.336  1.00  0.00    -0.354 N 
ATOM     54  N   UNL A   1      42.852  31.819  31.994  1.00  0.00    -0.248 NA
ATOM     55  C   UNL A   1      41.737  33.867  31.845  1.00  0.00     0.031 C 
ATOM     56  C   UNL A   1      42.090  28.778  35.146  1.00  0.00     0.029 A 
ATOM     57  C   UNL A   1      42.314  29.745  34.179  1.00  0.00     0.049 A 
ATOM     58  H   UNL A   1      43.647  29.701  32.544  1.00  0.00     0.167 HD
ATOM     59  C   UNL A   1      41.953  31.925  33.050  1.00  0.00     0.074 A 
ATOM     60  C   UNL A   1      41.316  33.222  32.924  1.00  0.00     0.031 C 
ATOM     61  C   UNL A   1      41.687  31.037  34.040  1.00  0.00     0.031 A 
BRANCH  48  62
ATOM     62  C   UNL A   1      44.915  25.765  33.640  1.00  0.00    -0.014 A 
ATOM     63  C   UNL A   1      45.910  25.516  34.605  1.00  0.00     0.010 A 
ATOM     64  C   UNL A   1      44.142  24.690  33.165  1.00  0.00     0.010 A 
ATOM     65  C   UNL A   1      46.171  24.212  35.033  1.00  0.00     0.020 A 
ATOM     66  C   UNL A   1      44.376  23.389  33.619  1.00  0.00     0.020 A 
ATOM     67  C   UNL A   1      45.407  23.156  34.531  1.00  0.00     0.054 A 
BRANCH  67  68
ATOM     68  S   UNL A   1      45.774  21.471  35.095  1.00  0.00     0.124 S 
ATOM     69  O   UNL A   1      44.610  20.733  34.612  1.00  0.00    -0.237 OA
ATOM     70  O   UNL A   1      47.033  21.175  34.417  1.00  0.00    -0.237 OA
ATOM     71  O   UNL A   1      45.868  21.605  36.547  1.00  0.00    -0.744 OA
ENDBRANCH  67  68
ENDBRANCH  48  62
BRANCH  49  72
ATOM     72  C   UNL A   1      43.278  34.729  29.501  1.00  0.00    -0.014 A 
ATOM     73  C   UNL A   1      42.289  34.893  28.515  1.00  0.00     0.010 A 
ATOM     74  C   UNL A   1      44.013  35.851  29.926  1.00  0.00     0.010 A 
ATOM     75  C   UNL A   1      42.046  36.152  27.956  1.00  0.00     0.020 A 
ATOM     76  C   UNL A   1      43.752  37.116  29.391  1.00  0.00     0.020 A 
ATOM     77  C   UNL A   1      42.775  37.257  28.404  1.00  0.00     0.054 A 
BRANCH  77  78
ATOM     78  S   UNL A   1      42.391  38.891  27.714  1.00  0.00     0.124 S 
ATOM     79  O   UNL A   1      41.613  38.545  26.529  1.00  0.00    -0.237 OA
ATOM     80  O   UNL A   1      41.647  39.523  28.800  1.00  0.00    -0.237 OA
ATOM     81  O   UNL A   1      43.708  39.468  27.452  1.00  0.00    -0.744 OA
ENDBRANCH  77  78
ENDBRANCH  49  72
BRANCH  61  82
ATOM     82  C   UNL A   1      40.701  31.452  35.100  1.00  0.00    -0.014 A 
ATOM     83  C   UNL A   1      41.082  32.243  36.198  1.00  0.00     0.010 A 
ATOM     84  C   UNL A   1      39.350  31.079  34.962  1.00  0.00     0.010 A 
ATOM     85  C   UNL A   1      40.139  32.621  37.157  1.00  0.00     0.020 A 
ATOM     86  C   UNL A   1      38.398  31.483  35.900  1.00  0.00     0.020 A 
ATOM     87  C   UNL A   1      38.802  32.238  37.002  1.00  0.00     0.054 A 
BRANCH  87  88
ATOM     88  S   UNL A   1      37.591  32.773  38.241  1.00  0.00     0.124 S 
ATOM     89  O   UNL A   1      36.442  33.126  37.411  1.00  0.00    -0.237 OA
ATOM     90  O   UNL A   1      37.429  31.579  39.066  1.00  0.00    -0.237 OA
ATOM     91  O   UNL A   1      38.248  33.897  38.905  1.00  0.00    -0.744 OA
ENDBRANCH  87  88
ENDBRANCH  61  82
ENDBRANCH  35  36
ENDBRANCH  27  30
ENDBRANCH  25  26
ENDBRANCH  24  25
ENDBRANCH  23  24
ENDBRANCH   1  23
TORSDOF 21
ENDMDL
