MODEL 1
REMARK VINA RESULT:     -10.8      0.000      0.000
REMARK SMILES Cc1[nH]c(=O)sc1S(=O)(=O)NC1(CC(=O)NCCCCCCNC(=O)c2ccc(-c3c4nc(c(-c5ccc(S(=O)(=O)[O-])cc5)c5ccc([nH]5)c(-c5ccc(S(=O)(=O)[O-])cc5)c5nc(c(-c6ccc(S(=O)(=O)[O-])cc6)c6ccc3[nH]6)C=C5)C=C4)cc2)CCC1
REMARK SMILES IDX 19 1 18 2 17 3 16 4 14 5 15 6 13 8 12 9 86 10 88 11 87 12
REMARK SMILES IDX 11 13 8 15 9 16 10 17 7 18 1 19 2 20 3 21 4 22 6 24 5 25
REMARK SMILES IDX 20 26 21 27 22 28 23 29 24 30 25 32 26 33 27 34 85 35 28 36
REMARK SMILES IDX 84 37 29 38 30 39 31 40 78 41 32 42 83 43 77 44 79 45 33 46
REMARK SMILES IDX 82 47 76 48 75 49 34 51 64 52 45 53 63 54 46 55 49 56 62 57
REMARK SMILES IDX 80 58 47 59 48 60 61 62 81 63 50 64 35 65 36 66 44 67 37 68
REMARK SMILES IDX 43 69 38 70 39 71 40 72 41 73 42 74 65 75 66 76 74 77 67 78
REMARK SMILES IDX 73 79 68 80 69 81 70 82 71 83 72 84 51 85 52 86 60 87 53 88
REMARK SMILES IDX 59 89 54 90 55 91 56 92 57 93 58 94
REMARK H PARENT 16 7 11 14 3 23 23 31 79 50 49 61
REMARK Flexibility Score: inf
ROOT
ATOM      1  C   UNL A   1      37.509  22.214  25.805  1.00  0.00     0.002 C 
ENDROOT
BRANCH   1   2
ATOM      2  C   UNL A   1      37.125  23.670  25.517  1.00  0.00     0.021 C 
BRANCH   2   3
ATOM      3  C   UNL A   1      35.655  23.948  25.196  1.00  0.00     0.116 C 
BRANCH   3   4
ATOM      4  N   UNL A   1      34.796  23.851  26.350  1.00  0.00    -0.356 N 
ATOM      5  C   UNL A   1      33.611  23.208  26.479  1.00  0.00     0.221 C 
ATOM      6  O   UNL A   1      33.302  22.867  27.623  1.00  0.00    -0.275 OA
ATOM      7  H   UNL A   1      35.116  24.316  27.156  1.00  0.00     0.163 HD
BRANCH   5   8
ATOM      8  C   UNL A   1      32.734  22.831  25.313  1.00  0.00     0.123 C 
BRANCH   8   9
ATOM      9  C   UNL A   1      32.080  23.907  24.424  1.00  0.00     0.042 C 
ATOM     10  C   UNL A   1      31.322  23.220  23.223  1.00  0.00     0.024 C 
ATOM     11  C   UNL A   1      32.950  24.566  23.280  1.00  0.00     0.024 C 
ATOM     12  C   UNL A   1      32.618  23.359  22.396  1.00  0.00     0.004 C 
BRANCH   9  13
ATOM     13  N   UNL A   1      31.269  24.944  25.173  1.00  0.00    -0.204 NA
ATOM     14  H   UNL A   1      30.453  25.093  24.581  1.00  0.00     0.142 HD
BRANCH  13  15
ATOM     15  S   UNL A   1      31.682  26.504  25.700  1.00  0.00     0.252 S 
ATOM     16  O   UNL A   1      33.119  26.489  25.880  1.00  0.00    -0.206 OA
ATOM     17  O   UNL A   1      30.815  26.713  26.845  1.00  0.00    -0.206 OA
BRANCH  15  18
ATOM     18  C   UNL A   1      31.230  27.645  24.475  1.00  0.00     0.158 A 
ATOM     19  C   UNL A   1      31.990  29.793  25.699  1.00  0.00     0.067 C 
ATOM     20  C   UNL A   1      31.388  28.976  24.606  1.00  0.00     0.046 A 
ATOM     21  N   UNL A   1      30.829  29.675  23.554  1.00  0.00    -0.315 N 
ATOM     22  C   UNL A   1      30.243  28.931  22.567  1.00  0.00     0.305 A 
ATOM     23  H   UNL A   1      30.851  30.658  23.516  1.00  0.00     0.170 HD
ATOM     24  S   UNL A   1      30.512  27.234  22.921  1.00  0.00    -0.061 S 
ATOM     25  O   UNL A   1      29.655  29.370  21.580  1.00  0.00    -0.257 OA
ENDBRANCH  15  18
ENDBRANCH  13  15
ENDBRANCH   9  13
ENDBRANCH   8   9
ENDBRANCH   5   8
ENDBRANCH   3   4
ENDBRANCH   2   3
ENDBRANCH   1   2
BRANCH   1  26
ATOM     26  C   UNL A   1      37.421  21.221  24.644  1.00  0.00     0.002 C 
BRANCH  26  27
ATOM     27  C   UNL A   1      38.239  19.933  24.777  1.00  0.00     0.021 C 
BRANCH  27  28
ATOM     28  C   UNL A   1      39.131  19.887  26.005  1.00  0.00     0.116 C 
BRANCH  28  29
ATOM     29  N   UNL A   1      40.328  19.079  25.796  1.00  0.00    -0.352 N 
ATOM     30  C   UNL A   1      41.638  19.516  25.763  1.00  0.00     0.251 C 
ATOM     31  H   UNL A   1      40.187  18.113  25.666  1.00  0.00     0.163 HD
ATOM     32  O   UNL A   1      42.506  18.852  25.212  1.00  0.00    -0.269 OA
BRANCH  30  33
ATOM     33  C   UNL A   1      41.965  20.797  26.412  1.00  0.00     0.039 A 
ATOM     34  C   UNL A   1      42.425  21.890  25.674  1.00  0.00     0.014 A 
ATOM     35  C   UNL A   1      41.782  20.893  27.792  1.00  0.00     0.014 A 
ATOM     36  C   UNL A   1      42.631  23.104  26.326  1.00  0.00     0.010 A 
ATOM     37  C   UNL A   1      41.851  22.118  28.405  1.00  0.00     0.010 A 
ATOM     38  C   UNL A   1      42.327  23.214  27.692  1.00  0.00    -0.014 A 
BRANCH  38  39
ATOM     39  C   UNL A   1      42.403  24.499  28.379  1.00  0.00     0.031 A 
ATOM     40  C   UNL A   1      41.240  25.397  28.155  1.00  0.00     0.074 A 
ATOM     41  C   UNL A   1      43.325  24.765  29.331  1.00  0.00     0.049 A 
ATOM     42  N   UNL A   1      41.217  26.510  27.498  1.00  0.00    -0.248 NA
ATOM     43  C   UNL A   1      39.911  24.942  28.597  1.00  0.00     0.031 C 
ATOM     44  C   UNL A   1      44.336  23.859  29.892  1.00  0.00     0.029 A 
ATOM     45  N   UNL A   1      43.464  25.877  30.099  1.00  0.00    -0.354 N 
ATOM     46  C   UNL A   1      39.926  27.011  27.638  1.00  0.00     0.074 A 
ATOM     47  C   UNL A   1      39.128  25.923  28.145  1.00  0.00     0.031 C 
ATOM     48  C   UNL A   1      44.802  24.365  31.055  1.00  0.00     0.029 A 
ATOM     49  C   UNL A   1      44.262  25.702  31.225  1.00  0.00     0.049 A 
ATOM     50  H   UNL A   1      43.035  26.735  29.879  1.00  0.00     0.167 HD
ATOM     51  C   UNL A   1      39.668  28.348  27.568  1.00  0.00     0.031 A 
ATOM     52  C   UNL A   1      44.449  26.585  32.237  1.00  0.00     0.031 A 
ATOM     53  C   UNL A   1      40.800  29.079  27.058  1.00  0.00     0.049 A 
ATOM     54  C   UNL A   1      44.074  27.921  31.720  1.00  0.00     0.074 A 
ATOM     55  C   UNL A   1      41.527  29.060  25.885  1.00  0.00     0.029 A 
ATOM     56  N   UNL A   1      41.590  29.719  27.986  1.00  0.00    -0.354 N 
ATOM     57  N   UNL A   1      44.734  28.530  30.774  1.00  0.00    -0.248 NA
ATOM     58  C   UNL A   1      42.714  28.388  31.928  1.00  0.00     0.031 C 
ATOM     59  C   UNL A   1      42.880  29.253  26.290  1.00  0.00     0.029 A 
ATOM     60  C   UNL A   1      42.898  29.457  27.672  1.00  0.00     0.049 A 
ATOM     61  H   UNL A   1      41.271  30.266  28.741  1.00  0.00     0.167 HD
ATOM     62  C   UNL A   1      43.759  29.125  29.988  1.00  0.00     0.074 A 
ATOM     63  C   UNL A   1      42.549  29.099  30.808  1.00  0.00     0.031 C 
ATOM     64  C   UNL A   1      43.957  29.323  28.650  1.00  0.00     0.031 A 
BRANCH  51  65
ATOM     65  C   UNL A   1      38.569  29.041  28.343  1.00  0.00    -0.014 A 
ATOM     66  C   UNL A   1      37.724  29.943  27.661  1.00  0.00     0.010 A 
ATOM     67  C   UNL A   1      38.513  29.058  29.750  1.00  0.00     0.010 A 
ATOM     68  C   UNL A   1      36.931  30.866  28.354  1.00  0.00     0.020 A 
ATOM     69  C   UNL A   1      37.692  29.943  30.452  1.00  0.00     0.020 A 
ATOM     70  C   UNL A   1      36.935  30.868  29.749  1.00  0.00     0.054 A 
BRANCH  70  71
ATOM     71  S   UNL A   1      36.000  32.136  30.638  1.00  0.00     0.124 S 
ATOM     72  O   UNL A   1      35.800  31.505  31.939  1.00  0.00    -0.237 OA
ATOM     73  O   UNL A   1      36.919  33.270  30.616  1.00  0.00    -0.237 OA
ATOM     74  O   UNL A   1      34.794  32.301  29.829  1.00  0.00    -0.744 OA
ENDBRANCH  70  71
ENDBRANCH  51  65
BRANCH  52  75
ATOM     75  C   UNL A   1      44.654  26.312  33.681  1.00  0.00    -0.014 A 
ATOM     76  C   UNL A   1      45.598  27.040  34.428  1.00  0.00     0.010 A 
ATOM     77  C   UNL A   1      43.710  25.539  34.390  1.00  0.00     0.010 A 
ATOM     78  C   UNL A   1      45.552  27.057  35.833  1.00  0.00     0.020 A 
ATOM     79  C   UNL A   1      43.663  25.546  35.790  1.00  0.00     0.020 A 
ATOM     80  C   UNL A   1      44.566  26.328  36.504  1.00  0.00     0.054 A 
BRANCH  80  81
ATOM     81  S   UNL A   1      44.381  26.518  38.304  1.00  0.00     0.124 S 
ATOM     82  O   UNL A   1      44.885  27.870  38.527  1.00  0.00    -0.237 OA
ATOM     83  O   UNL A   1      42.945  26.335  38.497  1.00  0.00    -0.237 OA
ATOM     84  O   UNL A   1      45.216  25.447  38.846  1.00  0.00    -0.744 OA
ENDBRANCH  80  81
ENDBRANCH  52  75
BRANCH  64  85
ATOM     85  C   UNL A   1      45.360  29.175  28.105  1.00  0.00    -0.014 A 
ATOM     86  C   UNL A   1      46.292  30.230  28.021  1.00  0.00     0.010 A 
ATOM     87  C   UNL A   1      45.793  27.875  27.791  1.00  0.00     0.010 A 
ATOM     88  C   UNL A   1      47.611  29.990  27.602  1.00  0.00     0.020 A 
ATOM     89  C   UNL A   1      47.107  27.627  27.391  1.00  0.00     0.020 A 
ATOM     90  C   UNL A   1      48.008  28.687  27.287  1.00  0.00     0.054 A 
BRANCH  90  91
ATOM     91  S   UNL A   1      49.720  28.371  26.772  1.00  0.00     0.124 S 
ATOM     92  O   UNL A   1      50.453  28.469  28.031  1.00  0.00    -0.237 OA
ATOM     93  O   UNL A   1      49.643  27.033  26.190  1.00  0.00    -0.237 OA
ATOM     94  O   UNL A   1      49.996  29.440  25.812  1.00  0.00    -0.744 OA
ENDBRANCH  90  91
ENDBRANCH  64  85
ENDBRANCH  38  39
ENDBRANCH  30  33
ENDBRANCH  28  29
ENDBRANCH  27  28
ENDBRANCH  26  27
ENDBRANCH   1  26
TORSDOF 20
ENDMDL
MODEL 2
REMARK VINA RESULT:     -10.8      2.477      7.258
REMARK SMILES Cc1[nH]c(=O)sc1S(=O)(=O)NC1(CC(=O)NCCCCCCNC(=O)c2ccc(-c3c4nc(c(-c5ccc(S(=O)(=O)[O-])cc5)c5ccc([nH]5)c(-c5ccc(S(=O)(=O)[O-])cc5)c5nc(c(-c6ccc(S(=O)(=O)[O-])cc6)c6ccc3[nH]6)C=C5)C=C4)cc2)CCC1
REMARK SMILES IDX 19 1 18 2 17 3 16 4 14 5 15 6 13 8 12 9 86 10 88 11 87 12
REMARK SMILES IDX 11 13 8 15 9 16 10 17 7 18 1 19 2 20 3 21 4 22 6 24 5 25
REMARK SMILES IDX 20 26 21 27 22 28 23 29 24 30 25 32 26 33 27 34 85 35 28 36
REMARK SMILES IDX 84 37 29 38 30 39 31 40 78 41 32 42 83 43 77 44 79 45 33 46
REMARK SMILES IDX 82 47 76 48 75 49 34 51 64 52 45 53 63 54 46 55 49 56 62 57
REMARK SMILES IDX 80 58 47 59 48 60 61 62 81 63 50 64 35 65 36 66 44 67 37 68
REMARK SMILES IDX 43 69 38 70 39 71 40 72 41 73 42 74 65 75 66 76 74 77 67 78
REMARK SMILES IDX 73 79 68 80 69 81 70 82 71 83 72 84 51 85 52 86 60 87 53 88
REMARK SMILES IDX 59 89 54 90 55 91 56 92 57 93 58 94
REMARK H PARENT 16 7 11 14 3 23 23 31 79 50 49 61
REMARK Flexibility Score: inf
ROOT
ATOM      1  C   UNL A   1      39.808  22.109  26.659  1.00  0.00     0.002 C 
ENDROOT
BRANCH   1   2
ATOM      2  C   UNL A   1      38.666  21.718  25.713  1.00  0.00     0.021 C 
BRANCH   2   3
ATOM      3  C   UNL A   1      37.522  22.720  25.559  1.00  0.00     0.116 C 
BRANCH   3   4
ATOM      4  N   UNL A   1      37.020  22.804  24.211  1.00  0.00    -0.356 N 
ATOM      5  C   UNL A   1      35.744  22.701  23.768  1.00  0.00     0.221 C 
ATOM      6  O   UNL A   1      35.498  23.256  22.694  1.00  0.00    -0.275 OA
ATOM      7  H   UNL A   1      37.699  22.959  23.515  1.00  0.00     0.163 HD
BRANCH   5   8
ATOM      8  C   UNL A   1      34.640  22.037  24.548  1.00  0.00     0.123 C 
BRANCH   8   9
ATOM      9  C   UNL A   1      33.165  22.168  24.118  1.00  0.00     0.042 C 
ATOM     10  C   UNL A   1      32.230  21.506  25.203  1.00  0.00     0.024 C 
ATOM     11  C   UNL A   1      32.561  21.062  23.164  1.00  0.00     0.024 C 
ATOM     12  C   UNL A   1      32.322  20.190  24.401  1.00  0.00     0.004 C 
BRANCH   9  13
ATOM     13  N   UNL A   1      32.750  23.559  23.690  1.00  0.00    -0.204 NA
ATOM     14  H   UNL A   1      33.476  23.842  23.031  1.00  0.00     0.142 HD
BRANCH  13  15
ATOM     15  S   UNL A   1      32.459  24.960  24.604  1.00  0.00     0.252 S 
ATOM     16  O   UNL A   1      33.766  25.456  24.986  1.00  0.00    -0.206 OA
ATOM     17  O   UNL A   1      31.535  24.509  25.627  1.00  0.00    -0.206 OA
BRANCH  15  18
ATOM     18  C   UNL A   1      31.632  26.114  23.609  1.00  0.00     0.158 A 
ATOM     19  C   UNL A   1      33.520  26.506  21.884  1.00  0.00     0.067 C 
ATOM     20  C   UNL A   1      32.188  26.696  22.529  1.00  0.00     0.046 A 
ATOM     21  N   UNL A   1      31.378  27.675  21.987  1.00  0.00    -0.315 N 
ATOM     22  C   UNL A   1      30.171  27.877  22.598  1.00  0.00     0.305 A 
ATOM     23  H   UNL A   1      31.656  28.200  21.202  1.00  0.00     0.170 HD
ATOM     24  S   UNL A   1      29.986  26.681  23.867  1.00  0.00    -0.061 S 
ATOM     25  O   UNL A   1      29.339  28.730  22.292  1.00  0.00    -0.257 OA
ENDBRANCH  15  18
ENDBRANCH  13  15
ENDBRANCH   9  13
ENDBRANCH   8   9
ENDBRANCH   5   8
ENDBRANCH   3   4
ENDBRANCH   2   3
ENDBRANCH   1   2
BRANCH   1  26
ATOM     26  C   UNL A   1      40.674  20.978  27.219  1.00  0.00     0.002 C 
BRANCH  26  27
ATOM     27  C   UNL A   1      41.245  19.983  26.205  1.00  0.00     0.021 C 
BRANCH  27  28
ATOM     28  C   UNL A   1      42.589  19.394  26.599  1.00  0.00     0.116 C 
BRANCH  28  29
ATOM     29  N   UNL A   1      43.625  19.651  25.605  1.00  0.00    -0.352 N 
ATOM     30  C   UNL A   1      44.013  20.875  25.097  1.00  0.00     0.251 C 
ATOM     31  H   UNL A   1      44.103  18.863  25.257  1.00  0.00     0.163 HD
ATOM     32  O   UNL A   1      44.594  20.952  24.022  1.00  0.00    -0.269 OA
BRANCH  30  33
ATOM     33  C   UNL A   1      43.716  22.085  25.883  1.00  0.00     0.039 A 
ATOM     34  C   UNL A   1      44.233  22.263  27.168  1.00  0.00     0.014 A 
ATOM     35  C   UNL A   1      42.915  23.063  25.293  1.00  0.00     0.014 A 
ATOM     36  C   UNL A   1      43.995  23.468  27.828  1.00  0.00     0.010 A 
ATOM     37  C   UNL A   1      42.798  24.296  25.883  1.00  0.00     0.010 A 
ATOM     38  C   UNL A   1      43.288  24.486  27.171  1.00  0.00    -0.014 A 
BRANCH  38  39
ATOM     39  C   UNL A   1      43.133  25.805  27.776  1.00  0.00     0.031 A 
ATOM     40  C   UNL A   1      44.180  26.792  27.401  1.00  0.00     0.074 A 
ATOM     41  C   UNL A   1      42.010  26.183  28.426  1.00  0.00     0.049 A 
ATOM     42  N   UNL A   1      45.100  27.294  28.158  1.00  0.00    -0.248 NA
ATOM     43  C   UNL A   1      44.309  27.167  25.983  1.00  0.00     0.031 C 
ATOM     44  C   UNL A   1      40.762  25.428  28.595  1.00  0.00     0.029 A 
ATOM     45  N   UNL A   1      41.701  27.392  28.966  1.00  0.00    -0.354 N 
ATOM     46  C   UNL A   1      45.780  28.219  27.373  1.00  0.00     0.074 A 
ATOM     47  C   UNL A   1      45.385  27.955  26.012  1.00  0.00     0.031 C 
ATOM     48  C   UNL A   1      39.770  26.268  28.964  1.00  0.00     0.029 A 
ATOM     49  C   UNL A   1      40.348  27.573  29.232  1.00  0.00     0.049 A 
ATOM     50  H   UNL A   1      42.377  28.082  29.153  1.00  0.00     0.167 HD
ATOM     51  C   UNL A   1      46.415  29.293  27.924  1.00  0.00     0.031 A 
ATOM     52  C   UNL A   1      39.740  28.720  29.623  1.00  0.00     0.031 A 
ATOM     53  C   UNL A   1      46.529  29.163  29.354  1.00  0.00     0.049 A 
ATOM     54  C   UNL A   1      40.793  29.595  30.190  1.00  0.00     0.074 A 
ATOM     55  C   UNL A   1      47.119  28.253  30.207  1.00  0.00     0.029 A 
ATOM     56  N   UNL A   1      45.616  29.860  30.112  1.00  0.00    -0.354 N 
ATOM     57  N   UNL A   1      41.445  29.309  31.282  1.00  0.00    -0.248 NA
ATOM     58  C   UNL A   1      41.439  30.558  29.313  1.00  0.00     0.031 C 
ATOM     59  C   UNL A   1      46.206  28.124  31.294  1.00  0.00     0.029 A 
ATOM     60  C   UNL A   1      45.151  29.016  31.085  1.00  0.00     0.049 A 
ATOM     61  H   UNL A   1      45.346  30.798  29.977  1.00  0.00     0.167 HD
ATOM     62  C   UNL A   1      42.752  29.695  31.025  1.00  0.00     0.074 A 
ATOM     63  C   UNL A   1      42.664  30.557  29.847  1.00  0.00     0.031 C 
ATOM     64  C   UNL A   1      43.804  29.054  31.618  1.00  0.00     0.031 A 
BRANCH  51  65
ATOM     65  C   UNL A   1      46.554  30.636  27.243  1.00  0.00    -0.014 A 
ATOM     66  C   UNL A   1      47.843  31.195  27.104  1.00  0.00     0.010 A 
ATOM     67  C   UNL A   1      45.462  31.490  26.993  1.00  0.00     0.010 A 
ATOM     68  C   UNL A   1      48.022  32.554  26.812  1.00  0.00     0.020 A 
ATOM     69  C   UNL A   1      45.629  32.835  26.657  1.00  0.00     0.020 A 
ATOM     70  C   UNL A   1      46.909  33.367  26.607  1.00  0.00     0.054 A 
BRANCH  70  71
ATOM     71  S   UNL A   1      47.141  35.143  26.346  1.00  0.00     0.124 S 
ATOM     72  O   UNL A   1      45.788  35.576  26.015  1.00  0.00    -0.237 OA
ATOM     73  O   UNL A   1      47.649  35.581  27.643  1.00  0.00    -0.237 OA
ATOM     74  O   UNL A   1      48.105  35.202  25.250  1.00  0.00    -0.744 OA
ENDBRANCH  70  71
ENDBRANCH  51  65
BRANCH  52  75
ATOM     75  C   UNL A   1      38.383  29.214  29.285  1.00  0.00    -0.014 A 
ATOM     76  C   UNL A   1      37.510  29.677  30.287  1.00  0.00     0.010 A 
ATOM     77  C   UNL A   1      38.056  29.507  27.944  1.00  0.00     0.010 A 
ATOM     78  C   UNL A   1      36.395  30.470  29.966  1.00  0.00     0.020 A 
ATOM     79  C   UNL A   1      36.943  30.291  27.617  1.00  0.00     0.020 A 
ATOM     80  C   UNL A   1      36.134  30.793  28.632  1.00  0.00     0.054 A 
BRANCH  80  81
ATOM     81  S   UNL A   1      34.817  31.986  28.240  1.00  0.00     0.124 S 
ATOM     82  O   UNL A   1      35.542  33.018  27.506  1.00  0.00    -0.237 OA
ATOM     83  O   UNL A   1      33.885  31.183  27.453  1.00  0.00    -0.237 OA
ATOM     84  O   UNL A   1      34.322  32.390  29.555  1.00  0.00    -0.744 OA
ENDBRANCH  80  81
ENDBRANCH  52  75
BRANCH  64  85
ATOM     85  C   UNL A   1      43.518  28.137  32.787  1.00  0.00    -0.014 A 
ATOM     86  C   UNL A   1      43.622  26.732  32.734  1.00  0.00     0.010 A 
ATOM     87  C   UNL A   1      43.265  28.742  34.029  1.00  0.00     0.010 A 
ATOM     88  C   UNL A   1      43.443  25.956  33.890  1.00  0.00     0.020 A 
ATOM     89  C   UNL A   1      43.105  27.978  35.187  1.00  0.00     0.020 A 
ATOM     90  C   UNL A   1      43.182  26.587  35.111  1.00  0.00     0.054 A 
BRANCH  90  91
ATOM     91  S   UNL A   1      42.979  25.587  36.612  1.00  0.00     0.124 S 
ATOM     92  O   UNL A   1      44.147  24.711  36.570  1.00  0.00    -0.237 OA
ATOM     93  O   UNL A   1      42.982  26.589  37.674  1.00  0.00    -0.237 OA
ATOM     94  O   UNL A   1      41.696  24.914  36.410  1.00  0.00    -0.744 OA
ENDBRANCH  90  91
ENDBRANCH  64  85
ENDBRANCH  38  39
ENDBRANCH  30  33
ENDBRANCH  28  29
ENDBRANCH  27  28
ENDBRANCH  26  27
ENDBRANCH   1  26
TORSDOF 20
ENDMDL
MODEL 3
REMARK VINA RESULT:     -10.8      2.693      7.228
REMARK SMILES Cc1[nH]c(=O)sc1S(=O)(=O)NC1(CC(=O)NCCCCCCNC(=O)c2ccc(-c3c4nc(c(-c5ccc(S(=O)(=O)[O-])cc5)c5ccc([nH]5)c(-c5ccc(S(=O)(=O)[O-])cc5)c5nc(c(-c6ccc(S(=O)(=O)[O-])cc6)c6ccc3[nH]6)C=C5)C=C4)cc2)CCC1
REMARK SMILES IDX 19 1 18 2 17 3 16 4 14 5 15 6 13 8 12 9 86 10 88 11 87 12
REMARK SMILES IDX 11 13 8 15 9 16 10 17 7 18 1 19 2 20 3 21 4 22 6 24 5 25
REMARK SMILES IDX 20 26 21 27 22 28 23 29 24 30 25 32 26 33 27 34 85 35 28 36
REMARK SMILES IDX 84 37 29 38 30 39 31 40 78 41 32 42 83 43 77 44 79 45 33 46
REMARK SMILES IDX 82 47 76 48 75 49 34 51 64 52 45 53 63 54 46 55 49 56 62 57
REMARK SMILES IDX 80 58 47 59 48 60 61 62 81 63 50 64 35 65 36 66 44 67 37 68
REMARK SMILES IDX 43 69 38 70 39 71 40 72 41 73 42 74 65 75 66 76 74 77 67 78
REMARK SMILES IDX 73 79 68 80 69 81 70 82 71 83 72 84 51 85 52 86 60 87 53 88
REMARK SMILES IDX 59 89 54 90 55 91 56 92 57 93 58 94
REMARK H PARENT 16 7 11 14 3 23 23 31 79 50 49 61
REMARK Flexibility Score: inf
ROOT
ATOM      1  C   UNL A   1      40.500  21.374  26.681  1.00  0.00     0.002 C 
ENDROOT
BRANCH   1   2
ATOM      2  C   UNL A   1      39.614  22.492  26.117  1.00  0.00     0.021 C 
BRANCH   2   3
ATOM      3  C   UNL A   1      38.115  22.207  26.023  1.00  0.00     0.116 C 
BRANCH   3   4
ATOM      4  N   UNL A   1      37.604  22.300  24.678  1.00  0.00    -0.356 N 
ATOM      5  C   UNL A   1      36.638  23.114  24.188  1.00  0.00     0.221 C 
ATOM      6  O   UNL A   1      36.696  23.353  22.979  1.00  0.00    -0.275 OA
ATOM      7  H   UNL A   1      38.014  21.688  24.026  1.00  0.00     0.163 HD
BRANCH   5   8
ATOM      8  C   UNL A   1      35.594  23.780  25.043  1.00  0.00     0.123 C 
BRANCH   8   9
ATOM      9  C   UNL A   1      34.243  23.096  25.336  1.00  0.00     0.042 C 
ATOM     10  C   UNL A   1      34.480  21.779  26.171  1.00  0.00     0.024 C 
ATOM     11  C   UNL A   1      33.655  22.105  24.253  1.00  0.00     0.024 C 
ATOM     12  C   UNL A   1      34.554  21.009  24.835  1.00  0.00     0.004 C 
BRANCH   9  13
ATOM     13  N   UNL A   1      33.173  24.013  25.890  1.00  0.00    -0.204 NA
ATOM     14  H   UNL A   1      32.322  23.453  25.847  1.00  0.00     0.142 HD
BRANCH  13  15
ATOM     15  S   UNL A   1      32.672  25.558  25.396  1.00  0.00     0.252 S 
ATOM     16  O   UNL A   1      33.717  26.464  25.825  1.00  0.00    -0.206 OA
ATOM     17  O   UNL A   1      31.341  25.676  25.960  1.00  0.00    -0.206 OA
BRANCH  15  18
ATOM     18  C   UNL A   1      32.522  25.569  23.669  1.00  0.00     0.158 A 
ATOM     19  C   UNL A   1      30.499  23.966  23.483  1.00  0.00     0.067 C 
ATOM     20  C   UNL A   1      31.599  24.851  23.000  1.00  0.00     0.046 A 
ATOM     21  N   UNL A   1      31.771  24.925  21.631  1.00  0.00    -0.315 N 
ATOM     22  C   UNL A   1      32.801  25.706  21.184  1.00  0.00     0.305 A 
ATOM     23  H   UNL A   1      31.183  24.439  21.009  1.00  0.00     0.170 HD
ATOM     24  S   UNL A   1      33.534  26.497  22.568  1.00  0.00    -0.061 S 
ATOM     25  O   UNL A   1      33.140  25.858  20.012  1.00  0.00    -0.257 OA
ENDBRANCH  15  18
ENDBRANCH  13  15
ENDBRANCH   9  13
ENDBRANCH   8   9
ENDBRANCH   5   8
ENDBRANCH   3   4
ENDBRANCH   2   3
ENDBRANCH   1   2
BRANCH   1  26
ATOM     26  C   UNL A   1      40.382  19.991  26.035  1.00  0.00     0.002 C 
BRANCH  26  27
ATOM     27  C   UNL A   1      41.487  18.983  26.364  1.00  0.00     0.021 C 
BRANCH  27  28
ATOM     28  C   UNL A   1      42.818  19.616  26.730  1.00  0.00     0.116 C 
BRANCH  28  29
ATOM     29  N   UNL A   1      43.793  19.533  25.648  1.00  0.00    -0.352 N 
ATOM     30  C   UNL A   1      44.249  20.564  24.850  1.00  0.00     0.251 C 
ATOM     31  H   UNL A   1      44.170  18.642  25.466  1.00  0.00     0.163 HD
ATOM     32  O   UNL A   1      44.750  20.337  23.756  1.00  0.00    -0.269 OA
BRANCH  30  33
ATOM     33  C   UNL A   1      44.123  21.944  25.350  1.00  0.00     0.039 A 
ATOM     34  C   UNL A   1      43.139  22.808  24.864  1.00  0.00     0.014 A 
ATOM     35  C   UNL A   1      45.009  22.359  26.345  1.00  0.00     0.014 A 
ATOM     36  C   UNL A   1      43.008  24.070  25.439  1.00  0.00     0.010 A 
ATOM     37  C   UNL A   1      44.792  23.543  27.001  1.00  0.00     0.010 A 
ATOM     38  C   UNL A   1      43.830  24.425  26.519  1.00  0.00    -0.014 A 
BRANCH  38  39
ATOM     39  C   UNL A   1      43.636  25.684  27.231  1.00  0.00     0.031 A 
ATOM     40  C   UNL A   1      44.646  26.734  26.932  1.00  0.00     0.074 A 
ATOM     41  C   UNL A   1      42.507  25.968  27.918  1.00  0.00     0.049 A 
ATOM     42  N   UNL A   1      45.554  27.204  27.721  1.00  0.00    -0.248 NA
ATOM     43  C   UNL A   1      44.748  27.228  25.549  1.00  0.00     0.031 C 
ATOM     44  C   UNL A   1      41.287  25.158  28.032  1.00  0.00     0.029 A 
ATOM     45  N   UNL A   1      42.161  27.117  28.557  1.00  0.00    -0.354 N 
ATOM     46  C   UNL A   1      46.195  28.214  27.011  1.00  0.00     0.074 A 
ATOM     47  C   UNL A   1      45.797  28.049  25.635  1.00  0.00     0.031 C 
ATOM     48  C   UNL A   1      40.270  25.931  28.474  1.00  0.00     0.029 A 
ATOM     49  C   UNL A   1      40.805  27.228  28.846  1.00  0.00     0.049 A 
ATOM     50  H   UNL A   1      42.816  27.813  28.795  1.00  0.00     0.167 HD
ATOM     51  C   UNL A   1      46.797  29.261  27.644  1.00  0.00     0.031 A 
ATOM     52  C   UNL A   1      40.162  28.318  29.333  1.00  0.00     0.031 A 
ATOM     53  C   UNL A   1      46.930  29.018  29.058  1.00  0.00     0.049 A 
ATOM     54  C   UNL A   1      41.189  29.179  29.963  1.00  0.00     0.074 A 
ATOM     55  C   UNL A   1      47.558  28.062  29.830  1.00  0.00     0.029 A 
ATOM     56  N   UNL A   1      46.000  29.618  29.877  1.00  0.00    -0.354 N 
ATOM     57  N   UNL A   1      41.861  28.828  31.024  1.00  0.00    -0.248 NA
ATOM     58  C   UNL A   1      41.794  30.233  29.165  1.00  0.00     0.031 C 
ATOM     59  C   UNL A   1      46.660  27.813  30.909  1.00  0.00     0.029 A 
ATOM     60  C   UNL A   1      45.573  28.682  30.780  1.00  0.00     0.049 A 
ATOM     61  H   UNL A   1      45.697  30.554  29.821  1.00  0.00     0.167 HD
ATOM     62  C   UNL A   1      43.152  29.279  30.791  1.00  0.00     0.074 A 
ATOM     63  C   UNL A   1      43.024  30.231  29.689  1.00  0.00     0.031 C 
ATOM     64  C   UNL A   1      44.231  28.629  31.323  1.00  0.00     0.031 A 
BRANCH  51  65
ATOM     65  C   UNL A   1      46.885  30.659  27.075  1.00  0.00    -0.014 A 
ATOM     66  C   UNL A   1      48.121  31.339  27.133  1.00  0.00     0.010 A 
ATOM     67  C   UNL A   1      45.751  31.429  26.749  1.00  0.00     0.010 A 
ATOM     68  C   UNL A   1      48.200  32.727  26.956  1.00  0.00     0.020 A 
ATOM     69  C   UNL A   1      45.825  32.806  26.525  1.00  0.00     0.020 A 
ATOM     70  C   UNL A   1      47.044  33.451  26.668  1.00  0.00     0.054 A 
BRANCH  70  71
ATOM     71  S   UNL A   1      47.132  35.255  26.555  1.00  0.00     0.124 S 
ATOM     72  O   UNL A   1      48.293  35.445  25.692  1.00  0.00    -0.237 OA
ATOM     73  O   UNL A   1      45.840  35.590  25.964  1.00  0.00    -0.237 OA
ATOM     74  O   UNL A   1      47.306  35.675  27.943  1.00  0.00    -0.744 OA
ENDBRANCH  70  71
ENDBRANCH  51  65
BRANCH  52  75
ATOM     75  C   UNL A   1      38.786  28.790  29.045  1.00  0.00    -0.014 A 
ATOM     76  C   UNL A   1      37.857  28.992  30.083  1.00  0.00     0.010 A 
ATOM     77  C   UNL A   1      38.479  29.326  27.777  1.00  0.00     0.010 A 
ATOM     78  C   UNL A   1      36.703  29.767  29.881  1.00  0.00     0.020 A 
ATOM     79  C   UNL A   1      37.327  30.094  27.567  1.00  0.00     0.020 A 
ATOM     80  C   UNL A   1      36.458  30.335  28.628  1.00  0.00     0.054 A 
BRANCH  80  81
ATOM     81  S   UNL A   1      35.079  31.504  28.428  1.00  0.00     0.124 S 
ATOM     82  O   UNL A   1      35.670  32.542  27.590  1.00  0.00    -0.237 OA
ATOM     83  O   UNL A   1      34.055  30.681  27.790  1.00  0.00    -0.237 OA
ATOM     84  O   UNL A   1      34.776  31.910  29.800  1.00  0.00    -0.744 OA
ENDBRANCH  80  81
ENDBRANCH  52  75
BRANCH  64  85
ATOM     85  C   UNL A   1      43.987  27.610  32.414  1.00  0.00    -0.014 A 
ATOM     86  C   UNL A   1      43.251  27.869  33.588  1.00  0.00     0.010 A 
ATOM     87  C   UNL A   1      44.410  26.293  32.167  1.00  0.00     0.010 A 
ATOM     88  C   UNL A   1      42.978  26.840  34.504  1.00  0.00     0.020 A 
ATOM     89  C   UNL A   1      44.126  25.261  33.065  1.00  0.00     0.020 A 
ATOM     90  C   UNL A   1      43.421  25.541  34.236  1.00  0.00     0.054 A 
BRANCH  90  91
ATOM     91  S   UNL A   1      43.044  24.206  35.406  1.00  0.00     0.124 S 
ATOM     92  O   UNL A   1      43.186  23.011  34.579  1.00  0.00    -0.237 OA
ATOM     93  O   UNL A   1      44.062  24.381  36.439  1.00  0.00    -0.237 OA
ATOM     94  O   UNL A   1      41.678  24.499  35.839  1.00  0.00    -0.744 OA
ENDBRANCH  90  91
ENDBRANCH  64  85
ENDBRANCH  38  39
ENDBRANCH  30  33
ENDBRANCH  28  29
ENDBRANCH  27  28
ENDBRANCH  26  27
ENDBRANCH   1  26
TORSDOF 20
ENDMDL
