MODEL 1
REMARK VINA RESULT:      -9.9      0.000      0.000
REMARK SMILES O=C(NCCCCCCNC(=O)[C@H]1[C@H]2C=C[C@H]3C=C[C@@H]1[C@H]32)c1ccc(-c2c3nc(c(-c4ccc(S(=O)(=O)[O-])cc4)c4ccc([nH]4)c(-c4ccc(S(=O)(=O)[O-])cc4)c4nc(c(-c5ccc(S(=O)(=O)[O-])cc5)c5ccc2[nH]5)C=C4)C=C3)cc1
REMARK SMILES IDX 5 1 4 2 3 3 1 4 2 5 22 7 23 8 81 9 24 10 80 11 25 12 26 13
REMARK SMILES IDX 27 14 74 15 28 16 79 17 73 18 75 19 29 20 78 21 72 22 71 23
REMARK SMILES IDX 30 25 60 26 41 27 59 28 42 29 45 30 58 31 76 32 43 33 44 34
REMARK SMILES IDX 57 36 77 37 46 38 31 39 32 40 40 41 33 42 39 43 34 44 35 45
REMARK SMILES IDX 36 46 37 47 38 48 61 49 62 50 70 51 63 52 69 53 64 54 65 55
REMARK SMILES IDX 66 56 67 57 68 58 47 59 48 60 56 61 49 62 55 63 50 64 51 65
REMARK SMILES IDX 52 66 53 67 54 68 6 69 7 70 8 71 9 72 10 73 11 74 12 76
REMARK SMILES IDX 13 77 20 78 14 79 19 80 21 81 15 82 18 83 17 84 16 85
REMARK H PARENT 3 6 75 24 45 35 10 75
REMARK Flexibility Score: inf
ROOT
ATOM      1  C   UNL A   1      34.290  33.798  28.079  1.00  0.00     0.021 C 
ENDROOT
BRANCH   1   2
ATOM      2  C   UNL A   1      34.605  32.504  28.808  1.00  0.00     0.116 C 
BRANCH   2   3
ATOM      3  N   UNL A   1      33.961  31.337  28.237  1.00  0.00    -0.352 N 
ATOM      4  O   UNL A   1      33.808  29.270  27.360  1.00  0.00    -0.269 OA
ATOM      5  C   UNL A   1      34.498  30.110  27.918  1.00  0.00     0.251 C 
ATOM      6  H   UNL A   1      32.999  31.437  28.050  1.00  0.00     0.163 HD
BRANCH   5   7
ATOM      7  C   UNL A   1      35.922  29.823  28.222  1.00  0.00     0.039 A 
ATOM      8  C   UNL A   1      36.926  30.076  27.286  1.00  0.00     0.014 A 
ATOM      9  C   UNL A   1      36.255  29.296  29.474  1.00  0.00     0.014 A 
ATOM     10  C   UNL A   1      38.230  29.666  27.540  1.00  0.00     0.010 A 
ATOM     11  C   UNL A   1      37.585  28.977  29.767  1.00  0.00     0.010 A 
ATOM     12  C   UNL A   1      38.581  29.134  28.791  1.00  0.00    -0.014 A 
BRANCH  12  13
ATOM     13  C   UNL A   1      40.008  28.836  29.077  1.00  0.00     0.031 A 
ATOM     14  C   UNL A   1      40.631  27.525  28.684  1.00  0.00     0.074 A 
ATOM     15  C   UNL A   1      40.751  29.785  29.682  1.00  0.00     0.049 A 
ATOM     16  N   UNL A   1      41.866  27.124  28.845  1.00  0.00    -0.248 NA
ATOM     17  C   UNL A   1      39.759  26.533  28.036  1.00  0.00     0.031 C 
ATOM     18  C   UNL A   1      40.250  31.094  30.118  1.00  0.00     0.029 A 
ATOM     19  N   UNL A   1      42.079  29.812  30.019  1.00  0.00    -0.354 N 
ATOM     20  C   UNL A   1      41.919  25.830  28.339  1.00  0.00     0.074 A 
ATOM     21  C   UNL A   1      40.583  25.503  27.886  1.00  0.00     0.031 C 
ATOM     22  C   UNL A   1      41.267  31.811  30.616  1.00  0.00     0.029 A 
ATOM     23  C   UNL A   1      42.472  30.992  30.605  1.00  0.00     0.049 A 
ATOM     24  H   UNL A   1      42.692  29.060  29.856  1.00  0.00     0.167 HD
ATOM     25  C   UNL A   1      42.983  24.995  28.260  1.00  0.00     0.031 A 
ATOM     26  C   UNL A   1      43.663  31.372  31.104  1.00  0.00     0.031 A 
ATOM     27  C   UNL A   1      44.308  25.330  28.720  1.00  0.00     0.049 A 
ATOM     28  C   UNL A   1      44.817  30.415  31.031  1.00  0.00     0.074 A 
ATOM     29  C   UNL A   1      45.460  24.564  28.655  1.00  0.00     0.029 A 
ATOM     30  N   UNL A   1      44.657  26.522  29.340  1.00  0.00    -0.354 N 
ATOM     31  N   UNL A   1      44.853  29.210  30.514  1.00  0.00    -0.248 NA
ATOM     32  C   UNL A   1      46.089  30.869  31.604  1.00  0.00     0.031 C 
ATOM     33  C   UNL A   1      46.490  25.268  29.289  1.00  0.00     0.029 A 
ATOM     34  C   UNL A   1      45.999  26.500  29.686  1.00  0.00     0.049 A 
ATOM     35  H   UNL A   1      44.043  27.272  29.507  1.00  0.00     0.167 HD
ATOM     36  C   UNL A   1      46.159  28.768  30.684  1.00  0.00     0.074 A 
ATOM     37  C   UNL A   1      46.883  29.843  31.329  1.00  0.00     0.031 C 
ATOM     38  C   UNL A   1      46.705  27.577  30.337  1.00  0.00     0.031 A 
BRANCH  25  39
ATOM     39  C   UNL A   1      42.760  23.620  27.682  1.00  0.00    -0.014 A 
ATOM     40  C   UNL A   1      43.180  23.295  26.379  1.00  0.00     0.010 A 
ATOM     41  C   UNL A   1      42.177  22.616  28.478  1.00  0.00     0.010 A 
ATOM     42  C   UNL A   1      42.990  22.005  25.873  1.00  0.00     0.020 A 
ATOM     43  C   UNL A   1      42.010  21.318  27.987  1.00  0.00     0.020 A 
ATOM     44  C   UNL A   1      42.405  21.025  26.680  1.00  0.00     0.054 A 
BRANCH  44  45
ATOM     45  S   UNL A   1      42.197  19.352  26.007  1.00  0.00     0.124 S 
ATOM     46  O   UNL A   1      42.740  18.526  27.081  1.00  0.00    -0.237 OA
ATOM     47  O   UNL A   1      40.751  19.263  25.817  1.00  0.00    -0.237 OA
ATOM     48  O   UNL A   1      42.984  19.372  24.777  1.00  0.00    -0.744 OA
ENDBRANCH  44  45
ENDBRANCH  25  39
BRANCH  26  49
ATOM     49  C   UNL A   1      43.804  32.713  31.734  1.00  0.00    -0.014 A 
ATOM     50  C   UNL A   1      44.110  33.845  30.960  1.00  0.00     0.010 A 
ATOM     51  C   UNL A   1      43.595  32.866  33.118  1.00  0.00     0.010 A 
ATOM     52  C   UNL A   1      44.219  35.102  31.561  1.00  0.00     0.020 A 
ATOM     53  C   UNL A   1      43.669  34.126  33.716  1.00  0.00     0.020 A 
ATOM     54  C   UNL A   1      43.993  35.236  32.934  1.00  0.00     0.054 A 
BRANCH  54  55
ATOM     55  S   UNL A   1      44.083  36.886  33.680  1.00  0.00     0.124 S 
ATOM     56  O   UNL A   1      42.682  37.162  33.976  1.00  0.00    -0.237 OA
ATOM     57  O   UNL A   1      44.943  36.660  34.840  1.00  0.00    -0.237 OA
ATOM     58  O   UNL A   1      44.676  37.706  32.626  1.00  0.00    -0.744 OA
ENDBRANCH  54  55
ENDBRANCH  26  49
BRANCH  38  59
ATOM     59  C   UNL A   1      48.173  27.387  30.621  1.00  0.00    -0.014 A 
ATOM     60  C   UNL A   1      49.154  27.785  29.695  1.00  0.00     0.010 A 
ATOM     61  C   UNL A   1      48.573  26.834  31.851  1.00  0.00     0.010 A 
ATOM     62  C   UNL A   1      50.509  27.598  29.981  1.00  0.00     0.020 A 
ATOM     63  C   UNL A   1      49.927  26.676  32.152  1.00  0.00     0.020 A 
ATOM     64  C   UNL A   1      50.887  27.044  31.208  1.00  0.00     0.054 A 
BRANCH  64  65
ATOM     65  S   UNL A   1      52.652  26.846  31.569  1.00  0.00     0.124 S 
ATOM     66  O   UNL A   1      53.273  27.457  30.397  1.00  0.00    -0.237 OA
ATOM     67  O   UNL A   1      52.808  27.585  32.819  1.00  0.00    -0.237 OA
ATOM     68  O   UNL A   1      52.824  25.400  31.681  1.00  0.00    -0.744 OA
ENDBRANCH  64  65
ENDBRANCH  38  59
ENDBRANCH  12  13
ENDBRANCH   5   7
ENDBRANCH   2   3
ENDBRANCH   1   2
BRANCH   1  69
ATOM     69  C   UNL A   1      33.176  34.662  28.664  1.00  0.00     0.002 C 
BRANCH  69  70
ATOM     70  C   UNL A   1      33.582  35.967  29.346  1.00  0.00     0.002 C 
BRANCH  70  71
ATOM     71  C   UNL A   1      32.780  36.454  30.557  1.00  0.00     0.021 C 
BRANCH  71  72
ATOM     72  C   UNL A   1      33.235  36.036  31.953  1.00  0.00     0.116 C 
BRANCH  72  73
ATOM     73  N   UNL A   1      33.227  34.612  32.207  1.00  0.00    -0.356 N 
ATOM     74  C   UNL A   1      34.326  33.774  32.281  1.00  0.00     0.224 C 
ATOM     75  H   UNL A   1      32.345  34.195  32.342  1.00  0.00     0.163 HD
ATOM     76  O   UNL A   1      34.089  32.563  32.361  1.00  0.00    -0.275 OA
BRANCH  74  77
ATOM     77  C   UNL A   1      35.743  34.406  32.166  1.00  0.00     0.093 C 
ATOM     78  C   UNL A   1      36.947  33.602  31.582  1.00  0.00     0.029 C 
ATOM     79  C   UNL A   1      36.583  34.712  33.437  1.00  0.00     0.029 C 
ATOM     80  C   UNL A   1      36.977  32.119  31.624  1.00  0.00    -0.026 C 
ATOM     81  C   UNL A   1      37.809  34.051  32.785  1.00  0.00     0.015 C 
ATOM     82  C   UNL A   1      36.329  33.942  34.672  1.00  0.00    -0.026 C 
ATOM     83  C   UNL A   1      37.640  31.681  32.703  1.00  0.00    -0.023 C 
ATOM     84  C   UNL A   1      38.095  32.781  33.612  1.00  0.00     0.038 C 
ATOM     85  C   UNL A   1      37.172  32.912  34.784  1.00  0.00    -0.023 C 
ENDBRANCH  74  77
ENDBRANCH  72  73
ENDBRANCH  71  72
ENDBRANCH  70  71
ENDBRANCH  69  70
ENDBRANCH   1  69
TORSDOF 16
ENDMDL
MODEL 2
REMARK VINA RESULT:      -9.8      2.836     10.895
REMARK SMILES O=C(NCCCCCCNC(=O)[C@H]1[C@H]2C=C[C@H]3C=C[C@@H]1[C@H]32)c1ccc(-c2c3nc(c(-c4ccc(S(=O)(=O)[O-])cc4)c4ccc([nH]4)c(-c4ccc(S(=O)(=O)[O-])cc4)c4nc(c(-c5ccc(S(=O)(=O)[O-])cc5)c5ccc2[nH]5)C=C4)C=C3)cc1
REMARK SMILES IDX 5 1 4 2 3 3 1 4 2 5 22 7 23 8 81 9 24 10 80 11 25 12 26 13
REMARK SMILES IDX 27 14 74 15 28 16 79 17 73 18 75 19 29 20 78 21 72 22 71 23
REMARK SMILES IDX 30 25 60 26 41 27 59 28 42 29 45 30 58 31 76 32 43 33 44 34
REMARK SMILES IDX 57 36 77 37 46 38 31 39 32 40 40 41 33 42 39 43 34 44 35 45
REMARK SMILES IDX 36 46 37 47 38 48 61 49 62 50 70 51 63 52 69 53 64 54 65 55
REMARK SMILES IDX 66 56 67 57 68 58 47 59 48 60 56 61 49 62 55 63 50 64 51 65
REMARK SMILES IDX 52 66 53 67 54 68 6 69 7 70 8 71 9 72 10 73 11 74 12 76
REMARK SMILES IDX 13 77 20 78 14 79 19 80 21 81 15 82 18 83 17 84 16 85
REMARK H PARENT 3 6 75 24 45 35 10 75
REMARK Flexibility Score: inf
ROOT
ATOM      1  C   UNL A   1      41.215  20.423  26.358  1.00  0.00     0.021 C 
ENDROOT
BRANCH   1   2
ATOM      2  C   UNL A   1      40.394  21.547  26.963  1.00  0.00     0.116 C 
BRANCH   2   3
ATOM      3  N   UNL A   1      39.236  21.920  26.172  1.00  0.00    -0.352 N 
ATOM      4  O   UNL A   1      37.566  23.230  25.425  1.00  0.00    -0.269 OA
ATOM      5  C   UNL A   1      38.588  23.131  26.089  1.00  0.00     0.251 C 
ATOM      6  H   UNL A   1      38.858  21.201  25.615  1.00  0.00     0.163 HD
BRANCH   5   7
ATOM      7  C   UNL A   1      39.112  24.305  26.830  1.00  0.00     0.039 A 
ATOM      8  C   UNL A   1      38.830  24.489  28.185  1.00  0.00     0.014 A 
ATOM      9  C   UNL A   1      39.909  25.234  26.153  1.00  0.00     0.014 A 
ATOM     10  C   UNL A   1      39.211  25.666  28.819  1.00  0.00     0.010 A 
ATOM     11  C   UNL A   1      40.377  26.370  26.821  1.00  0.00     0.010 A 
ATOM     12  C   UNL A   1      40.009  26.610  28.153  1.00  0.00    -0.014 A 
BRANCH  12  13
ATOM     13  C   UNL A   1      40.515  27.789  28.903  1.00  0.00     0.031 A 
ATOM     14  C   UNL A   1      41.912  27.826  29.459  1.00  0.00     0.074 A 
ATOM     15  C   UNL A   1      39.695  28.848  29.058  1.00  0.00     0.049 A 
ATOM     16  N   UNL A   1      42.506  28.789  30.116  1.00  0.00    -0.248 NA
ATOM     17  C   UNL A   1      42.748  26.632  29.260  1.00  0.00     0.031 C 
ATOM     18  C   UNL A   1      38.313  28.921  28.569  1.00  0.00     0.029 A 
ATOM     19  N   UNL A   1      39.900  30.069  29.647  1.00  0.00    -0.354 N 
ATOM     20  C   UNL A   1      43.775  28.315  30.429  1.00  0.00     0.074 A 
ATOM     21  C   UNL A   1      43.858  26.966  29.908  1.00  0.00     0.031 C 
ATOM     22  C   UNL A   1      37.816  30.137  28.833  1.00  0.00     0.029 A 
ATOM     23  C   UNL A   1      38.810  30.903  29.573  1.00  0.00     0.049 A 
ATOM     24  H   UNL A   1      40.746  30.323  30.080  1.00  0.00     0.167 HD
ATOM     25  C   UNL A   1      44.777  28.946  31.088  1.00  0.00     0.031 A 
ATOM     26  C   UNL A   1      38.615  32.140  30.066  1.00  0.00     0.031 A 
ATOM     27  C   UNL A   1      44.680  30.288  31.607  1.00  0.00     0.049 A 
ATOM     28  C   UNL A   1      39.730  32.804  30.818  1.00  0.00     0.074 A 
ATOM     29  C   UNL A   1      45.651  31.029  32.261  1.00  0.00     0.029 A 
ATOM     30  N   UNL A   1      43.548  31.087  31.542  1.00  0.00    -0.354 N 
ATOM     31  N   UNL A   1      40.935  32.351  31.069  1.00  0.00    -0.248 NA
ATOM     32  C   UNL A   1      39.463  34.145  31.350  1.00  0.00     0.031 C 
ATOM     33  C   UNL A   1      45.087  32.249  32.644  1.00  0.00     0.029 A 
ATOM     34  C   UNL A   1      43.787  32.300  32.169  1.00  0.00     0.049 A 
ATOM     35  H   UNL A   1      42.700  30.830  31.114  1.00  0.00     0.167 HD
ATOM     36  C   UNL A   1      41.578  33.361  31.774  1.00  0.00     0.074 A 
ATOM     37  C   UNL A   1      40.635  34.455  31.888  1.00  0.00     0.031 C 
ATOM     38  C   UNL A   1      42.834  33.377  32.281  1.00  0.00     0.031 A 
BRANCH  25  39
ATOM     39  C   UNL A   1      46.060  28.188  31.316  1.00  0.00    -0.014 A 
ATOM     40  C   UNL A   1      46.236  27.367  32.445  1.00  0.00     0.010 A 
ATOM     41  C   UNL A   1      47.084  28.246  30.352  1.00  0.00     0.010 A 
ATOM     42  C   UNL A   1      47.423  26.648  32.621  1.00  0.00     0.020 A 
ATOM     43  C   UNL A   1      48.261  27.508  30.510  1.00  0.00     0.020 A 
ATOM     44  C   UNL A   1      48.429  26.725  31.653  1.00  0.00     0.054 A 
BRANCH  44  45
ATOM     45  S   UNL A   1      49.946  25.759  31.895  1.00  0.00     0.124 S 
ATOM     46  O   UNL A   1      50.140  25.167  30.574  1.00  0.00    -0.237 OA
ATOM     47  O   UNL A   1      50.918  26.782  32.273  1.00  0.00    -0.237 OA
ATOM     48  O   UNL A   1      49.594  24.817  32.953  1.00  0.00    -0.744 OA
ENDBRANCH  44  45
ENDBRANCH  25  39
BRANCH  26  49
ATOM     49  C   UNL A   1      37.299  32.810  29.876  1.00  0.00    -0.014 A 
ATOM     50  C   UNL A   1      36.312  32.755  30.874  1.00  0.00     0.010 A 
ATOM     51  C   UNL A   1      37.043  33.539  28.699  1.00  0.00     0.010 A 
ATOM     52  C   UNL A   1      35.088  33.406  30.692  1.00  0.00     0.020 A 
ATOM     53  C   UNL A   1      35.835  34.218  28.529  1.00  0.00     0.020 A 
ATOM     54  C   UNL A   1      34.859  34.137  29.523  1.00  0.00     0.054 A 
BRANCH  54  55
ATOM     55  S   UNL A   1      33.286  35.019  29.336  1.00  0.00     0.124 S 
ATOM     56  O   UNL A   1      32.601  34.208  28.336  1.00  0.00    -0.237 OA
ATOM     57  O   UNL A   1      32.731  34.963  30.686  1.00  0.00    -0.237 OA
ATOM     58  O   UNL A   1      33.691  36.351  28.892  1.00  0.00    -0.744 OA
ENDBRANCH  54  55
ENDBRANCH  26  49
BRANCH  38  59
ATOM     59  C   UNL A   1      43.275  34.637  32.981  1.00  0.00    -0.014 A 
ATOM     60  C   UNL A   1      43.844  35.708  32.270  1.00  0.00     0.010 A 
ATOM     61  C   UNL A   1      43.080  34.761  34.369  1.00  0.00     0.010 A 
ATOM     62  C   UNL A   1      44.246  36.866  32.941  1.00  0.00     0.020 A 
ATOM     63  C   UNL A   1      43.451  35.930  35.037  1.00  0.00     0.020 A 
ATOM     64  C   UNL A   1      44.046  36.969  34.321  1.00  0.00     0.054 A 
BRANCH  64  65
ATOM     65  S   UNL A   1      44.542  38.496  35.162  1.00  0.00     0.124 S 
ATOM     66  O   UNL A   1      45.997  38.371  35.189  1.00  0.00    -0.237 OA
ATOM     67  O   UNL A   1      44.017  39.534  34.279  1.00  0.00    -0.237 OA
ATOM     68  O   UNL A   1      43.886  38.404  36.464  1.00  0.00    -0.744 OA
ENDBRANCH  64  65
ENDBRANCH  38  59
ENDBRANCH  12  13
ENDBRANCH   5   7
ENDBRANCH   2   3
ENDBRANCH   1   2
BRANCH   1  69
ATOM     69  C   UNL A   1      42.128  19.652  27.307  1.00  0.00     0.002 C 
BRANCH  69  70
ATOM     70  C   UNL A   1      42.836  18.416  26.755  1.00  0.00     0.002 C 
BRANCH  70  71
ATOM     71  C   UNL A   1      43.460  18.478  25.358  1.00  0.00     0.021 C 
BRANCH  71  72
ATOM     72  C   UNL A   1      44.766  19.248  25.173  1.00  0.00     0.116 C 
BRANCH  72  73
ATOM     73  N   UNL A   1      44.747  20.263  24.144  1.00  0.00    -0.356 N 
ATOM     74  C   UNL A   1      44.706  21.635  24.330  1.00  0.00     0.224 C 
ATOM     75  H   UNL A   1      44.766  19.945  23.212  1.00  0.00     0.163 HD
ATOM     76  O   UNL A   1      44.548  22.321  23.314  1.00  0.00    -0.275 OA
BRANCH  74  77
ATOM     77  C   UNL A   1      44.769  22.183  25.784  1.00  0.00     0.093 C 
ATOM     78  C   UNL A   1      43.711  23.201  26.316  1.00  0.00     0.029 C 
ATOM     79  C   UNL A   1      45.900  23.155  26.220  1.00  0.00     0.029 C 
ATOM     80  C   UNL A   1      42.967  24.093  25.392  1.00  0.00    -0.026 C 
ATOM     81  C   UNL A   1      44.857  24.074  26.876  1.00  0.00     0.015 C 
ATOM     82  C   UNL A   1      46.571  23.985  25.198  1.00  0.00    -0.026 C 
ATOM     83  C   UNL A   1      43.569  25.286  25.287  1.00  0.00    -0.023 C 
ATOM     84  C   UNL A   1      44.857  25.374  26.047  1.00  0.00     0.038 C 
ATOM     85  C   UNL A   1      46.026  25.202  25.127  1.00  0.00    -0.023 C 
ENDBRANCH  74  77
ENDBRANCH  72  73
ENDBRANCH  71  72
ENDBRANCH  70  71
ENDBRANCH  69  70
ENDBRANCH   1  69
TORSDOF 16
ENDMDL
MODEL 3
REMARK VINA RESULT:      -9.7      0.486      8.488
REMARK SMILES O=C(NCCCCCCNC(=O)[C@H]1[C@H]2C=C[C@H]3C=C[C@@H]1[C@H]32)c1ccc(-c2c3nc(c(-c4ccc(S(=O)(=O)[O-])cc4)c4ccc([nH]4)c(-c4ccc(S(=O)(=O)[O-])cc4)c4nc(c(-c5ccc(S(=O)(=O)[O-])cc5)c5ccc2[nH]5)C=C4)C=C3)cc1
REMARK SMILES IDX 5 1 4 2 3 3 1 4 2 5 22 7 23 8 81 9 24 10 80 11 25 12 26 13
REMARK SMILES IDX 27 14 74 15 28 16 79 17 73 18 75 19 29 20 78 21 72 22 71 23
REMARK SMILES IDX 30 25 60 26 41 27 59 28 42 29 45 30 58 31 76 32 43 33 44 34
REMARK SMILES IDX 57 36 77 37 46 38 31 39 32 40 40 41 33 42 39 43 34 44 35 45
REMARK SMILES IDX 36 46 37 47 38 48 61 49 62 50 70 51 63 52 69 53 64 54 65 55
REMARK SMILES IDX 66 56 67 57 68 58 47 59 48 60 56 61 49 62 55 63 50 64 51 65
REMARK SMILES IDX 52 66 53 67 54 68 6 69 7 70 8 71 9 72 10 73 11 74 12 76
REMARK SMILES IDX 13 77 20 78 14 79 19 80 21 81 15 82 18 83 17 84 16 85
REMARK H PARENT 3 6 75 24 45 35 10 75
REMARK Flexibility Score: inf
ROOT
ATOM      1  C   UNL A   1      33.827  33.817  27.963  1.00  0.00     0.021 C 
ENDROOT
BRANCH   1   2
ATOM      2  C   UNL A   1      34.451  32.552  28.525  1.00  0.00     0.116 C 
BRANCH   2   3
ATOM      3  N   UNL A   1      33.818  31.331  28.064  1.00  0.00    -0.352 N 
ATOM      4  O   UNL A   1      33.686  29.192  27.378  1.00  0.00    -0.269 OA
ATOM      5  C   UNL A   1      34.368  30.087  27.856  1.00  0.00     0.251 C 
ATOM      6  H   UNL A   1      32.855  31.404  27.871  1.00  0.00     0.163 HD
BRANCH   5   7
ATOM      7  C   UNL A   1      35.795  29.843  28.181  1.00  0.00     0.039 A 
ATOM      8  C   UNL A   1      36.802  30.096  27.248  1.00  0.00     0.014 A 
ATOM      9  C   UNL A   1      36.129  29.359  29.450  1.00  0.00     0.014 A 
ATOM     10  C   UNL A   1      38.113  29.725  27.524  1.00  0.00     0.010 A 
ATOM     11  C   UNL A   1      37.463  29.081  29.763  1.00  0.00     0.010 A 
ATOM     12  C   UNL A   1      38.465  29.236  28.793  1.00  0.00    -0.014 A 
BRANCH  12  13
ATOM     13  C   UNL A   1      39.896  28.982  29.100  1.00  0.00     0.031 A 
ATOM     14  C   UNL A   1      40.751  30.020  29.771  1.00  0.00     0.074 A 
ATOM     15  C   UNL A   1      40.414  27.778  28.784  1.00  0.00     0.049 A 
ATOM     16  N   UNL A   1      42.009  29.942  30.125  1.00  0.00    -0.248 NA
ATOM     17  C   UNL A   1      40.123  31.314  30.080  1.00  0.00     0.031 C 
ATOM     18  C   UNL A   1      39.680  26.695  28.120  1.00  0.00     0.029 A 
ATOM     19  N   UNL A   1      41.663  27.252  28.989  1.00  0.00    -0.354 N 
ATOM     20  C   UNL A   1      42.331  31.176  30.677  1.00  0.00     0.074 A 
ATOM     21  C   UNL A   1      41.140  31.996  30.592  1.00  0.00     0.031 C 
ATOM     22  C   UNL A   1      40.474  25.620  28.021  1.00  0.00     0.029 A 
ATOM     23  C   UNL A   1      41.793  25.958  28.541  1.00  0.00     0.049 A 
ATOM     24  H   UNL A   1      42.395  27.751  29.416  1.00  0.00     0.167 HD
ATOM     25  C   UNL A   1      43.510  31.586  31.207  1.00  0.00     0.031 A 
ATOM     26  C   UNL A   1      42.858  25.136  28.526  1.00  0.00     0.031 A 
ATOM     27  C   UNL A   1      44.690  30.761  31.281  1.00  0.00     0.049 A 
ATOM     28  C   UNL A   1      44.159  25.626  29.091  1.00  0.00     0.074 A 
ATOM     29  C   UNL A   1      45.923  31.074  31.829  1.00  0.00     0.029 A 
ATOM     30  N   UNL A   1      44.791  29.469  30.786  1.00  0.00    -0.354 N 
ATOM     31  N   UNL A   1      44.429  26.784  29.643  1.00  0.00    -0.248 NA
ATOM     32  C   UNL A   1      45.295  24.699  29.035  1.00  0.00     0.031 C 
ATOM     33  C   UNL A   1      46.786  29.994  31.610  1.00  0.00     0.029 A 
ATOM     34  C   UNL A   1      46.072  28.982  30.990  1.00  0.00     0.049 A 
ATOM     35  H   UNL A   1      44.060  28.972  30.354  1.00  0.00     0.167 HD
ATOM     36  C   UNL A   1      45.766  26.719  30.017  1.00  0.00     0.074 A 
ATOM     37  C   UNL A   1      46.238  25.400  29.649  1.00  0.00     0.031 C 
ATOM     38  C   UNL A   1      46.530  27.668  30.610  1.00  0.00     0.031 A 
BRANCH  25  39
ATOM     39  C   UNL A   1      43.598  33.000  31.724  1.00  0.00    -0.014 A 
ATOM     40  C   UNL A   1      43.300  33.312  33.062  1.00  0.00     0.010 A 
ATOM     41  C   UNL A   1      44.048  34.025  30.871  1.00  0.00     0.010 A 
ATOM     42  C   UNL A   1      43.418  34.625  33.528  1.00  0.00     0.020 A 
ATOM     43  C   UNL A   1      44.193  35.335  31.338  1.00  0.00     0.020 A 
ATOM     44  C   UNL A   1      43.863  35.629  32.662  1.00  0.00     0.054 A 
BRANCH  44  45
ATOM     45  S   UNL A   1      44.033  37.319  33.302  1.00  0.00     0.124 S 
ATOM     46  O   UNL A   1      45.338  37.264  33.954  1.00  0.00    -0.237 OA
ATOM     47  O   UNL A   1      43.972  38.128  32.086  1.00  0.00    -0.237 OA
ATOM     48  O   UNL A   1      42.893  37.467  34.202  1.00  0.00    -0.744 OA
ENDBRANCH  44  45
ENDBRANCH  25  39
BRANCH  26  49
ATOM     49  C   UNL A   1      42.731  23.777  27.931  1.00  0.00    -0.014 A 
ATOM     50  C   UNL A   1      42.285  22.691  28.703  1.00  0.00     0.010 A 
ATOM     51  C   UNL A   1      43.027  23.573  26.570  1.00  0.00     0.010 A 
ATOM     52  C   UNL A   1      42.150  21.424  28.128  1.00  0.00     0.020 A 
ATOM     53  C   UNL A   1      42.860  22.317  25.984  1.00  0.00     0.020 A 
ATOM     54  C   UNL A   1      42.434  21.247  26.770  1.00  0.00     0.054 A 
BRANCH  54  55
ATOM     55  S   UNL A   1      42.197  19.607  26.034  1.00  0.00     0.124 S 
ATOM     56  O   UNL A   1      40.772  19.618  25.723  1.00  0.00    -0.237 OA
ATOM     57  O   UNL A   1      43.097  19.645  24.883  1.00  0.00    -0.237 OA
ATOM     58  O   UNL A   1      42.600  18.692  27.099  1.00  0.00    -0.744 OA
ENDBRANCH  54  55
ENDBRANCH  26  49
BRANCH  38  59
ATOM     59  C   UNL A   1      47.956  27.300  30.929  1.00  0.00    -0.014 A 
ATOM     60  C   UNL A   1      48.298  26.690  32.150  1.00  0.00     0.010 A 
ATOM     61  C   UNL A   1      48.962  27.535  29.974  1.00  0.00     0.010 A 
ATOM     62  C   UNL A   1      49.628  26.358  32.424  1.00  0.00     0.020 A 
ATOM     63  C   UNL A   1      50.286  27.175  30.232  1.00  0.00     0.020 A 
ATOM     64  C   UNL A   1      50.613  26.602  31.462  1.00  0.00     0.054 A 
BRANCH  64  65
ATOM     65  S   UNL A   1      52.324  26.128  31.827  1.00  0.00     0.124 S 
ATOM     66  O   UNL A   1      52.618  26.936  33.008  1.00  0.00    -0.237 OA
ATOM     67  O   UNL A   1      52.216  24.691  32.060  1.00  0.00    -0.237 OA
ATOM     68  O   UNL A   1      53.054  26.505  30.619  1.00  0.00    -0.744 OA
ENDBRANCH  64  65
ENDBRANCH  38  59
ENDBRANCH  12  13
ENDBRANCH   5   7
ENDBRANCH   2   3
ENDBRANCH   1   2
BRANCH   1  69
ATOM     69  C   UNL A   1      32.957  34.634  28.914  1.00  0.00     0.002 C 
BRANCH  69  70
ATOM     70  C   UNL A   1      33.529  35.951  29.436  1.00  0.00     0.002 C 
BRANCH  70  71
ATOM     71  C   UNL A   1      32.868  36.623  30.644  1.00  0.00     0.021 C 
BRANCH  71  72
ATOM     72  C   UNL A   1      33.461  36.381  32.030  1.00  0.00     0.116 C 
BRANCH  72  73
ATOM     73  N   UNL A   1      33.192  35.079  32.600  1.00  0.00    -0.356 N 
ATOM     74  C   UNL A   1      34.047  33.991  32.628  1.00  0.00     0.224 C 
ATOM     75  H   UNL A   1      32.307  34.955  33.013  1.00  0.00     0.163 HD
ATOM     76  O   UNL A   1      33.567  32.926  33.033  1.00  0.00    -0.275 OA
BRANCH  74  77
ATOM     77  C   UNL A   1      35.488  34.171  32.070  1.00  0.00     0.093 C 
ATOM     78  C   UNL A   1      36.309  32.959  31.531  1.00  0.00     0.029 C 
ATOM     79  C   UNL A   1      36.668  34.531  33.015  1.00  0.00     0.029 C 
ATOM     80  C   UNL A   1      36.038  31.576  31.997  1.00  0.00    -0.026 C 
ATOM     81  C   UNL A   1      37.522  33.429  32.367  1.00  0.00     0.015 C 
ATOM     82  C   UNL A   1      36.581  34.172  34.446  1.00  0.00    -0.026 C 
ATOM     83  C   UNL A   1      36.847  31.243  33.012  1.00  0.00    -0.023 C 
ATOM     84  C   UNL A   1      37.737  32.362  33.459  1.00  0.00     0.038 C 
ATOM     85  C   UNL A   1      37.190  33.010  34.694  1.00  0.00    -0.023 C 
ENDBRANCH  74  77
ENDBRANCH  72  73
ENDBRANCH  71  72
ENDBRANCH  70  71
ENDBRANCH  69  70
ENDBRANCH   1  69
TORSDOF 16
ENDMDL
