MODEL 1
REMARK VINA RESULT:     -10.0      0.000      0.000
REMARK SMILES CC[C@@H](C)[C@@H](C(=O)NCCCCCCNC(=O)c1ccc(-c2c3nc(c(-c4ccc(S(=O)(=O)[O-])cc4)c4ccc([nH]4)c(-c4ccc(S(=O)(=O)[O-])cc4)c4nc(c(-c5ccc(S(=O)(=O)[O-])cc5)c5ccc2[nH]5)C=C4)C=C3)cc1)S(=O)(=O)c1ccc(OC)cc1
REMARK SMILES IDX 11 1 10 2 9 3 8 4 6 5 7 6 5 8 3 9 4 10 2 11 1 12 78 13 79 14
REMARK SMILES IDX 80 15 81 16 82 17 88 18 83 19 87 20 84 21 85 22 86 23 12 24
REMARK SMILES IDX 13 25 14 26 15 27 16 28 17 30 18 31 19 32 77 33 20 34 76 35
REMARK SMILES IDX 21 36 22 37 23 38 70 39 24 40 75 41 69 42 71 43 25 44 74 45
REMARK SMILES IDX 68 46 67 47 26 49 56 50 37 51 55 52 38 53 41 54 54 55 72 56
REMARK SMILES IDX 39 57 40 58 53 60 73 61 42 62 27 63 28 64 36 65 29 66 35 67
REMARK SMILES IDX 30 68 31 69 32 70 33 71 34 72 57 73 58 74 66 75 59 76 65 77
REMARK SMILES IDX 60 78 61 79 62 80 63 81 64 82 43 83 44 84 52 85 45 86 51 87
REMARK SMILES IDX 46 88 47 89 48 90 49 91 50 92
REMARK H PARENT 8 7 15 29 71 48 41 59
REMARK Flexibility Score: inf
ROOT
ATOM      1  C   UNL A   1      32.782  31.738  27.299  1.00  0.00     0.002 C 
ENDROOT
BRANCH   1   2
ATOM      2  C   UNL A   1      32.147  30.393  26.940  1.00  0.00     0.021 C 
BRANCH   2   3
ATOM      3  C   UNL A   1      31.665  30.272  25.488  1.00  0.00     0.116 C 
BRANCH   3   4
ATOM      4  N   UNL A   1      32.698  29.687  24.669  1.00  0.00    -0.355 N 
ATOM      5  C   UNL A   1      32.967  28.474  24.141  1.00  0.00     0.239 C 
ATOM      6  O   UNL A   1      33.927  28.570  23.370  1.00  0.00    -0.274 OA
ATOM      7  H   UNL A   1      33.389  30.348  24.431  1.00  0.00     0.163 HD
BRANCH   5   8
ATOM      8  C   UNL A   1      32.171  27.156  24.347  1.00  0.00     0.205 C 
BRANCH   8   9
ATOM      9  C   UNL A   1      30.618  27.047  24.034  1.00  0.00     0.014 C 
ATOM     10  C   UNL A   1      30.167  25.586  23.840  1.00  0.00     0.009 C 
BRANCH   9  11
ATOM     11  C   UNL A   1      30.181  27.832  22.797  1.00  0.00     0.002 C 
ATOM     12  C   UNL A   1      29.147  28.937  22.964  1.00  0.00     0.004 C 
ENDBRANCH   9  11
ENDBRANCH   8   9
BRANCH   8  13
ATOM     13  S   UNL A   1      32.467  26.645  26.127  1.00  0.00     0.190 S 
ATOM     14  O   UNL A   1      33.636  27.360  26.611  1.00  0.00    -0.223 OA
ATOM     15  O   UNL A   1      31.268  26.739  26.939  1.00  0.00    -0.223 OA
BRANCH  13  16
ATOM     16  C   UNL A   1      32.933  24.904  26.073  1.00  0.00     0.068 A 
ATOM     17  C   UNL A   1      34.143  24.529  25.482  1.00  0.00     0.024 A 
ATOM     18  C   UNL A   1      32.105  23.915  26.606  1.00  0.00     0.024 A 
ATOM     19  C   UNL A   1      34.494  23.173  25.418  1.00  0.00     0.048 A 
ATOM     20  C   UNL A   1      32.446  22.563  26.515  1.00  0.00     0.048 A 
ATOM     21  C   UNL A   1      33.648  22.183  25.930  1.00  0.00     0.118 A 
BRANCH  21  22
ATOM     22  O   UNL A   1      34.096  20.897  25.814  1.00  0.00    -0.497 OA
ATOM     23  C   UNL A   1      33.199  19.966  25.212  1.00  0.00     0.278 C 
ENDBRANCH  21  22
ENDBRANCH  13  16
ENDBRANCH   8  13
ENDBRANCH   5   8
ENDBRANCH   3   4
ENDBRANCH   2   3
ENDBRANCH   1   2
BRANCH   1  24
ATOM     24  C   UNL A   1      34.247  31.662  27.724  1.00  0.00     0.002 C 
BRANCH  24  25
ATOM     25  C   UNL A   1      34.892  30.289  27.533  1.00  0.00     0.021 C 
BRANCH  25  26
ATOM     26  C   UNL A   1      35.550  29.719  28.786  1.00  0.00     0.116 C 
BRANCH  26  27
ATOM     27  N   UNL A   1      35.637  30.710  29.844  1.00  0.00    -0.352 N 
ATOM     28  C   UNL A   1      36.729  31.086  30.583  1.00  0.00     0.251 C 
ATOM     29  H   UNL A   1      34.797  31.176  30.059  1.00  0.00     0.163 HD
ATOM     30  O   UNL A   1      36.582  31.745  31.606  1.00  0.00    -0.269 OA
BRANCH  28  31
ATOM     31  C   UNL A   1      38.080  30.682  30.139  1.00  0.00     0.039 A 
ATOM     32  C   UNL A   1      39.029  30.324  31.097  1.00  0.00     0.014 A 
ATOM     33  C   UNL A   1      38.408  30.672  28.780  1.00  0.00     0.014 A 
ATOM     34  C   UNL A   1      40.299  29.916  30.687  1.00  0.00     0.010 A 
ATOM     35  C   UNL A   1      39.646  30.187  28.370  1.00  0.00     0.010 A 
ATOM     36  C   UNL A   1      40.611  29.823  29.319  1.00  0.00    -0.014 A 
BRANCH  36  37
ATOM     37  C   UNL A   1      41.950  29.364  28.869  1.00  0.00     0.031 A 
ATOM     38  C   UNL A   1      43.098  30.334  28.803  1.00  0.00     0.074 A 
ATOM     39  C   UNL A   1      42.121  28.083  28.484  1.00  0.00     0.049 A 
ATOM     40  N   UNL A   1      44.331  30.127  28.419  1.00  0.00    -0.248 NA
ATOM     41  C   UNL A   1      42.820  31.727  29.195  1.00  0.00     0.031 C 
ATOM     42  C   UNL A   1      41.075  27.057  28.465  1.00  0.00     0.029 A 
ATOM     43  N   UNL A   1      43.238  27.426  28.035  1.00  0.00    -0.354 N 
ATOM     44  C   UNL A   1      44.970  31.359  28.512  1.00  0.00     0.074 A 
ATOM     45  C   UNL A   1      43.974  32.320  28.931  1.00  0.00     0.031 C 
ATOM     46  C   UNL A   1      41.609  25.893  28.061  1.00  0.00     0.029 A 
ATOM     47  C   UNL A   1      43.021  26.098  27.751  1.00  0.00     0.049 A 
ATOM     48  H   UNL A   1      44.113  27.863  27.925  1.00  0.00     0.167 HD
ATOM     49  C   UNL A   1      46.272  31.659  28.290  1.00  0.00     0.031 A 
ATOM     50  C   UNL A   1      43.861  25.150  27.291  1.00  0.00     0.031 A 
ATOM     51  C   UNL A   1      47.259  30.696  27.879  1.00  0.00     0.049 A 
ATOM     52  C   UNL A   1      45.300  25.512  27.039  1.00  0.00     0.074 A 
ATOM     53  C   UNL A   1      48.615  30.887  27.679  1.00  0.00     0.029 A 
ATOM     54  N   UNL A   1      46.998  29.362  27.604  1.00  0.00    -0.354 N 
ATOM     55  N   UNL A   1      45.900  26.668  27.198  1.00  0.00    -0.248 NA
ATOM     56  C   UNL A   1      46.178  24.436  26.561  1.00  0.00     0.031 C 
ATOM     57  C   UNL A   1      49.162  29.685  27.222  1.00  0.00     0.029 A 
ATOM     58  C   UNL A   1      48.163  28.725  27.209  1.00  0.00     0.049 A 
ATOM     59  H   UNL A   1      46.116  28.931  27.679  1.00  0.00     0.167 HD
ATOM     60  C   UNL A   1      47.233  26.450  26.869  1.00  0.00     0.074 A 
ATOM     61  C   UNL A   1      47.353  25.050  26.518  1.00  0.00     0.031 C 
ATOM     62  C   UNL A   1      48.266  27.329  26.860  1.00  0.00     0.031 A 
BRANCH  49  63
ATOM     63  C   UNL A   1      46.700  33.092  28.480  1.00  0.00    -0.014 A 
ATOM     64  C   UNL A   1      47.175  33.553  29.722  1.00  0.00     0.010 A 
ATOM     65  C   UNL A   1      46.664  33.982  27.391  1.00  0.00     0.010 A 
ATOM     66  C   UNL A   1      47.563  34.886  29.881  1.00  0.00     0.020 A 
ATOM     67  C   UNL A   1      47.083  35.308  27.538  1.00  0.00     0.020 A 
ATOM     68  C   UNL A   1      47.513  35.756  28.789  1.00  0.00     0.054 A 
BRANCH  68  69
ATOM     69  S   UNL A   1      48.046  37.474  29.021  1.00  0.00     0.124 S 
ATOM     70  O   UNL A   1      46.770  38.186  29.018  1.00  0.00    -0.237 OA
ATOM     71  O   UNL A   1      48.733  37.424  30.308  1.00  0.00    -0.237 OA
ATOM     72  O   UNL A   1      48.904  37.731  27.867  1.00  0.00    -0.744 OA
ENDBRANCH  68  69
ENDBRANCH  49  63
BRANCH  50  73
ATOM     73  C   UNL A   1      43.365  23.766  27.057  1.00  0.00    -0.014 A 
ATOM     74  C   UNL A   1      43.156  22.887  28.133  1.00  0.00     0.010 A 
ATOM     75  C   UNL A   1      43.090  23.322  25.750  1.00  0.00     0.010 A 
ATOM     76  C   UNL A   1      42.700  21.584  27.907  1.00  0.00     0.020 A 
ATOM     77  C   UNL A   1      42.605  22.031  25.523  1.00  0.00     0.020 A 
ATOM     78  C   UNL A   1      42.425  21.166  26.603  1.00  0.00     0.054 A 
BRANCH  78  79
ATOM     79  S   UNL A   1      41.791  19.487  26.338  1.00  0.00     0.124 S 
ATOM     80  O   UNL A   1      42.231  18.801  27.548  1.00  0.00    -0.237 OA
ATOM     81  O   UNL A   1      40.352  19.710  26.222  1.00  0.00    -0.237 OA
ATOM     82  O   UNL A   1      42.449  19.065  25.103  1.00  0.00    -0.744 OA
ENDBRANCH  78  79
ENDBRANCH  50  73
BRANCH  62  83
ATOM     83  C   UNL A   1      49.627  26.797  26.497  1.00  0.00    -0.014 A 
ATOM     84  C   UNL A   1      50.452  26.175  27.451  1.00  0.00     0.010 A 
ATOM     85  C   UNL A   1      50.068  26.880  25.163  1.00  0.00     0.010 A 
ATOM     86  C   UNL A   1      51.707  25.682  27.085  1.00  0.00     0.020 A 
ATOM     87  C   UNL A   1      51.307  26.359  24.786  1.00  0.00     0.020 A 
ATOM     88  C   UNL A   1      52.127  25.778  25.754  1.00  0.00     0.054 A 
BRANCH  88  89
ATOM     89  S   UNL A   1      53.746  25.098  25.300  1.00  0.00     0.124 S 
ATOM     90  O   UNL A   1      53.499  23.660  25.360  1.00  0.00    -0.237 OA
ATOM     91  O   UNL A   1      53.958  25.645  23.962  1.00  0.00    -0.237 OA
ATOM     92  O   UNL A   1      54.641  25.619  26.331  1.00  0.00    -0.744 OA
ENDBRANCH  88  89
ENDBRANCH  62  83
ENDBRANCH  36  37
ENDBRANCH  28  31
ENDBRANCH  26  27
ENDBRANCH  25  26
ENDBRANCH  24  25
ENDBRANCH   1  24
TORSDOF 21
ENDMDL
MODEL 2
REMARK VINA RESULT:      -8.8      5.881      7.844
REMARK SMILES CC[C@@H](C)[C@@H](C(=O)NCCCCCCNC(=O)c1ccc(-c2c3nc(c(-c4ccc(S(=O)(=O)[O-])cc4)c4ccc([nH]4)c(-c4ccc(S(=O)(=O)[O-])cc4)c4nc(c(-c5ccc(S(=O)(=O)[O-])cc5)c5ccc2[nH]5)C=C4)C=C3)cc1)S(=O)(=O)c1ccc(OC)cc1
REMARK SMILES IDX 11 1 10 2 9 3 8 4 6 5 7 6 5 8 3 9 4 10 2 11 1 12 78 13 79 14
REMARK SMILES IDX 80 15 81 16 82 17 88 18 83 19 87 20 84 21 85 22 86 23 12 24
REMARK SMILES IDX 13 25 14 26 15 27 16 28 17 30 18 31 19 32 77 33 20 34 76 35
REMARK SMILES IDX 21 36 22 37 23 38 70 39 24 40 75 41 69 42 71 43 25 44 74 45
REMARK SMILES IDX 68 46 67 47 26 49 56 50 37 51 55 52 38 53 41 54 54 55 72 56
REMARK SMILES IDX 39 57 40 58 53 60 73 61 42 62 27 63 28 64 36 65 29 66 35 67
REMARK SMILES IDX 30 68 31 69 32 70 33 71 34 72 57 73 58 74 66 75 59 76 65 77
REMARK SMILES IDX 60 78 61 79 62 80 63 81 64 82 43 83 44 84 52 85 45 86 51 87
REMARK SMILES IDX 46 88 47 89 48 90 49 91 50 92
REMARK H PARENT 8 7 15 29 71 48 41 59
REMARK Flexibility Score: inf
ROOT
ATOM      1  C   UNL A   1      34.188  29.063  27.084  1.00  0.00     0.002 C 
ENDROOT
BRANCH   1   2
ATOM      2  C   UNL A   1      32.779  29.043  26.488  1.00  0.00     0.021 C 
BRANCH   2   3
ATOM      3  C   UNL A   1      31.672  28.611  27.459  1.00  0.00     0.116 C 
BRANCH   3   4
ATOM      4  N   UNL A   1      31.352  27.219  27.260  1.00  0.00    -0.355 N 
ATOM      5  C   UNL A   1      31.361  26.345  26.232  1.00  0.00     0.239 C 
ATOM      6  O   UNL A   1      31.135  25.209  26.661  1.00  0.00    -0.274 OA
ATOM      7  H   UNL A   1      31.047  26.794  28.094  1.00  0.00     0.163 HD
BRANCH   5   8
ATOM      8  C   UNL A   1      31.699  26.639  24.744  1.00  0.00     0.205 C 
BRANCH   8   9
ATOM      9  C   UNL A   1      30.712  26.258  23.561  1.00  0.00     0.014 C 
ATOM     10  C   UNL A   1      30.922  27.150  22.320  1.00  0.00     0.009 C 
BRANCH   9  11
ATOM     11  C   UNL A   1      29.233  26.339  23.941  1.00  0.00     0.002 C 
ATOM     12  C   UNL A   1      28.461  27.606  23.599  1.00  0.00     0.004 C 
ENDBRANCH   9  11
ENDBRANCH   8   9
BRANCH   8  13
ATOM     13  S   UNL A   1      33.364  25.838  24.423  1.00  0.00     0.190 S 
ATOM     14  O   UNL A   1      33.915  26.419  23.209  1.00  0.00    -0.223 OA
ATOM     15  O   UNL A   1      34.222  25.851  25.594  1.00  0.00    -0.223 OA
BRANCH  13  16
ATOM     16  C   UNL A   1      33.020  24.111  24.039  1.00  0.00     0.068 A 
ATOM     17  C   UNL A   1      32.930  23.176  25.074  1.00  0.00     0.024 A 
ATOM     18  C   UNL A   1      32.848  23.681  22.722  1.00  0.00     0.024 A 
ATOM     19  C   UNL A   1      32.687  21.828  24.774  1.00  0.00     0.048 A 
ATOM     20  C   UNL A   1      32.633  22.333  22.427  1.00  0.00     0.048 A 
ATOM     21  C   UNL A   1      32.542  21.398  23.451  1.00  0.00     0.118 A 
BRANCH  21  22
ATOM     22  O   UNL A   1      32.306  20.063  23.280  1.00  0.00    -0.497 OA
ATOM     23  C   UNL A   1      32.509  19.233  24.421  1.00  0.00     0.278 C 
ENDBRANCH  21  22
ENDBRANCH  13  16
ENDBRANCH   8  13
ENDBRANCH   5   8
ENDBRANCH   3   4
ENDBRANCH   2   3
ENDBRANCH   1   2
BRANCH   1  24
ATOM     24  C   UNL A   1      34.517  30.302  27.912  1.00  0.00     0.002 C 
BRANCH  24  25
ATOM     25  C   UNL A   1      33.552  31.472  27.713  1.00  0.00     0.021 C 
BRANCH  25  26
ATOM     26  C   UNL A   1      34.227  32.835  27.586  1.00  0.00     0.116 C 
BRANCH  26  27
ATOM     27  N   UNL A   1      33.602  33.824  28.444  1.00  0.00    -0.352 N 
ATOM     28  C   UNL A   1      33.847  34.096  29.766  1.00  0.00     0.251 C 
ATOM     29  H   UNL A   1      32.906  34.376  28.019  1.00  0.00     0.163 HD
ATOM     30  O   UNL A   1      33.059  34.780  30.410  1.00  0.00    -0.269 OA
BRANCH  28  31
ATOM     31  C   UNL A   1      35.063  33.551  30.405  1.00  0.00     0.039 A 
ATOM     32  C   UNL A   1      34.955  32.417  31.209  1.00  0.00     0.014 A 
ATOM     33  C   UNL A   1      36.303  34.170  30.218  1.00  0.00     0.014 A 
ATOM     34  C   UNL A   1      36.101  31.879  31.796  1.00  0.00     0.010 A 
ATOM     35  C   UNL A   1      37.453  33.585  30.736  1.00  0.00     0.010 A 
ATOM     36  C   UNL A   1      37.363  32.445  31.546  1.00  0.00    -0.014 A 
BRANCH  36  37
ATOM     37  C   UNL A   1      38.593  31.866  32.143  1.00  0.00     0.031 A 
ATOM     38  C   UNL A   1      39.040  32.292  33.515  1.00  0.00     0.074 A 
ATOM     39  C   UNL A   1      39.328  30.986  31.433  1.00  0.00     0.049 A 
ATOM     40  N   UNL A   1      40.094  31.915  34.193  1.00  0.00    -0.248 NA
ATOM     41  C   UNL A   1      38.211  33.293  34.208  1.00  0.00     0.031 C 
ATOM     42  C   UNL A   1      39.020  30.525  30.076  1.00  0.00     0.029 A 
ATOM     43  N   UNL A   1      40.484  30.322  31.753  1.00  0.00    -0.354 N 
ATOM     44  C   UNL A   1      40.059  32.636  35.381  1.00  0.00     0.074 A 
ATOM     45  C   UNL A   1      38.915  33.517  35.307  1.00  0.00     0.031 C 
ATOM     46  C   UNL A   1      39.944  29.628  29.697  1.00  0.00     0.029 A 
ATOM     47  C   UNL A   1      40.932  29.481  30.761  1.00  0.00     0.049 A 
ATOM     48  H   UNL A   1      40.951  30.436  32.612  1.00  0.00     0.167 HD
ATOM     49  C   UNL A   1      40.891  32.557  36.447  1.00  0.00     0.031 A 
ATOM     50  C   UNL A   1      42.017  28.683  30.711  1.00  0.00     0.031 A 
ATOM     51  C   UNL A   1      42.024  31.673  36.518  1.00  0.00     0.049 A 
ATOM     52  C   UNL A   1      42.934  28.623  31.903  1.00  0.00     0.074 A 
ATOM     53  C   UNL A   1      42.899  31.479  37.572  1.00  0.00     0.029 A 
ATOM     54  N   UNL A   1      42.442  30.838  35.492  1.00  0.00    -0.354 N 
ATOM     55  N   UNL A   1      42.845  29.264  33.045  1.00  0.00    -0.248 NA
ATOM     56  C   UNL A   1      44.088  27.720  31.805  1.00  0.00     0.031 C 
ATOM     57  C   UNL A   1      43.882  30.573  37.163  1.00  0.00     0.029 A 
ATOM     58  C   UNL A   1      43.578  30.147  35.879  1.00  0.00     0.049 A 
ATOM     59  H   UNL A   1      41.997  30.749  34.618  1.00  0.00     0.167 HD
ATOM     60  C   UNL A   1      43.915  28.817  33.812  1.00  0.00     0.074 A 
ATOM     61  C   UNL A   1      44.625  27.841  33.011  1.00  0.00     0.031 C 
ATOM     62  C   UNL A   1      44.276  29.179  35.069  1.00  0.00     0.031 A 
BRANCH  49  63
ATOM     63  C   UNL A   1      40.609  33.459  37.621  1.00  0.00    -0.014 A 
ATOM     64  C   UNL A   1      41.233  34.715  37.744  1.00  0.00     0.010 A 
ATOM     65  C   UNL A   1      39.676  33.064  38.598  1.00  0.00     0.010 A 
ATOM     66  C   UNL A   1      40.963  35.536  38.842  1.00  0.00     0.020 A 
ATOM     67  C   UNL A   1      39.379  33.898  39.680  1.00  0.00     0.020 A 
ATOM     68  C   UNL A   1      40.039  35.122  39.804  1.00  0.00     0.054 A 
BRANCH  68  69
ATOM     69  S   UNL A   1      39.692  36.220  41.205  1.00  0.00     0.124 S 
ATOM     70  O   UNL A   1      39.652  35.278  42.322  1.00  0.00    -0.237 OA
ATOM     71  O   UNL A   1      40.837  37.127  41.190  1.00  0.00    -0.237 OA
ATOM     72  O   UNL A   1      38.411  36.830  40.861  1.00  0.00    -0.744 OA
ENDBRANCH  68  69
ENDBRANCH  49  63
BRANCH  50  73
ATOM     73  C   UNL A   1      42.283  27.864  29.496  1.00  0.00    -0.014 A 
ATOM     74  C   UNL A   1      41.729  26.580  29.361  1.00  0.00     0.010 A 
ATOM     75  C   UNL A   1      43.088  28.373  28.460  1.00  0.00     0.010 A 
ATOM     76  C   UNL A   1      41.991  25.811  28.223  1.00  0.00     0.020 A 
ATOM     77  C   UNL A   1      43.326  27.620  27.307  1.00  0.00     0.020 A 
ATOM     78  C   UNL A   1      42.786  26.338  27.202  1.00  0.00     0.054 A 
BRANCH  78  79
ATOM     79  S   UNL A   1      43.073  25.340  25.714  1.00  0.00     0.124 S 
ATOM     80  O   UNL A   1      42.430  26.144  24.680  1.00  0.00    -0.237 OA
ATOM     81  O   UNL A   1      44.530  25.278  25.654  1.00  0.00    -0.237 OA
ATOM     82  O   UNL A   1      42.415  24.072  26.021  1.00  0.00    -0.744 OA
ENDBRANCH  78  79
ENDBRANCH  50  73
BRANCH  62  83
ATOM     83  C   UNL A   1      45.471  28.490  35.673  1.00  0.00    -0.014 A 
ATOM     84  C   UNL A   1      45.344  27.277  36.373  1.00  0.00     0.010 A 
ATOM     85  C   UNL A   1      46.752  29.046  35.495  1.00  0.00     0.010 A 
ATOM     86  C   UNL A   1      46.470  26.654  36.918  1.00  0.00     0.020 A 
ATOM     87  C   UNL A   1      47.884  28.409  36.008  1.00  0.00     0.020 A 
ATOM     88  C   UNL A   1      47.734  27.225  36.731  1.00  0.00     0.054 A 
BRANCH  88  89
ATOM     89  S   UNL A   1      49.183  26.377  37.417  1.00  0.00     0.124 S 
ATOM     90  O   UNL A   1      49.080  25.056  36.804  1.00  0.00    -0.237 OA
ATOM     91  O   UNL A   1      50.290  27.205  36.947  1.00  0.00    -0.237 OA
ATOM     92  O   UNL A   1      48.953  26.412  38.860  1.00  0.00    -0.744 OA
ENDBRANCH  88  89
ENDBRANCH  62  83
ENDBRANCH  36  37
ENDBRANCH  28  31
ENDBRANCH  26  27
ENDBRANCH  25  26
ENDBRANCH  24  25
ENDBRANCH   1  24
TORSDOF 21
ENDMDL
MODEL 3
REMARK VINA RESULT:      -8.8      2.225      3.223
REMARK SMILES CC[C@@H](C)[C@@H](C(=O)NCCCCCCNC(=O)c1ccc(-c2c3nc(c(-c4ccc(S(=O)(=O)[O-])cc4)c4ccc([nH]4)c(-c4ccc(S(=O)(=O)[O-])cc4)c4nc(c(-c5ccc(S(=O)(=O)[O-])cc5)c5ccc2[nH]5)C=C4)C=C3)cc1)S(=O)(=O)c1ccc(OC)cc1
REMARK SMILES IDX 11 1 10 2 9 3 8 4 6 5 7 6 5 8 3 9 4 10 2 11 1 12 78 13 79 14
REMARK SMILES IDX 80 15 81 16 82 17 88 18 83 19 87 20 84 21 85 22 86 23 12 24
REMARK SMILES IDX 13 25 14 26 15 27 16 28 17 30 18 31 19 32 77 33 20 34 76 35
REMARK SMILES IDX 21 36 22 37 23 38 70 39 24 40 75 41 69 42 71 43 25 44 74 45
REMARK SMILES IDX 68 46 67 47 26 49 56 50 37 51 55 52 38 53 41 54 54 55 72 56
REMARK SMILES IDX 39 57 40 58 53 60 73 61 42 62 27 63 28 64 36 65 29 66 35 67
REMARK SMILES IDX 30 68 31 69 32 70 33 71 34 72 57 73 58 74 66 75 59 76 65 77
REMARK SMILES IDX 60 78 61 79 62 80 63 81 64 82 43 83 44 84 52 85 45 86 51 87
REMARK SMILES IDX 46 88 47 89 48 90 49 91 50 92
REMARK H PARENT 8 7 15 29 71 48 41 59
REMARK Flexibility Score: inf
ROOT
ATOM      1  C   UNL A   1      32.025  32.611  26.967  1.00  0.00     0.002 C 
ENDROOT
BRANCH   1   2
ATOM      2  C   UNL A   1      31.811  31.096  26.935  1.00  0.00     0.021 C 
BRANCH   2   3
ATOM      3  C   UNL A   1      31.331  30.539  25.588  1.00  0.00     0.116 C 
BRANCH   3   4
ATOM      4  N   UNL A   1      32.437  29.957  24.868  1.00  0.00    -0.355 N 
ATOM      5  C   UNL A   1      32.779  28.734  24.410  1.00  0.00     0.239 C 
ATOM      6  O   UNL A   1      33.790  28.832  23.706  1.00  0.00    -0.274 OA
ATOM      7  H   UNL A   1      33.123  30.630  24.654  1.00  0.00     0.163 HD
BRANCH   5   8
ATOM      8  C   UNL A   1      32.009  27.400  24.611  1.00  0.00     0.205 C 
BRANCH   8   9
ATOM      9  C   UNL A   1      30.425  27.318  24.539  1.00  0.00     0.014 C 
ATOM     10  C   UNL A   1      29.925  25.864  24.418  1.00  0.00     0.009 C 
BRANCH   9  11
ATOM     11  C   UNL A   1      29.817  28.112  23.383  1.00  0.00     0.002 C 
ATOM     12  C   UNL A   1      30.649  28.318  22.125  1.00  0.00     0.004 C 
ENDBRANCH   9  11
ENDBRANCH   8   9
BRANCH   8  13
ATOM     13  S   UNL A   1      32.576  26.718  26.263  1.00  0.00     0.190 S 
ATOM     14  O   UNL A   1      33.667  27.552  26.742  1.00  0.00    -0.223 OA
ATOM     15  O   UNL A   1      31.475  26.501  27.182  1.00  0.00    -0.223 OA
BRANCH  13  16
ATOM     16  C   UNL A   1      33.298  25.104  25.914  1.00  0.00     0.068 A 
ATOM     17  C   UNL A   1      32.581  23.944  26.221  1.00  0.00     0.024 A 
ATOM     18  C   UNL A   1      34.568  24.984  25.346  1.00  0.00     0.024 A 
ATOM     19  C   UNL A   1      33.153  22.687  25.972  1.00  0.00     0.048 A 
ATOM     20  C   UNL A   1      35.143  23.731  25.125  1.00  0.00     0.048 A 
ATOM     21  C   UNL A   1      34.436  22.573  25.428  1.00  0.00     0.118 A 
BRANCH  21  22
ATOM     22  O   UNL A   1      34.888  21.299  25.227  1.00  0.00    -0.497 OA
ATOM     23  C   UNL A   1      33.903  20.268  25.238  1.00  0.00     0.278 C 
ENDBRANCH  21  22
ENDBRANCH  13  16
ENDBRANCH   8  13
ENDBRANCH   5   8
ENDBRANCH   3   4
ENDBRANCH   2   3
ENDBRANCH   1   2
BRANCH   1  24
ATOM     24  C   UNL A   1      33.301  33.063  27.672  1.00  0.00     0.002 C 
BRANCH  24  25
ATOM     25  C   UNL A   1      33.176  34.392  28.419  1.00  0.00     0.021 C 
BRANCH  25  26
ATOM     26  C   UNL A   1      34.255  34.631  29.471  1.00  0.00     0.116 C 
BRANCH  26  27
ATOM     27  N   UNL A   1      33.896  34.045  30.749  1.00  0.00    -0.352 N 
ATOM     28  C   UNL A   1      34.564  33.096  31.480  1.00  0.00     0.251 C 
ATOM     29  H   UNL A   1      33.057  34.374  31.146  1.00  0.00     0.163 HD
ATOM     30  O   UNL A   1      34.000  32.523  32.406  1.00  0.00    -0.269 OA
BRANCH  28  31
ATOM     31  C   UNL A   1      35.962  32.767  31.135  1.00  0.00     0.039 A 
ATOM     32  C   UNL A   1      36.807  32.274  32.130  1.00  0.00     0.014 A 
ATOM     33  C   UNL A   1      36.438  32.959  29.834  1.00  0.00     0.014 A 
ATOM     34  C   UNL A   1      38.122  31.935  31.809  1.00  0.00     0.010 A 
ATOM     35  C   UNL A   1      37.723  32.545  29.499  1.00  0.00     0.010 A 
ATOM     36  C   UNL A   1      38.585  32.046  30.486  1.00  0.00    -0.014 A 
BRANCH  36  37
ATOM     37  C   UNL A   1      39.974  31.663  30.126  1.00  0.00     0.031 A 
ATOM     38  C   UNL A   1      41.092  32.661  30.264  1.00  0.00     0.074 A 
ATOM     39  C   UNL A   1      40.220  30.431  29.639  1.00  0.00     0.049 A 
ATOM     40  N   UNL A   1      42.362  32.520  29.983  1.00  0.00    -0.248 NA
ATOM     41  C   UNL A   1      40.734  34.002  30.759  1.00  0.00     0.031 C 
ATOM     42  C   UNL A   1      39.214  29.389  29.420  1.00  0.00     0.029 A 
ATOM     43  N   UNL A   1      41.394  29.846  29.239  1.00  0.00    -0.354 N 
ATOM     44  C   UNL A   1      42.950  33.750  30.254  1.00  0.00     0.074 A 
ATOM     45  C   UNL A   1      41.890  34.644  30.665  1.00  0.00     0.031 C 
ATOM     46  C   UNL A   1      39.819  28.282  28.961  1.00  0.00     0.029 A 
ATOM     47  C   UNL A   1      41.247  28.547  28.810  1.00  0.00     0.049 A 
ATOM     48  H   UNL A   1      42.262  30.310  29.256  1.00  0.00     0.167 HD
ATOM     49  C   UNL A   1      44.257  34.099  30.190  1.00  0.00     0.031 A 
ATOM     50  C   UNL A   1      42.156  27.669  28.345  1.00  0.00     0.031 A 
ATOM     51  C   UNL A   1      45.308  33.204  29.786  1.00  0.00     0.049 A 
ATOM     52  C   UNL A   1      43.600  28.085  28.269  1.00  0.00     0.074 A 
ATOM     53  C   UNL A   1      46.670  33.443  29.737  1.00  0.00     0.029 A 
ATOM     54  N   UNL A   1      45.116  31.898  29.361  1.00  0.00    -0.354 N 
ATOM     55  N   UNL A   1      44.146  29.233  28.595  1.00  0.00    -0.248 NA
ATOM     56  C   UNL A   1      44.553  27.081  27.777  1.00  0.00     0.031 C 
ATOM     57  C   UNL A   1      47.296  32.304  29.223  1.00  0.00     0.029 A 
ATOM     58  C   UNL A   1      46.332  31.328  29.021  1.00  0.00     0.049 A 
ATOM     59  H   UNL A   1      44.245  31.442  29.308  1.00  0.00     0.167 HD
ATOM     60  C   UNL A   1      45.510  29.077  28.377  1.00  0.00     0.074 A 
ATOM     61  C   UNL A   1      45.707  27.721  27.907  1.00  0.00     0.031 C 
ATOM     62  C   UNL A   1      46.512  29.976  28.552  1.00  0.00     0.031 A 
BRANCH  49  63
ATOM     63  C   UNL A   1      44.620  35.516  30.556  1.00  0.00    -0.014 A 
ATOM     64  C   UNL A   1      44.962  35.864  31.876  1.00  0.00     0.010 A 
ATOM     65  C   UNL A   1      44.658  36.508  29.559  1.00  0.00     0.010 A 
ATOM     66  C   UNL A   1      45.291  37.183  32.199  1.00  0.00     0.020 A 
ATOM     67  C   UNL A   1      45.020  37.821  29.872  1.00  0.00     0.020 A 
ATOM     68  C   UNL A   1      45.317  38.154  31.195  1.00  0.00     0.054 A 
BRANCH  68  69
ATOM     69  S   UNL A   1      45.771  39.852  31.640  1.00  0.00     0.124 S 
ATOM     70  O   UNL A   1      46.286  39.680  32.997  1.00  0.00    -0.237 OA
ATOM     71  O   UNL A   1      46.769  40.191  30.629  1.00  0.00    -0.237 OA
ATOM     72  O   UNL A   1      44.512  40.587  31.542  1.00  0.00    -0.744 OA
ENDBRANCH  68  69
ENDBRANCH  49  63
BRANCH  50  73
ATOM     73  C   UNL A   1      41.728  26.303  27.932  1.00  0.00    -0.014 A 
ATOM     74  C   UNL A   1      41.170  26.079  26.662  1.00  0.00     0.010 A 
ATOM     75  C   UNL A   1      41.888  25.214  28.810  1.00  0.00     0.010 A 
ATOM     76  C   UNL A   1      40.760  24.797  26.284  1.00  0.00     0.020 A 
ATOM     77  C   UNL A   1      41.508  23.926  28.423  1.00  0.00     0.020 A 
ATOM     78  C   UNL A   1      40.935  23.728  27.166  1.00  0.00     0.054 A 
BRANCH  78  79
ATOM     79  S   UNL A   1      40.439  22.066  26.636  1.00  0.00     0.124 S 
ATOM     80  O   UNL A   1      40.556  21.303  27.874  1.00  0.00    -0.237 OA
ATOM     81  O   UNL A   1      39.079  22.283  26.151  1.00  0.00    -0.237 OA
ATOM     82  O   UNL A   1      41.415  21.733  25.600  1.00  0.00    -0.744 OA
ENDBRANCH  78  79
ENDBRANCH  50  73
BRANCH  62  83
ATOM     83  C   UNL A   1      47.917  29.512  28.273  1.00  0.00    -0.014 A 
ATOM     84  C   UNL A   1      48.648  28.772  29.219  1.00  0.00     0.010 A 
ATOM     85  C   UNL A   1      48.497  29.783  27.020  1.00  0.00     0.010 A 
ATOM     86  C   UNL A   1      49.948  28.347  28.932  1.00  0.00     0.020 A 
ATOM     87  C   UNL A   1      49.783  29.330  26.715  1.00  0.00     0.020 A 
ATOM     88  C   UNL A   1      50.507  28.629  27.680  1.00  0.00     0.054 A 
BRANCH  88  89
ATOM     89  S   UNL A   1      52.182  28.034  27.320  1.00  0.00     0.124 S 
ATOM     90  O   UNL A   1      52.035  27.518  25.962  1.00  0.00    -0.237 OA
ATOM     91  O   UNL A   1      52.987  29.247  27.450  1.00  0.00    -0.237 OA
ATOM     92  O   UNL A   1      52.419  27.022  28.348  1.00  0.00    -0.744 OA
ENDBRANCH  88  89
ENDBRANCH  62  83
ENDBRANCH  36  37
ENDBRANCH  28  31
ENDBRANCH  26  27
ENDBRANCH  25  26
ENDBRANCH  24  25
ENDBRANCH   1  24
TORSDOF 21
ENDMDL
