MODEL 1
REMARK VINA RESULT:      -8.9      0.000      0.000
REMARK SMILES CC[NH2+][C@@](C)(C[C@@H](C)Sc1ccncc1)C(=O)NCCCCCCNC(=O)c1ccc(-c2c3nc(c(-c4ccc(S(=O)(=O)[O-])cc4)c4ccc([nH]4)c(-c4ccc(S(=O)(=O)[O-])cc4)c4nc(c(-c5ccc(S(=O)(=O)[O-])cc5)c5ccc2[nH]5)C=C4)C=C3)cc1
REMARK SMILES IDX 21 1 20 2 19 3 18 4 16 5 17 6 4 8 5 9 3 10 2 13 1 14 6 15
REMARK SMILES IDX 7 16 8 17 9 18 10 19 11 20 15 21 12 22 14 23 13 24 22 25
REMARK SMILES IDX 23 26 24 27 25 28 26 29 27 31 28 32 29 33 87 34 30 35 86 36
REMARK SMILES IDX 31 37 32 38 33 39 80 40 34 41 85 42 79 43 81 44 35 45 84 46
REMARK SMILES IDX 78 47 77 48 36 50 66 51 47 52 65 53 48 54 51 55 64 56 82 57
REMARK SMILES IDX 49 58 50 59 63 61 83 62 52 63 37 64 38 65 46 66 39 67 45 68
REMARK SMILES IDX 40 69 41 70 42 71 43 72 44 73 67 74 68 75 76 76 69 77 75 78
REMARK SMILES IDX 70 79 71 80 72 81 73 82 74 83 53 84 54 85 62 86 55 87 61 88
REMARK SMILES IDX 56 89 57 90 58 91 59 92 60 93
REMARK H PARENT 18 7 3 11 3 12 25 30 81 49 51 60
REMARK Flexibility Score: inf
ROOT
ATOM      1  C   UNL A   1      40.595  22.683  26.604  1.00  0.00     0.002 C 
ENDROOT
BRANCH   1   2
ATOM      2  C   UNL A   1      39.138  23.143  26.530  1.00  0.00     0.021 C 
BRANCH   2   3
ATOM      3  C   UNL A   1      38.189  22.133  25.891  1.00  0.00     0.116 C 
BRANCH   3   4
ATOM      4  N   UNL A   1      37.704  22.613  24.614  1.00  0.00    -0.351 N 
ATOM      5  C   UNL A   1      36.493  22.573  23.995  1.00  0.00     0.281 C 
ATOM      6  O   UNL A   1      36.508  22.986  22.828  1.00  0.00    -0.268 OA
ATOM      7  H   UNL A   1      38.398  23.065  24.081  1.00  0.00     0.163 HD
BRANCH   5   8
ATOM      8  C   UNL A   1      35.185  22.055  24.700  1.00  0.00     0.173 C 
ATOM      9  C   UNL A   1      35.282  20.525  24.931  1.00  0.00     0.090 C 
BRANCH   8  10
ATOM     10  N   UNL A   1      34.997  22.714  26.034  1.00  0.00    -0.334 N 
ATOM     11  H   UNL A   1      35.890  23.121  26.315  1.00  0.00     0.347 HD
ATOM     12  H   UNL A   1      34.258  23.406  25.909  1.00  0.00     0.347 HD
BRANCH  10  13
ATOM     13  C   UNL A   1      34.546  21.821  27.111  1.00  0.00     0.257 C 
ATOM     14  C   UNL A   1      33.255  22.347  27.724  1.00  0.00     0.071 C 
ENDBRANCH  10  13
ENDBRANCH   8  10
BRANCH   8  15
ATOM     15  C   UNL A   1      33.909  22.335  23.848  1.00  0.00     0.093 C 
BRANCH  15  16
ATOM     16  C   UNL A   1      33.404  23.777  23.648  1.00  0.00     0.055 C 
ATOM     17  C   UNL A   1      33.276  24.283  22.219  1.00  0.00     0.020 C 
BRANCH  16  18
ATOM     18  S   UNL A   1      31.804  24.043  24.594  1.00  0.00    -0.123 SA
BRANCH  18  19
ATOM     19  C   UNL A   1      31.257  25.717  24.250  1.00  0.00     0.011 A 
ATOM     20  C   UNL A   1      30.004  26.022  23.728  1.00  0.00     0.035 A 
ATOM     21  C   UNL A   1      32.050  26.777  24.697  1.00  0.00     0.035 A 
ATOM     22  C   UNL A   1      29.634  27.356  23.595  1.00  0.00     0.112 A 
ATOM     23  C   UNL A   1      31.587  28.077  24.545  1.00  0.00     0.112 A 
ATOM     24  N   UNL A   1      30.406  28.390  23.974  1.00  0.00    -0.265 NA
ENDBRANCH  18  19
ENDBRANCH  16  18
ENDBRANCH  15  16
ENDBRANCH   8  15
ENDBRANCH   5   8
ENDBRANCH   3   4
ENDBRANCH   2   3
ENDBRANCH   1   2
BRANCH   1  25
ATOM     25  C   UNL A   1      40.904  21.764  27.788  1.00  0.00     0.002 C 
BRANCH  25  26
ATOM     26  C   UNL A   1      41.340  20.347  27.406  1.00  0.00     0.021 C 
BRANCH  26  27
ATOM     27  C   UNL A   1      41.301  20.053  25.909  1.00  0.00     0.116 C 
BRANCH  27  28
ATOM     28  N   UNL A   1      42.536  19.437  25.452  1.00  0.00    -0.352 N 
ATOM     29  C   UNL A   1      43.741  20.024  25.166  1.00  0.00     0.251 C 
ATOM     30  H   UNL A   1      42.502  18.460  25.331  1.00  0.00     0.163 HD
ATOM     31  O   UNL A   1      44.606  19.391  24.562  1.00  0.00    -0.269 OA
BRANCH  29  32
ATOM     32  C   UNL A   1      43.990  21.424  25.568  1.00  0.00     0.039 A 
ATOM     33  C   UNL A   1      44.443  21.687  26.863  1.00  0.00     0.014 A 
ATOM     34  C   UNL A   1      43.775  22.474  24.670  1.00  0.00     0.014 A 
ATOM     35  C   UNL A   1      44.734  23.000  27.238  1.00  0.00     0.010 A 
ATOM     36  C   UNL A   1      44.135  23.772  25.023  1.00  0.00     0.010 A 
ATOM     37  C   UNL A   1      44.616  24.049  26.312  1.00  0.00    -0.014 A 
BRANCH  37  38
ATOM     38  C   UNL A   1      44.995  25.440  26.673  1.00  0.00     0.031 A 
ATOM     39  C   UNL A   1      43.958  26.401  27.187  1.00  0.00     0.074 A 
ATOM     40  C   UNL A   1      46.265  25.853  26.484  1.00  0.00     0.049 A 
ATOM     41  N   UNL A   1      44.090  27.664  27.503  1.00  0.00    -0.248 NA
ATOM     42  C   UNL A   1      42.590  25.883  27.348  1.00  0.00     0.031 C 
ATOM     43  C   UNL A   1      47.357  25.027  25.964  1.00  0.00     0.029 A 
ATOM     44  N   UNL A   1      46.852  27.075  26.705  1.00  0.00    -0.354 N 
ATOM     45  C   UNL A   1      42.825  28.093  27.887  1.00  0.00     0.074 A 
ATOM     46  C   UNL A   1      41.929  26.971  27.715  1.00  0.00     0.031 C 
ATOM     47  C   UNL A   1      48.484  25.754  25.933  1.00  0.00     0.029 A 
ATOM     48  C   UNL A   1      48.190  27.110  26.385  1.00  0.00     0.049 A 
ATOM     49  H   UNL A   1      46.362  27.851  27.060  1.00  0.00     0.167 HD
ATOM     50  C   UNL A   1      42.447  29.306  28.356  1.00  0.00     0.031 A 
ATOM     51  C   UNL A   1      49.078  28.122  26.439  1.00  0.00     0.031 A 
ATOM     52  C   UNL A   1      43.342  30.420  28.528  1.00  0.00     0.049 A 
ATOM     53  C   UNL A   1      48.627  29.469  26.934  1.00  0.00     0.074 A 
ATOM     54  C   UNL A   1      43.064  31.675  29.040  1.00  0.00     0.029 A 
ATOM     55  N   UNL A   1      44.686  30.417  28.185  1.00  0.00    -0.354 N 
ATOM     56  N   UNL A   1      47.438  29.837  27.351  1.00  0.00    -0.248 NA
ATOM     57  C   UNL A   1      49.637  30.535  26.975  1.00  0.00     0.031 C 
ATOM     58  C   UNL A   1      44.225  32.450  28.952  1.00  0.00     0.029 A 
ATOM     59  C   UNL A   1      45.244  31.657  28.449  1.00  0.00     0.049 A 
ATOM     60  H   UNL A   1      45.172  29.647  27.810  1.00  0.00     0.167 HD
ATOM     61  C   UNL A   1      47.566  31.168  27.731  1.00  0.00     0.074 A 
ATOM     62  C   UNL A   1      48.950  31.536  27.510  1.00  0.00     0.031 C 
ATOM     63  C   UNL A   1      46.623  32.010  28.222  1.00  0.00     0.031 A 
BRANCH  50  64
ATOM     64  C   UNL A   1      40.994  29.496  28.713  1.00  0.00    -0.014 A 
ATOM     65  C   UNL A   1      40.000  29.533  27.718  1.00  0.00     0.010 A 
ATOM     66  C   UNL A   1      40.612  29.592  30.063  1.00  0.00     0.010 A 
ATOM     67  C   UNL A   1      38.656  29.700  28.065  1.00  0.00     0.020 A 
ATOM     68  C   UNL A   1      39.266  29.728  30.416  1.00  0.00     0.020 A 
ATOM     69  C   UNL A   1      38.298  29.796  29.413  1.00  0.00     0.054 A 
BRANCH  69  70
ATOM     70  S   UNL A   1      36.543  29.983  29.833  1.00  0.00     0.124 S 
ATOM     71  O   UNL A   1      36.454  29.244  31.090  1.00  0.00    -0.237 OA
ATOM     72  O   UNL A   1      36.394  31.432  29.945  1.00  0.00    -0.237 OA
ATOM     73  O   UNL A   1      35.848  29.373  28.703  1.00  0.00    -0.744 OA
ENDBRANCH  69  70
ENDBRANCH  50  64
BRANCH  51  74
ATOM     74  C   UNL A   1      50.489  27.897  26.018  1.00  0.00    -0.014 A 
ATOM     75  C   UNL A   1      50.907  28.218  24.714  1.00  0.00     0.010 A 
ATOM     76  C   UNL A   1      51.426  27.364  26.924  1.00  0.00     0.010 A 
ATOM     77  C   UNL A   1      52.230  27.995  24.319  1.00  0.00     0.020 A 
ATOM     78  C   UNL A   1      52.755  27.169  26.541  1.00  0.00     0.020 A 
ATOM     79  C   UNL A   1      53.147  27.474  25.237  1.00  0.00     0.054 A 
BRANCH  79  80
ATOM     80  S   UNL A   1      54.869  27.240  24.717  1.00  0.00     0.124 S 
ATOM     81  O   UNL A   1      55.456  26.603  25.891  1.00  0.00    -0.237 OA
ATOM     82  O   UNL A   1      54.729  26.391  23.537  1.00  0.00    -0.237 OA
ATOM     83  O   UNL A   1      55.331  28.599  24.445  1.00  0.00    -0.744 OA
ENDBRANCH  79  80
ENDBRANCH  51  74
BRANCH  63  84
ATOM     84  C   UNL A   1      47.058  33.405  28.590  1.00  0.00    -0.014 A 
ATOM     85  C   UNL A   1      47.578  33.697  29.864  1.00  0.00     0.010 A 
ATOM     86  C   UNL A   1      47.002  34.424  27.623  1.00  0.00     0.010 A 
ATOM     87  C   UNL A   1      48.005  34.992  30.170  1.00  0.00     0.020 A 
ATOM     88  C   UNL A   1      47.457  35.713  27.916  1.00  0.00     0.020 A 
ATOM     89  C   UNL A   1      47.945  35.991  29.194  1.00  0.00     0.054 A 
BRANCH  89  90
ATOM     90  S   UNL A   1      48.552  37.649  29.604  1.00  0.00     0.124 S 
ATOM     91  O   UNL A   1      49.794  37.717  28.839  1.00  0.00    -0.237 OA
ATOM     92  O   UNL A   1      47.473  38.512  29.131  1.00  0.00    -0.237 OA
ATOM     93  O   UNL A   1      48.718  37.609  31.056  1.00  0.00    -0.744 OA
ENDBRANCH  89  90
ENDBRANCH  63  84
ENDBRANCH  37  38
ENDBRANCH  29  32
ENDBRANCH  27  28
ENDBRANCH  26  27
ENDBRANCH  25  26
ENDBRANCH   1  25
TORSDOF 22
ENDMDL
MODEL 2
REMARK VINA RESULT:      -8.8      4.846      9.179
REMARK SMILES CC[NH2+][C@@](C)(C[C@@H](C)Sc1ccncc1)C(=O)NCCCCCCNC(=O)c1ccc(-c2c3nc(c(-c4ccc(S(=O)(=O)[O-])cc4)c4ccc([nH]4)c(-c4ccc(S(=O)(=O)[O-])cc4)c4nc(c(-c5ccc(S(=O)(=O)[O-])cc5)c5ccc2[nH]5)C=C4)C=C3)cc1
REMARK SMILES IDX 21 1 20 2 19 3 18 4 16 5 17 6 4 8 5 9 3 10 2 13 1 14 6 15
REMARK SMILES IDX 7 16 8 17 9 18 10 19 11 20 15 21 12 22 14 23 13 24 22 25
REMARK SMILES IDX 23 26 24 27 25 28 26 29 27 31 28 32 29 33 87 34 30 35 86 36
REMARK SMILES IDX 31 37 32 38 33 39 80 40 34 41 85 42 79 43 81 44 35 45 84 46
REMARK SMILES IDX 78 47 77 48 36 50 66 51 47 52 65 53 48 54 51 55 64 56 82 57
REMARK SMILES IDX 49 58 50 59 63 61 83 62 52 63 37 64 38 65 46 66 39 67 45 68
REMARK SMILES IDX 40 69 41 70 42 71 43 72 44 73 67 74 68 75 76 76 69 77 75 78
REMARK SMILES IDX 70 79 71 80 72 81 73 82 74 83 53 84 54 85 62 86 55 87 61 88
REMARK SMILES IDX 56 89 57 90 58 91 59 92 60 93
REMARK H PARENT 18 7 3 11 3 12 25 30 81 49 51 60
REMARK Flexibility Score: inf
ROOT
ATOM      1  C   UNL A   1      38.429  23.387  26.204  1.00  0.00     0.002 C 
ENDROOT
BRANCH   1   2
ATOM      2  C   UNL A   1      37.400  22.741  25.274  1.00  0.00     0.021 C 
BRANCH   2   3
ATOM      3  C   UNL A   1      36.002  22.610  25.873  1.00  0.00     0.116 C 
BRANCH   3   4
ATOM      4  N   UNL A   1      35.083  22.024  24.920  1.00  0.00    -0.351 N 
ATOM      5  C   UNL A   1      33.963  22.479  24.294  1.00  0.00     0.281 C 
ATOM      6  O   UNL A   1      33.367  21.618  23.635  1.00  0.00    -0.268 OA
ATOM      7  H   UNL A   1      35.318  21.100  24.672  1.00  0.00     0.163 HD
BRANCH   5   8
ATOM      8  C   UNL A   1      33.471  23.970  24.392  1.00  0.00     0.173 C 
ATOM      9  C   UNL A   1      34.691  24.920  24.510  1.00  0.00     0.090 C 
BRANCH   8  10
ATOM     10  N   UNL A   1      32.697  24.362  23.168  1.00  0.00    -0.334 N 
ATOM     11  H   UNL A   1      32.849  23.648  22.455  1.00  0.00     0.347 HD
ATOM     12  H   UNL A   1      31.723  24.441  23.461  1.00  0.00     0.347 HD
BRANCH  10  13
ATOM     13  C   UNL A   1      33.060  25.665  22.593  1.00  0.00     0.257 C 
ATOM     14  C   UNL A   1      32.448  25.817  21.207  1.00  0.00     0.071 C 
ENDBRANCH  10  13
ENDBRANCH   8  10
BRANCH   8  15
ATOM     15  C   UNL A   1      32.554  24.205  25.630  1.00  0.00     0.093 C 
BRANCH  15  16
ATOM     16  C   UNL A   1      31.040  23.935  25.543  1.00  0.00     0.055 C 
ATOM     17  C   UNL A   1      30.508  22.690  26.238  1.00  0.00     0.020 C 
BRANCH  16  18
ATOM     18  S   UNL A   1      30.076  25.456  26.077  1.00  0.00    -0.123 SA
BRANCH  18  19
ATOM     19  C   UNL A   1      30.308  26.703  24.808  1.00  0.00     0.011 A 
ATOM     20  C   UNL A   1      29.496  26.813  23.683  1.00  0.00     0.035 A 
ATOM     21  C   UNL A   1      31.228  27.728  25.048  1.00  0.00     0.035 A 
ATOM     22  C   UNL A   1      29.691  27.878  22.811  1.00  0.00     0.112 A 
ATOM     23  C   UNL A   1      31.336  28.765  24.132  1.00  0.00     0.112 A 
ATOM     24  N   UNL A   1      30.607  28.845  23.000  1.00  0.00    -0.265 NA
ENDBRANCH  18  19
ENDBRANCH  16  18
ENDBRANCH  15  16
ENDBRANCH   8  15
ENDBRANCH   5   8
ENDBRANCH   3   4
ENDBRANCH   2   3
ENDBRANCH   1   2
BRANCH   1  25
ATOM     25  C   UNL A   1      39.473  22.413  26.757  1.00  0.00     0.002 C 
BRANCH  25  26
ATOM     26  C   UNL A   1      39.801  21.231  25.840  1.00  0.00     0.021 C 
BRANCH  26  27
ATOM     27  C   UNL A   1      40.613  20.121  26.502  1.00  0.00     0.116 C 
BRANCH  27  28
ATOM     28  N   UNL A   1      41.910  19.957  25.870  1.00  0.00    -0.352 N 
ATOM     29  C   UNL A   1      42.951  20.846  25.788  1.00  0.00     0.251 C 
ATOM     30  H   UNL A   1      42.065  19.085  25.439  1.00  0.00     0.163 HD
ATOM     31  O   UNL A   1      43.881  20.635  25.010  1.00  0.00    -0.269 OA
BRANCH  29  32
ATOM     32  C   UNL A   1      42.942  22.066  26.621  1.00  0.00     0.039 A 
ATOM     33  C   UNL A   1      43.200  23.300  26.018  1.00  0.00     0.014 A 
ATOM     34  C   UNL A   1      42.683  21.993  27.993  1.00  0.00     0.014 A 
ATOM     35  C   UNL A   1      43.142  24.467  26.784  1.00  0.00     0.010 A 
ATOM     36  C   UNL A   1      42.554  23.162  28.737  1.00  0.00     0.010 A 
ATOM     37  C   UNL A   1      42.785  24.412  28.141  1.00  0.00    -0.014 A 
BRANCH  37  38
ATOM     38  C   UNL A   1      42.643  25.651  28.950  1.00  0.00     0.031 A 
ATOM     39  C   UNL A   1      43.719  26.048  29.923  1.00  0.00     0.074 A 
ATOM     40  C   UNL A   1      41.519  26.387  28.846  1.00  0.00     0.049 A 
ATOM     41  N   UNL A   1      43.748  27.064  30.748  1.00  0.00    -0.248 NA
ATOM     42  C   UNL A   1      44.908  25.184  29.994  1.00  0.00     0.031 C 
ATOM     43  C   UNL A   1      40.389  26.091  27.962  1.00  0.00     0.029 A 
ATOM     44  N   UNL A   1      41.137  27.536  29.494  1.00  0.00    -0.354 N 
ATOM     45  C   UNL A   1      44.947  26.954  31.444  1.00  0.00     0.074 A 
ATOM     46  C   UNL A   1      45.593  25.745  30.980  1.00  0.00     0.031 C 
ATOM     47  C   UNL A   1      39.458  27.047  28.101  1.00  0.00     0.029 A 
ATOM     48  C   UNL A   1      39.897  27.998  29.116  1.00  0.00     0.049 A 
ATOM     49  H   UNL A   1      41.699  27.987  30.165  1.00  0.00     0.167 HD
ATOM     50  C   UNL A   1      45.470  27.790  32.371  1.00  0.00     0.031 A 
ATOM     51  C   UNL A   1      39.189  29.061  29.546  1.00  0.00     0.031 A 
ATOM     52  C   UNL A   1      44.825  28.993  32.828  1.00  0.00     0.049 A 
ATOM     53  C   UNL A   1      39.778  29.959  30.599  1.00  0.00     0.074 A 
ATOM     54  C   UNL A   1      45.296  29.931  33.730  1.00  0.00     0.029 A 
ATOM     55  N   UNL A   1      43.568  29.420  32.427  1.00  0.00    -0.354 N 
ATOM     56  N   UNL A   1      40.941  29.870  31.200  1.00  0.00    -0.248 NA
ATOM     57  C   UNL A   1      38.964  31.104  31.027  1.00  0.00     0.031 C 
ATOM     58  C   UNL A   1      44.299  30.894  33.918  1.00  0.00     0.029 A 
ATOM     59  C   UNL A   1      43.235  30.594  33.083  1.00  0.00     0.049 A 
ATOM     60  H   UNL A   1      42.997  28.958  31.771  1.00  0.00     0.167 HD
ATOM     61  C   UNL A   1      41.010  30.965  32.054  1.00  0.00     0.074 A 
ATOM     62  C   UNL A   1      39.779  31.708  31.881  1.00  0.00     0.031 C 
ATOM     63  C   UNL A   1      42.005  31.323  32.902  1.00  0.00     0.031 A 
BRANCH  50  64
ATOM     64  C   UNL A   1      46.810  27.430  32.962  1.00  0.00    -0.014 A 
ATOM     65  C   UNL A   1      46.906  26.602  34.095  1.00  0.00     0.010 A 
ATOM     66  C   UNL A   1      47.991  27.886  32.348  1.00  0.00     0.010 A 
ATOM     67  C   UNL A   1      48.156  26.269  34.625  1.00  0.00     0.020 A 
ATOM     68  C   UNL A   1      49.243  27.530  32.856  1.00  0.00     0.020 A 
ATOM     69  C   UNL A   1      49.317  26.736  34.001  1.00  0.00     0.054 A 
BRANCH  69  70
ATOM     70  S   UNL A   1      50.925  26.262  34.696  1.00  0.00     0.124 S 
ATOM     71  O   UNL A   1      50.701  26.449  36.128  1.00  0.00    -0.237 OA
ATOM     72  O   UNL A   1      51.066  24.876  34.259  1.00  0.00    -0.237 OA
ATOM     73  O   UNL A   1      51.858  27.205  34.085  1.00  0.00    -0.744 OA
ENDBRANCH  69  70
ENDBRANCH  50  64
BRANCH  51  74
ATOM     74  C   UNL A   1      37.843  29.338  28.971  1.00  0.00    -0.014 A 
ATOM     75  C   UNL A   1      36.691  29.252  29.773  1.00  0.00     0.010 A 
ATOM     76  C   UNL A   1      37.707  29.698  27.617  1.00  0.00     0.010 A 
ATOM     77  C   UNL A   1      35.427  29.503  29.228  1.00  0.00     0.020 A 
ATOM     78  C   UNL A   1      36.449  29.980  27.077  1.00  0.00     0.020 A 
ATOM     79  C   UNL A   1      35.315  29.868  27.883  1.00  0.00     0.054 A 
BRANCH  79  80
ATOM     80  S   UNL A   1      33.672  30.238  27.210  1.00  0.00     0.124 S 
ATOM     81  O   UNL A   1      33.452  31.602  27.679  1.00  0.00    -0.237 OA
ATOM     82  O   UNL A   1      33.879  30.087  25.772  1.00  0.00    -0.237 OA
ATOM     83  O   UNL A   1      32.817  29.221  27.819  1.00  0.00    -0.744 OA
ENDBRANCH  79  80
ENDBRANCH  51  74
BRANCH  63  84
ATOM     84  C   UNL A   1      41.825  32.596  33.689  1.00  0.00    -0.014 A 
ATOM     85  C   UNL A   1      41.325  32.579  35.003  1.00  0.00     0.010 A 
ATOM     86  C   UNL A   1      42.220  33.821  33.122  1.00  0.00     0.010 A 
ATOM     87  C   UNL A   1      41.197  33.770  35.724  1.00  0.00     0.020 A 
ATOM     88  C   UNL A   1      42.123  35.009  33.850  1.00  0.00     0.020 A 
ATOM     89  C   UNL A   1      41.600  34.977  35.144  1.00  0.00     0.054 A 
BRANCH  89  90
ATOM     90  S   UNL A   1      41.469  36.499  36.121  1.00  0.00     0.124 S 
ATOM     91  O   UNL A   1      42.428  37.374  35.452  1.00  0.00    -0.237 OA
ATOM     92  O   UNL A   1      40.065  36.864  35.959  1.00  0.00    -0.237 OA
ATOM     93  O   UNL A   1      41.846  36.080  37.470  1.00  0.00    -0.744 OA
ENDBRANCH  89  90
ENDBRANCH  63  84
ENDBRANCH  37  38
ENDBRANCH  29  32
ENDBRANCH  27  28
ENDBRANCH  26  27
ENDBRANCH  25  26
ENDBRANCH   1  25
TORSDOF 22
ENDMDL
MODEL 3
REMARK VINA RESULT:      -8.8      0.688      8.183
REMARK SMILES CC[NH2+][C@@](C)(C[C@@H](C)Sc1ccncc1)C(=O)NCCCCCCNC(=O)c1ccc(-c2c3nc(c(-c4ccc(S(=O)(=O)[O-])cc4)c4ccc([nH]4)c(-c4ccc(S(=O)(=O)[O-])cc4)c4nc(c(-c5ccc(S(=O)(=O)[O-])cc5)c5ccc2[nH]5)C=C4)C=C3)cc1
REMARK SMILES IDX 21 1 20 2 19 3 18 4 16 5 17 6 4 8 5 9 3 10 2 13 1 14 6 15
REMARK SMILES IDX 7 16 8 17 9 18 10 19 11 20 15 21 12 22 14 23 13 24 22 25
REMARK SMILES IDX 23 26 24 27 25 28 26 29 27 31 28 32 29 33 87 34 30 35 86 36
REMARK SMILES IDX 31 37 32 38 33 39 80 40 34 41 85 42 79 43 81 44 35 45 84 46
REMARK SMILES IDX 78 47 77 48 36 50 66 51 47 52 65 53 48 54 51 55 64 56 82 57
REMARK SMILES IDX 49 58 50 59 63 61 83 62 52 63 37 64 38 65 46 66 39 67 45 68
REMARK SMILES IDX 40 69 41 70 42 71 43 72 44 73 67 74 68 75 76 76 69 77 75 78
REMARK SMILES IDX 70 79 71 80 72 81 73 82 74 83 53 84 54 85 62 86 55 87 61 88
REMARK SMILES IDX 56 89 57 90 58 91 59 92 60 93
REMARK H PARENT 18 7 3 11 3 12 25 30 81 49 51 60
REMARK Flexibility Score: inf
ROOT
ATOM      1  C   UNL A   1      40.577  22.277  26.468  1.00  0.00     0.002 C 
ENDROOT
BRANCH   1   2
ATOM      2  C   UNL A   1      39.154  22.830  26.554  1.00  0.00     0.021 C 
BRANCH   2   3
ATOM      3  C   UNL A   1      38.095  21.955  25.888  1.00  0.00     0.116 C 
BRANCH   3   4
ATOM      4  N   UNL A   1      37.759  22.457  24.572  1.00  0.00    -0.351 N 
ATOM      5  C   UNL A   1      36.583  22.664  23.919  1.00  0.00     0.281 C 
ATOM      6  O   UNL A   1      36.715  22.990  22.732  1.00  0.00    -0.268 OA
ATOM      7  H   UNL A   1      38.549  22.701  24.037  1.00  0.00     0.163 HD
BRANCH   5   8
ATOM      8  C   UNL A   1      35.178  22.509  24.610  1.00  0.00     0.173 C 
ATOM      9  C   UNL A   1      34.711  21.033  24.528  1.00  0.00     0.090 C 
BRANCH   8  10
ATOM     10  N   UNL A   1      35.247  22.892  26.059  1.00  0.00    -0.334 N 
ATOM     11  H   UNL A   1      36.216  23.123  26.280  1.00  0.00     0.347 HD
ATOM     12  H   UNL A   1      34.607  23.677  26.176  1.00  0.00     0.347 HD
BRANCH  10  13
ATOM     13  C   UNL A   1      34.801  21.854  26.999  1.00  0.00     0.257 C 
ATOM     14  C   UNL A   1      33.668  22.384  27.868  1.00  0.00     0.071 C 
ENDBRANCH  10  13
ENDBRANCH   8  10
BRANCH   8  15
ATOM     15  C   UNL A   1      34.091  23.398  23.934  1.00  0.00     0.093 C 
BRANCH  15  16
ATOM     16  C   UNL A   1      32.791  23.747  24.683  1.00  0.00     0.055 C 
ATOM     17  C   UNL A   1      32.748  25.067  25.438  1.00  0.00     0.020 C 
BRANCH  16  18
ATOM     18  S   UNL A   1      31.315  23.592  23.531  1.00  0.00    -0.123 SA
BRANCH  18  19
ATOM     19  C   UNL A   1      30.696  25.250  23.237  1.00  0.00     0.011 A 
ATOM     20  C   UNL A   1      29.634  25.809  23.941  1.00  0.00     0.035 A 
ATOM     21  C   UNL A   1      31.429  26.089  22.393  1.00  0.00     0.035 A 
ATOM     22  C   UNL A   1      29.297  27.138  23.713  1.00  0.00     0.112 A 
ATOM     23  C   UNL A   1      31.031  27.412  22.246  1.00  0.00     0.112 A 
ATOM     24  N   UNL A   1      29.960  27.945  22.866  1.00  0.00    -0.265 NA
ENDBRANCH  18  19
ENDBRANCH  16  18
ENDBRANCH  15  16
ENDBRANCH   8  15
ENDBRANCH   5   8
ENDBRANCH   3   4
ENDBRANCH   2   3
ENDBRANCH   1   2
BRANCH   1  25
ATOM     25  C   UNL A   1      40.976  21.386  27.647  1.00  0.00     0.002 C 
BRANCH  25  26
ATOM     26  C   UNL A   1      41.444  19.980  27.261  1.00  0.00     0.021 C 
BRANCH  26  27
ATOM     27  C   UNL A   1      41.499  19.719  25.758  1.00  0.00     0.116 C 
BRANCH  27  28
ATOM     28  N   UNL A   1      42.786  19.176  25.356  1.00  0.00    -0.352 N 
ATOM     29  C   UNL A   1      43.958  19.835  25.092  1.00  0.00     0.251 C 
ATOM     30  H   UNL A   1      42.821  18.197  25.260  1.00  0.00     0.163 HD
ATOM     31  O   UNL A   1      44.883  19.246  24.531  1.00  0.00    -0.269 OA
BRANCH  29  32
ATOM     32  C   UNL A   1      44.102  21.258  25.464  1.00  0.00     0.039 A 
ATOM     33  C   UNL A   1      44.518  21.582  26.756  1.00  0.00     0.014 A 
ATOM     34  C   UNL A   1      43.823  22.270  24.539  1.00  0.00     0.014 A 
ATOM     35  C   UNL A   1      44.710  22.921  27.104  1.00  0.00     0.010 A 
ATOM     36  C   UNL A   1      44.084  23.597  24.865  1.00  0.00     0.010 A 
ATOM     37  C   UNL A   1      44.529  23.938  26.152  1.00  0.00    -0.014 A 
BRANCH  37  38
ATOM     38  C   UNL A   1      44.803  25.360  26.484  1.00  0.00     0.031 A 
ATOM     39  C   UNL A   1      46.199  25.910  26.373  1.00  0.00     0.074 A 
ATOM     40  C   UNL A   1      43.802  26.141  26.938  1.00  0.00     0.049 A 
ATOM     41  N   UNL A   1      46.638  27.107  26.668  1.00  0.00    -0.248 NA
ATOM     42  C   UNL A   1      47.241  24.991  25.889  1.00  0.00     0.031 C 
ATOM     43  C   UNL A   1      42.411  25.719  27.119  1.00  0.00     0.029 A 
ATOM     44  N   UNL A   1      43.801  27.456  27.335  1.00  0.00    -0.354 N 
ATOM     45  C   UNL A   1      48.005  27.082  26.417  1.00  0.00     0.074 A 
ATOM     46  C   UNL A   1      48.332  25.737  25.996  1.00  0.00     0.031 C 
ATOM     47  C   UNL A   1      41.688  26.759  27.562  1.00  0.00     0.029 A 
ATOM     48  C   UNL A   1      42.568  27.909  27.742  1.00  0.00     0.049 A 
ATOM     49  H   UNL A   1      44.607  28.021  27.328  1.00  0.00     0.167 HD
ATOM     50  C   UNL A   1      48.904  28.091  26.512  1.00  0.00     0.031 A 
ATOM     51  C   UNL A   1      42.188  29.111  28.219  1.00  0.00     0.031 A 
ATOM     52  C   UNL A   1      48.575  29.428  26.930  1.00  0.00     0.049 A 
ATOM     53  C   UNL A   1      43.211  30.207  28.344  1.00  0.00     0.074 A 
ATOM     54  C   UNL A   1      49.405  30.532  27.013  1.00  0.00     0.029 A 
ATOM     55  N   UNL A   1      47.316  29.844  27.341  1.00  0.00    -0.354 N 
ATOM     56  N   UNL A   1      44.488  30.180  28.044  1.00  0.00    -0.248 NA
ATOM     57  C   UNL A   1      42.742  31.498  28.865  1.00  0.00     0.031 C 
ATOM     58  C   UNL A   1      48.664  31.599  27.531  1.00  0.00     0.029 A 
ATOM     59  C   UNL A   1      47.355  31.180  27.705  1.00  0.00     0.049 A 
ATOM     60  H   UNL A   1      46.514  29.273  27.369  1.00  0.00     0.167 HD
ATOM     61  C   UNL A   1      44.967  31.457  28.311  1.00  0.00     0.074 A 
ATOM     62  C   UNL A   1      43.841  32.236  28.783  1.00  0.00     0.031 C 
ATOM     63  C   UNL A   1      46.226  31.942  28.175  1.00  0.00     0.031 A 
BRANCH  50  64
ATOM     64  C   UNL A   1      50.338  27.784  26.164  1.00  0.00    -0.014 A 
ATOM     65  C   UNL A   1      51.262  27.406  27.155  1.00  0.00     0.010 A 
ATOM     66  C   UNL A   1      50.758  27.829  24.822  1.00  0.00     0.010 A 
ATOM     67  C   UNL A   1      52.587  27.116  26.815  1.00  0.00     0.020 A 
ATOM     68  C   UNL A   1      52.073  27.509  24.473  1.00  0.00     0.020 A 
ATOM     69  C   UNL A   1      52.983  27.169  25.475  1.00  0.00     0.054 A 
BRANCH  69  70
ATOM     70  S   UNL A   1      54.702  26.758  25.062  1.00  0.00     0.124 S 
ATOM     71  O   UNL A   1      55.118  27.934  24.301  1.00  0.00    -0.237 OA
ATOM     72  O   UNL A   1      55.320  26.612  26.377  1.00  0.00    -0.237 OA
ATOM     73  O   UNL A   1      54.588  25.525  24.288  1.00  0.00    -0.744 OA
ENDBRANCH  69  70
ENDBRANCH  50  64
BRANCH  51  74
ATOM     74  C   UNL A   1      40.769  29.344  28.605  1.00  0.00    -0.014 A 
ATOM     75  C   UNL A   1      40.405  29.462  29.958  1.00  0.00     0.010 A 
ATOM     76  C   UNL A   1      39.771  29.454  27.618  1.00  0.00     0.010 A 
ATOM     77  C   UNL A   1      39.070  29.670  30.318  1.00  0.00     0.020 A 
ATOM     78  C   UNL A   1      38.441  29.693  27.973  1.00  0.00     0.020 A 
ATOM     79  C   UNL A   1      38.096  29.787  29.322  1.00  0.00     0.054 A 
BRANCH  79  80
ATOM     80  S   UNL A   1      36.378  30.106  29.810  1.00  0.00     0.124 S 
ATOM     81  O   UNL A   1      36.265  29.334  31.043  1.00  0.00    -0.237 OA
ATOM     82  O   UNL A   1      36.360  31.558  29.966  1.00  0.00    -0.237 OA
ATOM     83  O   UNL A   1      35.602  29.600  28.681  1.00  0.00    -0.744 OA
ENDBRANCH  79  80
ENDBRANCH  51  74
BRANCH  63  84
ATOM     84  C   UNL A   1      46.452  33.395  28.507  1.00  0.00    -0.014 A 
ATOM     85  C   UNL A   1      46.860  33.797  29.791  1.00  0.00     0.010 A 
ATOM     86  C   UNL A   1      46.313  34.365  27.497  1.00  0.00     0.010 A 
ATOM     87  C   UNL A   1      47.095  35.147  30.065  1.00  0.00     0.020 A 
ATOM     88  C   UNL A   1      46.576  35.711  27.760  1.00  0.00     0.020 A 
ATOM     89  C   UNL A   1      46.955  36.095  29.047  1.00  0.00     0.054 A 
BRANCH  89  90
ATOM     90  S   UNL A   1      47.315  37.833  29.419  1.00  0.00     0.124 S 
ATOM     91  O   UNL A   1      48.571  37.734  30.156  1.00  0.00    -0.237 OA
ATOM     92  O   UNL A   1      47.409  38.432  28.091  1.00  0.00    -0.237 OA
ATOM     93  O   UNL A   1      46.163  38.265  30.209  1.00  0.00    -0.744 OA
ENDBRANCH  89  90
ENDBRANCH  63  84
ENDBRANCH  37  38
ENDBRANCH  29  32
ENDBRANCH  27  28
ENDBRANCH  26  27
ENDBRANCH  25  26
ENDBRANCH   1  25
TORSDOF 22
ENDMDL
