MODEL 1
REMARK VINA RESULT:     -10.3      0.000      0.000
REMARK SMILES COCc1cc(OCC(=O)NCCCCCCNC(=O)c2ccc(-c3c4nc(c(-c5ccc(S(=O)(=O)[O-])cc5)c5ccc([nH]5)c(-c5ccc(S(=O)(=O)[O-])cc5)c5nc(c(-c6ccc(S(=O)(=O)[O-])cc6)c6ccc3[nH]6)C=C5)C=C4)cc2)nc(Nc2cccc(C)c2C)n1
REMARK SMILES IDX 14 1 13 2 12 3 11 4 9 5 10 6 8 8 7 9 6 10 4 11 5 12 92 13
REMARK SMILES IDX 82 14 81 15 3 16 2 17 1 18 83 19 84 21 85 22 90 23 86 24
REMARK SMILES IDX 88 25 91 26 87 27 89 28 15 29 16 30 17 31 18 32 19 33 20 35
REMARK SMILES IDX 21 36 22 37 80 38 23 39 79 40 24 41 25 42 26 43 73 44 27 45
REMARK SMILES IDX 78 46 72 47 74 48 28 49 77 50 71 51 70 52 29 54 59 55 40 56
REMARK SMILES IDX 58 57 41 58 44 59 57 60 75 61 42 62 43 63 56 65 76 66 45 67
REMARK SMILES IDX 30 68 31 69 39 70 32 71 38 72 33 73 34 74 35 75 36 76 37 77
REMARK SMILES IDX 60 78 61 79 69 80 62 81 68 82 63 83 64 84 65 85 66 86 67 87
REMARK SMILES IDX 46 88 47 89 55 90 48 91 54 92 49 93 50 94 51 95 52 96 53 97
REMARK H PARENT 11 7 83 20 18 34 74 53 44 64
REMARK Flexibility Score: inf
ROOT
ATOM      1  C   UNL A   1      32.518  26.299  23.112  1.00  0.00     0.002 C 
ENDROOT
BRANCH   1   2
ATOM      2  C   UNL A   1      32.188  24.804  22.995  1.00  0.00     0.021 C 
BRANCH   2   3
ATOM      3  C   UNL A   1      30.766  24.420  23.404  1.00  0.00     0.116 C 
BRANCH   3   4
ATOM      4  N   UNL A   1      30.269  25.249  24.485  1.00  0.00    -0.353 N 
ATOM      5  C   UNL A   1      30.236  24.975  25.817  1.00  0.00     0.258 C 
ATOM      6  O   UNL A   1      29.770  25.815  26.590  1.00  0.00    -0.271 OA
ATOM      7  H   UNL A   1      29.907  26.126  24.219  1.00  0.00     0.163 HD
BRANCH   5   8
ATOM      8  C   UNL A   1      30.792  23.642  26.340  1.00  0.00     0.331 C 
BRANCH   8   9
ATOM      9  O   UNL A   1      32.190  23.531  26.534  1.00  0.00    -0.467 OA
BRANCH   9  10
ATOM     10  C   UNL A   1      32.856  22.528  25.891  1.00  0.00     0.218 A 
ATOM     11  C   UNL A   1      33.146  20.421  24.919  1.00  0.00     0.076 A 
ATOM     12  C   UNL A   1      32.373  21.258  25.694  1.00  0.00     0.095 A 
ATOM     13  N   UNL A   1      34.346  20.802  24.444  1.00  0.00    -0.215 NA
ATOM     14  C   UNL A   1      34.778  22.037  24.737  1.00  0.00     0.230 A 
ATOM     15  N   UNL A   1      34.063  22.917  25.451  1.00  0.00    -0.177 NA
BRANCH  11  16
ATOM     16  C   UNL A   1      32.654  19.036  24.562  1.00  0.00     0.216 C 
BRANCH  16  17
ATOM     17  O   UNL A   1      33.607  18.236  23.853  1.00  0.00    -0.378 OA
ATOM     18  C   UNL A   1      34.222  17.227  24.642  1.00  0.00     0.195 C 
ENDBRANCH  16  17
ENDBRANCH  11  16
BRANCH  14  19
ATOM     19  N   UNL A   1      36.044  22.456  24.339  1.00  0.00    -0.324 N 
ATOM     20  H   UNL A   1      36.129  22.669  23.383  1.00  0.00     0.170 HD
BRANCH  19  21
ATOM     21  C   UNL A   1      37.217  22.621  25.089  1.00  0.00     0.044 A 
ATOM     22  C   UNL A   1      37.481  23.902  25.601  1.00  0.00     0.026 A 
ATOM     23  C   UNL A   1      38.107  21.562  25.392  1.00  0.00    -0.025 A 
ATOM     24  C   UNL A   1      38.579  24.139  26.423  1.00  0.00     0.002 A 
ATOM     25  C   UNL A   1      39.206  21.799  26.254  1.00  0.00    -0.046 A 
ATOM     26  C   UNL A   1      37.920  20.193  24.781  1.00  0.00     0.047 C 
ATOM     27  C   UNL A   1      39.430  23.092  26.754  1.00  0.00     0.004 A 
ATOM     28  C   UNL A   1      40.192  20.730  26.649  1.00  0.00     0.044 C 
ENDBRANCH  19  21
ENDBRANCH  14  19
ENDBRANCH   9  10
ENDBRANCH   8   9
ENDBRANCH   5   8
ENDBRANCH   3   4
ENDBRANCH   2   3
ENDBRANCH   1   2
BRANCH   1  29
ATOM     29  C   UNL A   1      33.655  26.660  24.074  1.00  0.00     0.002 C 
BRANCH  29  30
ATOM     30  C   UNL A   1      33.756  28.140  24.457  1.00  0.00     0.021 C 
BRANCH  30  31
ATOM     31  C   UNL A   1      34.287  28.416  25.859  1.00  0.00     0.116 C 
BRANCH  31  32
ATOM     32  N   UNL A   1      33.871  29.712  26.365  1.00  0.00    -0.352 N 
ATOM     33  C   UNL A   1      34.421  30.483  27.357  1.00  0.00     0.251 C 
ATOM     34  H   UNL A   1      33.075  30.096  25.930  1.00  0.00     0.163 HD
ATOM     35  O   UNL A   1      33.810  31.478  27.753  1.00  0.00    -0.269 OA
BRANCH  33  36
ATOM     36  C   UNL A   1      35.723  30.128  27.968  1.00  0.00     0.039 A 
ATOM     37  C   UNL A   1      35.731  29.563  29.248  1.00  0.00     0.014 A 
ATOM     38  C   UNL A   1      36.935  30.393  27.322  1.00  0.00     0.014 A 
ATOM     39  C   UNL A   1      36.944  29.241  29.862  1.00  0.00     0.010 A 
ATOM     40  C   UNL A   1      38.140  29.998  27.903  1.00  0.00     0.010 A 
ATOM     41  C   UNL A   1      38.160  29.443  29.190  1.00  0.00    -0.014 A 
BRANCH  41  42
ATOM     42  C   UNL A   1      39.455  29.125  29.847  1.00  0.00     0.031 A 
ATOM     43  C   UNL A   1      39.863  29.846  31.105  1.00  0.00     0.074 A 
ATOM     44  C   UNL A   1      40.272  28.198  29.309  1.00  0.00     0.049 A 
ATOM     45  N   UNL A   1      40.934  29.683  31.841  1.00  0.00    -0.248 NA
ATOM     46  C   UNL A   1      38.961  30.903  31.588  1.00  0.00     0.031 C 
ATOM     47  C   UNL A   1      40.011  27.449  28.079  1.00  0.00     0.029 A 
ATOM     48  N   UNL A   1      41.483  27.716  29.740  1.00  0.00    -0.354 N 
ATOM     49  C   UNL A   1      40.836  30.620  32.865  1.00  0.00     0.074 A 
ATOM     50  C   UNL A   1      39.638  31.389  32.618  1.00  0.00     0.031 C 
ATOM     51  C   UNL A   1      41.005  26.569  27.881  1.00  0.00     0.029 A 
ATOM     52  C   UNL A   1      41.988  26.711  28.951  1.00  0.00     0.049 A 
ATOM     53  H   UNL A   1      41.946  28.059  30.539  1.00  0.00     0.167 HD
ATOM     54  C   UNL A   1      41.652  30.808  33.931  1.00  0.00     0.031 A 
ATOM     55  C   UNL A   1      43.107  25.973  29.084  1.00  0.00     0.031 A 
ATOM     56  C   UNL A   1      42.846  30.044  34.178  1.00  0.00     0.049 A 
ATOM     57  C   UNL A   1      44.004  26.202  30.269  1.00  0.00     0.074 A 
ATOM     58  C   UNL A   1      43.728  30.136  35.241  1.00  0.00     0.029 A 
ATOM     59  N   UNL A   1      43.327  29.042  33.348  1.00  0.00    -0.354 N 
ATOM     60  N   UNL A   1      43.871  27.060  31.252  1.00  0.00    -0.248 NA
ATOM     61  C   UNL A   1      45.193  25.344  30.372  1.00  0.00     0.031 C 
ATOM     62  C   UNL A   1      44.763  29.218  35.032  1.00  0.00     0.029 A 
ATOM     63  C   UNL A   1      44.497  28.515  33.868  1.00  0.00     0.049 A 
ATOM     64  H   UNL A   1      42.899  28.749  32.510  1.00  0.00     0.167 HD
ATOM     65  C   UNL A   1      44.937  26.819  32.112  1.00  0.00     0.074 A 
ATOM     66  C   UNL A   1      45.701  25.731  31.534  1.00  0.00     0.031 C 
ATOM     67  C   UNL A   1      45.249  27.434  33.280  1.00  0.00     0.031 A 
BRANCH  54  68
ATOM     68  C   UNL A   1      41.267  31.896  34.902  1.00  0.00    -0.014 A 
ATOM     69  C   UNL A   1      40.431  31.624  36.002  1.00  0.00     0.010 A 
ATOM     70  C   UNL A   1      41.730  33.209  34.706  1.00  0.00     0.010 A 
ATOM     71  C   UNL A   1      40.008  32.656  36.844  1.00  0.00     0.020 A 
ATOM     72  C   UNL A   1      41.336  34.239  35.565  1.00  0.00     0.020 A 
ATOM     73  C   UNL A   1      40.453  33.960  36.612  1.00  0.00     0.054 A 
BRANCH  73  74
ATOM     74  S   UNL A   1      39.869  35.288  37.701  1.00  0.00     0.124 S 
ATOM     75  O   UNL A   1      40.969  35.397  38.655  1.00  0.00    -0.237 OA
ATOM     76  O   UNL A   1      39.718  36.415  36.785  1.00  0.00    -0.237 OA
ATOM     77  O   UNL A   1      38.620  34.762  38.248  1.00  0.00    -0.744 OA
ENDBRANCH  73  74
ENDBRANCH  54  68
BRANCH  55  78
ATOM     78  C   UNL A   1      43.402  24.897  28.099  1.00  0.00    -0.014 A 
ATOM     79  C   UNL A   1      42.891  23.601  28.293  1.00  0.00     0.010 A 
ATOM     80  C   UNL A   1      44.169  25.164  26.950  1.00  0.00     0.010 A 
ATOM     81  C   UNL A   1      43.148  22.589  27.364  1.00  0.00     0.020 A 
ATOM     82  C   UNL A   1      44.408  24.162  26.005  1.00  0.00     0.020 A 
ATOM     83  C   UNL A   1      43.902  22.878  26.223  1.00  0.00     0.054 A 
BRANCH  83  84
ATOM     84  S   UNL A   1      44.166  21.567  24.996  1.00  0.00     0.124 S 
ATOM     85  O   UNL A   1      43.119  20.611  25.343  1.00  0.00    -0.237 OA
ATOM     86  O   UNL A   1      43.983  22.276  23.732  1.00  0.00    -0.237 OA
ATOM     87  O   UNL A   1      45.533  21.123  25.260  1.00  0.00    -0.744 OA
ENDBRANCH  83  84
ENDBRANCH  55  78
BRANCH  67  88
ATOM     88  C   UNL A   1      46.440  26.909  34.038  1.00  0.00    -0.014 A 
ATOM     89  C   UNL A   1      46.321  25.850  34.954  1.00  0.00     0.010 A 
ATOM     90  C   UNL A   1      47.706  27.476  33.808  1.00  0.00     0.010 A 
ATOM     91  C   UNL A   1      47.439  25.401  35.663  1.00  0.00     0.020 A 
ATOM     92  C   UNL A   1      48.832  27.011  34.492  1.00  0.00     0.020 A 
ATOM     93  C   UNL A   1      48.686  25.989  35.432  1.00  0.00     0.054 A 
BRANCH  93  94
ATOM     94  S   UNL A   1      50.126  25.382  36.354  1.00  0.00     0.124 S 
ATOM     95  O   UNL A   1      50.065  26.182  37.574  1.00  0.00    -0.237 OA
ATOM     96  O   UNL A   1      49.827  23.961  36.519  1.00  0.00    -0.237 OA
ATOM     97  O   UNL A   1      51.251  25.676  35.470  1.00  0.00    -0.744 OA
ENDBRANCH  93  94
ENDBRANCH  67  88
ENDBRANCH  41  42
ENDBRANCH  33  36
ENDBRANCH  31  32
ENDBRANCH  30  31
ENDBRANCH  29  30
ENDBRANCH   1  29
TORSDOF 22
ENDMDL
MODEL 2
REMARK VINA RESULT:      -9.7      4.938      5.987
REMARK SMILES COCc1cc(OCC(=O)NCCCCCCNC(=O)c2ccc(-c3c4nc(c(-c5ccc(S(=O)(=O)[O-])cc5)c5ccc([nH]5)c(-c5ccc(S(=O)(=O)[O-])cc5)c5nc(c(-c6ccc(S(=O)(=O)[O-])cc6)c6ccc3[nH]6)C=C5)C=C4)cc2)nc(Nc2cccc(C)c2C)n1
REMARK SMILES IDX 14 1 13 2 12 3 11 4 9 5 10 6 8 8 7 9 6 10 4 11 5 12 92 13
REMARK SMILES IDX 82 14 81 15 3 16 2 17 1 18 83 19 84 21 85 22 90 23 86 24
REMARK SMILES IDX 88 25 91 26 87 27 89 28 15 29 16 30 17 31 18 32 19 33 20 35
REMARK SMILES IDX 21 36 22 37 80 38 23 39 79 40 24 41 25 42 26 43 73 44 27 45
REMARK SMILES IDX 78 46 72 47 74 48 28 49 77 50 71 51 70 52 29 54 59 55 40 56
REMARK SMILES IDX 58 57 41 58 44 59 57 60 75 61 42 62 43 63 56 65 76 66 45 67
REMARK SMILES IDX 30 68 31 69 39 70 32 71 38 72 33 73 34 74 35 75 36 76 37 77
REMARK SMILES IDX 60 78 61 79 69 80 62 81 68 82 63 83 64 84 65 85 66 86 67 87
REMARK SMILES IDX 46 88 47 89 55 90 48 91 54 92 49 93 50 94 51 95 52 96 53 97
REMARK H PARENT 11 7 83 20 18 34 74 53 44 64
REMARK Flexibility Score: inf
ROOT
ATOM      1  C   UNL A   1      33.149  28.862  25.014  1.00  0.00     0.002 C 
ENDROOT
BRANCH   1   2
ATOM      2  C   UNL A   1      31.627  28.674  24.955  1.00  0.00     0.021 C 
BRANCH   2   3
ATOM      3  C   UNL A   1      31.160  27.245  24.680  1.00  0.00     0.116 C 
BRANCH   3   4
ATOM      4  N   UNL A   1      31.045  26.467  25.898  1.00  0.00    -0.353 N 
ATOM      5  C   UNL A   1      31.413  25.176  26.116  1.00  0.00     0.258 C 
ATOM      6  O   UNL A   1      31.235  24.682  27.233  1.00  0.00    -0.271 OA
ATOM      7  H   UNL A   1      30.649  26.935  26.668  1.00  0.00     0.163 HD
BRANCH   5   8
ATOM      8  C   UNL A   1      32.058  24.360  24.986  1.00  0.00     0.331 C 
BRANCH   8   9
ATOM      9  O   UNL A   1      31.574  23.052  24.745  1.00  0.00    -0.467 OA
BRANCH   9  10
ATOM     10  C   UNL A   1      32.463  22.017  24.769  1.00  0.00     0.218 A 
ATOM     11  C   UNL A   1      33.167  19.795  24.964  1.00  0.00     0.076 A 
ATOM     12  C   UNL A   1      32.160  20.723  25.116  1.00  0.00     0.095 A 
ATOM     13  N   UNL A   1      34.404  20.150  24.569  1.00  0.00    -0.215 NA
ATOM     14  C   UNL A   1      34.638  21.445  24.312  1.00  0.00     0.230 A 
ATOM     15  N   UNL A   1      33.697  22.395  24.401  1.00  0.00    -0.177 NA
BRANCH  11  16
ATOM     16  C   UNL A   1      32.905  18.329  25.226  1.00  0.00     0.216 C 
BRANCH  16  17
ATOM     17  O   UNL A   1      34.070  17.574  25.579  1.00  0.00    -0.378 OA
ATOM     18  C   UNL A   1      34.200  16.344  24.881  1.00  0.00     0.195 C 
ENDBRANCH  16  17
ENDBRANCH  11  16
BRANCH  14  19
ATOM     19  N   UNL A   1      35.917  21.880  23.977  1.00  0.00    -0.324 N 
ATOM     20  H   UNL A   1      36.108  21.902  23.012  1.00  0.00     0.170 HD
BRANCH  19  21
ATOM     21  C   UNL A   1      36.975  22.290  24.799  1.00  0.00     0.044 A 
ATOM     22  C   UNL A   1      36.971  23.625  25.238  1.00  0.00     0.026 A 
ATOM     23  C   UNL A   1      38.004  21.423  25.241  1.00  0.00    -0.025 A 
ATOM     24  C   UNL A   1      37.937  24.097  26.122  1.00  0.00     0.002 A 
ATOM     25  C   UNL A   1      38.968  21.898  26.165  1.00  0.00    -0.046 A 
ATOM     26  C   UNL A   1      38.107  20.011  24.716  1.00  0.00     0.047 C 
ATOM     27  C   UNL A   1      38.923  23.237  26.588  1.00  0.00     0.004 A 
ATOM     28  C   UNL A   1      40.084  21.044  26.707  1.00  0.00     0.044 C 
ENDBRANCH  19  21
ENDBRANCH  14  19
ENDBRANCH   9  10
ENDBRANCH   8   9
ENDBRANCH   5   8
ENDBRANCH   3   4
ENDBRANCH   2   3
ENDBRANCH   1   2
BRANCH   1  29
ATOM     29  C   UNL A   1      33.825  28.453  26.327  1.00  0.00     0.002 C 
BRANCH  29  30
ATOM     30  C   UNL A   1      34.442  29.594  27.141  1.00  0.00     0.021 C 
BRANCH  30  31
ATOM     31  C   UNL A   1      35.829  29.316  27.706  1.00  0.00     0.116 C 
BRANCH  31  32
ATOM     32  N   UNL A   1      35.881  29.471  29.150  1.00  0.00    -0.352 N 
ATOM     33  C   UNL A   1      36.942  29.333  30.007  1.00  0.00     0.251 C 
ATOM     34  H   UNL A   1      35.027  29.710  29.577  1.00  0.00     0.163 HD
ATOM     35  O   UNL A   1      36.737  29.338  31.224  1.00  0.00    -0.269 OA
BRANCH  33  36
ATOM     36  C   UNL A   1      38.323  29.163  29.496  1.00  0.00     0.039 A 
ATOM     37  C   UNL A   1      39.272  28.552  30.321  1.00  0.00     0.014 A 
ATOM     38  C   UNL A   1      38.705  29.644  28.240  1.00  0.00     0.014 A 
ATOM     39  C   UNL A   1      40.589  28.399  29.878  1.00  0.00     0.010 A 
ATOM     40  C   UNL A   1      39.999  29.421  27.769  1.00  0.00     0.010 A 
ATOM     41  C   UNL A   1      40.962  28.821  28.591  1.00  0.00    -0.014 A 
BRANCH  41  42
ATOM     42  C   UNL A   1      42.366  28.684  28.123  1.00  0.00     0.031 A 
ATOM     43  C   UNL A   1      43.335  29.825  28.289  1.00  0.00     0.074 A 
ATOM     44  C   UNL A   1      42.770  27.540  27.536  1.00  0.00     0.049 A 
ATOM     45  N   UNL A   1      44.605  29.883  27.977  1.00  0.00    -0.248 NA
ATOM     46  C   UNL A   1      42.802  31.071  28.863  1.00  0.00     0.031 C 
ATOM     47  C   UNL A   1      41.925  26.371  27.286  1.00  0.00     0.029 A 
ATOM     48  N   UNL A   1      44.001  27.168  27.056  1.00  0.00    -0.354 N 
ATOM     49  C   UNL A   1      45.019  31.169  28.309  1.00  0.00     0.074 A 
ATOM     50  C   UNL A   1      43.850  31.876  28.783  1.00  0.00     0.031 C 
ATOM     51  C   UNL A   1      42.673  25.396  26.746  1.00  0.00     0.029 A 
ATOM     52  C   UNL A   1      44.041  25.879  26.583  1.00  0.00     0.049 A 
ATOM     53  H   UNL A   1      44.782  27.768  27.052  1.00  0.00     0.167 HD
ATOM     54  C   UNL A   1      46.261  31.709  28.251  1.00  0.00     0.031 A 
ATOM     55  C   UNL A   1      45.069  25.159  26.092  1.00  0.00     0.031 A 
ATOM     56  C   UNL A   1      47.424  31.007  27.778  1.00  0.00     0.049 A 
ATOM     57  C   UNL A   1      46.438  25.777  26.028  1.00  0.00     0.074 A 
ATOM     58  C   UNL A   1      48.732  31.452  27.704  1.00  0.00     0.029 A 
ATOM     59  N   UNL A   1      47.419  29.705  27.297  1.00  0.00    -0.354 N 
ATOM     60  N   UNL A   1      46.818  26.979  26.389  1.00  0.00    -0.248 NA
ATOM     61  C   UNL A   1      47.520  24.930  25.509  1.00  0.00     0.031 C 
ATOM     62  C   UNL A   1      49.510  30.433  27.141  1.00  0.00     0.029 A 
ATOM     63  C   UNL A   1      48.697  29.334  26.916  1.00  0.00     0.049 A 
ATOM     64  H   UNL A   1      46.622  29.129  27.237  1.00  0.00     0.167 HD
ATOM     65  C   UNL A   1      48.193  27.020  26.179  1.00  0.00     0.074 A 
ATOM     66  C   UNL A   1      48.575  25.720  25.665  1.00  0.00     0.031 C 
ATOM     67  C   UNL A   1      49.062  28.037  26.402  1.00  0.00     0.031 A 
BRANCH  54  68
ATOM     68  C   UNL A   1      46.407  33.138  28.710  1.00  0.00    -0.014 A 
ATOM     69  C   UNL A   1      46.622  33.445  30.068  1.00  0.00     0.010 A 
ATOM     70  C   UNL A   1      46.311  34.188  27.781  1.00  0.00     0.010 A 
ATOM     71  C   UNL A   1      46.666  34.774  30.497  1.00  0.00     0.020 A 
ATOM     72  C   UNL A   1      46.387  35.520  28.201  1.00  0.00     0.020 A 
ATOM     73  C   UNL A   1      46.536  35.803  29.561  1.00  0.00     0.054 A 
BRANCH  73  74
ATOM     74  S   UNL A   1      46.568  37.521  30.145  1.00  0.00     0.124 S 
ATOM     75  O   UNL A   1      45.458  37.535  31.094  1.00  0.00    -0.237 OA
ATOM     76  O   UNL A   1      47.899  37.637  30.735  1.00  0.00    -0.237 OA
ATOM     77  O   UNL A   1      46.359  38.303  28.929  1.00  0.00    -0.744 OA
ENDBRANCH  73  74
ENDBRANCH  54  68
BRANCH  55  78
ATOM     78  C   UNL A   1      44.850  23.744  25.685  1.00  0.00    -0.014 A 
ATOM     79  C   UNL A   1      44.771  23.404  24.322  1.00  0.00     0.010 A 
ATOM     80  C   UNL A   1      44.748  22.725  26.650  1.00  0.00     0.010 A 
ATOM     81  C   UNL A   1      44.584  22.076  23.931  1.00  0.00     0.020 A 
ATOM     82  C   UNL A   1      44.586  21.392  26.263  1.00  0.00     0.020 A 
ATOM     83  C   UNL A   1      44.497  21.077  24.905  1.00  0.00     0.054 A 
BRANCH  83  84
ATOM     84  S   UNL A   1      44.322  19.351  24.372  1.00  0.00     0.124 S 
ATOM     85  O   UNL A   1      44.435  19.468  22.922  1.00  0.00    -0.237 OA
ATOM     86  O   UNL A   1      45.443  18.699  25.044  1.00  0.00    -0.237 OA
ATOM     87  O   UNL A   1      43.002  18.972  24.870  1.00  0.00    -0.744 OA
ENDBRANCH  83  84
ENDBRANCH  55  78
BRANCH  67  88
ATOM     88  C   UNL A   1      50.520  27.767  26.141  1.00  0.00    -0.014 A 
ATOM     89  C   UNL A   1      51.093  27.980  24.875  1.00  0.00     0.010 A 
ATOM     90  C   UNL A   1      51.335  27.311  27.194  1.00  0.00     0.010 A 
ATOM     91  C   UNL A   1      52.444  27.695  24.655  1.00  0.00     0.020 A 
ATOM     92  C   UNL A   1      52.692  27.053  26.985  1.00  0.00     0.020 A 
ATOM     93  C   UNL A   1      53.233  27.227  25.711  1.00  0.00     0.054 A 
BRANCH  93  94
ATOM     94  S   UNL A   1      54.986  26.876  25.405  1.00  0.00     0.124 S 
ATOM     95  O   UNL A   1      55.614  28.151  25.737  1.00  0.00    -0.237 OA
ATOM     96  O   UNL A   1      55.262  25.780  26.333  1.00  0.00    -0.237 OA
ATOM     97  O   UNL A   1      55.024  26.510  23.991  1.00  0.00    -0.744 OA
ENDBRANCH  93  94
ENDBRANCH  67  88
ENDBRANCH  41  42
ENDBRANCH  33  36
ENDBRANCH  31  32
ENDBRANCH  30  31
ENDBRANCH  29  30
ENDBRANCH   1  29
TORSDOF 22
ENDMDL
MODEL 3
REMARK VINA RESULT:      -9.7      1.309      3.042
REMARK SMILES COCc1cc(OCC(=O)NCCCCCCNC(=O)c2ccc(-c3c4nc(c(-c5ccc(S(=O)(=O)[O-])cc5)c5ccc([nH]5)c(-c5ccc(S(=O)(=O)[O-])cc5)c5nc(c(-c6ccc(S(=O)(=O)[O-])cc6)c6ccc3[nH]6)C=C5)C=C4)cc2)nc(Nc2cccc(C)c2C)n1
REMARK SMILES IDX 14 1 13 2 12 3 11 4 9 5 10 6 8 8 7 9 6 10 4 11 5 12 92 13
REMARK SMILES IDX 82 14 81 15 3 16 2 17 1 18 83 19 84 21 85 22 90 23 86 24
REMARK SMILES IDX 88 25 91 26 87 27 89 28 15 29 16 30 17 31 18 32 19 33 20 35
REMARK SMILES IDX 21 36 22 37 80 38 23 39 79 40 24 41 25 42 26 43 73 44 27 45
REMARK SMILES IDX 78 46 72 47 74 48 28 49 77 50 71 51 70 52 29 54 59 55 40 56
REMARK SMILES IDX 58 57 41 58 44 59 57 60 75 61 42 62 43 63 56 65 76 66 45 67
REMARK SMILES IDX 30 68 31 69 39 70 32 71 38 72 33 73 34 74 35 75 36 76 37 77
REMARK SMILES IDX 60 78 61 79 69 80 62 81 68 82 63 83 64 84 65 85 66 86 67 87
REMARK SMILES IDX 46 88 47 89 55 90 48 91 54 92 49 93 50 94 51 95 52 96 53 97
REMARK H PARENT 11 7 83 20 18 34 74 53 44 64
REMARK Flexibility Score: inf
ROOT
ATOM      1  C   UNL A   1      32.217  26.953  23.796  1.00  0.00     0.002 C 
ENDROOT
BRANCH   1   2
ATOM      2  C   UNL A   1      31.062  27.378  24.712  1.00  0.00     0.021 C 
BRANCH   2   3
ATOM      3  C   UNL A   1      31.264  27.073  26.195  1.00  0.00     0.116 C 
BRANCH   3   4
ATOM      4  N   UNL A   1      30.381  26.020  26.659  1.00  0.00    -0.353 N 
ATOM      5  C   UNL A   1      30.518  24.674  26.514  1.00  0.00     0.258 C 
ATOM      6  O   UNL A   1      29.653  23.929  26.982  1.00  0.00    -0.271 OA
ATOM      7  H   UNL A   1      29.577  26.319  27.143  1.00  0.00     0.163 HD
BRANCH   5   8
ATOM      8  C   UNL A   1      31.746  24.102  25.790  1.00  0.00     0.331 C 
BRANCH   8   9
ATOM      9  O   UNL A   1      33.025  24.350  26.345  1.00  0.00    -0.467 OA
BRANCH   9  10
ATOM     10  C   UNL A   1      34.013  23.433  26.133  1.00  0.00     0.218 A 
ATOM     11  C   UNL A   1      36.205  22.657  25.889  1.00  0.00     0.076 A 
ATOM     12  C   UNL A   1      35.344  23.729  25.975  1.00  0.00     0.095 A 
ATOM     13  N   UNL A   1      35.758  21.388  25.883  1.00  0.00    -0.215 NA
ATOM     14  C   UNL A   1      34.436  21.183  25.974  1.00  0.00     0.230 A 
ATOM     15  N   UNL A   1      33.545  22.175  26.100  1.00  0.00    -0.177 NA
BRANCH  11  16
ATOM     16  C   UNL A   1      37.699  22.878  25.812  1.00  0.00     0.216 C 
BRANCH  16  17
ATOM     17  O   UNL A   1      38.166  24.017  26.545  1.00  0.00    -0.378 OA
ATOM     18  C   UNL A   1      39.535  24.328  26.327  1.00  0.00     0.195 C 
ENDBRANCH  16  17
ENDBRANCH  11  16
BRANCH  14  19
ATOM     19  N   UNL A   1      33.912  19.896  25.894  1.00  0.00    -0.324 N 
ATOM     20  H   UNL A   1      33.531  19.550  26.732  1.00  0.00     0.170 HD
BRANCH  19  21
ATOM     21  C   UNL A   1      33.844  19.016  24.805  1.00  0.00     0.044 A 
ATOM     22  C   UNL A   1      34.635  17.856  24.862  1.00  0.00     0.026 A 
ATOM     23  C   UNL A   1      32.989  19.212  23.693  1.00  0.00    -0.025 A 
ATOM     24  C   UNL A   1      34.568  16.887  23.865  1.00  0.00     0.002 A 
ATOM     25  C   UNL A   1      32.900  18.210  22.695  1.00  0.00    -0.046 A 
ATOM     26  C   UNL A   1      32.197  20.489  23.540  1.00  0.00     0.047 C 
ATOM     27  C   UNL A   1      33.701  17.060  22.794  1.00  0.00     0.004 A 
ATOM     28  C   UNL A   1      32.005  18.321  21.489  1.00  0.00     0.044 C 
ENDBRANCH  19  21
ENDBRANCH  14  19
ENDBRANCH   9  10
ENDBRANCH   8   9
ENDBRANCH   5   8
ENDBRANCH   3   4
ENDBRANCH   2   3
ENDBRANCH   1   2
BRANCH   1  29
ATOM     29  C   UNL A   1      33.612  27.436  24.207  1.00  0.00     0.002 C 
BRANCH  29  30
ATOM     30  C   UNL A   1      33.709  28.905  24.629  1.00  0.00     0.021 C 
BRANCH  30  31
ATOM     31  C   UNL A   1      34.181  29.144  26.058  1.00  0.00     0.116 C 
BRANCH  31  32
ATOM     32  N   UNL A   1      33.768  30.439  26.570  1.00  0.00    -0.352 N 
ATOM     33  C   UNL A   1      34.302  31.191  27.584  1.00  0.00     0.251 C 
ATOM     34  H   UNL A   1      32.988  30.837  26.120  1.00  0.00     0.163 HD
ATOM     35  O   UNL A   1      33.694  32.189  27.978  1.00  0.00    -0.269 OA
BRANCH  33  36
ATOM     36  C   UNL A   1      35.585  30.813  28.223  1.00  0.00     0.039 A 
ATOM     37  C   UNL A   1      35.614  29.690  29.055  1.00  0.00     0.014 A 
ATOM     38  C   UNL A   1      36.743  31.580  28.055  1.00  0.00     0.014 A 
ATOM     39  C   UNL A   1      36.802  29.322  29.692  1.00  0.00     0.010 A 
ATOM     40  C   UNL A   1      37.945  31.166  28.629  1.00  0.00     0.010 A 
ATOM     41  C   UNL A   1      37.983  30.050  29.474  1.00  0.00    -0.014 A 
BRANCH  41  42
ATOM     42  C   UNL A   1      39.245  29.679  30.168  1.00  0.00     0.031 A 
ATOM     43  C   UNL A   1      39.638  30.370  31.447  1.00  0.00     0.074 A 
ATOM     44  C   UNL A   1      40.046  28.731  29.643  1.00  0.00     0.049 A 
ATOM     45  N   UNL A   1      40.678  30.161  32.214  1.00  0.00    -0.248 NA
ATOM     46  C   UNL A   1      38.757  31.451  31.916  1.00  0.00     0.031 C 
ATOM     47  C   UNL A   1      39.799  28.006  28.395  1.00  0.00     0.029 A 
ATOM     48  N   UNL A   1      41.226  28.202  30.105  1.00  0.00    -0.354 N 
ATOM     49  C   UNL A   1      40.580  31.087  33.247  1.00  0.00     0.074 A 
ATOM     50  C   UNL A   1      39.417  31.900  32.973  1.00  0.00     0.031 C 
ATOM     51  C   UNL A   1      40.768  27.095  28.217  1.00  0.00     0.029 A 
ATOM     52  C   UNL A   1      41.721  27.189  29.319  1.00  0.00     0.049 A 
ATOM     53  H   UNL A   1      41.675  28.518  30.923  1.00  0.00     0.167 HD
ATOM     54  C   UNL A   1      41.367  31.234  34.341  1.00  0.00     0.031 A 
ATOM     55  C   UNL A   1      42.809  26.411  29.478  1.00  0.00     0.031 A 
ATOM     56  C   UNL A   1      42.526  30.426  34.614  1.00  0.00     0.049 A 
ATOM     57  C   UNL A   1      43.675  26.594  30.693  1.00  0.00     0.074 A 
ATOM     58  C   UNL A   1      43.376  30.474  35.706  1.00  0.00     0.029 A 
ATOM     59  N   UNL A   1      42.999  29.418  33.787  1.00  0.00    -0.354 N 
ATOM     60  N   UNL A   1      43.540  27.444  31.682  1.00  0.00    -0.248 NA
ATOM     61  C   UNL A   1      44.830  25.694  30.821  1.00  0.00     0.031 C 
ATOM     62  C   UNL A   1      44.385  29.523  35.518  1.00  0.00     0.029 A 
ATOM     63  C   UNL A   1      44.132  28.844  34.336  1.00  0.00     0.049 A 
ATOM     64  H   UNL A   1      42.588  29.150  32.933  1.00  0.00     0.167 HD
ATOM     65  C   UNL A   1      44.570  27.156  32.573  1.00  0.00     0.074 A 
ATOM     66  C   UNL A   1      45.313  26.049  32.004  1.00  0.00     0.031 C 
ATOM     67  C   UNL A   1      44.865  27.745  33.758  1.00  0.00     0.031 A 
BRANCH  54  68
ATOM     68  C   UNL A   1      40.990  32.323  35.313  1.00  0.00    -0.014 A 
ATOM     69  C   UNL A   1      41.531  33.618  35.197  1.00  0.00     0.010 A 
ATOM     70  C   UNL A   1      40.099  32.049  36.365  1.00  0.00     0.010 A 
ATOM     71  C   UNL A   1      41.246  34.595  36.154  1.00  0.00     0.020 A 
ATOM     72  C   UNL A   1      39.784  33.033  37.307  1.00  0.00     0.020 A 
ATOM     73  C   UNL A   1      40.383  34.292  37.211  1.00  0.00     0.054 A 
BRANCH  73  74
ATOM     74  S   UNL A   1      40.049  35.567  38.457  1.00  0.00     0.124 S 
ATOM     75  O   UNL A   1      38.913  34.994  39.174  1.00  0.00    -0.237 OA
ATOM     76  O   UNL A   1      41.301  35.623  39.207  1.00  0.00    -0.237 OA
ATOM     77  O   UNL A   1      39.748  36.756  37.663  1.00  0.00    -0.744 OA
ENDBRANCH  73  74
ENDBRANCH  54  68
BRANCH  55  78
ATOM     78  C   UNL A   1      43.098  25.338  28.488  1.00  0.00    -0.014 A 
ATOM     79  C   UNL A   1      44.022  25.564  27.451  1.00  0.00     0.010 A 
ATOM     80  C   UNL A   1      42.479  24.079  28.589  1.00  0.00     0.010 A 
ATOM     81  C   UNL A   1      44.313  24.556  26.528  1.00  0.00     0.020 A 
ATOM     82  C   UNL A   1      42.787  23.060  27.683  1.00  0.00     0.020 A 
ATOM     83  C   UNL A   1      43.697  23.308  26.652  1.00  0.00     0.054 A 
BRANCH  83  84
ATOM     84  S   UNL A   1      44.142  21.994  25.484  1.00  0.00     0.124 S 
ATOM     85  O   UNL A   1      43.475  20.833  26.064  1.00  0.00    -0.237 OA
ATOM     86  O   UNL A   1      43.581  22.484  24.228  1.00  0.00    -0.237 OA
ATOM     87  O   UNL A   1      45.601  21.969  25.537  1.00  0.00    -0.744 OA
ENDBRANCH  83  84
ENDBRANCH  55  78
BRANCH  67  88
ATOM     88  C   UNL A   1      46.013  27.170  34.546  1.00  0.00    -0.014 A 
ATOM     89  C   UNL A   1      45.810  26.186  35.529  1.00  0.00     0.010 A 
ATOM     90  C   UNL A   1      47.321  27.610  34.277  1.00  0.00     0.010 A 
ATOM     91  C   UNL A   1      46.891  25.689  36.263  1.00  0.00     0.020 A 
ATOM     92  C   UNL A   1      48.407  27.095  34.988  1.00  0.00     0.020 A 
ATOM     93  C   UNL A   1      48.183  26.152  35.992  1.00  0.00     0.054 A 
BRANCH  93  94
ATOM     94  S   UNL A   1      49.572  25.484  36.948  1.00  0.00     0.124 S 
ATOM     95  O   UNL A   1      48.896  24.589  37.881  1.00  0.00    -0.237 OA
ATOM     96  O   UNL A   1      50.383  24.829  35.924  1.00  0.00    -0.237 OA
ATOM     97  O   UNL A   1      50.179  26.670  37.549  1.00  0.00    -0.744 OA
ENDBRANCH  93  94
ENDBRANCH  67  88
ENDBRANCH  41  42
ENDBRANCH  33  36
ENDBRANCH  31  32
ENDBRANCH  30  31
ENDBRANCH  29  30
ENDBRANCH   1  29
TORSDOF 22
ENDMDL
