MODEL 1
REMARK VINA RESULT:     -12.2      0.000      0.000
REMARK SMILES Cc1ccccc1/[NH+]=C1\S[C@@H](CC(=O)Nc2ccc(C(=O)NCCCCCCNC(=O)c3ccc(-c4c5nc(c(-c6ccc(S(=O)(=O)[O-])cc6)c6ccc([nH]6)c(-c6ccc(S(=O)(=O)[O-])cc6)c6nc(c(-c7ccc(S(=O)(=O)[O-])cc7)c7ccc4[nH]7)C=C6)C=C5)cc3)cc2)C(=O)N1C
REMARK SMILES IDX 25 1 24 2 23 3 22 4 20 5 21 6 19 8 16 9 17 10 93 11 18 12
REMARK SMILES IDX 92 13 15 14 13 15 14 16 12 18 11 19 8 20 9 21 10 23 96 24
REMARK SMILES IDX 94 25 97 26 95 27 7 28 1 29 2 30 3 31 4 32 6 33 5 34 26 35
REMARK SMILES IDX 27 36 28 37 29 38 30 39 31 41 32 42 33 43 91 44 34 45 90 46
REMARK SMILES IDX 35 47 36 48 37 49 84 50 38 51 89 52 83 53 85 54 39 55 88 56
REMARK SMILES IDX 82 57 81 58 40 60 70 61 51 62 69 63 52 64 55 65 68 66 86 67
REMARK SMILES IDX 53 68 54 69 67 71 87 72 56 73 41 74 42 75 50 76 43 77 49 78
REMARK SMILES IDX 44 79 45 80 46 81 47 82 48 83 71 84 72 85 80 86 73 87 79 88
REMARK SMILES IDX 74 89 75 90 76 91 77 92 78 93 57 94 58 95 66 96 59 97 65 98
REMARK SMILES IDX 60 99 61 100 62 101 63 102 64 103
REMARK H PARENT 22 7 15 17 8 22 29 40 85 59 55 70
REMARK Flexibility Score: inf
ROOT
ATOM      1  C   UNL A   1      31.318  27.595  26.221  1.00  0.00     0.002 C 
ENDROOT
BRANCH   1   2
ATOM      2  C   UNL A   1      30.718  26.334  26.866  1.00  0.00     0.021 C 
BRANCH   2   3
ATOM      3  C   UNL A   1      29.790  25.517  25.964  1.00  0.00     0.116 C 
BRANCH   3   4
ATOM      4  N   UNL A   1      29.223  24.366  26.656  1.00  0.00    -0.352 N 
ATOM      5  C   UNL A   1      29.798  23.216  27.142  1.00  0.00     0.251 C 
ATOM      6  O   UNL A   1      29.145  22.489  27.890  1.00  0.00    -0.269 OA
ATOM      7  H   UNL A   1      28.251  24.423  26.802  1.00  0.00     0.163 HD
BRANCH   5   8
ATOM      8  C   UNL A   1      31.198  22.834  26.828  1.00  0.00     0.039 A 
ATOM      9  C   UNL A   1      33.781  21.960  26.205  1.00  0.00     0.041 A 
ATOM     10  C   UNL A   1      33.537  22.677  27.377  1.00  0.00     0.027 A 
ATOM     11  C   UNL A   1      32.770  21.811  25.264  1.00  0.00     0.027 A 
ATOM     12  C   UNL A   1      32.253  23.118  27.690  1.00  0.00     0.016 A 
ATOM     13  C   UNL A   1      31.475  22.238  25.584  1.00  0.00     0.016 A 
BRANCH   9  14
ATOM     14  N   UNL A   1      35.021  21.342  26.008  1.00  0.00    -0.326 N 
ATOM     15  C   UNL A   1      36.157  21.963  25.536  1.00  0.00     0.226 C 
ATOM     16  O   UNL A   1      37.148  21.306  25.218  1.00  0.00    -0.275 OA
ATOM     17  H   UNL A   1      35.086  20.383  26.223  1.00  0.00     0.169 HD
BRANCH  15  18
ATOM     18  C   UNL A   1      36.217  23.481  25.608  1.00  0.00     0.128 C 
BRANCH  18  19
ATOM     19  C   UNL A   1      35.666  24.210  24.402  1.00  0.00     0.183 C 
ATOM     20  N   UNL A   1      32.755  25.549  22.482  1.00  0.00    -0.234 N 
ATOM     21  C   UNL A   1      33.515  24.809  23.203  1.00  0.00     0.319 C 
ATOM     22  H   UNL A   1      32.537  25.189  21.592  1.00  0.00     0.313 HD
ATOM     23  S   UNL A   1      34.068  25.000  24.836  1.00  0.00    -0.022 SA
ATOM     24  N   UNL A   1      34.082  23.682  22.686  1.00  0.00    -0.193 N 
ATOM     25  C   UNL A   1      35.324  23.365  23.190  1.00  0.00     0.324 C 
ATOM     26  C   UNL A   1      33.549  22.976  21.536  1.00  0.00     0.301 C 
ATOM     27  O   UNL A   1      36.111  22.588  22.661  1.00  0.00    -0.245 OA
BRANCH  20  28
ATOM     28  C   UNL A   1      32.191  26.798  22.777  1.00  0.00     0.128 A 
ATOM     29  C   UNL A   1      34.334  28.245  22.715  1.00  0.00     0.049 C 
ATOM     30  C   UNL A   1      32.847  28.048  22.813  1.00  0.00    -0.004 A 
ATOM     31  C   UNL A   1      32.083  29.228  22.931  1.00  0.00     0.008 A 
ATOM     32  C   UNL A   1      30.691  29.194  22.927  1.00  0.00     0.001 A 
ATOM     33  C   UNL A   1      30.784  26.795  22.788  1.00  0.00     0.052 A 
ATOM     34  C   UNL A   1      30.039  27.974  22.847  1.00  0.00     0.004 A 
ENDBRANCH  20  28
ENDBRANCH  18  19
ENDBRANCH  15  18
ENDBRANCH   9  14
ENDBRANCH   5   8
ENDBRANCH   3   4
ENDBRANCH   2   3
ENDBRANCH   1   2
BRANCH   1  35
ATOM     35  C   UNL A   1      32.437  28.306  26.999  1.00  0.00     0.002 C 
BRANCH  35  36
ATOM     36  C   UNL A   1      33.861  28.069  26.494  1.00  0.00     0.021 C 
BRANCH  36  37
ATOM     37  C   UNL A   1      34.818  29.228  26.766  1.00  0.00     0.116 C 
BRANCH  37  38
ATOM     38  N   UNL A   1      34.142  30.503  26.964  1.00  0.00    -0.352 N 
ATOM     39  C   UNL A   1      34.363  31.458  27.942  1.00  0.00     0.251 C 
ATOM     40  H   UNL A   1      33.433  30.713  26.315  1.00  0.00     0.163 HD
ATOM     41  O   UNL A   1      33.574  32.375  28.114  1.00  0.00    -0.269 OA
BRANCH  39  42
ATOM     42  C   UNL A   1      35.622  31.390  28.715  1.00  0.00     0.039 A 
ATOM     43  C   UNL A   1      36.671  32.235  28.334  1.00  0.00     0.014 A 
ATOM     44  C   UNL A   1      35.827  30.382  29.651  1.00  0.00     0.014 A 
ATOM     45  C   UNL A   1      37.972  31.952  28.752  1.00  0.00     0.010 A 
ATOM     46  C   UNL A   1      37.123  30.049  29.992  1.00  0.00     0.010 A 
ATOM     47  C   UNL A   1      38.203  30.805  29.508  1.00  0.00    -0.014 A 
BRANCH  47  48
ATOM     48  C   UNL A   1      39.522  30.245  29.788  1.00  0.00     0.031 A 
ATOM     49  C   UNL A   1      39.895  28.901  29.288  1.00  0.00     0.074 A 
ATOM     50  C   UNL A   1      40.481  31.012  30.355  1.00  0.00     0.049 A 
ATOM     51  N   UNL A   1      40.916  28.230  29.713  1.00  0.00    -0.248 NA
ATOM     52  C   UNL A   1      39.100  28.163  28.311  1.00  0.00     0.031 C 
ATOM     53  C   UNL A   1      41.923  30.794  30.269  1.00  0.00     0.029 A 
ATOM     54  N   UNL A   1      40.353  32.025  31.306  1.00  0.00    -0.354 N 
ATOM     55  C   UNL A   1      41.102  27.170  28.857  1.00  0.00     0.074 A 
ATOM     56  C   UNL A   1      39.875  27.094  28.099  1.00  0.00     0.031 C 
ATOM     57  C   UNL A   1      42.514  31.407  31.304  1.00  0.00     0.029 A 
ATOM     58  C   UNL A   1      41.458  31.900  32.168  1.00  0.00     0.049 A 
ATOM     59  H   UNL A   1      39.633  32.695  31.362  1.00  0.00     0.167 HD
ATOM     60  C   UNL A   1      42.326  26.574  28.785  1.00  0.00     0.031 A 
ATOM     61  C   UNL A   1      41.386  31.704  33.517  1.00  0.00     0.031 A 
ATOM     62  C   UNL A   1      43.256  27.092  29.792  1.00  0.00     0.049 A 
ATOM     63  C   UNL A   1      42.172  30.508  34.015  1.00  0.00     0.074 A 
ATOM     64  C   UNL A   1      44.391  27.885  29.736  1.00  0.00     0.029 A 
ATOM     65  N   UNL A   1      42.945  26.957  31.137  1.00  0.00    -0.354 N 
ATOM     66  N   UNL A   1      42.766  29.645  33.241  1.00  0.00    -0.248 NA
ATOM     67  C   UNL A   1      42.255  30.127  35.423  1.00  0.00     0.031 C 
ATOM     68  C   UNL A   1      44.780  28.198  31.068  1.00  0.00     0.029 A 
ATOM     69  C   UNL A   1      43.886  27.588  31.927  1.00  0.00     0.049 A 
ATOM     70  H   UNL A   1      42.159  26.476  31.482  1.00  0.00     0.167 HD
ATOM     71  C   UNL A   1      43.221  28.583  33.983  1.00  0.00     0.074 A 
ATOM     72  C   UNL A   1      42.890  28.943  35.350  1.00  0.00     0.031 C 
ATOM     73  C   UNL A   1      43.776  27.488  33.378  1.00  0.00     0.031 A 
BRANCH  60  74
ATOM     74  C   UNL A   1      42.793  25.667  27.659  1.00  0.00    -0.014 A 
ATOM     75  C   UNL A   1      43.071  24.309  27.934  1.00  0.00     0.010 A 
ATOM     76  C   UNL A   1      43.058  26.084  26.342  1.00  0.00     0.010 A 
ATOM     77  C   UNL A   1      43.660  23.454  26.987  1.00  0.00     0.020 A 
ATOM     78  C   UNL A   1      43.645  25.245  25.384  1.00  0.00     0.020 A 
ATOM     79  C   UNL A   1      43.968  23.939  25.721  1.00  0.00     0.054 A 
BRANCH  79  80
ATOM     80  S   UNL A   1      44.806  22.862  24.531  1.00  0.00     0.124 S 
ATOM     81  O   UNL A   1      43.729  22.533  23.600  1.00  0.00    -0.237 OA
ATOM     82  O   UNL A   1      45.856  23.726  24.003  1.00  0.00    -0.237 OA
ATOM     83  O   UNL A   1      45.276  21.744  25.348  1.00  0.00    -0.744 OA
ENDBRANCH  79  80
ENDBRANCH  60  74
BRANCH  61  84
ATOM     84  C   UNL A   1      40.127  32.194  34.136  1.00  0.00    -0.014 A 
ATOM     85  C   UNL A   1      39.919  33.588  34.166  1.00  0.00     0.010 A 
ATOM     86  C   UNL A   1      39.024  31.328  34.244  1.00  0.00     0.010 A 
ATOM     87  C   UNL A   1      38.624  34.105  34.106  1.00  0.00     0.020 A 
ATOM     88  C   UNL A   1      37.726  31.846  34.191  1.00  0.00     0.020 A 
ATOM     89  C   UNL A   1      37.542  33.224  34.049  1.00  0.00     0.054 A 
BRANCH  89  90
ATOM     90  S   UNL A   1      35.931  33.895  33.542  1.00  0.00     0.124 S 
ATOM     91  O   UNL A   1      35.033  33.356  34.559  1.00  0.00    -0.237 OA
ATOM     92  O   UNL A   1      36.177  35.334  33.614  1.00  0.00    -0.237 OA
ATOM     93  O   UNL A   1      35.753  33.362  32.196  1.00  0.00    -0.744 OA
ENDBRANCH  89  90
ENDBRANCH  61  84
BRANCH  73  94
ATOM     94  C   UNL A   1      44.237  26.195  34.029  1.00  0.00    -0.014 A 
ATOM     95  C   UNL A   1      43.429  25.080  34.290  1.00  0.00     0.010 A 
ATOM     96  C   UNL A   1      45.588  26.096  34.458  1.00  0.00     0.010 A 
ATOM     97  C   UNL A   1      43.952  23.915  34.883  1.00  0.00     0.020 A 
ATOM     98  C   UNL A   1      46.119  24.950  35.057  1.00  0.00     0.020 A 
ATOM     99  C   UNL A   1      45.294  23.857  35.259  1.00  0.00     0.054 A 
BRANCH  99 100
ATOM    100  S   UNL A   1      45.940  22.345  36.015  1.00  0.00     0.124 S 
ATOM    101  O   UNL A   1      45.705  22.589  37.436  1.00  0.00    -0.237 OA
ATOM    102  O   UNL A   1      45.104  21.312  35.410  1.00  0.00    -0.237 OA
ATOM    103  O   UNL A   1      47.343  22.321  35.611  1.00  0.00    -0.744 OA
ENDBRANCH  99 100
ENDBRANCH  73  94
ENDBRANCH  47  48
ENDBRANCH  39  42
ENDBRANCH  37  38
ENDBRANCH  36  37
ENDBRANCH  35  36
ENDBRANCH   1  35
TORSDOF 20
ENDMDL
MODEL 2
REMARK VINA RESULT:     -12.1      3.315      9.333
REMARK SMILES Cc1ccccc1/[NH+]=C1\S[C@@H](CC(=O)Nc2ccc(C(=O)NCCCCCCNC(=O)c3ccc(-c4c5nc(c(-c6ccc(S(=O)(=O)[O-])cc6)c6ccc([nH]6)c(-c6ccc(S(=O)(=O)[O-])cc6)c6nc(c(-c7ccc(S(=O)(=O)[O-])cc7)c7ccc4[nH]7)C=C6)C=C5)cc3)cc2)C(=O)N1C
REMARK SMILES IDX 25 1 24 2 23 3 22 4 20 5 21 6 19 8 16 9 17 10 93 11 18 12
REMARK SMILES IDX 92 13 15 14 13 15 14 16 12 18 11 19 8 20 9 21 10 23 96 24
REMARK SMILES IDX 94 25 97 26 95 27 7 28 1 29 2 30 3 31 4 32 6 33 5 34 26 35
REMARK SMILES IDX 27 36 28 37 29 38 30 39 31 41 32 42 33 43 91 44 34 45 90 46
REMARK SMILES IDX 35 47 36 48 37 49 84 50 38 51 89 52 83 53 85 54 39 55 88 56
REMARK SMILES IDX 82 57 81 58 40 60 70 61 51 62 69 63 52 64 55 65 68 66 86 67
REMARK SMILES IDX 53 68 54 69 67 71 87 72 56 73 41 74 42 75 50 76 43 77 49 78
REMARK SMILES IDX 44 79 45 80 46 81 47 82 48 83 71 84 72 85 80 86 73 87 79 88
REMARK SMILES IDX 74 89 75 90 76 91 77 92 78 93 57 94 58 95 66 96 59 97 65 98
REMARK SMILES IDX 60 99 61 100 62 101 63 102 64 103
REMARK H PARENT 22 7 15 17 8 22 29 40 85 59 55 70
REMARK Flexibility Score: inf
ROOT
ATOM      1  C   UNL A   1      39.318  22.454  26.462  1.00  0.00     0.002 C 
ENDROOT
BRANCH   1   2
ATOM      2  C   UNL A   1      37.957  22.722  25.799  1.00  0.00     0.021 C 
BRANCH   2   3
ATOM      3  C   UNL A   1      37.098  21.480  25.546  1.00  0.00     0.116 C 
BRANCH   3   4
ATOM      4  N   UNL A   1      35.904  21.456  26.382  1.00  0.00    -0.352 N 
ATOM      5  C   UNL A   1      34.602  21.818  26.129  1.00  0.00     0.251 C 
ATOM      6  O   UNL A   1      33.724  21.494  26.929  1.00  0.00    -0.269 OA
ATOM      7  H   UNL A   1      36.059  21.119  27.295  1.00  0.00     0.163 HD
BRANCH   5   8
ATOM      8  C   UNL A   1      34.207  22.554  24.902  1.00  0.00     0.039 A 
ATOM      9  C   UNL A   1      33.403  24.063  22.688  1.00  0.00     0.041 A 
ATOM     10  C   UNL A   1      33.057  22.716  22.793  1.00  0.00     0.027 A 
ATOM     11  C   UNL A   1      34.283  24.623  23.607  1.00  0.00     0.027 A 
ATOM     12  C   UNL A   1      33.458  21.958  23.891  1.00  0.00     0.016 A 
ATOM     13  C   UNL A   1      34.672  23.869  24.721  1.00  0.00     0.016 A 
BRANCH   9  14
ATOM     14  N   UNL A   1      32.820  24.861  21.698  1.00  0.00    -0.326 N 
ATOM     15  C   UNL A   1      31.816  25.782  21.903  1.00  0.00     0.226 C 
ATOM     16  O   UNL A   1      31.235  26.304  20.951  1.00  0.00    -0.275 OA
ATOM     17  H   UNL A   1      33.154  24.754  20.778  1.00  0.00     0.169 HD
BRANCH  15  18
ATOM     18  C   UNL A   1      31.586  26.276  23.324  1.00  0.00     0.128 C 
BRANCH  18  19
ATOM     19  C   UNL A   1      32.092  27.672  23.615  1.00  0.00     0.183 C 
ATOM     20  N   UNL A   1      32.715  30.450  26.033  1.00  0.00    -0.234 N 
ATOM     21  C   UNL A   1      32.190  29.461  25.407  1.00  0.00     0.319 C 
ATOM     22  H   UNL A   1      32.242  31.308  25.939  1.00  0.00     0.313 HD
ATOM     23  S   UNL A   1      32.624  27.782  25.367  1.00  0.00    -0.022 SA
ATOM     24  N   UNL A   1      31.137  29.654  24.561  1.00  0.00    -0.193 N 
ATOM     25  C   UNL A   1      31.092  28.804  23.477  1.00  0.00     0.324 C 
ATOM     26  C   UNL A   1      30.247  30.795  24.642  1.00  0.00     0.301 C 
ATOM     27  O   UNL A   1      30.422  28.999  22.470  1.00  0.00    -0.245 OA
BRANCH  20  28
ATOM     28  C   UNL A   1      33.866  30.485  26.832  1.00  0.00     0.128 A 
ATOM     29  C   UNL A   1      33.522  32.790  27.951  1.00  0.00     0.049 C 
ATOM     30  C   UNL A   1      34.229  31.477  27.769  1.00  0.00    -0.004 A 
ATOM     31  C   UNL A   1      35.323  31.249  28.630  1.00  0.00     0.008 A 
ATOM     32  C   UNL A   1      36.000  30.033  28.636  1.00  0.00     0.001 A 
ATOM     33  C   UNL A   1      34.578  29.271  26.853  1.00  0.00     0.052 A 
ATOM     34  C   UNL A   1      35.621  29.037  27.751  1.00  0.00     0.004 A 
ENDBRANCH  20  28
ENDBRANCH  18  19
ENDBRANCH  15  18
ENDBRANCH   9  14
ENDBRANCH   5   8
ENDBRANCH   3   4
ENDBRANCH   2   3
ENDBRANCH   1   2
BRANCH   1  35
ATOM     35  C   UNL A   1      39.971  23.632  27.204  1.00  0.00     0.002 C 
BRANCH  35  36
ATOM     36  C   UNL A   1      41.318  24.107  26.654  1.00  0.00     0.021 C 
BRANCH  36  37
ATOM     37  C   UNL A   1      41.657  25.554  27.007  1.00  0.00     0.116 C 
BRANCH  37  38
ATOM     38  N   UNL A   1      42.290  26.283  25.916  1.00  0.00    -0.352 N 
ATOM     39  C   UNL A   1      42.167  27.621  25.582  1.00  0.00     0.251 C 
ATOM     40  H   UNL A   1      42.885  25.753  25.339  1.00  0.00     0.163 HD
ATOM     41  O   UNL A   1      42.584  28.043  24.514  1.00  0.00    -0.269 OA
BRANCH  39  42
ATOM     42  C   UNL A   1      41.597  28.544  26.587  1.00  0.00     0.039 A 
ATOM     43  C   UNL A   1      42.475  29.391  27.273  1.00  0.00     0.014 A 
ATOM     44  C   UNL A   1      40.268  28.429  26.984  1.00  0.00     0.014 A 
ATOM     45  C   UNL A   1      42.071  29.983  28.470  1.00  0.00     0.010 A 
ATOM     46  C   UNL A   1      39.897  28.941  28.212  1.00  0.00     0.010 A 
ATOM     47  C   UNL A   1      40.810  29.681  28.980  1.00  0.00    -0.014 A 
BRANCH  47  48
ATOM     48  C   UNL A   1      40.359  30.007  30.329  1.00  0.00     0.031 A 
ATOM     49  C   UNL A   1      39.540  31.216  30.581  1.00  0.00     0.074 A 
ATOM     50  C   UNL A   1      40.530  29.122  31.337  1.00  0.00     0.049 A 
ATOM     51  N   UNL A   1      39.335  31.717  31.756  1.00  0.00    -0.248 NA
ATOM     52  C   UNL A   1      38.940  32.011  29.514  1.00  0.00     0.031 C 
ATOM     53  C   UNL A   1      39.754  29.062  32.575  1.00  0.00     0.029 A 
ATOM     54  N   UNL A   1      41.576  28.226  31.557  1.00  0.00    -0.354 N 
ATOM     55  C   UNL A   1      38.337  32.656  31.638  1.00  0.00     0.074 A 
ATOM     56  C   UNL A   1      38.231  32.899  30.219  1.00  0.00     0.031 C 
ATOM     57  C   UNL A   1      40.480  28.432  33.508  1.00  0.00     0.029 A 
ATOM     58  C   UNL A   1      41.799  28.210  32.946  1.00  0.00     0.049 A 
ATOM     59  H   UNL A   1      42.062  27.707  30.876  1.00  0.00     0.167 HD
ATOM     60  C   UNL A   1      37.616  33.009  32.740  1.00  0.00     0.031 A 
ATOM     61  C   UNL A   1      42.979  28.519  33.558  1.00  0.00     0.031 A 
ATOM     62  C   UNL A   1      38.146  32.406  33.967  1.00  0.00     0.049 A 
ATOM     63  C   UNL A   1      42.865  29.583  34.631  1.00  0.00     0.074 A 
ATOM     64  C   UNL A   1      37.696  31.415  34.824  1.00  0.00     0.029 A 
ATOM     65  N   UNL A   1      39.442  32.699  34.362  1.00  0.00    -0.354 N 
ATOM     66  N   UNL A   1      41.780  30.260  34.881  1.00  0.00    -0.248 NA
ATOM     67  C   UNL A   1      43.997  30.050  35.428  1.00  0.00     0.031 C 
ATOM     68  C   UNL A   1      38.727  31.139  35.763  1.00  0.00     0.029 A 
ATOM     69  C   UNL A   1      39.796  31.967  35.479  1.00  0.00     0.049 A 
ATOM     70  H   UNL A   1      40.032  33.342  33.906  1.00  0.00     0.167 HD
ATOM     71  C   UNL A   1      42.053  31.273  35.767  1.00  0.00     0.074 A 
ATOM     72  C   UNL A   1      43.455  31.086  36.092  1.00  0.00     0.031 C 
ATOM     73  C   UNL A   1      41.098  32.197  36.095  1.00  0.00     0.031 A 
BRANCH  60  74
ATOM     74  C   UNL A   1      36.276  33.725  32.717  1.00  0.00    -0.014 A 
ATOM     75  C   UNL A   1      35.409  33.535  31.618  1.00  0.00     0.010 A 
ATOM     76  C   UNL A   1      35.837  34.648  33.683  1.00  0.00     0.010 A 
ATOM     77  C   UNL A   1      34.233  34.286  31.448  1.00  0.00     0.020 A 
ATOM     78  C   UNL A   1      34.665  35.406  33.530  1.00  0.00     0.020 A 
ATOM     79  C   UNL A   1      33.882  35.239  32.398  1.00  0.00     0.054 A 
BRANCH  79  80
ATOM     80  S   UNL A   1      32.415  36.265  32.135  1.00  0.00     0.124 S 
ATOM     81  O   UNL A   1      31.336  35.379  32.570  1.00  0.00    -0.237 OA
ATOM     82  O   UNL A   1      32.672  37.416  32.993  1.00  0.00    -0.237 OA
ATOM     83  O   UNL A   1      32.440  36.543  30.700  1.00  0.00    -0.744 OA
ENDBRANCH  79  80
ENDBRANCH  60  74
BRANCH  61  84
ATOM     84  C   UNL A   1      44.178  28.318  32.703  1.00  0.00    -0.014 A 
ATOM     85  C   UNL A   1      44.722  27.019  32.643  1.00  0.00     0.010 A 
ATOM     86  C   UNL A   1      44.452  29.232  31.669  1.00  0.00     0.010 A 
ATOM     87  C   UNL A   1      45.362  26.580  31.483  1.00  0.00     0.020 A 
ATOM     88  C   UNL A   1      45.099  28.793  30.508  1.00  0.00     0.020 A 
ATOM     89  C   UNL A   1      45.481  27.453  30.400  1.00  0.00     0.054 A 
BRANCH  89  90
ATOM     90  S   UNL A   1      45.914  26.743  28.784  1.00  0.00     0.124 S 
ATOM     91  O   UNL A   1      47.028  27.585  28.360  1.00  0.00    -0.237 OA
ATOM     92  O   UNL A   1      46.263  25.371  29.151  1.00  0.00    -0.237 OA
ATOM     93  O   UNL A   1      44.684  26.885  28.013  1.00  0.00    -0.744 OA
ENDBRANCH  89  90
ENDBRANCH  61  84
BRANCH  73  94
ATOM     94  C   UNL A   1      41.252  33.429  36.971  1.00  0.00    -0.014 A 
ATOM     95  C   UNL A   1      40.883  33.521  38.320  1.00  0.00     0.010 A 
ATOM     96  C   UNL A   1      41.773  34.615  36.388  1.00  0.00     0.010 A 
ATOM     97  C   UNL A   1      41.080  34.704  39.058  1.00  0.00     0.020 A 
ATOM     98  C   UNL A   1      41.966  35.799  37.104  1.00  0.00     0.020 A 
ATOM     99  C   UNL A   1      41.624  35.834  38.446  1.00  0.00     0.054 A 
BRANCH  99 100
ATOM    100  S   UNL A   1      41.872  37.339  39.419  1.00  0.00     0.124 S 
ATOM    101  O   UNL A   1      40.541  37.940  39.398  1.00  0.00    -0.237 OA
ATOM    102  O   UNL A   1      42.300  36.808  40.711  1.00  0.00    -0.237 OA
ATOM    103  O   UNL A   1      42.898  38.070  38.681  1.00  0.00    -0.744 OA
ENDBRANCH  99 100
ENDBRANCH  73  94
ENDBRANCH  47  48
ENDBRANCH  39  42
ENDBRANCH  37  38
ENDBRANCH  36  37
ENDBRANCH  35  36
ENDBRANCH   1  35
TORSDOF 20
ENDMDL
MODEL 3
REMARK VINA RESULT:     -11.2      5.424      9.461
REMARK SMILES Cc1ccccc1/[NH+]=C1\S[C@@H](CC(=O)Nc2ccc(C(=O)NCCCCCCNC(=O)c3ccc(-c4c5nc(c(-c6ccc(S(=O)(=O)[O-])cc6)c6ccc([nH]6)c(-c6ccc(S(=O)(=O)[O-])cc6)c6nc(c(-c7ccc(S(=O)(=O)[O-])cc7)c7ccc4[nH]7)C=C6)C=C5)cc3)cc2)C(=O)N1C
REMARK SMILES IDX 25 1 24 2 23 3 22 4 20 5 21 6 19 8 16 9 17 10 93 11 18 12
REMARK SMILES IDX 92 13 15 14 13 15 14 16 12 18 11 19 8 20 9 21 10 23 96 24
REMARK SMILES IDX 94 25 97 26 95 27 7 28 1 29 2 30 3 31 4 32 6 33 5 34 26 35
REMARK SMILES IDX 27 36 28 37 29 38 30 39 31 41 32 42 33 43 91 44 34 45 90 46
REMARK SMILES IDX 35 47 36 48 37 49 84 50 38 51 89 52 83 53 85 54 39 55 88 56
REMARK SMILES IDX 82 57 81 58 40 60 70 61 51 62 69 63 52 64 55 65 68 66 86 67
REMARK SMILES IDX 53 68 54 69 67 71 87 72 56 73 41 74 42 75 50 76 43 77 49 78
REMARK SMILES IDX 44 79 45 80 46 81 47 82 48 83 71 84 72 85 80 86 73 87 79 88
REMARK SMILES IDX 74 89 75 90 76 91 77 92 78 93 57 94 58 95 66 96 59 97 65 98
REMARK SMILES IDX 60 99 61 100 62 101 63 102 64 103
REMARK H PARENT 22 7 15 17 8 22 29 40 85 59 55 70
REMARK Flexibility Score: inf
ROOT
ATOM      1  C   UNL A   1      39.546  24.719  27.995  1.00  0.00     0.002 C 
ENDROOT
BRANCH   1   2
ATOM      2  C   UNL A   1      39.270  24.445  26.507  1.00  0.00     0.021 C 
BRANCH   2   3
ATOM      3  C   UNL A   1      37.853  23.966  26.183  1.00  0.00     0.116 C 
BRANCH   3   4
ATOM      4  N   UNL A   1      37.799  22.529  25.942  1.00  0.00    -0.352 N 
ATOM      5  C   UNL A   1      36.903  21.751  25.249  1.00  0.00     0.251 C 
ATOM      6  O   UNL A   1      37.195  20.582  24.997  1.00  0.00    -0.269 OA
ATOM      7  H   UNL A   1      38.541  22.025  26.349  1.00  0.00     0.163 HD
BRANCH   5   8
ATOM      8  C   UNL A   1      35.607  22.280  24.756  1.00  0.00     0.039 A 
ATOM      9  C   UNL A   1      33.095  23.130  23.867  1.00  0.00     0.041 A 
ATOM     10  C   UNL A   1      34.223  23.289  23.063  1.00  0.00     0.027 A 
ATOM     11  C   UNL A   1      33.237  22.691  25.178  1.00  0.00     0.027 A 
ATOM     12  C   UNL A   1      35.478  22.872  23.502  1.00  0.00     0.016 A 
ATOM     13  C   UNL A   1      34.493  22.254  25.615  1.00  0.00     0.016 A 
BRANCH   9  14
ATOM     14  N   UNL A   1      31.820  23.354  23.336  1.00  0.00    -0.326 N 
ATOM     15  C   UNL A   1      31.093  24.518  23.466  1.00  0.00     0.226 C 
ATOM     16  O   UNL A   1      29.910  24.563  23.129  1.00  0.00    -0.275 OA
ATOM     17  H   UNL A   1      31.407  22.618  22.827  1.00  0.00     0.169 HD
BRANCH  15  18
ATOM     18  C   UNL A   1      31.844  25.784  23.850  1.00  0.00     0.128 C 
BRANCH  18  19
ATOM     19  C   UNL A   1      30.977  26.942  24.297  1.00  0.00     0.183 C 
ATOM     20  N   UNL A   1      30.062  30.558  24.111  1.00  0.00    -0.234 N 
ATOM     21  C   UNL A   1      30.721  29.458  24.146  1.00  0.00     0.319 C 
ATOM     22  H   UNL A   1      30.171  31.140  24.897  1.00  0.00     0.313 HD
ATOM     23  S   UNL A   1      30.895  28.200  22.965  1.00  0.00    -0.022 SA
ATOM     24  N   UNL A   1      31.396  29.088  25.272  1.00  0.00    -0.193 N 
ATOM     25  C   UNL A   1      31.459  27.730  25.499  1.00  0.00     0.324 C 
ATOM     26  C   UNL A   1      31.830  30.028  26.288  1.00  0.00     0.301 C 
ATOM     27  O   UNL A   1      31.747  27.220  26.575  1.00  0.00    -0.245 OA
BRANCH  20  28
ATOM     28  C   UNL A   1      29.207  31.049  23.114  1.00  0.00     0.128 A 
ATOM     29  C   UNL A   1      29.538  33.585  23.500  1.00  0.00     0.049 C 
ATOM     30  C   UNL A   1      29.003  32.398  22.751  1.00  0.00    -0.004 A 
ATOM     31  C   UNL A   1      28.257  32.696  21.590  1.00  0.00     0.008 A 
ATOM     32  C   UNL A   1      27.792  31.690  20.748  1.00  0.00     0.001 A 
ATOM     33  C   UNL A   1      28.713  30.054  22.250  1.00  0.00     0.052 A 
ATOM     34  C   UNL A   1      28.028  30.364  21.074  1.00  0.00     0.004 A 
ENDBRANCH  20  28
ENDBRANCH  18  19
ENDBRANCH  15  18
ENDBRANCH   9  14
ENDBRANCH   5   8
ENDBRANCH   3   4
ENDBRANCH   2   3
ENDBRANCH   1   2
BRANCH   1  35
ATOM     35  C   UNL A   1      39.190  26.120  28.519  1.00  0.00     0.002 C 
BRANCH  35  36
ATOM     36  C   UNL A   1      39.819  26.516  29.857  1.00  0.00     0.021 C 
BRANCH  36  37
ATOM     37  C   UNL A   1      38.963  27.470  30.687  1.00  0.00     0.116 C 
BRANCH  37  38
ATOM     38  N   UNL A   1      37.912  28.123  29.919  1.00  0.00    -0.352 N 
ATOM     39  C   UNL A   1      37.998  29.244  29.112  1.00  0.00     0.251 C 
ATOM     40  H   UNL A   1      37.020  27.711  29.983  1.00  0.00     0.163 HD
ATOM     41  O   UNL A   1      36.991  29.805  28.706  1.00  0.00    -0.269 OA
BRANCH  39  42
ATOM     42  C   UNL A   1      39.339  29.696  28.680  1.00  0.00     0.039 A 
ATOM     43  C   UNL A   1      39.865  29.157  27.501  1.00  0.00     0.014 A 
ATOM     44  C   UNL A   1      40.132  30.468  29.523  1.00  0.00     0.014 A 
ATOM     45  C   UNL A   1      41.236  29.235  27.256  1.00  0.00     0.010 A 
ATOM     46  C   UNL A   1      41.499  30.469  29.326  1.00  0.00     0.010 A 
ATOM     47  C   UNL A   1      42.060  29.815  28.218  1.00  0.00    -0.014 A 
BRANCH  47  48
ATOM     48  C   UNL A   1      43.518  29.733  28.223  1.00  0.00     0.031 A 
ATOM     49  C   UNL A   1      44.336  30.757  27.531  1.00  0.00     0.074 A 
ATOM     50  C   UNL A   1      44.146  28.824  29.003  1.00  0.00     0.049 A 
ATOM     51  N   UNL A   1      45.591  30.615  27.258  1.00  0.00    -0.248 NA
ATOM     52  C   UNL A   1      43.784  32.009  27.020  1.00  0.00     0.031 C 
ATOM     53  C   UNL A   1      45.521  28.908  29.490  1.00  0.00     0.029 A 
ATOM     54  N   UNL A   1      43.750  27.531  29.345  1.00  0.00    -0.354 N 
ATOM     55  C   UNL A   1      46.073  31.840  26.862  1.00  0.00     0.074 A 
ATOM     56  C   UNL A   1      44.891  32.627  26.597  1.00  0.00     0.031 C 
ATOM     57  C   UNL A   1      45.949  27.675  29.789  1.00  0.00     0.029 A 
ATOM     58  C   UNL A   1      44.919  26.749  29.354  1.00  0.00     0.049 A 
ATOM     59  H   UNL A   1      42.835  27.226  29.542  1.00  0.00     0.167 HD
ATOM     60  C   UNL A   1      47.409  32.095  26.948  1.00  0.00     0.031 A 
ATOM     61  C   UNL A   1      45.130  25.638  28.590  1.00  0.00     0.031 A 
ATOM     62  C   UNL A   1      48.177  30.907  27.331  1.00  0.00     0.049 A 
ATOM     63  C   UNL A   1      46.402  25.679  27.767  1.00  0.00     0.074 A 
ATOM     64  C   UNL A   1      48.863  30.531  28.474  1.00  0.00     0.029 A 
ATOM     65  N   UNL A   1      48.146  29.787  26.514  1.00  0.00    -0.354 N 
ATOM     66  N   UNL A   1      47.180  26.718  27.670  1.00  0.00    -0.248 NA
ATOM     67  C   UNL A   1      46.835  24.588  26.897  1.00  0.00     0.031 C 
ATOM     68  C   UNL A   1      49.276  29.179  28.321  1.00  0.00     0.029 A 
ATOM     69  C   UNL A   1      48.847  28.740  27.083  1.00  0.00     0.049 A 
ATOM     70  H   UNL A   1      47.686  29.743  25.645  1.00  0.00     0.167 HD
ATOM     71  C   UNL A   1      48.134  26.502  26.706  1.00  0.00     0.074 A 
ATOM     72  C   UNL A   1      47.883  25.143  26.264  1.00  0.00     0.031 C 
ATOM     73  C   UNL A   1      48.997  27.497  26.335  1.00  0.00     0.031 A 
BRANCH  60  74
ATOM     74  C   UNL A   1      48.042  33.477  26.912  1.00  0.00    -0.014 A 
ATOM     75  C   UNL A   1      48.083  34.250  28.094  1.00  0.00     0.010 A 
ATOM     76  C   UNL A   1      48.536  34.109  25.757  1.00  0.00     0.010 A 
ATOM     77  C   UNL A   1      48.500  35.592  28.102  1.00  0.00     0.020 A 
ATOM     78  C   UNL A   1      48.957  35.447  25.747  1.00  0.00     0.020 A 
ATOM     79  C   UNL A   1      48.912  36.191  26.916  1.00  0.00     0.054 A 
BRANCH  79  80
ATOM     80  S   UNL A   1      49.366  37.943  26.911  1.00  0.00     0.124 S 
ATOM     81  O   UNL A   1      49.334  38.274  28.334  1.00  0.00    -0.237 OA
ATOM     82  O   UNL A   1      50.688  37.928  26.294  1.00  0.00    -0.237 OA
ATOM     83  O   UNL A   1      48.315  38.570  26.110  1.00  0.00    -0.744 OA
ENDBRANCH  79  80
ENDBRANCH  60  74
BRANCH  61  84
ATOM     84  C   UNL A   1      43.884  24.944  28.171  1.00  0.00    -0.014 A 
ATOM     85  C   UNL A   1      43.587  24.920  26.793  1.00  0.00     0.010 A 
ATOM     86  C   UNL A   1      43.307  23.981  29.019  1.00  0.00     0.010 A 
ATOM     87  C   UNL A   1      42.889  23.844  26.244  1.00  0.00     0.020 A 
ATOM     88  C   UNL A   1      42.602  22.905  28.469  1.00  0.00     0.020 A 
ATOM     89  C   UNL A   1      42.464  22.811  27.082  1.00  0.00     0.054 A 
BRANCH  89  90
ATOM     90  S   UNL A   1      41.955  21.248  26.307  1.00  0.00     0.124 S 
ATOM     91  O   UNL A   1      40.569  21.517  25.939  1.00  0.00    -0.237 OA
ATOM     92  O   UNL A   1      42.898  21.153  25.193  1.00  0.00    -0.237 OA
ATOM     93  O   UNL A   1      42.149  20.267  27.369  1.00  0.00    -0.744 OA
ENDBRANCH  89  90
ENDBRANCH  61  84
BRANCH  73  94
ATOM     94  C   UNL A   1      50.039  27.466  25.229  1.00  0.00    -0.014 A 
ATOM     95  C   UNL A   1      51.416  27.659  25.400  1.00  0.00     0.010 A 
ATOM     96  C   UNL A   1      49.601  27.269  23.891  1.00  0.00     0.010 A 
ATOM     97  C   UNL A   1      52.309  27.594  24.313  1.00  0.00     0.020 A 
ATOM     98  C   UNL A   1      50.474  27.212  22.801  1.00  0.00     0.020 A 
ATOM     99  C   UNL A   1      51.832  27.368  23.022  1.00  0.00     0.054 A 
BRANCH  99 100
ATOM    100  S   UNL A   1      53.003  27.285  21.645  1.00  0.00     0.124 S 
ATOM    101  O   UNL A   1      53.478  28.664  21.563  1.00  0.00    -0.237 OA
ATOM    102  O   UNL A   1      53.981  26.312  22.124  1.00  0.00    -0.237 OA
ATOM    103  O   UNL A   1      52.189  26.839  20.518  1.00  0.00    -0.744 OA
ENDBRANCH  99 100
ENDBRANCH  73  94
ENDBRANCH  47  48
ENDBRANCH  39  42
ENDBRANCH  37  38
ENDBRANCH  36  37
ENDBRANCH  35  36
ENDBRANCH   1  35
TORSDOF 20
ENDMDL
