MODEL 1
REMARK VINA RESULT:     -10.1      0.000      0.000
REMARK SMILES CNC(=O)[C@H](C)S(=O)(=O)c1cc(C(=O)NCCCCCCNC(=O)c2ccc(-c3c4nc(c(-c5ccc(S(=O)(=O)[O-])cc5)c5ccc([nH]5)c(-c5ccc(S(=O)(=O)[O-])cc5)c5nc(c(-c6ccc(S(=O)(=O)[O-])cc6)c6ccc3[nH]6)C=C5)C=C4)cc2)c(C)cc1C
REMARK SMILES IDX 18 1 17 2 16 3 15 4 13 5 14 6 12 8 10 9 11 10 88 11 87 12
REMARK SMILES IDX 89 13 85 14 86 15 7 16 8 17 9 18 5 19 6 20 3 21 1 22 2 23
REMARK SMILES IDX 4 25 19 26 20 27 21 28 22 29 23 30 24 32 25 33 26 34 84 35
REMARK SMILES IDX 27 36 83 37 28 38 29 39 30 40 77 41 31 42 82 43 76 44 78 45
REMARK SMILES IDX 32 46 81 47 75 48 74 49 33 51 63 52 44 53 62 54 45 55 48 56
REMARK SMILES IDX 61 57 79 58 46 59 47 60 60 62 80 63 49 64 34 65 35 66 43 67
REMARK SMILES IDX 36 68 42 69 37 70 38 71 39 72 40 73 41 74 64 75 65 76 73 77
REMARK SMILES IDX 66 78 72 79 67 80 68 81 69 82 70 83 71 84 50 85 51 86 59 87
REMARK SMILES IDX 52 88 58 89 53 90 54 91 55 92 56 93 57 94
REMARK H PARENT 15 7 2 24 22 31 78 50 48 61
REMARK Flexibility Score: inf
ROOT
ATOM      1  C   UNL A   1      35.201  31.766  27.720  1.00  0.00     0.002 C 
ENDROOT
BRANCH   1   2
ATOM      2  C   UNL A   1      35.129  30.344  28.279  1.00  0.00     0.021 C 
BRANCH   2   3
ATOM      3  C   UNL A   1      34.746  29.280  27.244  1.00  0.00     0.116 C 
BRANCH   3   4
ATOM      4  N   UNL A   1      33.481  28.691  27.603  1.00  0.00    -0.352 N 
ATOM      5  C   UNL A   1      32.548  27.947  26.950  1.00  0.00     0.251 C 
ATOM      6  O   UNL A   1      31.570  27.636  27.643  1.00  0.00    -0.269 OA
ATOM      7  H   UNL A   1      33.234  28.868  28.539  1.00  0.00     0.163 HD
BRANCH   5   8
ATOM      8  C   UNL A   1      32.569  27.462  25.524  1.00  0.00     0.044 A 
ATOM      9  C   UNL A   1      33.080  25.380  24.284  1.00  0.00     0.071 A 
ATOM     10  C   UNL A   1      33.207  26.201  25.410  1.00  0.00     0.034 A 
ATOM     11  C   UNL A   1      32.596  25.937  23.101  1.00  0.00    -0.032 A 
ATOM     12  C   UNL A   1      32.014  27.211  23.179  1.00  0.00     0.009 A 
ATOM     13  C   UNL A   1      32.603  25.289  21.745  1.00  0.00     0.046 C 
ATOM     14  C   UNL A   1      31.891  27.933  24.389  1.00  0.00    -0.038 A 
ATOM     15  C   UNL A   1      30.956  29.098  24.315  1.00  0.00     0.045 C 
BRANCH   9  16
ATOM     16  S   UNL A   1      33.549  23.662  24.460  1.00  0.00     0.190 S 
ATOM     17  O   UNL A   1      33.876  23.506  25.869  1.00  0.00    -0.223 OA
ATOM     18  O   UNL A   1      34.564  23.375  23.465  1.00  0.00    -0.223 OA
BRANCH  16  19
ATOM     19  C   UNL A   1      32.187  22.589  24.102  1.00  0.00     0.199 C 
ATOM     20  C   UNL A   1      32.159  21.904  22.749  1.00  0.00     0.036 C 
BRANCH  19  21
ATOM     21  C   UNL A   1      31.701  21.797  25.294  1.00  0.00     0.238 C 
ATOM     22  C   UNL A   1      30.451  23.604  26.611  1.00  0.00     0.142 C 
ATOM     23  N   UNL A   1      30.989  22.299  26.331  1.00  0.00    -0.358 N 
ATOM     24  H   UNL A   1      30.800  21.638  27.036  1.00  0.00     0.163 HD
ATOM     25  O   UNL A   1      32.014  20.604  25.407  1.00  0.00    -0.274 OA
ENDBRANCH  19  21
ENDBRANCH  16  19
ENDBRANCH   9  16
ENDBRANCH   5   8
ENDBRANCH   3   4
ENDBRANCH   2   3
ENDBRANCH   1   2
BRANCH   1  26
ATOM     26  C   UNL A   1      34.945  32.865  28.753  1.00  0.00     0.002 C 
BRANCH  26  27
ATOM     27  C   UNL A   1      33.679  33.691  28.512  1.00  0.00     0.021 C 
BRANCH  27  28
ATOM     28  C   UNL A   1      33.844  35.182  28.792  1.00  0.00     0.116 C 
BRANCH  28  29
ATOM     29  N   UNL A   1      32.959  35.618  29.862  1.00  0.00    -0.352 N 
ATOM     30  C   UNL A   1      32.958  35.255  31.185  1.00  0.00     0.251 C 
ATOM     31  H   UNL A   1      32.263  36.265  29.599  1.00  0.00     0.163 HD
ATOM     32  O   UNL A   1      31.973  35.475  31.883  1.00  0.00    -0.269 OA
BRANCH  30  33
ATOM     33  C   UNL A   1      34.150  34.600  31.759  1.00  0.00     0.039 A 
ATOM     34  C   UNL A   1      34.018  33.351  32.370  1.00  0.00     0.014 A 
ATOM     35  C   UNL A   1      35.397  35.229  31.702  1.00  0.00     0.014 A 
ATOM     36  C   UNL A   1      35.150  32.712  32.879  1.00  0.00     0.010 A 
ATOM     37  C   UNL A   1      36.533  34.557  32.139  1.00  0.00     0.010 A 
ATOM     38  C   UNL A   1      36.420  33.295  32.740  1.00  0.00    -0.014 A 
BRANCH  38  39
ATOM     39  C   UNL A   1      37.644  32.604  33.218  1.00  0.00     0.031 A 
ATOM     40  C   UNL A   1      38.258  32.981  34.540  1.00  0.00     0.074 A 
ATOM     41  C   UNL A   1      38.238  31.685  32.431  1.00  0.00     0.049 A 
ATOM     42  N   UNL A   1      39.351  32.531  35.098  1.00  0.00    -0.248 NA
ATOM     43  C   UNL A   1      37.566  34.017  35.325  1.00  0.00     0.031 C 
ATOM     44  C   UNL A   1      37.762  31.265  31.111  1.00  0.00     0.029 A 
ATOM     45  N   UNL A   1      39.375  30.941  32.625  1.00  0.00    -0.354 N 
ATOM     46  C   UNL A   1      39.488  33.238  36.288  1.00  0.00     0.074 A 
ATOM     47  C   UNL A   1      38.396  34.184  36.344  1.00  0.00     0.031 C 
ATOM     48  C   UNL A   1      38.582  30.319  30.629  1.00  0.00     0.029 A 
ATOM     49  C   UNL A   1      39.667  30.097  31.579  1.00  0.00     0.049 A 
ATOM     50  H   UNL A   1      39.929  31.006  33.436  1.00  0.00     0.167 HD
ATOM     51  C   UNL A   1      40.426  33.097  37.256  1.00  0.00     0.031 A 
ATOM     52  C   UNL A   1      40.695  29.245  31.402  1.00  0.00     0.031 A 
ATOM     53  C   UNL A   1      41.505  32.149  37.194  1.00  0.00     0.049 A 
ATOM     54  C   UNL A   1      41.733  29.117  32.483  1.00  0.00     0.074 A 
ATOM     55  C   UNL A   1      42.475  31.889  38.146  1.00  0.00     0.029 A 
ATOM     56  N   UNL A   1      41.762  31.306  36.122  1.00  0.00    -0.354 N 
ATOM     57  N   UNL A   1      41.806  29.745  33.632  1.00  0.00    -0.248 NA
ATOM     58  C   UNL A   1      42.820  28.156  32.249  1.00  0.00     0.031 C 
ATOM     59  C   UNL A   1      43.355  30.934  37.623  1.00  0.00     0.029 A 
ATOM     60  C   UNL A   1      42.891  30.546  36.376  1.00  0.00     0.049 A 
ATOM     61  H   UNL A   1      41.220  31.257  35.301  1.00  0.00     0.167 HD
ATOM     62  C   UNL A   1      42.929  29.232  34.272  1.00  0.00     0.074 A 
ATOM     63  C   UNL A   1      43.495  28.234  33.388  1.00  0.00     0.031 C 
ATOM     64  C   UNL A   1      43.441  29.556  35.485  1.00  0.00     0.031 A 
BRANCH  51  65
ATOM     65  C   UNL A   1      40.330  34.000  38.458  1.00  0.00    -0.014 A 
ATOM     66  C   UNL A   1      40.830  35.315  38.426  1.00  0.00     0.010 A 
ATOM     67  C   UNL A   1      39.696  33.541  39.627  1.00  0.00     0.010 A 
ATOM     68  C   UNL A   1      40.737  36.137  39.552  1.00  0.00     0.020 A 
ATOM     69  C   UNL A   1      39.571  34.372  40.745  1.00  0.00     0.020 A 
ATOM     70  C   UNL A   1      40.110  35.659  40.706  1.00  0.00     0.054 A 
BRANCH  70  71
ATOM     71  S   UNL A   1      39.986  36.756  42.145  1.00  0.00     0.124 S 
ATOM     72  O   UNL A   1      41.336  36.675  42.700  1.00  0.00    -0.237 OA
ATOM     73  O   UNL A   1      39.630  38.036  41.541  1.00  0.00    -0.237 OA
ATOM     74  O   UNL A   1      38.941  36.143  42.962  1.00  0.00    -0.744 OA
ENDBRANCH  70  71
ENDBRANCH  51  65
BRANCH  52  75
ATOM     75  C   UNL A   1      40.782  28.437  30.153  1.00  0.00    -0.014 A 
ATOM     76  C   UNL A   1      41.724  28.753  29.159  1.00  0.00     0.010 A 
ATOM     77  C   UNL A   1      39.931  27.332  29.961  1.00  0.00     0.010 A 
ATOM     78  C   UNL A   1      41.804  27.990  27.990  1.00  0.00     0.020 A 
ATOM     79  C   UNL A   1      40.029  26.549  28.808  1.00  0.00     0.020 A 
ATOM     80  C   UNL A   1      40.957  26.890  27.824  1.00  0.00     0.054 A 
BRANCH  80  81
ATOM     81  S   UNL A   1      41.115  25.884  26.323  1.00  0.00     0.124 S 
ATOM     82  O   UNL A   1      41.377  26.897  25.304  1.00  0.00    -0.237 OA
ATOM     83  O   UNL A   1      42.238  25.008  26.650  1.00  0.00    -0.237 OA
ATOM     84  O   UNL A   1      39.821  25.214  26.224  1.00  0.00    -0.744 OA
ENDBRANCH  80  81
ENDBRANCH  52  75
BRANCH  64  85
ATOM     85  C   UNL A   1      44.656  28.797  35.953  1.00  0.00    -0.014 A 
ATOM     86  C   UNL A   1      45.956  29.267  35.702  1.00  0.00     0.010 A 
ATOM     87  C   UNL A   1      44.486  27.625  36.715  1.00  0.00     0.010 A 
ATOM     88  C   UNL A   1      47.065  28.564  36.180  1.00  0.00     0.020 A 
ATOM     89  C   UNL A   1      45.589  26.938  37.221  1.00  0.00     0.020 A 
ATOM     90  C   UNL A   1      46.875  27.404  36.939  1.00  0.00     0.054 A 
BRANCH  90  91
ATOM     91  S   UNL A   1      48.329  26.541  37.592  1.00  0.00     0.124 S 
ATOM     92  O   UNL A   1      49.385  27.004  36.696  1.00  0.00    -0.237 OA
ATOM     93  O   UNL A   1      48.406  27.036  38.964  1.00  0.00    -0.237 OA
ATOM     94  O   UNL A   1      47.981  25.127  37.465  1.00  0.00    -0.744 OA
ENDBRANCH  90  91
ENDBRANCH  64  85
ENDBRANCH  38  39
ENDBRANCH  30  33
ENDBRANCH  28  29
ENDBRANCH  27  28
ENDBRANCH  26  27
ENDBRANCH   1  26
TORSDOF 19
ENDMDL
MODEL 2
REMARK VINA RESULT:      -9.8      6.140      8.506
REMARK SMILES CNC(=O)[C@H](C)S(=O)(=O)c1cc(C(=O)NCCCCCCNC(=O)c2ccc(-c3c4nc(c(-c5ccc(S(=O)(=O)[O-])cc5)c5ccc([nH]5)c(-c5ccc(S(=O)(=O)[O-])cc5)c5nc(c(-c6ccc(S(=O)(=O)[O-])cc6)c6ccc3[nH]6)C=C5)C=C4)cc2)c(C)cc1C
REMARK SMILES IDX 18 1 17 2 16 3 15 4 13 5 14 6 12 8 10 9 11 10 88 11 87 12
REMARK SMILES IDX 89 13 85 14 86 15 7 16 8 17 9 18 5 19 6 20 3 21 1 22 2 23
REMARK SMILES IDX 4 25 19 26 20 27 21 28 22 29 23 30 24 32 25 33 26 34 84 35
REMARK SMILES IDX 27 36 83 37 28 38 29 39 30 40 77 41 31 42 82 43 76 44 78 45
REMARK SMILES IDX 32 46 81 47 75 48 74 49 33 51 63 52 44 53 62 54 45 55 48 56
REMARK SMILES IDX 61 57 79 58 46 59 47 60 60 62 80 63 49 64 34 65 35 66 43 67
REMARK SMILES IDX 36 68 42 69 37 70 38 71 39 72 40 73 41 74 64 75 65 76 73 77
REMARK SMILES IDX 66 78 72 79 67 80 68 81 69 82 70 83 71 84 50 85 51 86 59 87
REMARK SMILES IDX 52 88 58 89 53 90 54 91 55 92 56 93 57 94
REMARK H PARENT 15 7 2 24 22 31 78 50 48 61
REMARK Flexibility Score: inf
ROOT
ATOM      1  C   UNL A   1      34.644  30.879  27.632  1.00  0.00     0.002 C 
ENDROOT
BRANCH   1   2
ATOM      2  C   UNL A   1      34.855  29.384  27.380  1.00  0.00     0.021 C 
BRANCH   2   3
ATOM      3  C   UNL A   1      33.821  28.754  26.440  1.00  0.00     0.116 C 
BRANCH   3   4
ATOM      4  N   UNL A   1      34.197  29.006  25.072  1.00  0.00    -0.352 N 
ATOM      5  C   UNL A   1      33.838  28.490  23.866  1.00  0.00     0.251 C 
ATOM      6  O   UNL A   1      34.419  29.001  22.900  1.00  0.00    -0.269 OA
ATOM      7  H   UNL A   1      34.871  29.718  24.991  1.00  0.00     0.163 HD
BRANCH   5   8
ATOM      8  C   UNL A   1      32.834  27.405  23.575  1.00  0.00     0.044 A 
ATOM      9  C   UNL A   1      32.783  24.936  23.373  1.00  0.00     0.071 A 
ATOM     10  C   UNL A   1      33.466  26.157  23.341  1.00  0.00     0.034 A 
ATOM     11  C   UNL A   1      31.390  24.948  23.297  1.00  0.00    -0.032 A 
ATOM     12  C   UNL A   1      30.745  26.182  23.464  1.00  0.00     0.009 A 
ATOM     13  C   UNL A   1      30.502  23.754  23.087  1.00  0.00     0.046 C 
ATOM     14  C   UNL A   1      31.438  27.389  23.715  1.00  0.00    -0.038 A 
ATOM     15  C   UNL A   1      30.567  28.509  24.191  1.00  0.00     0.045 C 
BRANCH   9  16
ATOM     16  S   UNL A   1      33.763  23.446  23.516  1.00  0.00     0.190 S 
ATOM     17  O   UNL A   1      35.108  23.911  23.816  1.00  0.00    -0.223 OA
ATOM     18  O   UNL A   1      33.541  22.653  22.322  1.00  0.00    -0.223 OA
BRANCH  16  19
ATOM     19  C   UNL A   1      33.219  22.454  24.877  1.00  0.00     0.199 C 
ATOM     20  C   UNL A   1      33.524  20.968  24.840  1.00  0.00     0.036 C 
BRANCH  19  21
ATOM     21  C   UNL A   1      33.308  23.150  26.217  1.00  0.00     0.238 C 
ATOM     22  C   UNL A   1      30.831  23.560  26.724  1.00  0.00     0.142 C 
ATOM     23  N   UNL A   1      32.254  23.611  26.932  1.00  0.00    -0.358 N 
ATOM     24  H   UNL A   1      32.513  24.075  27.760  1.00  0.00     0.163 HD
ATOM     25  O   UNL A   1      34.418  23.399  26.706  1.00  0.00    -0.274 OA
ENDBRANCH  19  21
ENDBRANCH  16  19
ENDBRANCH   9  16
ENDBRANCH   5   8
ENDBRANCH   3   4
ENDBRANCH   2   3
ENDBRANCH   1   2
BRANCH   1  26
ATOM     26  C   UNL A   1      35.938  31.690  27.732  1.00  0.00     0.002 C 
BRANCH  26  27
ATOM     27  C   UNL A   1      35.874  32.888  28.683  1.00  0.00     0.021 C 
BRANCH  27  28
ATOM     28  C   UNL A   1      36.854  32.813  29.850  1.00  0.00     0.116 C 
BRANCH  28  29
ATOM     29  N   UNL A   1      36.373  31.909  30.884  1.00  0.00    -0.352 N 
ATOM     30  C   UNL A   1      36.802  30.642  31.191  1.00  0.00     0.251 C 
ATOM     31  H   UNL A   1      35.637  32.254  31.441  1.00  0.00     0.163 HD
ATOM     32  O   UNL A   1      36.103  29.906  31.880  1.00  0.00    -0.269 OA
BRANCH  30  33
ATOM     33  C   UNL A   1      38.109  30.175  30.686  1.00  0.00     0.039 A 
ATOM     34  C   UNL A   1      38.189  29.611  29.410  1.00  0.00     0.014 A 
ATOM     35  C   UNL A   1      39.252  30.284  31.482  1.00  0.00     0.014 A 
ATOM     36  C   UNL A   1      39.430  29.205  28.915  1.00  0.00     0.010 A 
ATOM     37  C   UNL A   1      40.496  29.951  30.958  1.00  0.00     0.010 A 
ATOM     38  C   UNL A   1      40.597  29.400  29.672  1.00  0.00    -0.014 A 
BRANCH  38  39
ATOM     39  C   UNL A   1      41.933  29.032  29.140  1.00  0.00     0.031 A 
ATOM     40  C   UNL A   1      43.019  30.069  29.041  1.00  0.00     0.074 A 
ATOM     41  C   UNL A   1      42.145  27.781  28.684  1.00  0.00     0.049 A 
ATOM     42  N   UNL A   1      44.227  29.953  28.555  1.00  0.00    -0.248 NA
ATOM     43  C   UNL A   1      42.697  31.420  29.530  1.00  0.00     0.031 C 
ATOM     44  C   UNL A   1      41.157  26.699  28.687  1.00  0.00     0.029 A 
ATOM     45  N   UNL A   1      43.260  27.210  28.125  1.00  0.00    -0.354 N 
ATOM     46  C   UNL A   1      44.803  31.214  28.662  1.00  0.00     0.074 A 
ATOM     47  C   UNL A   1      43.793  32.092  29.210  1.00  0.00     0.031 C 
ATOM     48  C   UNL A   1      41.719  25.590  28.184  1.00  0.00     0.029 A 
ATOM     49  C   UNL A   1      43.089  25.889  27.780  1.00  0.00     0.049 A 
ATOM     50  H   UNL A   1      44.103  27.698  27.984  1.00  0.00     0.167 HD
ATOM     51  C   UNL A   1      46.064  31.601  28.353  1.00  0.00     0.031 A 
ATOM     52  C   UNL A   1      43.936  25.019  27.197  1.00  0.00     0.031 A 
ATOM     53  C   UNL A   1      47.064  30.718  27.815  1.00  0.00     0.049 A 
ATOM     54  C   UNL A   1      45.326  25.475  26.848  1.00  0.00     0.074 A 
ATOM     55  C   UNL A   1      48.387  30.997  27.520  1.00  0.00     0.029 A 
ATOM     56  N   UNL A   1      46.853  29.386  27.487  1.00  0.00    -0.354 N 
ATOM     57  N   UNL A   1      45.874  26.654  27.022  1.00  0.00    -0.248 NA
ATOM     58  C   UNL A   1      46.217  24.479  26.237  1.00  0.00     0.031 C 
ATOM     59  C   UNL A   1      48.959  29.851  26.955  1.00  0.00     0.029 A 
ATOM     60  C   UNL A   1      48.013  28.838  26.966  1.00  0.00     0.049 A 
ATOM     61  H   UNL A   1      46.004  28.903  27.607  1.00  0.00     0.167 HD
ATOM     62  C   UNL A   1      47.183  26.534  26.570  1.00  0.00     0.074 A 
ATOM     63  C   UNL A   1      47.348  25.164  26.128  1.00  0.00     0.031 C 
ATOM     64  C   UNL A   1      48.161  27.472  26.531  1.00  0.00     0.031 A 
BRANCH  51  65
ATOM     65  C   UNL A   1      46.428  33.045  28.581  1.00  0.00    -0.014 A 
ATOM     66  C   UNL A   1      46.109  34.036  27.633  1.00  0.00     0.010 A 
ATOM     67  C   UNL A   1      47.063  33.425  29.776  1.00  0.00     0.010 A 
ATOM     68  C   UNL A   1      46.459  35.370  27.858  1.00  0.00     0.020 A 
ATOM     69  C   UNL A   1      47.385  34.764  30.020  1.00  0.00     0.020 A 
ATOM     70  C   UNL A   1      47.096  35.725  29.050  1.00  0.00     0.054 A 
BRANCH  70  71
ATOM     71  S   UNL A   1      47.520  37.468  29.322  1.00  0.00     0.124 S 
ATOM     72  O   UNL A   1      48.963  37.465  29.094  1.00  0.00    -0.237 OA
ATOM     73  O   UNL A   1      46.724  38.152  28.307  1.00  0.00    -0.237 OA
ATOM     74  O   UNL A   1      47.108  37.714  30.703  1.00  0.00    -0.744 OA
ENDBRANCH  70  71
ENDBRANCH  51  65
BRANCH  52  75
ATOM     75  C   UNL A   1      43.493  23.624  26.921  1.00  0.00    -0.014 A 
ATOM     76  C   UNL A   1      43.462  23.128  25.606  1.00  0.00     0.010 A 
ATOM     77  C   UNL A   1      43.116  22.775  27.979  1.00  0.00     0.010 A 
ATOM     78  C   UNL A   1      43.048  21.817  25.351  1.00  0.00     0.020 A 
ATOM     79  C   UNL A   1      42.730  21.456  27.731  1.00  0.00     0.020 A 
ATOM     80  C   UNL A   1      42.688  20.988  26.417  1.00  0.00     0.054 A 
BRANCH  80  81
ATOM     81  S   UNL A   1      42.205  19.275  26.067  1.00  0.00     0.124 S 
ATOM     82  O   UNL A   1      43.039  18.954  24.913  1.00  0.00    -0.237 OA
ATOM     83  O   UNL A   1      42.552  18.591  27.311  1.00  0.00    -0.237 OA
ATOM     84  O   UNL A   1      40.772  19.372  25.799  1.00  0.00    -0.744 OA
ENDBRANCH  80  81
ENDBRANCH  52  75
BRANCH  64  85
ATOM     85  C   UNL A   1      49.516  27.044  26.028  1.00  0.00    -0.014 A 
ATOM     86  C   UNL A   1      50.479  26.494  26.892  1.00  0.00     0.010 A 
ATOM     87  C   UNL A   1      49.801  27.134  24.653  1.00  0.00     0.010 A 
ATOM     88  C   UNL A   1      51.713  26.070  26.394  1.00  0.00     0.020 A 
ATOM     89  C   UNL A   1      51.020  26.681  24.146  1.00  0.00     0.020 A 
ATOM     90  C   UNL A   1      51.975  26.164  25.023  1.00  0.00     0.054 A 
BRANCH  90  91
ATOM     91  S   UNL A   1      53.564  25.556  24.395  1.00  0.00     0.124 S 
ATOM     92  O   UNL A   1      54.518  26.383  25.131  1.00  0.00    -0.237 OA
ATOM     93  O   UNL A   1      53.537  24.144  24.769  1.00  0.00    -0.237 OA
ATOM     94  O   UNL A   1      53.494  25.817  22.959  1.00  0.00    -0.744 OA
ENDBRANCH  90  91
ENDBRANCH  64  85
ENDBRANCH  38  39
ENDBRANCH  30  33
ENDBRANCH  28  29
ENDBRANCH  27  28
ENDBRANCH  26  27
ENDBRANCH   1  26
TORSDOF 19
ENDMDL
MODEL 3
REMARK VINA RESULT:      -9.8      3.202      9.199
REMARK SMILES CNC(=O)[C@H](C)S(=O)(=O)c1cc(C(=O)NCCCCCCNC(=O)c2ccc(-c3c4nc(c(-c5ccc(S(=O)(=O)[O-])cc5)c5ccc([nH]5)c(-c5ccc(S(=O)(=O)[O-])cc5)c5nc(c(-c6ccc(S(=O)(=O)[O-])cc6)c6ccc3[nH]6)C=C5)C=C4)cc2)c(C)cc1C
REMARK SMILES IDX 18 1 17 2 16 3 15 4 13 5 14 6 12 8 10 9 11 10 88 11 87 12
REMARK SMILES IDX 89 13 85 14 86 15 7 16 8 17 9 18 5 19 6 20 3 21 1 22 2 23
REMARK SMILES IDX 4 25 19 26 20 27 21 28 22 29 23 30 24 32 25 33 26 34 84 35
REMARK SMILES IDX 27 36 83 37 28 38 29 39 30 40 77 41 31 42 82 43 76 44 78 45
REMARK SMILES IDX 32 46 81 47 75 48 74 49 33 51 63 52 44 53 62 54 45 55 48 56
REMARK SMILES IDX 61 57 79 58 46 59 47 60 60 62 80 63 49 64 34 65 35 66 43 67
REMARK SMILES IDX 36 68 42 69 37 70 38 71 39 72 40 73 41 74 64 75 65 76 73 77
REMARK SMILES IDX 66 78 72 79 67 80 68 81 69 82 70 83 71 84 50 85 51 86 59 87
REMARK SMILES IDX 52 88 58 89 53 90 54 91 55 92 56 93 57 94
REMARK H PARENT 15 7 2 24 22 31 78 50 48 61
REMARK Flexibility Score: inf
ROOT
ATOM      1  C   UNL A   1      41.375  21.298  26.692  1.00  0.00     0.002 C 
ENDROOT
BRANCH   1   2
ATOM      2  C   UNL A   1      40.340  22.301  27.207  1.00  0.00     0.021 C 
BRANCH   2   3
ATOM      3  C   UNL A   1      39.046  22.347  26.385  1.00  0.00     0.116 C 
BRANCH   3   4
ATOM      4  N   UNL A   1      38.816  21.062  25.776  1.00  0.00    -0.352 N 
ATOM      5  C   UNL A   1      37.811  20.512  25.044  1.00  0.00     0.251 C 
ATOM      6  O   UNL A   1      38.012  19.338  24.705  1.00  0.00    -0.269 OA
ATOM      7  H   UNL A   1      39.561  20.435  25.925  1.00  0.00     0.163 HD
BRANCH   5   8
ATOM      8  C   UNL A   1      36.521  21.150  24.599  1.00  0.00     0.044 A 
ATOM      9  C   UNL A   1      34.108  20.596  24.533  1.00  0.00     0.071 A 
ATOM     10  C   UNL A   1      35.454  20.217  24.584  1.00  0.00     0.034 A 
ATOM     11  C   UNL A   1      33.794  21.899  24.148  1.00  0.00    -0.032 A 
ATOM     12  C   UNL A   1      34.845  22.827  24.096  1.00  0.00     0.009 A 
ATOM     13  C   UNL A   1      32.426  22.422  23.815  1.00  0.00     0.046 C 
ATOM     14  C   UNL A   1      36.182  22.501  24.425  1.00  0.00    -0.038 A 
ATOM     15  C   UNL A   1      37.070  23.688  24.629  1.00  0.00     0.045 C 
BRANCH   9  16
ATOM     16  S   UNL A   1      32.887  19.364  24.977  1.00  0.00     0.190 S 
ATOM     17  O   UNL A   1      31.692  20.125  25.309  1.00  0.00    -0.223 OA
ATOM     18  O   UNL A   1      33.475  18.500  25.982  1.00  0.00    -0.223 OA
BRANCH  16  19
ATOM     19  C   UNL A   1      32.499  18.326  23.597  1.00  0.00     0.199 C 
ATOM     20  C   UNL A   1      32.188  18.993  22.270  1.00  0.00     0.036 C 
BRANCH  19  21
ATOM     21  C   UNL A   1      33.289  17.037  23.559  1.00  0.00     0.238 C 
ATOM     22  C   UNL A   1      32.227  15.752  25.504  1.00  0.00     0.142 C 
ATOM     23  N   UNL A   1      33.133  15.998  24.414  1.00  0.00    -0.358 N 
ATOM     24  H   UNL A   1      33.769  15.262  24.259  1.00  0.00     0.163 HD
ATOM     25  O   UNL A   1      34.207  16.904  22.740  1.00  0.00    -0.274 OA
ENDBRANCH  19  21
ENDBRANCH  16  19
ENDBRANCH   9  16
ENDBRANCH   5   8
ENDBRANCH   3   4
ENDBRANCH   2   3
ENDBRANCH   1   2
BRANCH   1  26
ATOM     26  C   UNL A   1      42.769  21.887  26.471  1.00  0.00     0.002 C 
BRANCH  26  27
ATOM     27  C   UNL A   1      43.373  22.585  27.692  1.00  0.00     0.021 C 
BRANCH  27  28
ATOM     28  C   UNL A   1      43.602  24.082  27.506  1.00  0.00     0.116 C 
BRANCH  28  29
ATOM     29  N   UNL A   1      42.989  24.560  26.275  1.00  0.00    -0.352 N 
ATOM     30  C   UNL A   1      42.009  25.505  26.108  1.00  0.00     0.251 C 
ATOM     31  H   UNL A   1      43.325  24.146  25.446  1.00  0.00     0.163 HD
ATOM     32  O   UNL A   1      41.396  25.576  25.048  1.00  0.00    -0.269 OA
BRANCH  30  33
ATOM     33  C   UNL A   1      41.701  26.436  27.214  1.00  0.00     0.039 A 
ATOM     34  C   UNL A   1      40.698  26.105  28.128  1.00  0.00     0.014 A 
ATOM     35  C   UNL A   1      42.399  27.640  27.336  1.00  0.00     0.014 A 
ATOM     36  C   UNL A   1      40.432  26.964  29.196  1.00  0.00     0.010 A 
ATOM     37  C   UNL A   1      42.187  28.454  28.443  1.00  0.00     0.010 A 
ATOM     38  C   UNL A   1      41.194  28.129  29.380  1.00  0.00    -0.014 A 
BRANCH  38  39
ATOM     39  C   UNL A   1      40.969  29.024  30.543  1.00  0.00     0.031 A 
ATOM     40  C   UNL A   1      41.792  28.860  31.793  1.00  0.00     0.074 A 
ATOM     41  C   UNL A   1      39.980  29.938  30.497  1.00  0.00     0.049 A 
ATOM     42  N   UNL A   1      41.706  29.507  32.926  1.00  0.00    -0.248 NA
ATOM     43  C   UNL A   1      42.831  27.817  31.775  1.00  0.00     0.031 C 
ATOM     44  C   UNL A   1      39.087  30.163  29.357  1.00  0.00     0.029 A 
ATOM     45  N   UNL A   1      39.556  30.845  31.434  1.00  0.00    -0.354 N 
ATOM     46  C   UNL A   1      42.663  28.940  33.760  1.00  0.00     0.074 A 
ATOM     47  C   UNL A   1      43.282  27.862  33.020  1.00  0.00     0.031 C 
ATOM     48  C   UNL A   1      38.242  31.163  29.651  1.00  0.00     0.029 A 
ATOM     49  C   UNL A   1      38.500  31.620  31.013  1.00  0.00     0.049 A 
ATOM     50  H   UNL A   1      39.967  30.934  32.323  1.00  0.00     0.167 HD
ATOM     51  C   UNL A   1      43.011  29.298  35.020  1.00  0.00     0.031 A 
ATOM     52  C   UNL A   1      37.811  32.585  31.653  1.00  0.00     0.031 A 
ATOM     53  C   UNL A   1      42.395  30.376  35.745  1.00  0.00     0.049 A 
ATOM     54  C   UNL A   1      38.205  32.955  33.056  1.00  0.00     0.074 A 
ATOM     55  C   UNL A   1      42.711  30.856  37.004  1.00  0.00     0.029 A 
ATOM     56  N   UNL A   1      41.335  31.142  35.281  1.00  0.00    -0.354 N 
ATOM     57  N   UNL A   1      39.160  32.454  33.803  1.00  0.00    -0.248 NA
ATOM     58  C   UNL A   1      37.437  34.031  33.699  1.00  0.00     0.031 C 
ATOM     59  C   UNL A   1      41.802  31.869  37.327  1.00  0.00     0.029 A 
ATOM     60  C   UNL A   1      40.966  32.070  36.240  1.00  0.00     0.049 A 
ATOM     61  H   UNL A   1      40.908  31.039  34.400  1.00  0.00     0.167 HD
ATOM     62  C   UNL A   1      39.128  33.174  34.992  1.00  0.00     0.074 A 
ATOM     63  C   UNL A   1      38.068  34.153  34.859  1.00  0.00     0.031 C 
ATOM     64  C   UNL A   1      39.909  33.039  36.092  1.00  0.00     0.031 A 
BRANCH  51  65
ATOM     65  C   UNL A   1      44.102  28.508  35.695  1.00  0.00    -0.014 A 
ATOM     66  C   UNL A   1      43.808  27.361  36.457  1.00  0.00     0.010 A 
ATOM     67  C   UNL A   1      45.445  28.893  35.535  1.00  0.00     0.010 A 
ATOM     68  C   UNL A   1      44.831  26.643  37.081  1.00  0.00     0.020 A 
ATOM     69  C   UNL A   1      46.474  28.158  36.131  1.00  0.00     0.020 A 
ATOM     70  C   UNL A   1      46.158  27.048  36.915  1.00  0.00     0.054 A 
BRANCH  70  71
ATOM     71  S   UNL A   1      47.466  26.083  37.721  1.00  0.00     0.124 S 
ATOM     72  O   UNL A   1      48.328  25.744  36.592  1.00  0.00    -0.237 OA
ATOM     73  O   UNL A   1      48.026  27.038  38.674  1.00  0.00    -0.237 OA
ATOM     74  O   UNL A   1      46.751  24.958  38.319  1.00  0.00    -0.744 OA
ENDBRANCH  70  71
ENDBRANCH  51  65
BRANCH  52  75
ATOM     75  C   UNL A   1      36.687  33.277  30.962  1.00  0.00    -0.014 A 
ATOM     76  C   UNL A   1      36.939  34.204  29.936  1.00  0.00     0.010 A 
ATOM     77  C   UNL A   1      35.354  32.996  31.315  1.00  0.00     0.010 A 
ATOM     78  C   UNL A   1      35.881  34.850  29.288  1.00  0.00     0.020 A 
ATOM     79  C   UNL A   1      34.294  33.616  30.650  1.00  0.00     0.020 A 
ATOM     80  C   UNL A   1      34.565  34.548  29.647  1.00  0.00     0.054 A 
BRANCH  80  81
ATOM     81  S   UNL A   1      33.208  35.359  28.757  1.00  0.00     0.124 S 
ATOM     82  O   UNL A   1      32.589  34.235  28.060  1.00  0.00    -0.237 OA
ATOM     83  O   UNL A   1      32.424  35.942  29.843  1.00  0.00    -0.237 OA
ATOM     84  O   UNL A   1      33.891  36.327  27.903  1.00  0.00    -0.744 OA
ENDBRANCH  80  81
ENDBRANCH  52  75
BRANCH  64  85
ATOM     85  C   UNL A   1      39.679  33.999  37.231  1.00  0.00    -0.014 A 
ATOM     86  C   UNL A   1      39.006  33.602  38.399  1.00  0.00     0.010 A 
ATOM     87  C   UNL A   1      40.208  35.301  37.152  1.00  0.00     0.010 A 
ATOM     88  C   UNL A   1      38.839  34.501  39.456  1.00  0.00     0.020 A 
ATOM     89  C   UNL A   1      40.072  36.191  38.219  1.00  0.00     0.020 A 
ATOM     90  C   UNL A   1      39.376  35.790  39.360  1.00  0.00     0.054 A 
BRANCH  90  91
ATOM     91  S   UNL A   1      39.193  36.917  40.768  1.00  0.00     0.124 S 
ATOM     92  O   UNL A   1      40.572  37.337  41.003  1.00  0.00    -0.237 OA
ATOM     93  O   UNL A   1      38.303  37.948  40.239  1.00  0.00    -0.237 OA
ATOM     94  O   UNL A   1      38.613  36.077  41.813  1.00  0.00    -0.744 OA
ENDBRANCH  90  91
ENDBRANCH  64  85
ENDBRANCH  38  39
ENDBRANCH  30  33
ENDBRANCH  28  29
ENDBRANCH  27  28
ENDBRANCH  26  27
ENDBRANCH   1  26
TORSDOF 19
ENDMDL
