MODEL 1
REMARK VINA RESULT:     -11.6      0.000      0.000
REMARK SMILES O=C(NCCCCCCNC(=O)c1cc(O)ccc1NC(=O)c1ccc(Br)nc1)c1ccc(-c2c3nc(c(-c4ccc(S(=O)(=O)[O-])cc4)c4ccc([nH]4)c(-c4ccc(S(=O)(=O)[O-])cc4)c4nc(c(-c5ccc(S(=O)(=O)[O-])cc5)c5ccc2[nH]5)C=C4)C=C3)cc1
REMARK SMILES IDX 6 1 5 2 4 3 3 4 1 5 2 6 30 8 31 9 89 10 32 11 88 12 33 13
REMARK SMILES IDX 34 14 35 15 82 16 36 17 87 18 81 19 83 20 37 21 86 22 80 23
REMARK SMILES IDX 79 24 38 26 68 27 49 28 67 29 50 30 53 31 66 32 84 33 51 34
REMARK SMILES IDX 52 35 65 37 85 38 54 39 39 40 40 41 48 42 41 43 47 44 42 45
REMARK SMILES IDX 43 46 44 47 45 48 46 49 69 50 70 51 78 52 71 53 77 54 72 55
REMARK SMILES IDX 73 56 74 57 75 58 76 59 55 60 56 61 64 62 57 63 63 64 58 65
REMARK SMILES IDX 59 66 60 67 61 68 62 69 7 70 8 71 9 72 10 73 11 74 12 76
REMARK SMILES IDX 13 77 14 78 19 79 15 80 18 81 17 82 20 83 21 84 22 86 23 87
REMARK SMILES IDX 24 88 29 89 25 90 28 91 26 92 27 93 16 94
REMARK H PARENT 3 7 83 25 53 36 10 75 20 85 16 95
REMARK Flexibility Score: inf
ROOT
ATOM      1  C   UNL A   1      38.100  23.852  25.877  1.00  0.00     0.002 C 
ENDROOT
BRANCH   1   2
ATOM      2  C   UNL A   1      38.980  22.813  26.574  1.00  0.00     0.021 C 
BRANCH   2   3
ATOM      3  C   UNL A   1      40.316  23.336  27.086  1.00  0.00     0.116 C 
BRANCH   3   4
ATOM      4  N   UNL A   1      41.070  24.030  26.057  1.00  0.00    -0.352 N 
ATOM      5  O   UNL A   1      41.977  25.806  25.007  1.00  0.00    -0.269 OA
ATOM      6  C   UNL A   1      41.500  25.335  26.036  1.00  0.00     0.251 C 
ATOM      7  H   UNL A   1      41.304  23.492  25.266  1.00  0.00     0.163 HD
BRANCH   6   8
ATOM      8  C   UNL A   1      41.371  26.172  27.250  1.00  0.00     0.039 A 
ATOM      9  C   UNL A   1      42.376  27.077  27.603  1.00  0.00     0.014 A 
ATOM     10  C   UNL A   1      40.214  26.071  28.028  1.00  0.00     0.014 A 
ATOM     11  C   UNL A   1      42.273  27.801  28.786  1.00  0.00     0.010 A 
ATOM     12  C   UNL A   1      40.078  26.855  29.178  1.00  0.00     0.010 A 
ATOM     13  C   UNL A   1      41.111  27.719  29.571  1.00  0.00    -0.014 A 
BRANCH  13  14
ATOM     14  C   UNL A   1      40.952  28.637  30.727  1.00  0.00     0.031 A 
ATOM     15  C   UNL A   1      41.827  28.530  31.944  1.00  0.00     0.074 A 
ATOM     16  C   UNL A   1      39.997  29.586  30.656  1.00  0.00     0.049 A 
ATOM     17  N   UNL A   1      41.817  29.268  33.025  1.00  0.00    -0.248 NA
ATOM     18  C   UNL A   1      42.839  27.461  31.959  1.00  0.00     0.031 C 
ATOM     19  C   UNL A   1      39.073  29.768  29.530  1.00  0.00     0.029 A 
ATOM     20  N   UNL A   1      39.644  30.577  31.535  1.00  0.00    -0.354 N 
ATOM     21  C   UNL A   1      42.801  28.745  33.856  1.00  0.00     0.074 A 
ATOM     22  C   UNL A   1      43.384  27.618  33.159  1.00  0.00     0.031 C 
ATOM     23  C   UNL A   1      38.287  30.827  29.772  1.00  0.00     0.029 A 
ATOM     24  C   UNL A   1      38.606  31.361  31.090  1.00  0.00     0.049 A 
ATOM     25  H   UNL A   1      40.092  30.715  32.401  1.00  0.00     0.167 HD
ATOM     26  C   UNL A   1      43.179  29.170  35.085  1.00  0.00     0.031 A 
ATOM     27  C   UNL A   1      37.959  32.380  31.683  1.00  0.00     0.031 A 
ATOM     28  C   UNL A   1      42.596  30.299  35.768  1.00  0.00     0.049 A 
ATOM     29  C   UNL A   1      38.388  32.810  33.056  1.00  0.00     0.074 A 
ATOM     30  C   UNL A   1      42.954  30.839  36.992  1.00  0.00     0.029 A 
ATOM     31  N   UNL A   1      41.530  31.050  35.296  1.00  0.00    -0.354 N 
ATOM     32  N   UNL A   1      39.364  32.342  33.795  1.00  0.00    -0.248 NA
ATOM     33  C   UNL A   1      37.627  33.902  33.676  1.00  0.00     0.031 C 
ATOM     34  C   UNL A   1      42.069  31.882  37.285  1.00  0.00     0.029 A 
ATOM     35  C   UNL A   1      41.195  32.026  36.220  1.00  0.00     0.049 A 
ATOM     36  H   UNL A   1      41.079  30.910  34.432  1.00  0.00     0.167 HD
ATOM     37  C   UNL A   1      39.338  33.088  34.967  1.00  0.00     0.074 A 
ATOM     38  C   UNL A   1      38.271  34.057  34.824  1.00  0.00     0.031 C 
ATOM     39  C   UNL A   1      40.123  32.975  36.067  1.00  0.00     0.031 A 
BRANCH  26  40
ATOM     40  C   UNL A   1      44.265  28.411  35.800  1.00  0.00    -0.014 A 
ATOM     41  C   UNL A   1      43.964  27.305  36.614  1.00  0.00     0.010 A 
ATOM     42  C   UNL A   1      45.613  28.741  35.563  1.00  0.00     0.010 A 
ATOM     43  C   UNL A   1      44.992  26.550  37.189  1.00  0.00     0.020 A 
ATOM     44  C   UNL A   1      46.643  27.977  36.120  1.00  0.00     0.020 A 
ATOM     45  C   UNL A   1      46.325  26.889  36.936  1.00  0.00     0.054 A 
BRANCH  45  46
ATOM     46  S   UNL A   1      47.636  25.853  37.644  1.00  0.00     0.124 S 
ATOM     47  O   UNL A   1      48.797  26.255  36.855  1.00  0.00    -0.237 OA
ATOM     48  O   UNL A   1      47.654  26.270  39.044  1.00  0.00    -0.237 OA
ATOM     49  O   UNL A   1      47.166  24.489  37.410  1.00  0.00    -0.744 OA
ENDBRANCH  45  46
ENDBRANCH  26  40
BRANCH  27  50
ATOM     50  C   UNL A   1      36.811  33.032  31.000  1.00  0.00    -0.014 A 
ATOM     51  C   UNL A   1      37.018  33.964  29.970  1.00  0.00     0.010 A 
ATOM     52  C   UNL A   1      35.494  32.717  31.385  1.00  0.00     0.010 A 
ATOM     53  C   UNL A   1      35.930  34.591  29.356  1.00  0.00     0.020 A 
ATOM     54  C   UNL A   1      34.404  33.318  30.752  1.00  0.00     0.020 A 
ATOM     55  C   UNL A   1      34.630  34.266  29.754  1.00  0.00     0.054 A 
BRANCH  55  56
ATOM     56  S   UNL A   1      33.229  35.070  28.930  1.00  0.00     0.124 S 
ATOM     57  O   UNL A   1      32.745  34.008  28.054  1.00  0.00    -0.237 OA
ATOM     58  O   UNL A   1      32.356  35.416  30.049  1.00  0.00    -0.237 OA
ATOM     59  O   UNL A   1      33.842  36.211  28.253  1.00  0.00    -0.744 OA
ENDBRANCH  55  56
ENDBRANCH  27  50
BRANCH  39  60
ATOM     60  C   UNL A   1      39.858  33.933  37.195  1.00  0.00    -0.014 A 
ATOM     61  C   UNL A   1      38.945  33.612  38.214  1.00  0.00     0.010 A 
ATOM     62  C   UNL A   1      40.555  35.152  37.253  1.00  0.00     0.010 A 
ATOM     63  C   UNL A   1      38.708  34.511  39.257  1.00  0.00     0.020 A 
ATOM     64  C   UNL A   1      40.340  36.042  38.308  1.00  0.00     0.020 A 
ATOM     65  C   UNL A   1      39.406  35.722  39.295  1.00  0.00     0.054 A 
BRANCH  65  66
ATOM     66  S   UNL A   1      39.108  36.858  40.677  1.00  0.00     0.124 S 
ATOM     67  O   UNL A   1      38.445  35.988  41.645  1.00  0.00    -0.237 OA
ATOM     68  O   UNL A   1      40.458  37.287  41.038  1.00  0.00    -0.237 OA
ATOM     69  O   UNL A   1      38.266  37.899  40.094  1.00  0.00    -0.744 OA
ENDBRANCH  65  66
ENDBRANCH  39  60
ENDBRANCH  13  14
ENDBRANCH   6   8
ENDBRANCH   3   4
ENDBRANCH   2   3
ENDBRANCH   1   2
BRANCH   1  70
ATOM     70  C   UNL A   1      36.592  23.705  26.105  1.00  0.00     0.002 C 
BRANCH  70  71
ATOM     71  C   UNL A   1      35.803  23.082  24.951  1.00  0.00     0.021 C 
BRANCH  71  72
ATOM     72  C   UNL A   1      34.794  22.010  25.357  1.00  0.00     0.116 C 
BRANCH  72  73
ATOM     73  N   UNL A   1      34.040  21.492  24.224  1.00  0.00    -0.352 N 
ATOM     74  C   UNL A   1      32.729  21.732  23.890  1.00  0.00     0.253 C 
ATOM     75  H   UNL A   1      34.533  20.892  23.620  1.00  0.00     0.163 HD
ATOM     76  O   UNL A   1      32.173  21.096  23.002  1.00  0.00    -0.269 OA
BRANCH  74  77
ATOM     77  C   UNL A   1      31.970  22.733  24.669  1.00  0.00     0.067 A 
ATOM     78  C   UNL A   1      31.416  22.326  25.895  1.00  0.00     0.062 A 
ATOM     79  C   UNL A   1      31.758  24.028  24.158  1.00  0.00     0.054 A 
ATOM     80  C   UNL A   1      30.534  23.170  26.548  1.00  0.00     0.116 A 
ATOM     81  C   UNL A   1      30.783  24.805  24.791  1.00  0.00     0.031 A 
ATOM     82  C   UNL A   1      30.186  24.388  25.985  1.00  0.00     0.048 A 
BRANCH  79  83
ATOM     83  N   UNL A   1      32.512  24.469  23.040  1.00  0.00    -0.321 N 
ATOM     84  C   UNL A   1      33.169  25.647  22.762  1.00  0.00     0.257 C 
ATOM     85  H   UNL A   1      32.577  23.800  22.320  1.00  0.00     0.170 HD
ATOM     86  O   UNL A   1      33.635  25.859  21.644  1.00  0.00    -0.269 OA
BRANCH  84  87
ATOM     87  C   UNL A   1      33.383  26.668  23.793  1.00  0.00     0.058 A 
ATOM     88  C   UNL A   1      33.955  26.373  25.032  1.00  0.00     0.018 A 
ATOM     89  C   UNL A   1      32.968  27.967  23.543  1.00  0.00     0.126 A 
ATOM     90  C   UNL A   1      33.990  27.366  26.009  1.00  0.00     0.037 A 
ATOM     91  N   UNL A   1      33.000  28.950  24.473  1.00  0.00    -0.249 NA
ATOM     92  C   UNL A   1      33.490  28.624  25.691  1.00  0.00     0.106 A 
ATOM     93  Br  UNL A   1      33.443  29.955  27.041  1.00  0.00    -0.029 Br
ENDBRANCH  84  87
ENDBRANCH  79  83
BRANCH  80  94
ATOM     94  O   UNL A   1      29.948  22.825  27.725  1.00  0.00    -0.508 OA
ATOM     95  H   UNL A   1      30.115  23.329  28.497  1.00  0.00     0.293 HD
ENDBRANCH  80  94
ENDBRANCH  74  77
ENDBRANCH  72  73
ENDBRANCH  71  72
ENDBRANCH  70  71
ENDBRANCH   1  70
TORSDOF 19
ENDMDL
MODEL 2
REMARK VINA RESULT:     -11.5      2.140      8.391
REMARK SMILES O=C(NCCCCCCNC(=O)c1cc(O)ccc1NC(=O)c1ccc(Br)nc1)c1ccc(-c2c3nc(c(-c4ccc(S(=O)(=O)[O-])cc4)c4ccc([nH]4)c(-c4ccc(S(=O)(=O)[O-])cc4)c4nc(c(-c5ccc(S(=O)(=O)[O-])cc5)c5ccc2[nH]5)C=C4)C=C3)cc1
REMARK SMILES IDX 6 1 5 2 4 3 3 4 1 5 2 6 30 8 31 9 89 10 32 11 88 12 33 13
REMARK SMILES IDX 34 14 35 15 82 16 36 17 87 18 81 19 83 20 37 21 86 22 80 23
REMARK SMILES IDX 79 24 38 26 68 27 49 28 67 29 50 30 53 31 66 32 84 33 51 34
REMARK SMILES IDX 52 35 65 37 85 38 54 39 39 40 40 41 48 42 41 43 47 44 42 45
REMARK SMILES IDX 43 46 44 47 45 48 46 49 69 50 70 51 78 52 71 53 77 54 72 55
REMARK SMILES IDX 73 56 74 57 75 58 76 59 55 60 56 61 64 62 57 63 63 64 58 65
REMARK SMILES IDX 59 66 60 67 61 68 62 69 7 70 8 71 9 72 10 73 11 74 12 76
REMARK SMILES IDX 13 77 14 78 19 79 15 80 18 81 17 82 20 83 21 84 22 86 23 87
REMARK SMILES IDX 24 88 29 89 25 90 28 91 26 92 27 93 16 94
REMARK H PARENT 3 7 83 25 53 36 10 75 20 85 16 95
REMARK Flexibility Score: inf
ROOT
ATOM      1  C   UNL A   1      31.642  30.155  26.707  1.00  0.00     0.002 C 
ENDROOT
BRANCH   1   2
ATOM      2  C   UNL A   1      31.775  31.668  26.528  1.00  0.00     0.021 C 
BRANCH   2   3
ATOM      3  C   UNL A   1      32.917  32.313  27.304  1.00  0.00     0.116 C 
BRANCH   3   4
ATOM      4  N   UNL A   1      32.673  33.719  27.580  1.00  0.00    -0.352 N 
ATOM      5  O   UNL A   1      32.783  35.640  28.752  1.00  0.00    -0.269 OA
ATOM      6  C   UNL A   1      33.232  34.515  28.550  1.00  0.00     0.251 C 
ATOM      7  H   UNL A   1      32.018  34.160  26.992  1.00  0.00     0.163 HD
BRANCH   6   8
ATOM      8  C   UNL A   1      34.363  34.007  29.358  1.00  0.00     0.039 A 
ATOM      9  C   UNL A   1      34.133  33.226  30.495  1.00  0.00     0.014 A 
ATOM     10  C   UNL A   1      35.671  34.290  28.955  1.00  0.00     0.014 A 
ATOM     11  C   UNL A   1      35.204  32.820  31.284  1.00  0.00     0.010 A 
ATOM     12  C   UNL A   1      36.749  33.816  29.709  1.00  0.00     0.010 A 
ATOM     13  C   UNL A   1      36.524  33.086  30.885  1.00  0.00    -0.014 A 
BRANCH  13  14
ATOM     14  C   UNL A   1      37.646  32.484  31.648  1.00  0.00     0.031 A 
ATOM     15  C   UNL A   1      38.051  33.008  32.998  1.00  0.00     0.074 A 
ATOM     16  C   UNL A   1      38.298  31.440  31.098  1.00  0.00     0.049 A 
ATOM     17  N   UNL A   1      39.001  32.577  33.789  1.00  0.00    -0.248 NA
ATOM     18  C   UNL A   1      37.306  34.160  33.529  1.00  0.00     0.031 C 
ATOM     19  C   UNL A   1      38.004  30.862  29.782  1.00  0.00     0.029 A 
ATOM     20  N   UNL A   1      39.331  30.673  31.571  1.00  0.00    -0.354 N 
ATOM     21  C   UNL A   1      38.983  33.413  34.900  1.00  0.00     0.074 A 
ATOM     22  C   UNL A   1      37.934  34.385  34.677  1.00  0.00     0.031 C 
ATOM     23  C   UNL A   1      38.811  29.813  29.570  1.00  0.00     0.029 A 
ATOM     24  C   UNL A   1      39.719  29.680  30.702  1.00  0.00     0.049 A 
ATOM     25  H   UNL A   1      39.754  30.818  32.448  1.00  0.00     0.167 HD
ATOM     26  C   UNL A   1      39.771  33.368  36.001  1.00  0.00     0.031 A 
ATOM     27  C   UNL A   1      40.712  28.776  30.790  1.00  0.00     0.031 A 
ATOM     28  C   UNL A   1      40.809  32.391  36.215  1.00  0.00     0.049 A 
ATOM     29  C   UNL A   1      41.582  28.770  32.013  1.00  0.00     0.074 A 
ATOM     30  C   UNL A   1      41.620  32.232  37.327  1.00  0.00     0.029 A 
ATOM     31  N   UNL A   1      41.188  31.419  35.302  1.00  0.00    -0.354 N 
ATOM     32  N   UNL A   1      41.504  29.529  33.079  1.00  0.00    -0.248 NA
ATOM     33  C   UNL A   1      42.674  27.789  32.044  1.00  0.00     0.031 C 
ATOM     34  C   UNL A   1      42.526  31.200  37.063  1.00  0.00     0.029 A 
ATOM     35  C   UNL A   1      42.244  30.681  35.810  1.00  0.00     0.049 A 
ATOM     36  H   UNL A   1      40.768  31.275  34.424  1.00  0.00     0.167 HD
ATOM     37  C   UNL A   1      42.535  29.112  33.912  1.00  0.00     0.074 A 
ATOM     38  C   UNL A   1      43.201  28.016  33.240  1.00  0.00     0.031 C 
ATOM     39  C   UNL A   1      42.903  29.600  35.122  1.00  0.00     0.031 A 
BRANCH  26  40
ATOM     40  C   UNL A   1      39.568  34.413  37.065  1.00  0.00    -0.014 A 
ATOM     41  C   UNL A   1      38.881  34.115  38.255  1.00  0.00     0.010 A 
ATOM     42  C   UNL A   1      40.170  35.677  36.920  1.00  0.00     0.010 A 
ATOM     43  C   UNL A   1      38.789  35.067  39.276  1.00  0.00     0.020 A 
ATOM     44  C   UNL A   1      40.098  36.624  37.946  1.00  0.00     0.020 A 
ATOM     45  C   UNL A   1      39.401  36.315  39.116  1.00  0.00     0.054 A 
BRANCH  45  46
ATOM     46  S   UNL A   1      39.319  37.505  40.483  1.00  0.00     0.124 S 
ATOM     47  O   UNL A   1      38.903  36.657  41.597  1.00  0.00    -0.237 OA
ATOM     48  O   UNL A   1      40.690  38.006  40.555  1.00  0.00    -0.237 OA
ATOM     49  O   UNL A   1      38.327  38.480  40.037  1.00  0.00    -0.744 OA
ENDBRANCH  45  46
ENDBRANCH  26  40
BRANCH  27  50
ATOM     50  C   UNL A   1      40.963  27.835  29.666  1.00  0.00    -0.014 A 
ATOM     51  C   UNL A   1      42.070  28.001  28.819  1.00  0.00     0.010 A 
ATOM     52  C   UNL A   1      40.082  26.759  29.442  1.00  0.00     0.010 A 
ATOM     53  C   UNL A   1      42.277  27.126  27.749  1.00  0.00     0.020 A 
ATOM     54  C   UNL A   1      40.304  25.865  28.392  1.00  0.00     0.020 A 
ATOM     55  C   UNL A   1      41.391  26.066  27.540  1.00  0.00     0.054 A 
BRANCH  55  56
ATOM     56  S   UNL A   1      41.689  24.926  26.163  1.00  0.00     0.124 S 
ATOM     57  O   UNL A   1      40.808  23.811  26.499  1.00  0.00    -0.237 OA
ATOM     58  O   UNL A   1      41.292  25.718  25.001  1.00  0.00    -0.237 OA
ATOM     59  O   UNL A   1      43.120  24.646  26.256  1.00  0.00    -0.744 OA
ENDBRANCH  55  56
ENDBRANCH  27  50
BRANCH  39  60
ATOM     60  C   UNL A   1      44.073  28.940  35.797  1.00  0.00    -0.014 A 
ATOM     61  C   UNL A   1      45.377  29.437  35.628  1.00  0.00     0.010 A 
ATOM     62  C   UNL A   1      43.861  27.831  36.635  1.00  0.00     0.010 A 
ATOM     63  C   UNL A   1      46.456  28.814  36.260  1.00  0.00     0.020 A 
ATOM     64  C   UNL A   1      44.934  27.222  37.289  1.00  0.00     0.020 A 
ATOM     65  C   UNL A   1      46.227  27.708  37.085  1.00  0.00     0.054 A 
BRANCH  65  66
ATOM     66  S   UNL A   1      47.639  26.939  37.923  1.00  0.00     0.124 S 
ATOM     67  O   UNL A   1      48.613  26.833  36.841  1.00  0.00    -0.237 OA
ATOM     68  O   UNL A   1      47.961  27.909  38.968  1.00  0.00    -0.237 OA
ATOM     69  O   UNL A   1      47.103  25.668  38.406  1.00  0.00    -0.744 OA
ENDBRANCH  65  66
ENDBRANCH  39  60
ENDBRANCH  13  14
ENDBRANCH   6   8
ENDBRANCH   3   4
ENDBRANCH   2   3
ENDBRANCH   1   2
BRANCH   1  70
ATOM     70  C   UNL A   1      32.890  29.435  27.228  1.00  0.00     0.002 C 
BRANCH  70  71
ATOM     71  C   UNL A   1      33.693  28.656  26.183  1.00  0.00     0.021 C 
BRANCH  71  72
ATOM     72  C   UNL A   1      33.266  27.204  25.986  1.00  0.00     0.116 C 
BRANCH  72  73
ATOM     73  N   UNL A   1      34.362  26.354  25.539  1.00  0.00    -0.352 N 
ATOM     74  C   UNL A   1      34.332  25.016  25.229  1.00  0.00     0.253 C 
ATOM     75  H   UNL A   1      35.237  26.796  25.448  1.00  0.00     0.163 HD
ATOM     76  O   UNL A   1      35.365  24.388  25.028  1.00  0.00    -0.269 OA
BRANCH  74  77
ATOM     77  C   UNL A   1      33.027  24.322  25.205  1.00  0.00     0.067 A 
ATOM     78  C   UNL A   1      32.395  24.074  26.435  1.00  0.00     0.062 A 
ATOM     79  C   UNL A   1      32.479  23.869  23.989  1.00  0.00     0.054 A 
ATOM     80  C   UNL A   1      31.281  23.253  26.465  1.00  0.00     0.116 A 
ATOM     81  C   UNL A   1      31.421  22.960  24.074  1.00  0.00     0.031 A 
ATOM     82  C   UNL A   1      30.814  22.665  25.300  1.00  0.00     0.048 A 
BRANCH  79  83
ATOM     83  N   UNL A   1      33.025  24.329  22.763  1.00  0.00    -0.321 N 
ATOM     84  C   UNL A   1      32.783  25.444  21.992  1.00  0.00     0.257 C 
ATOM     85  H   UNL A   1      33.712  23.731  22.389  1.00  0.00     0.170 HD
ATOM     86  O   UNL A   1      33.278  25.556  20.873  1.00  0.00    -0.269 OA
BRANCH  84  87
ATOM     87  C   UNL A   1      31.970  26.560  22.490  1.00  0.00     0.058 A 
ATOM     88  C   UNL A   1      30.636  26.403  22.869  1.00  0.00     0.018 A 
ATOM     89  C   UNL A   1      32.536  27.823  22.551  1.00  0.00     0.126 A 
ATOM     90  C   UNL A   1      29.891  27.536  23.192  1.00  0.00     0.037 A 
ATOM     91  N   UNL A   1      31.835  28.938  22.870  1.00  0.00    -0.249 NA
ATOM     92  C   UNL A   1      30.525  28.773  23.162  1.00  0.00     0.106 A 
ATOM     93  Br  UNL A   1      29.500  30.331  23.504  1.00  0.00    -0.029 Br
ENDBRANCH  84  87
ENDBRANCH  79  83
BRANCH  80  94
ATOM     94  O   UNL A   1      30.638  22.956  27.626  1.00  0.00    -0.508 OA
ATOM     95  H   UNL A   1      29.712  23.084  27.695  1.00  0.00     0.293 HD
ENDBRANCH  80  94
ENDBRANCH  74  77
ENDBRANCH  72  73
ENDBRANCH  71  72
ENDBRANCH  70  71
ENDBRANCH   1  70
TORSDOF 19
ENDMDL
MODEL 3
REMARK VINA RESULT:     -11.3      2.409      8.666
REMARK SMILES O=C(NCCCCCCNC(=O)c1cc(O)ccc1NC(=O)c1ccc(Br)nc1)c1ccc(-c2c3nc(c(-c4ccc(S(=O)(=O)[O-])cc4)c4ccc([nH]4)c(-c4ccc(S(=O)(=O)[O-])cc4)c4nc(c(-c5ccc(S(=O)(=O)[O-])cc5)c5ccc2[nH]5)C=C4)C=C3)cc1
REMARK SMILES IDX 6 1 5 2 4 3 3 4 1 5 2 6 30 8 31 9 89 10 32 11 88 12 33 13
REMARK SMILES IDX 34 14 35 15 82 16 36 17 87 18 81 19 83 20 37 21 86 22 80 23
REMARK SMILES IDX 79 24 38 26 68 27 49 28 67 29 50 30 53 31 66 32 84 33 51 34
REMARK SMILES IDX 52 35 65 37 85 38 54 39 39 40 40 41 48 42 41 43 47 44 42 45
REMARK SMILES IDX 43 46 44 47 45 48 46 49 69 50 70 51 78 52 71 53 77 54 72 55
REMARK SMILES IDX 73 56 74 57 75 58 76 59 55 60 56 61 64 62 57 63 63 64 58 65
REMARK SMILES IDX 59 66 60 67 61 68 62 69 7 70 8 71 9 72 10 73 11 74 12 76
REMARK SMILES IDX 13 77 14 78 19 79 15 80 18 81 17 82 20 83 21 84 22 86 23 87
REMARK SMILES IDX 24 88 29 89 25 90 28 91 26 92 27 93 16 94
REMARK H PARENT 3 7 83 25 53 36 10 75 20 85 16 95
REMARK Flexibility Score: inf
ROOT
ATOM      1  C   UNL A   1      31.785  29.770  26.772  1.00  0.00     0.002 C 
ENDROOT
BRANCH   1   2
ATOM      2  C   UNL A   1      31.833  31.292  26.631  1.00  0.00     0.021 C 
BRANCH   2   3
ATOM      3  C   UNL A   1      32.989  31.973  27.354  1.00  0.00     0.116 C 
BRANCH   3   4
ATOM      4  N   UNL A   1      32.742  33.386  27.585  1.00  0.00    -0.352 N 
ATOM      5  O   UNL A   1      32.859  35.346  28.690  1.00  0.00    -0.269 OA
ATOM      6  C   UNL A   1      33.311  34.217  28.519  1.00  0.00     0.251 C 
ATOM      7  H   UNL A   1      32.076  33.803  26.993  1.00  0.00     0.163 HD
BRANCH   6   8
ATOM      8  C   UNL A   1      34.457  33.742  29.327  1.00  0.00     0.039 A 
ATOM      9  C   UNL A   1      34.266  32.833  30.371  1.00  0.00     0.014 A 
ATOM     10  C   UNL A   1      35.744  34.190  29.015  1.00  0.00     0.014 A 
ATOM     11  C   UNL A   1      35.341  32.455  31.167  1.00  0.00     0.010 A 
ATOM     12  C   UNL A   1      36.836  33.750  29.770  1.00  0.00     0.010 A 
ATOM     13  C   UNL A   1      36.642  32.886  30.858  1.00  0.00    -0.014 A 
BRANCH  13  14
ATOM     14  C   UNL A   1      37.790  32.322  31.611  1.00  0.00     0.031 A 
ATOM     15  C   UNL A   1      38.164  32.832  32.975  1.00  0.00     0.074 A 
ATOM     16  C   UNL A   1      38.495  31.326  31.039  1.00  0.00     0.049 A 
ATOM     17  N   UNL A   1      39.131  32.430  33.760  1.00  0.00    -0.248 NA
ATOM     18  C   UNL A   1      37.359  33.932  33.531  1.00  0.00     0.031 C 
ATOM     19  C   UNL A   1      38.235  30.767  29.708  1.00  0.00     0.029 A 
ATOM     20  N   UNL A   1      39.564  30.601  31.498  1.00  0.00    -0.354 N 
ATOM     21  C   UNL A   1      39.067  33.236  34.892  1.00  0.00     0.074 A 
ATOM     22  C   UNL A   1      37.971  34.160  34.687  1.00  0.00     0.031 C 
ATOM     23  C   UNL A   1      39.095  29.765  29.474  1.00  0.00     0.029 A 
ATOM     24  C   UNL A   1      40.004  29.650  30.607  1.00  0.00     0.049 A 
ATOM     25  H   UNL A   1      39.976  30.745  32.380  1.00  0.00     0.167 HD
ATOM     26  C   UNL A   1      39.852  33.203  35.994  1.00  0.00     0.031 A 
ATOM     27  C   UNL A   1      41.041  28.795  30.677  1.00  0.00     0.031 A 
ATOM     28  C   UNL A   1      40.937  32.274  36.190  1.00  0.00     0.049 A 
ATOM     29  C   UNL A   1      41.905  28.802  31.904  1.00  0.00     0.074 A 
ATOM     30  C   UNL A   1      41.752  32.128  37.301  1.00  0.00     0.029 A 
ATOM     31  N   UNL A   1      41.368  31.345  35.255  1.00  0.00    -0.354 N 
ATOM     32  N   UNL A   1      41.786  29.530  32.988  1.00  0.00    -0.248 NA
ATOM     33  C   UNL A   1      43.046  27.877  31.916  1.00  0.00     0.031 C 
ATOM     34  C   UNL A   1      42.709  31.150  37.016  1.00  0.00     0.029 A 
ATOM     35  C   UNL A   1      42.458  30.648  35.749  1.00  0.00     0.049 A 
ATOM     36  H   UNL A   1      40.959  31.202  34.371  1.00  0.00     0.167 HD
ATOM     37  C   UNL A   1      42.834  29.144  33.815  1.00  0.00     0.074 A 
ATOM     38  C   UNL A   1      43.556  28.099  33.119  1.00  0.00     0.031 C 
ATOM     39  C   UNL A   1      43.172  29.619  35.039  1.00  0.00     0.031 A 
BRANCH  26  40
ATOM     40  C   UNL A   1      39.594  34.210  37.083  1.00  0.00    -0.014 A 
ATOM     41  C   UNL A   1      38.924  33.847  38.265  1.00  0.00     0.010 A 
ATOM     42  C   UNL A   1      40.127  35.508  36.969  1.00  0.00     0.010 A 
ATOM     43  C   UNL A   1      38.781  34.768  39.308  1.00  0.00     0.020 A 
ATOM     44  C   UNL A   1      40.004  36.425  38.018  1.00  0.00     0.020 A 
ATOM     45  C   UNL A   1      39.325  36.051  39.179  1.00  0.00     0.054 A 
BRANCH  45  46
ATOM     46  S   UNL A   1      39.179  37.202  40.574  1.00  0.00     0.124 S 
ATOM     47  O   UNL A   1      40.571  37.585  40.794  1.00  0.00    -0.237 OA
ATOM     48  O   UNL A   1      38.317  38.252  40.035  1.00  0.00    -0.237 OA
ATOM     49  O   UNL A   1      38.581  36.392  41.633  1.00  0.00    -0.744 OA
ENDBRANCH  45  46
ENDBRANCH  26  40
BRANCH  27  50
ATOM     50  C   UNL A   1      41.342  27.896  29.532  1.00  0.00    -0.014 A 
ATOM     51  C   UNL A   1      40.620  26.707  29.338  1.00  0.00     0.010 A 
ATOM     52  C   UNL A   1      42.366  28.233  28.625  1.00  0.00     0.010 A 
ATOM     53  C   UNL A   1      40.933  25.856  28.274  1.00  0.00     0.020 A 
ATOM     54  C   UNL A   1      42.661  27.400  27.543  1.00  0.00     0.020 A 
ATOM     55  C   UNL A   1      41.954  26.207  27.386  1.00  0.00     0.054 A 
BRANCH  55  56
ATOM     56  S   UNL A   1      42.331  25.104  25.997  1.00  0.00     0.124 S 
ATOM     57  O   UNL A   1      42.063  25.964  24.848  1.00  0.00    -0.237 OA
ATOM     58  O   UNL A   1      43.735  24.772  26.225  1.00  0.00    -0.237 OA
ATOM     59  O   UNL A   1      41.399  23.994  26.182  1.00  0.00    -0.744 OA
ENDBRANCH  55  56
ENDBRANCH  27  50
BRANCH  39  60
ATOM     60  C   UNL A   1      44.371  29.002  35.702  1.00  0.00    -0.014 A 
ATOM     61  C   UNL A   1      45.654  29.551  35.528  1.00  0.00     0.010 A 
ATOM     62  C   UNL A   1      44.209  27.881  36.535  1.00  0.00     0.010 A 
ATOM     63  C   UNL A   1      46.761  28.967  36.150  1.00  0.00     0.020 A 
ATOM     64  C   UNL A   1      45.309  27.311  37.180  1.00  0.00     0.020 A 
ATOM     65  C   UNL A   1      46.581  27.849  36.970  1.00  0.00     0.054 A 
BRANCH  65  66
ATOM     66  S   UNL A   1      48.027  27.131  37.796  1.00  0.00     0.124 S 
ATOM     67  O   UNL A   1      47.662  25.719  37.870  1.00  0.00    -0.237 OA
ATOM     68  O   UNL A   1      49.116  27.452  36.876  1.00  0.00    -0.237 OA
ATOM     69  O   UNL A   1      48.076  27.831  39.077  1.00  0.00    -0.744 OA
ENDBRANCH  65  66
ENDBRANCH  39  60
ENDBRANCH  13  14
ENDBRANCH   6   8
ENDBRANCH   3   4
ENDBRANCH   2   3
ENDBRANCH   1   2
BRANCH   1  70
ATOM     70  C   UNL A   1      33.069  29.109  27.284  1.00  0.00     0.002 C 
BRANCH  70  71
ATOM     71  C   UNL A   1      34.131  28.811  26.223  1.00  0.00     0.021 C 
BRANCH  71  72
ATOM     72  C   UNL A   1      33.723  27.791  25.163  1.00  0.00     0.116 C 
BRANCH  72  73
ATOM     73  N   UNL A   1      34.315  28.067  23.861  1.00  0.00    -0.352 N 
ATOM     74  C   UNL A   1      33.679  28.288  22.664  1.00  0.00     0.253 C 
ATOM     75  H   UNL A   1      35.298  28.100  23.837  1.00  0.00     0.163 HD
ATOM     76  O   UNL A   1      34.306  28.341  21.612  1.00  0.00    -0.269 OA
BRANCH  74  77
ATOM     77  C   UNL A   1      32.205  28.395  22.652  1.00  0.00     0.067 A 
ATOM     78  C   UNL A   1      31.626  29.519  23.266  1.00  0.00     0.062 A 
ATOM     79  C   UNL A   1      31.416  27.366  22.102  1.00  0.00     0.054 A 
ATOM     80  C   UNL A   1      30.254  29.551  23.453  1.00  0.00     0.116 A 
ATOM     81  C   UNL A   1      30.052  27.387  22.405  1.00  0.00     0.031 A 
ATOM     82  C   UNL A   1      29.471  28.477  23.062  1.00  0.00     0.048 A 
BRANCH  79  83
ATOM     83  N   UNL A   1      32.029  26.370  21.300  1.00  0.00    -0.321 N 
ATOM     84  C   UNL A   1      32.572  25.138  21.593  1.00  0.00     0.257 C 
ATOM     85  H   UNL A   1      32.075  26.606  20.346  1.00  0.00     0.170 HD
ATOM     86  O   UNL A   1      33.193  24.505  20.742  1.00  0.00    -0.269 OA
BRANCH  84  87
ATOM     87  C   UNL A   1      32.392  24.513  22.908  1.00  0.00     0.058 A 
ATOM     88  C   UNL A   1      31.162  24.008  23.334  1.00  0.00     0.018 A 
ATOM     89  C   UNL A   1      33.472  24.456  23.774  1.00  0.00     0.126 A 
ATOM     90  C   UNL A   1      31.039  23.562  24.649  1.00  0.00     0.037 A 
ATOM     91  N   UNL A   1      33.379  24.019  25.053  1.00  0.00    -0.249 NA
ATOM     92  C   UNL A   1      32.161  23.603  25.469  1.00  0.00     0.106 A 
ATOM     93  Br  UNL A   1      31.982  23.091  27.286  1.00  0.00    -0.029 Br
ENDBRANCH  84  87
ENDBRANCH  79  83
BRANCH  80  94
ATOM     94  O   UNL A   1      29.636  30.599  24.060  1.00  0.00    -0.508 OA
ATOM     95  H   UNL A   1      29.634  30.663  24.995  1.00  0.00     0.293 HD
ENDBRANCH  80  94
ENDBRANCH  74  77
ENDBRANCH  72  73
ENDBRANCH  71  72
ENDBRANCH  70  71
ENDBRANCH   1  70
TORSDOF 19
ENDMDL
