MODEL 1
REMARK VINA RESULT:     -10.7      0.000      0.000
REMARK SMILES C[NH2+][C@@]1(C(=O)NCCCCCCNC(=O)c2ccc(-c3c4nc(c(-c5ccc(S(=O)(=O)[O-])cc5)c5ccc([nH]5)c(-c5ccc(S(=O)(=O)[O-])cc5)c5nc(c(-c6ccc(S(=O)(=O)[O-])cc6)c6ccc3[nH]6)C=C5)C=C4)cc2)C=CC=C(c2ccccc2)C1
REMARK SMILES IDX 10 1 9 2 8 3 7 4 6 5 4 6 5 7 3 9 76 10 86 11 77 12 79 13
REMARK SMILES IDX 78 14 2 15 1 16 80 19 81 20 85 21 82 22 84 23 83 24 11 25
REMARK SMILES IDX 12 26 13 27 14 28 15 30 16 31 17 32 75 33 18 34 74 35 19 36
REMARK SMILES IDX 20 37 21 38 68 39 22 40 73 41 67 42 69 43 23 44 72 45 66 46
REMARK SMILES IDX 65 47 24 49 54 50 35 51 53 52 36 53 39 54 52 55 70 56 37 57
REMARK SMILES IDX 38 58 51 60 71 61 40 62 25 63 26 64 34 65 27 66 33 67 28 68
REMARK SMILES IDX 29 69 30 70 31 71 32 72 55 73 56 74 64 75 57 76 63 77 58 78
REMARK SMILES IDX 59 79 60 80 61 81 62 82 41 83 42 84 50 85 43 86 49 87 44 88
REMARK SMILES IDX 45 89 46 90 47 91 48 92
REMARK H PARENT 6 8 2 17 2 18 13 29 69 48 39 59
REMARK Flexibility Score: inf
ROOT
ATOM      1  C   UNL A   1      32.247  29.474  24.387  1.00  0.00     0.002 C 
ENDROOT
BRANCH   1   2
ATOM      2  C   UNL A   1      30.888  28.776  24.510  1.00  0.00     0.002 C 
BRANCH   2   3
ATOM      3  C   UNL A   1      30.278  28.305  23.186  1.00  0.00     0.021 C 
BRANCH   3   4
ATOM      4  C   UNL A   1      30.600  26.857  22.825  1.00  0.00     0.116 C 
BRANCH   4   5
ATOM      5  N   UNL A   1      31.824  26.763  22.049  1.00  0.00    -0.350 N 
ATOM      6  C   UNL A   1      32.900  25.921  22.169  1.00  0.00     0.285 C 
ATOM      7  O   UNL A   1      33.800  26.094  21.339  1.00  0.00    -0.267 OA
ATOM      8  H   UNL A   1      31.892  27.413  21.314  1.00  0.00     0.163 HD
BRANCH   6   9
ATOM      9  C   UNL A   1      32.946  24.798  23.282  1.00  0.00     0.198 C 
ATOM     10  C   UNL A   1      32.336  25.354  24.559  1.00  0.00     0.051 C 
ATOM     11  C   UNL A   1      34.434  24.317  23.455  1.00  0.00     0.120 C 
ATOM     12  C   UNL A   1      32.886  25.188  25.770  1.00  0.00     0.003 C 
ATOM     13  C   UNL A   1      34.836  24.028  24.887  1.00  0.00    -0.034 C 
ATOM     14  C   UNL A   1      34.103  24.438  25.939  1.00  0.00     0.004 C 
BRANCH   9  15
ATOM     15  N   UNL A   1      32.172  23.593  22.843  1.00  0.00    -0.332 N 
ATOM     16  C   UNL A   1      32.907  22.608  22.064  1.00  0.00     0.332 C 
ATOM     17  H   UNL A   1      31.820  23.128  23.680  1.00  0.00     0.347 HD
ATOM     18  H   UNL A   1      31.444  23.946  22.223  1.00  0.00     0.347 HD
ENDBRANCH   9  15
BRANCH  13  19
ATOM     19  C   UNL A   1      36.091  23.301  25.126  1.00  0.00    -0.022 A 
ATOM     20  C   UNL A   1      36.250  21.995  24.644  1.00  0.00     0.008 A 
ATOM     21  C   UNL A   1      37.128  23.887  25.863  1.00  0.00     0.008 A 
ATOM     22  C   UNL A   1      37.419  21.281  24.907  1.00  0.00     0.001 A 
ATOM     23  C   UNL A   1      38.295  23.168  26.130  1.00  0.00     0.001 A 
ATOM     24  C   UNL A   1      38.439  21.866  25.654  1.00  0.00     0.000 A 
ENDBRANCH  13  19
ENDBRANCH   6   9
ENDBRANCH   4   5
ENDBRANCH   3   4
ENDBRANCH   2   3
ENDBRANCH   1   2
BRANCH   1  25
ATOM     25  C   UNL A   1      33.443  28.672  24.908  1.00  0.00     0.021 C 
BRANCH  25  26
ATOM     26  C   UNL A   1      33.621  28.699  26.424  1.00  0.00     0.116 C 
BRANCH  26  27
ATOM     27  N   UNL A   1      33.513  30.045  26.964  1.00  0.00    -0.352 N 
ATOM     28  C   UNL A   1      34.359  30.710  27.817  1.00  0.00     0.251 C 
ATOM     29  H   UNL A   1      32.720  30.554  26.676  1.00  0.00     0.163 HD
ATOM     30  O   UNL A   1      34.014  31.774  28.325  1.00  0.00    -0.269 OA
BRANCH  28  31
ATOM     31  C   UNL A   1      35.677  30.126  28.142  1.00  0.00     0.039 A 
ATOM     32  C   UNL A   1      36.681  30.134  27.170  1.00  0.00     0.014 A 
ATOM     33  C   UNL A   1      35.927  29.592  29.410  1.00  0.00     0.014 A 
ATOM     34  C   UNL A   1      37.962  29.682  27.497  1.00  0.00     0.010 A 
ATOM     35  C   UNL A   1      37.217  29.200  29.752  1.00  0.00     0.010 A 
ATOM     36  C   UNL A   1      38.253  29.255  28.804  1.00  0.00    -0.014 A 
BRANCH  36  37
ATOM     37  C   UNL A   1      39.639  28.915  29.218  1.00  0.00     0.031 A 
ATOM     38  C   UNL A   1      40.521  29.956  29.851  1.00  0.00     0.074 A 
ATOM     39  C   UNL A   1      40.131  27.692  28.932  1.00  0.00     0.049 A 
ATOM     40  N   UNL A   1      41.784  29.872  30.180  1.00  0.00    -0.248 NA
ATOM     41  C   UNL A   1      39.914  31.268  30.131  1.00  0.00     0.031 C 
ATOM     42  C   UNL A   1      39.386  26.610  28.282  1.00  0.00     0.029 A 
ATOM     43  N   UNL A   1      41.381  27.158  29.131  1.00  0.00    -0.354 N 
ATOM     44  C   UNL A   1      42.131  31.122  30.678  1.00  0.00     0.074 A 
ATOM     45  C   UNL A   1      40.953  31.956  30.585  1.00  0.00     0.031 C 
ATOM     46  C   UNL A   1      40.190  25.543  28.142  1.00  0.00     0.029 A 
ATOM     47  C   UNL A   1      41.518  25.878  28.644  1.00  0.00     0.049 A 
ATOM     48  H   UNL A   1      42.110  27.644  29.579  1.00  0.00     0.167 HD
ATOM     49  C   UNL A   1      43.322  31.532  31.175  1.00  0.00     0.031 A 
ATOM     50  C   UNL A   1      42.597  25.072  28.580  1.00  0.00     0.031 A 
ATOM     51  C   UNL A   1      44.484  30.691  31.283  1.00  0.00     0.049 A 
ATOM     52  C   UNL A   1      43.912  25.563  29.123  1.00  0.00     0.074 A 
ATOM     53  C   UNL A   1      45.707  30.990  31.859  1.00  0.00     0.029 A 
ATOM     54  N   UNL A   1      44.577  29.396  30.796  1.00  0.00    -0.354 N 
ATOM     55  N   UNL A   1      44.190  26.713  29.688  1.00  0.00    -0.248 NA
ATOM     56  C   UNL A   1      45.060  24.649  29.020  1.00  0.00     0.031 C 
ATOM     57  C   UNL A   1      46.561  29.904  31.655  1.00  0.00     0.029 A 
ATOM     58  C   UNL A   1      45.852  28.903  31.013  1.00  0.00     0.049 A 
ATOM     59  H   UNL A   1      43.845  28.903  30.361  1.00  0.00     0.167 HD
ATOM     60  C   UNL A   1      45.538  26.653  30.024  1.00  0.00     0.074 A 
ATOM     61  C   UNL A   1      46.014  25.347  29.620  1.00  0.00     0.031 C 
ATOM     62  C   UNL A   1      46.312  27.599  30.608  1.00  0.00     0.031 A 
BRANCH  49  63
ATOM     63  C   UNL A   1      43.448  32.963  31.631  1.00  0.00    -0.014 A 
ATOM     64  C   UNL A   1      43.209  33.329  32.966  1.00  0.00     0.010 A 
ATOM     65  C   UNL A   1      43.906  33.938  30.724  1.00  0.00     0.010 A 
ATOM     66  C   UNL A   1      43.406  34.648  33.383  1.00  0.00     0.020 A 
ATOM     67  C   UNL A   1      44.130  35.252  31.143  1.00  0.00     0.020 A 
ATOM     68  C   UNL A   1      43.870  35.601  32.469  1.00  0.00     0.054 A 
BRANCH  68  69
ATOM     69  S   UNL A   1      44.172  37.291  33.054  1.00  0.00     0.124 S 
ATOM     70  O   UNL A   1      43.048  37.500  33.963  1.00  0.00    -0.237 OA
ATOM     71  O   UNL A   1      45.482  37.179  33.690  1.00  0.00    -0.237 OA
ATOM     72  O   UNL A   1      44.142  38.093  31.833  1.00  0.00    -0.744 OA
ENDBRANCH  68  69
ENDBRANCH  49  63
BRANCH  50  73
ATOM     73  C   UNL A   1      42.492  23.728  27.944  1.00  0.00    -0.014 A 
ATOM     74  C   UNL A   1      42.167  22.593  28.708  1.00  0.00     0.010 A 
ATOM     75  C   UNL A   1      42.736  23.576  26.566  1.00  0.00     0.010 A 
ATOM     76  C   UNL A   1      42.119  21.328  28.113  1.00  0.00     0.020 A 
ATOM     77  C   UNL A   1      42.657  22.318  25.961  1.00  0.00     0.020 A 
ATOM     78  C   UNL A   1      42.367  21.199  26.743  1.00  0.00     0.054 A 
BRANCH  78  79
ATOM     79  S   UNL A   1      42.279  19.553  25.986  1.00  0.00     0.124 S 
ATOM     80  O   UNL A   1      40.862  19.447  25.657  1.00  0.00    -0.237 OA
ATOM     81  O   UNL A   1      43.188  19.679  24.850  1.00  0.00    -0.237 OA
ATOM     82  O   UNL A   1      42.744  18.664  27.050  1.00  0.00    -0.744 OA
ENDBRANCH  78  79
ENDBRANCH  50  73
BRANCH  62  83
ATOM     83  C   UNL A   1      47.756  27.260  30.867  1.00  0.00    -0.014 A 
ATOM     84  C   UNL A   1      48.140  26.575  32.034  1.00  0.00     0.010 A 
ATOM     85  C   UNL A   1      48.726  27.551  29.891  1.00  0.00     0.010 A 
ATOM     86  C   UNL A   1      49.472  26.199  32.223  1.00  0.00     0.020 A 
ATOM     87  C   UNL A   1      50.053  27.151  30.065  1.00  0.00     0.020 A 
ATOM     88  C   UNL A   1      50.419  26.482  31.234  1.00  0.00     0.054 A 
BRANCH  88  89
ATOM     89  S   UNL A   1      52.124  25.912  31.473  1.00  0.00     0.124 S 
ATOM     90  O   UNL A   1      51.927  24.530  31.900  1.00  0.00    -0.237 OA
ATOM     91  O   UNL A   1      52.708  26.083  30.144  1.00  0.00    -0.237 OA
ATOM     92  O   UNL A   1      52.651  26.811  32.498  1.00  0.00    -0.744 OA
ENDBRANCH  88  89
ENDBRANCH  62  83
ENDBRANCH  36  37
ENDBRANCH  28  31
ENDBRANCH  26  27
ENDBRANCH  25  26
ENDBRANCH   1  25
TORSDOF 18
ENDMDL
MODEL 2
REMARK VINA RESULT:     -10.2      0.988      8.276
REMARK SMILES C[NH2+][C@@]1(C(=O)NCCCCCCNC(=O)c2ccc(-c3c4nc(c(-c5ccc(S(=O)(=O)[O-])cc5)c5ccc([nH]5)c(-c5ccc(S(=O)(=O)[O-])cc5)c5nc(c(-c6ccc(S(=O)(=O)[O-])cc6)c6ccc3[nH]6)C=C5)C=C4)cc2)C=CC=C(c2ccccc2)C1
REMARK SMILES IDX 10 1 9 2 8 3 7 4 6 5 4 6 5 7 3 9 76 10 86 11 77 12 79 13
REMARK SMILES IDX 78 14 2 15 1 16 80 19 81 20 85 21 82 22 84 23 83 24 11 25
REMARK SMILES IDX 12 26 13 27 14 28 15 30 16 31 17 32 75 33 18 34 74 35 19 36
REMARK SMILES IDX 20 37 21 38 68 39 22 40 73 41 67 42 69 43 23 44 72 45 66 46
REMARK SMILES IDX 65 47 24 49 54 50 35 51 53 52 36 53 39 54 52 55 70 56 37 57
REMARK SMILES IDX 38 58 51 60 71 61 40 62 25 63 26 64 34 65 27 66 33 67 28 68
REMARK SMILES IDX 29 69 30 70 31 71 32 72 55 73 56 74 64 75 57 76 63 77 58 78
REMARK SMILES IDX 59 79 60 80 61 81 62 82 41 83 42 84 50 85 43 86 49 87 44 88
REMARK SMILES IDX 45 89 46 90 47 91 48 92
REMARK H PARENT 6 8 2 17 2 18 13 29 69 48 39 59
REMARK Flexibility Score: inf
ROOT
ATOM      1  C   UNL A   1      32.551  29.511  25.092  1.00  0.00     0.002 C 
ENDROOT
BRANCH   1   2
ATOM      2  C   UNL A   1      31.082  29.206  24.780  1.00  0.00     0.002 C 
BRANCH   2   3
ATOM      3  C   UNL A   1      30.809  28.702  23.359  1.00  0.00     0.021 C 
BRANCH   3   4
ATOM      4  C   UNL A   1      30.353  27.246  23.284  1.00  0.00     0.116 C 
BRANCH   4   5
ATOM      5  N   UNL A   1      30.511  26.574  24.562  1.00  0.00    -0.350 N 
ATOM      6  C   UNL A   1      31.377  25.587  24.956  1.00  0.00     0.285 C 
ATOM      7  O   UNL A   1      31.262  25.222  26.133  1.00  0.00    -0.267 OA
ATOM      8  H   UNL A   1      29.892  26.880  25.263  1.00  0.00     0.163 HD
BRANCH   6   9
ATOM      9  C   UNL A   1      32.457  24.996  23.963  1.00  0.00     0.198 C 
ATOM     10  C   UNL A   1      31.816  23.876  23.159  1.00  0.00     0.051 C 
ATOM     11  C   UNL A   1      33.710  24.534  24.794  1.00  0.00     0.120 C 
ATOM     12  C   UNL A   1      32.411  22.696  22.938  1.00  0.00     0.003 C 
ATOM     13  C   UNL A   1      34.349  23.251  24.302  1.00  0.00    -0.034 C 
ATOM     14  C   UNL A   1      33.730  22.420  23.443  1.00  0.00     0.004 C 
BRANCH   9  15
ATOM     15  N   UNL A   1      32.951  26.060  23.031  1.00  0.00    -0.332 N 
ATOM     16  C   UNL A   1      33.100  25.672  21.637  1.00  0.00     0.332 C 
ATOM     17  H   UNL A   1      32.291  26.837  23.069  1.00  0.00     0.347 HD
ATOM     18  H   UNL A   1      33.890  26.292  23.354  1.00  0.00     0.347 HD
ENDBRANCH   9  15
BRANCH  13  19
ATOM     19  C   UNL A   1      35.680  22.894  24.815  1.00  0.00    -0.022 A 
ATOM     20  C   UNL A   1      36.483  23.867  25.424  1.00  0.00     0.008 A 
ATOM     21  C   UNL A   1      36.176  21.592  24.672  1.00  0.00     0.008 A 
ATOM     22  C   UNL A   1      37.766  23.549  25.869  1.00  0.00     0.001 A 
ATOM     23  C   UNL A   1      37.463  21.277  25.114  1.00  0.00     0.001 A 
ATOM     24  C   UNL A   1      38.257  22.255  25.710  1.00  0.00     0.000 A 
ENDBRANCH  13  19
ENDBRANCH   6   9
ENDBRANCH   4   5
ENDBRANCH   3   4
ENDBRANCH   2   3
ENDBRANCH   1   2
BRANCH   1  25
ATOM     25  C   UNL A   1      33.341  28.356  25.714  1.00  0.00     0.021 C 
BRANCH  25  26
ATOM     26  C   UNL A   1      33.661  28.526  27.197  1.00  0.00     0.116 C 
BRANCH  26  27
ATOM     27  N   UNL A   1      33.622  29.920  27.610  1.00  0.00    -0.352 N 
ATOM     28  C   UNL A   1      34.588  30.668  28.237  1.00  0.00     0.251 C 
ATOM     29  H   UNL A   1      32.783  30.397  27.410  1.00  0.00     0.163 HD
ATOM     30  O   UNL A   1      34.314  31.778  28.687  1.00  0.00    -0.269 OA
BRANCH  28  31
ATOM     31  C   UNL A   1      35.951  30.120  28.393  1.00  0.00     0.039 A 
ATOM     32  C   UNL A   1      36.834  30.180  27.312  1.00  0.00     0.014 A 
ATOM     33  C   UNL A   1      36.363  29.570  29.611  1.00  0.00     0.014 A 
ATOM     34  C   UNL A   1      38.157  29.762  27.477  1.00  0.00     0.010 A 
ATOM     35  C   UNL A   1      37.696  29.214  29.791  1.00  0.00     0.010 A 
ATOM     36  C   UNL A   1      38.611  29.320  28.731  1.00  0.00    -0.014 A 
BRANCH  36  37
ATOM     37  C   UNL A   1      40.046  29.017  28.973  1.00  0.00     0.031 A 
ATOM     38  C   UNL A   1      40.614  27.676  28.597  1.00  0.00     0.074 A 
ATOM     39  C   UNL A   1      40.810  29.919  29.622  1.00  0.00     0.049 A 
ATOM     40  N   UNL A   1      41.809  27.197  28.825  1.00  0.00    -0.248 NA
ATOM     41  C   UNL A   1      39.718  26.743  27.893  1.00  0.00     0.031 C 
ATOM     42  C   UNL A   1      40.362  31.238  30.077  1.00  0.00     0.029 A 
ATOM     43  N   UNL A   1      42.119  29.856  30.034  1.00  0.00    -0.354 N 
ATOM     44  C   UNL A   1      41.803  25.902  28.320  1.00  0.00     0.074 A 
ATOM     45  C   UNL A   1      40.477  25.660  27.796  1.00  0.00     0.031 C 
ATOM     46  C   UNL A   1      41.378  31.861  30.696  1.00  0.00     0.029 A 
ATOM     47  C   UNL A   1      42.533  30.970  30.729  1.00  0.00     0.049 A 
ATOM     48  H   UNL A   1      42.706  29.088  29.849  1.00  0.00     0.167 HD
ATOM     49  C   UNL A   1      42.814  25.002  28.291  1.00  0.00     0.031 A 
ATOM     50  C   UNL A   1      43.699  31.236  31.351  1.00  0.00     0.031 A 
ATOM     51  C   UNL A   1      44.137  25.258  28.796  1.00  0.00     0.049 A 
ATOM     52  C   UNL A   1      44.799  30.208  31.317  1.00  0.00     0.074 A 
ATOM     53  C   UNL A   1      45.253  24.442  28.725  1.00  0.00     0.029 A 
ATOM     54  N   UNL A   1      44.520  26.404  29.476  1.00  0.00    -0.354 N 
ATOM     55  N   UNL A   1      44.806  29.031  30.740  1.00  0.00    -0.248 NA
ATOM     56  C   UNL A   1      46.047  30.543  32.018  1.00  0.00     0.031 C 
ATOM     57  C   UNL A   1      46.290  25.063  29.426  1.00  0.00     0.029 A 
ATOM     58  C   UNL A   1      45.842  26.294  29.875  1.00  0.00     0.049 A 
ATOM     59  H   UNL A   1      43.940  27.179  29.650  1.00  0.00     0.167 HD
ATOM     60  C   UNL A   1      46.063  28.493  30.992  1.00  0.00     0.074 A 
ATOM     61  C   UNL A   1      46.797  29.482  31.754  1.00  0.00     0.031 C 
ATOM     62  C   UNL A   1      46.561  27.286  30.631  1.00  0.00     0.031 A 
BRANCH  49  63
ATOM     63  C   UNL A   1      42.539  23.642  27.706  1.00  0.00    -0.014 A 
ATOM     64  C   UNL A   1      42.878  23.333  26.378  1.00  0.00     0.010 A 
ATOM     65  C   UNL A   1      42.019  22.628  28.533  1.00  0.00     0.010 A 
ATOM     66  C   UNL A   1      42.683  22.042  25.881  1.00  0.00     0.020 A 
ATOM     67  C   UNL A   1      41.847  21.328  28.048  1.00  0.00     0.020 A 
ATOM     68  C   UNL A   1      42.173  21.046  26.721  1.00  0.00     0.054 A 
BRANCH  68  69
ATOM     69  S   UNL A   1      41.987  19.366  26.063  1.00  0.00     0.124 S 
ATOM     70  O   UNL A   1      40.555  19.308  25.785  1.00  0.00    -0.237 OA
ATOM     71  O   UNL A   1      42.855  19.385  24.889  1.00  0.00    -0.237 OA
ATOM     72  O   UNL A   1      42.443  18.512  27.158  1.00  0.00    -0.744 OA
ENDBRANCH  68  69
ENDBRANCH  49  63
BRANCH  50  73
ATOM     73  C   UNL A   1      43.879  32.516  32.092  1.00  0.00    -0.014 A 
ATOM     74  C   UNL A   1      44.411  33.650  31.454  1.00  0.00     0.010 A 
ATOM     75  C   UNL A   1      43.532  32.600  33.453  1.00  0.00     0.010 A 
ATOM     76  C   UNL A   1      44.623  34.832  32.169  1.00  0.00     0.020 A 
ATOM     77  C   UNL A   1      43.712  33.790  34.164  1.00  0.00     0.020 A 
ATOM     78  C   UNL A   1      44.274  34.893  33.521  1.00  0.00     0.054 A 
BRANCH  78  79
ATOM     79  S   UNL A   1      44.536  36.444  34.426  1.00  0.00     0.124 S 
ATOM     80  O   UNL A   1      44.652  35.975  35.802  1.00  0.00    -0.237 OA
ATOM     81  O   UNL A   1      45.763  36.957  33.824  1.00  0.00    -0.237 OA
ATOM     82  O   UNL A   1      43.333  37.220  34.128  1.00  0.00    -0.744 OA
ENDBRANCH  78  79
ENDBRANCH  50  73
BRANCH  62  83
ATOM     83  C   UNL A   1      47.975  26.963  31.036  1.00  0.00    -0.014 A 
ATOM     84  C   UNL A   1      48.250  26.343  32.267  1.00  0.00     0.010 A 
ATOM     85  C   UNL A   1      49.030  27.203  30.136  1.00  0.00     0.010 A 
ATOM     86  C   UNL A   1      49.559  25.979  32.596  1.00  0.00     0.020 A 
ATOM     87  C   UNL A   1      50.334  26.814  30.450  1.00  0.00     0.020 A 
ATOM     88  C   UNL A   1      50.592  26.209  31.681  1.00  0.00     0.054 A 
BRANCH  88  89
ATOM     89  S   UNL A   1      52.266  25.655  32.102  1.00  0.00     0.124 S 
ATOM     90  O   UNL A   1      52.089  24.210  32.217  1.00  0.00    -0.237 OA
ATOM     91  O   UNL A   1      53.050  26.104  30.954  1.00  0.00    -0.237 OA
ATOM     92  O   UNL A   1      52.557  26.347  33.356  1.00  0.00    -0.744 OA
ENDBRANCH  88  89
ENDBRANCH  62  83
ENDBRANCH  36  37
ENDBRANCH  28  31
ENDBRANCH  26  27
ENDBRANCH  25  26
ENDBRANCH   1  25
TORSDOF 18
ENDMDL
MODEL 3
REMARK VINA RESULT:     -10.2      3.663      9.244
REMARK SMILES C[NH2+][C@@]1(C(=O)NCCCCCCNC(=O)c2ccc(-c3c4nc(c(-c5ccc(S(=O)(=O)[O-])cc5)c5ccc([nH]5)c(-c5ccc(S(=O)(=O)[O-])cc5)c5nc(c(-c6ccc(S(=O)(=O)[O-])cc6)c6ccc3[nH]6)C=C5)C=C4)cc2)C=CC=C(c2ccccc2)C1
REMARK SMILES IDX 10 1 9 2 8 3 7 4 6 5 4 6 5 7 3 9 76 10 86 11 77 12 79 13
REMARK SMILES IDX 78 14 2 15 1 16 80 19 81 20 85 21 82 22 84 23 83 24 11 25
REMARK SMILES IDX 12 26 13 27 14 28 15 30 16 31 17 32 75 33 18 34 74 35 19 36
REMARK SMILES IDX 20 37 21 38 68 39 22 40 73 41 67 42 69 43 23 44 72 45 66 46
REMARK SMILES IDX 65 47 24 49 54 50 35 51 53 52 36 53 39 54 52 55 70 56 37 57
REMARK SMILES IDX 38 58 51 60 71 61 40 62 25 63 26 64 34 65 27 66 33 67 28 68
REMARK SMILES IDX 29 69 30 70 31 71 32 72 55 73 56 74 64 75 57 76 63 77 58 78
REMARK SMILES IDX 59 79 60 80 61 81 62 82 41 83 42 84 50 85 43 86 49 87 44 88
REMARK SMILES IDX 45 89 46 90 47 91 48 92
REMARK H PARENT 6 8 2 17 2 18 13 29 69 48 39 59
REMARK Flexibility Score: inf
ROOT
ATOM      1  C   UNL A   1      36.964  21.154  25.278  1.00  0.00     0.002 C 
ENDROOT
BRANCH   1   2
ATOM      2  C   UNL A   1      37.283  22.639  25.481  1.00  0.00     0.002 C 
BRANCH   2   3
ATOM      3  C   UNL A   1      36.547  23.597  24.539  1.00  0.00     0.021 C 
BRANCH   3   4
ATOM      4  C   UNL A   1      35.438  22.942  23.717  1.00  0.00     0.116 C 
BRANCH   4   5
ATOM      5  N   UNL A   1      34.347  23.867  23.464  1.00  0.00    -0.350 N 
ATOM      6  C   UNL A   1      33.064  23.891  23.944  1.00  0.00     0.285 C 
ATOM      7  O   UNL A   1      32.366  24.828  23.536  1.00  0.00    -0.267 OA
ATOM      8  H   UNL A   1      34.568  24.599  22.845  1.00  0.00     0.163 HD
BRANCH   6   9
ATOM      9  C   UNL A   1      32.547  22.803  24.969  1.00  0.00     0.198 C 
ATOM     10  C   UNL A   1      33.220  23.042  26.312  1.00  0.00     0.051 C 
ATOM     11  C   UNL A   1      32.823  21.374  24.373  1.00  0.00     0.120 C 
ATOM     12  C   UNL A   1      33.746  22.059  27.055  1.00  0.00     0.003 C 
ATOM     13  C   UNL A   1      33.265  20.345  25.394  1.00  0.00    -0.034 C 
ATOM     14  C   UNL A   1      33.684  20.686  26.627  1.00  0.00     0.004 C 
BRANCH   9  15
ATOM     15  N   UNL A   1      31.061  22.901  25.132  1.00  0.00    -0.332 N 
ATOM     16  C   UNL A   1      30.590  23.564  26.339  1.00  0.00     0.332 C 
ATOM     17  H   UNL A   1      30.693  23.415  24.331  1.00  0.00     0.347 HD
ATOM     18  H   UNL A   1      30.729  21.939  25.200  1.00  0.00     0.347 HD
ENDBRANCH   9  15
BRANCH  13  19
ATOM     19  C   UNL A   1      33.264  18.928  25.001  1.00  0.00    -0.022 A 
ATOM     20  C   UNL A   1      32.550  17.990  25.757  1.00  0.00     0.008 A 
ATOM     21  C   UNL A   1      34.001  18.493  23.893  1.00  0.00     0.008 A 
ATOM     22  C   UNL A   1      32.582  16.636  25.420  1.00  0.00     0.001 A 
ATOM     23  C   UNL A   1      34.037  17.137  23.560  1.00  0.00     0.001 A 
ATOM     24  C   UNL A   1      33.330  16.210  24.324  1.00  0.00     0.000 A 
ENDBRANCH  13  19
ENDBRANCH   6   9
ENDBRANCH   4   5
ENDBRANCH   3   4
ENDBRANCH   2   3
ENDBRANCH   1   2
BRANCH   1  25
ATOM     25  C   UNL A   1      38.182  20.238  25.125  1.00  0.00     0.021 C 
BRANCH  25  26
ATOM     26  C   UNL A   1      39.401  20.654  25.944  1.00  0.00     0.116 C 
BRANCH  26  27
ATOM     27  N   UNL A   1      40.338  19.556  26.127  1.00  0.00    -0.352 N 
ATOM     28  C   UNL A   1      41.705  19.593  26.256  1.00  0.00     0.251 C 
ATOM     29  H   UNL A   1      39.935  18.659  26.166  1.00  0.00     0.163 HD
ATOM     30  O   UNL A   1      42.357  18.553  26.210  1.00  0.00    -0.269 OA
BRANCH  28  31
ATOM     31  C   UNL A   1      42.389  20.891  26.425  1.00  0.00     0.039 A 
ATOM     32  C   UNL A   1      42.841  21.573  25.292  1.00  0.00     0.014 A 
ATOM     33  C   UNL A   1      42.564  21.444  27.697  1.00  0.00     0.014 A 
ATOM     34  C   UNL A   1      43.395  22.848  25.428  1.00  0.00     0.010 A 
ATOM     35  C   UNL A   1      43.058  22.739  27.825  1.00  0.00     0.010 A 
ATOM     36  C   UNL A   1      43.465  23.461  26.691  1.00  0.00    -0.014 A 
BRANCH  36  37
ATOM     37  C   UNL A   1      43.906  24.872  26.844  1.00  0.00     0.031 A 
ATOM     38  C   UNL A   1      45.353  25.240  26.667  1.00  0.00     0.074 A 
ATOM     39  C   UNL A   1      43.012  25.802  27.239  1.00  0.00     0.049 A 
ATOM     40  N   UNL A   1      45.936  26.394  26.863  1.00  0.00    -0.248 NA
ATOM     41  C   UNL A   1      46.268  24.170  26.237  1.00  0.00     0.031 C 
ATOM     42  C   UNL A   1      41.588  25.560  27.485  1.00  0.00     0.029 A 
ATOM     43  N   UNL A   1      43.173  27.136  27.526  1.00  0.00    -0.354 N 
ATOM     44  C   UNL A   1      47.287  26.185  26.607  1.00  0.00     0.074 A 
ATOM     45  C   UNL A   1      47.441  24.788  26.268  1.00  0.00     0.031 C 
ATOM     46  C   UNL A   1      41.006  26.704  27.878  1.00  0.00     0.029 A 
ATOM     47  C   UNL A   1      42.020  27.750  27.962  1.00  0.00     0.049 A 
ATOM     48  H   UNL A   1      44.031  27.609  27.429  1.00  0.00     0.167 HD
ATOM     49  C   UNL A   1      48.302  27.081  26.645  1.00  0.00     0.031 A 
ATOM     50  C   UNL A   1      41.806  29.004  28.408  1.00  0.00     0.031 A 
ATOM     51  C   UNL A   1      48.137  28.474  26.964  1.00  0.00     0.049 A 
ATOM     52  C   UNL A   1      42.957  29.972  28.457  1.00  0.00     0.074 A 
ATOM     53  C   UNL A   1      49.090  29.478  26.937  1.00  0.00     0.029 A 
ATOM     54  N   UNL A   1      46.951  29.060  27.382  1.00  0.00    -0.354 N 
ATOM     55  N   UNL A   1      44.207  29.780  28.108  1.00  0.00    -0.248 NA
ATOM     56  C   UNL A   1      42.673  31.323  28.960  1.00  0.00     0.031 C 
ATOM     57  C   UNL A   1      48.499  30.652  27.408  1.00  0.00     0.029 A 
ATOM     58  C   UNL A   1      47.162  30.398  27.664  1.00  0.00     0.049 A 
ATOM     59  H   UNL A   1      46.089  28.592  27.466  1.00  0.00     0.167 HD
ATOM     60  C   UNL A   1      44.852  30.992  28.332  1.00  0.00     0.074 A 
ATOM     61  C   UNL A   1      43.851  31.915  28.823  1.00  0.00     0.031 C 
ATOM     62  C   UNL A   1      46.157  31.308  28.151  1.00  0.00     0.031 A 
BRANCH  49  63
ATOM     63  C   UNL A   1      49.695  26.590  26.351  1.00  0.00    -0.014 A 
ATOM     64  C   UNL A   1      50.507  26.043  27.359  1.00  0.00     0.010 A 
ATOM     65  C   UNL A   1      50.161  26.592  25.022  1.00  0.00     0.010 A 
ATOM     66  C   UNL A   1      51.767  25.525  27.048  1.00  0.00     0.020 A 
ATOM     67  C   UNL A   1      51.409  26.050  24.703  1.00  0.00     0.020 A 
ATOM     68  C   UNL A   1      52.208  25.528  25.720  1.00  0.00     0.054 A 
BRANCH  68  69
ATOM     69  S   UNL A   1      53.823  24.794  25.340  1.00  0.00     0.124 S 
ATOM     70  O   UNL A   1      53.460  23.416  25.022  1.00  0.00    -0.237 OA
ATOM     71  O   UNL A   1      54.282  25.599  24.212  1.00  0.00    -0.237 OA
ATOM     72  O   UNL A   1      54.583  24.968  26.576  1.00  0.00    -0.744 OA
ENDBRANCH  68  69
ENDBRANCH  49  63
BRANCH  50  73
ATOM     73  C   UNL A   1      40.452  29.410  28.880  1.00  0.00    -0.014 A 
ATOM     74  C   UNL A   1      39.402  29.616  27.968  1.00  0.00     0.010 A 
ATOM     75  C   UNL A   1      40.212  29.611  30.252  1.00  0.00     0.010 A 
ATOM     76  C   UNL A   1      38.148  30.045  28.415  1.00  0.00     0.020 A 
ATOM     77  C   UNL A   1      38.952  30.009  30.707  1.00  0.00     0.020 A 
ATOM     78  C   UNL A   1      37.932  30.241  29.782  1.00  0.00     0.054 A 
BRANCH  78  79
ATOM     79  S   UNL A   1      36.293  30.777  30.344  1.00  0.00     0.124 S 
ATOM     80  O   UNL A   1      35.556  30.862  29.088  1.00  0.00    -0.237 OA
ATOM     81  O   UNL A   1      35.897  29.694  31.240  1.00  0.00    -0.237 OA
ATOM     82  O   UNL A   1      36.559  32.054  31.003  1.00  0.00    -0.744 OA
ENDBRANCH  78  79
ENDBRANCH  50  73
BRANCH  62  83
ATOM     83  C   UNL A   1      46.587  32.715  28.470  1.00  0.00    -0.014 A 
ATOM     84  C   UNL A   1      46.920  33.090  29.783  1.00  0.00     0.010 A 
ATOM     85  C   UNL A   1      46.743  33.648  27.429  1.00  0.00     0.010 A 
ATOM     86  C   UNL A   1      47.391  34.378  30.050  1.00  0.00     0.020 A 
ATOM     87  C   UNL A   1      47.241  34.927  27.689  1.00  0.00     0.020 A 
ATOM     88  C   UNL A   1      47.556  35.286  29.000  1.00  0.00     0.054 A 
BRANCH  88  89
ATOM     89  S   UNL A   1      48.244  36.923  29.366  1.00  0.00     0.124 S 
ATOM     90  O   UNL A   1      49.678  36.689  29.231  1.00  0.00    -0.237 OA
ATOM     91  O   UNL A   1      47.642  37.762  28.331  1.00  0.00    -0.237 OA
ATOM     92  O   UNL A   1      47.784  37.198  30.727  1.00  0.00    -0.744 OA
ENDBRANCH  88  89
ENDBRANCH  62  83
ENDBRANCH  36  37
ENDBRANCH  28  31
ENDBRANCH  26  27
ENDBRANCH  25  26
ENDBRANCH   1  25
TORSDOF 18
ENDMDL
