MODEL 1
REMARK VINA RESULT:     -12.8      0.000      0.000
REMARK SMILES Cc1ccc2c(c1)[C@@]1([NH2+][C@@H](CCC(=O)NCCCCCCNC(=O)c3ccc(-c4c5nc(c(-c6ccc(S(=O)(=O)[O-])cc6)c6ccc([nH]6)c(-c6ccc(S(=O)(=O)[O-])cc6)c6nc(c(-c7ccc(S(=O)(=O)[O-])cc7)c7ccc4[nH]7)C=C6)C=C5)cc3)[C@H]3C(=O)N(Cc4ccccc4)C(=O)[C@H]31)C(=O)N2
REMARK SMILES IDX 18 1 17 2 16 3 15 4 13 5 14 6 12 8 11 9 10 10 1 11 2 12 3 13
REMARK SMILES IDX 7 14 4 15 6 16 5 17 8 18 101 19 9 20 98 21 99 22 85 26 96 27
REMARK SMILES IDX 100 28 86 29 88 30 97 31 87 32 89 33 90 34 91 35 95 36 92 37
REMARK SMILES IDX 94 38 93 39 19 40 20 41 21 42 22 43 23 44 24 46 25 47 26 48
REMARK SMILES IDX 84 49 27 50 83 51 28 52 29 53 30 54 77 55 31 56 82 57 76 58
REMARK SMILES IDX 78 59 32 60 81 61 75 62 74 63 33 65 63 66 44 67 62 68 45 69
REMARK SMILES IDX 48 70 61 71 79 72 46 73 47 74 60 76 80 77 49 78 34 79 35 80
REMARK SMILES IDX 43 81 36 82 42 83 37 84 38 85 39 86 40 87 41 88 64 89 65 90
REMARK SMILES IDX 73 91 66 92 72 93 67 94 68 95 69 96 70 97 71 98 50 99 51 100
REMARK SMILES IDX 59 101 52 102 58 103 53 104 54 105 55 106 56 107 57 108
REMARK H PARENT 15 7 101 23 9 24 9 25 22 45 78 64 48 75
REMARK Flexibility Score: inf
ROOT
ATOM      1  C   UNL A   1      36.742  29.045  28.340  1.00  0.00     0.002 C 
ENDROOT
BRANCH   1   2
ATOM      2  C   UNL A   1      36.016  30.193  28.845  1.00  0.00     0.021 C 
BRANCH   2   3
ATOM      3  C   UNL A   1      35.471  31.063  27.758  1.00  0.00     0.116 C 
BRANCH   3   4
ATOM      4  N   UNL A   1      34.083  30.827  27.906  1.00  0.00    -0.356 N 
ATOM      5  C   UNL A   1      33.307  30.224  26.973  1.00  0.00     0.220 C 
ATOM      6  O   UNL A   1      32.092  30.378  27.059  1.00  0.00    -0.275 OA
ATOM      7  H   UNL A   1      33.653  31.119  28.743  1.00  0.00     0.163 HD
BRANCH   5   8
ATOM      8  C   UNL A   1      33.963  29.407  25.871  1.00  0.00     0.106 C 
BRANCH   8   9
ATOM      9  C   UNL A   1      33.047  28.401  25.106  1.00  0.00     0.076 C 
BRANCH   9  10
ATOM     10  C   UNL A   1      33.352  26.893  25.268  1.00  0.00     0.197 C 
ATOM     11  C   UNL A   1      39.253  23.599  27.221  1.00  0.00     0.044 C 
ATOM     12  C   UNL A   1      37.907  23.286  25.938  1.00  0.00    -0.050 A 
ATOM     13  C   UNL A   1      38.005  22.288  24.982  1.00  0.00     0.005 A 
ATOM     14  C   UNL A   1      36.372  23.722  25.974  1.00  0.00     0.016 A 
ATOM     15  C   UNL A   1      36.776  21.838  24.325  1.00  0.00     0.027 A 
ATOM     16  C   UNL A   1      35.350  23.697  25.032  1.00  0.00     0.047 A 
ATOM     17  C   UNL A   1      35.542  22.577  24.306  1.00  0.00     0.051 A 
ATOM     18  C   UNL A   1      33.967  24.472  24.785  1.00  0.00     0.216 C 
ATOM     19  N   UNL A   1      34.425  22.394  23.514  1.00  0.00    -0.320 N 
ATOM     20  N   UNL A   1      33.704  25.886  24.251  1.00  0.00    -0.326 N 
ATOM     21  C   UNL A   1      32.990  24.536  25.988  1.00  0.00     0.174 C 
ATOM     22  C   UNL A   1      33.627  23.549  23.494  1.00  0.00     0.291 C 
ATOM     23  H   UNL A   1      34.216  21.564  23.028  1.00  0.00     0.170 HD
ATOM     24  H   UNL A   1      32.934  25.831  23.584  1.00  0.00     0.347 HD
ATOM     25  H   UNL A   1      34.583  26.199  23.840  1.00  0.00     0.347 HD
ATOM     26  C   UNL A   1      32.841  26.107  26.426  1.00  0.00     0.157 C 
ATOM     27  C   UNL A   1      31.572  24.336  26.703  1.00  0.00     0.240 C 
ATOM     28  O   UNL A   1      32.968  23.883  22.516  1.00  0.00    -0.267 OA
ATOM     29  C   UNL A   1      31.400  26.365  26.490  1.00  0.00     0.239 C 
ATOM     30  N   UNL A   1      30.987  25.304  25.820  1.00  0.00    -0.277 N 
ATOM     31  O   UNL A   1      32.104  23.454  27.361  1.00  0.00    -0.274 OA
ATOM     32  O   UNL A   1      30.737  27.319  26.930  1.00  0.00    -0.274 OA
BRANCH  30  33
ATOM     33  C   UNL A   1      30.465  25.581  24.333  1.00  0.00     0.164 C 
BRANCH  33  34
ATOM     34  C   UNL A   1      29.520  26.882  23.813  1.00  0.00    -0.028 A 
ATOM     35  C   UNL A   1      28.087  26.909  23.895  1.00  0.00     0.005 A 
ATOM     36  C   UNL A   1      30.022  28.160  23.453  1.00  0.00     0.005 A 
ATOM     37  C   UNL A   1      27.262  27.975  23.363  1.00  0.00     0.000 A 
ATOM     38  C   UNL A   1      29.204  29.240  22.950  1.00  0.00     0.000 A 
ATOM     39  C   UNL A   1      27.828  29.117  22.820  1.00  0.00     0.000 A 
ENDBRANCH  33  34
ENDBRANCH  30  33
ENDBRANCH   9  10
ENDBRANCH   8   9
ENDBRANCH   5   8
ENDBRANCH   3   4
ENDBRANCH   2   3
ENDBRANCH   1   2
BRANCH   1  40
ATOM     40  C   UNL A   1      37.894  29.735  27.500  1.00  0.00     0.002 C 
BRANCH  40  41
ATOM     41  C   UNL A   1      39.570  29.049  26.823  1.00  0.00     0.021 C 
BRANCH  41  42
ATOM     42  C   UNL A   1      40.439  27.414  27.207  1.00  0.00     0.116 C 
BRANCH  42  43
ATOM     43  N   UNL A   1      41.864  27.051  26.549  1.00  0.00    -0.352 N 
ATOM     44  C   UNL A   1      43.137  26.774  26.850  1.00  0.00     0.251 C 
ATOM     45  H   UNL A   1      41.760  27.024  25.570  1.00  0.00     0.163 HD
ATOM     46  O   UNL A   1      43.923  26.313  26.037  1.00  0.00    -0.269 OA
BRANCH  44  47
ATOM     47  C   UNL A   1      43.441  27.299  28.109  1.00  0.00     0.039 A 
ATOM     48  C   UNL A   1      42.855  26.641  29.193  1.00  0.00     0.014 A 
ATOM     49  C   UNL A   1      43.594  28.670  27.960  1.00  0.00     0.014 A 
ATOM     50  C   UNL A   1      42.382  27.439  30.199  1.00  0.00     0.010 A 
ATOM     51  C   UNL A   1      43.325  29.421  29.056  1.00  0.00     0.010 A 
ATOM     52  C   UNL A   1      42.676  28.814  30.152  1.00  0.00    -0.014 A 
BRANCH  52  53
ATOM     53  C   UNL A   1      42.285  29.694  31.248  1.00  0.00     0.031 A 
ATOM     54  C   UNL A   1      43.057  29.665  32.519  1.00  0.00     0.074 A 
ATOM     55  C   UNL A   1      41.153  30.407  31.112  1.00  0.00     0.049 A 
ATOM     56  N   UNL A   1      42.735  30.234  33.644  1.00  0.00    -0.248 NA
ATOM     57  C   UNL A   1      44.324  28.905  32.556  1.00  0.00     0.031 C 
ATOM     58  C   UNL A   1      40.369  30.502  29.883  1.00  0.00     0.029 A 
ATOM     59  N   UNL A   1      40.457  31.164  32.018  1.00  0.00    -0.354 N 
ATOM     60  C   UNL A   1      43.736  29.889  34.531  1.00  0.00     0.074 A 
ATOM     61  C   UNL A   1      44.674  29.045  33.826  1.00  0.00     0.031 C 
ATOM     62  C   UNL A   1      39.298  31.272  30.111  1.00  0.00     0.029 A 
ATOM     63  C   UNL A   1      39.284  31.680  31.511  1.00  0.00     0.049 A 
ATOM     64  H   UNL A   1      40.763  31.323  32.939  1.00  0.00     0.167 HD
ATOM     65  C   UNL A   1      43.841  30.257  35.823  1.00  0.00     0.031 A 
ATOM     66  C   UNL A   1      38.291  32.387  32.093  1.00  0.00     0.031 A 
ATOM     67  C   UNL A   1      42.884  31.108  36.481  1.00  0.00     0.049 A 
ATOM     68  C   UNL A   1      38.422  32.753  33.542  1.00  0.00     0.074 A 
ATOM     69  C   UNL A   1      42.950  31.576  37.779  1.00  0.00     0.029 A 
ATOM     70  N   UNL A   1      41.716  31.626  35.930  1.00  0.00    -0.354 N 
ATOM     71  N   UNL A   1      39.403  32.469  34.361  1.00  0.00    -0.248 NA
ATOM     72  C   UNL A   1      37.334  33.530  34.155  1.00  0.00     0.031 C 
ATOM     73  C   UNL A   1      41.797  32.297  38.044  1.00  0.00     0.029 A 
ATOM     74  C   UNL A   1      41.040  32.371  36.888  1.00  0.00     0.049 A 
ATOM     75  H   UNL A   1      41.415  31.487  35.004  1.00  0.00     0.167 HD
ATOM     76  C   UNL A   1      39.070  33.062  35.569  1.00  0.00     0.074 A 
ATOM     77  C   UNL A   1      37.791  33.711  35.387  1.00  0.00     0.031 C 
ATOM     78  C   UNL A   1      39.783  33.064  36.718  1.00  0.00     0.031 A 
BRANCH  65  79
ATOM     79  C   UNL A   1      45.037  29.786  36.613  1.00  0.00    -0.014 A 
ATOM     80  C   UNL A   1      44.953  28.617  37.393  1.00  0.00     0.010 A 
ATOM     81  C   UNL A   1      46.190  30.584  36.711  1.00  0.00     0.010 A 
ATOM     82  C   UNL A   1      45.930  28.335  38.352  1.00  0.00     0.020 A 
ATOM     83  C   UNL A   1      47.237  30.221  37.559  1.00  0.00     0.020 A 
ATOM     84  C   UNL A   1      47.066  29.144  38.429  1.00  0.00     0.054 A 
BRANCH  84  85
ATOM     85  S   UNL A   1      48.301  28.820  39.718  1.00  0.00     0.124 S 
ATOM     86  O   UNL A   1      47.487  28.763  40.930  1.00  0.00    -0.237 OA
ATOM     87  O   UNL A   1      48.882  27.554  39.283  1.00  0.00    -0.237 OA
ATOM     88  O   UNL A   1      49.197  29.972  39.627  1.00  0.00    -0.744 OA
ENDBRANCH  84  85
ENDBRANCH  65  79
BRANCH  66  89
ATOM     89  C   UNL A   1      37.117  32.832  31.284  1.00  0.00    -0.014 A 
ATOM     90  C   UNL A   1      37.282  33.684  30.176  1.00  0.00     0.010 A 
ATOM     91  C   UNL A   1      35.815  32.459  31.658  1.00  0.00     0.010 A 
ATOM     92  C   UNL A   1      36.173  34.283  29.572  1.00  0.00     0.020 A 
ATOM     93  C   UNL A   1      34.705  32.938  30.958  1.00  0.00     0.020 A 
ATOM     94  C   UNL A   1      34.888  33.911  29.975  1.00  0.00     0.054 A 
BRANCH  94  95
ATOM     95  S   UNL A   1      33.457  34.766  29.259  1.00  0.00     0.124 S 
ATOM     96  O   UNL A   1      34.068  35.975  28.711  1.00  0.00    -0.237 OA
ATOM     97  O   UNL A   1      32.975  33.802  28.277  1.00  0.00    -0.237 OA
ATOM     98  O   UNL A   1      32.578  34.983  30.406  1.00  0.00    -0.744 OA
ENDBRANCH  94  95
ENDBRANCH  66  89
BRANCH  78  99
ATOM     99  C   UNL A   1      39.254  33.813  37.923  1.00  0.00    -0.014 A 
ATOM    100  C   UNL A   1      39.756  35.103  38.194  1.00  0.00     0.010 A 
ATOM    101  C   UNL A   1      38.467  33.177  38.896  1.00  0.00     0.010 A 
ATOM    102  C   UNL A   1      39.634  35.657  39.471  1.00  0.00     0.020 A 
ATOM    103  C   UNL A   1      38.217  33.797  40.125  1.00  0.00     0.020 A 
ATOM    104  C   UNL A   1      38.871  34.993  40.434  1.00  0.00     0.054 A 
BRANCH 104 105
ATOM    105  S   UNL A   1      38.794  35.671  42.116  1.00  0.00     0.124 S 
ATOM    106  O   UNL A   1      39.875  34.963  42.795  1.00  0.00    -0.237 OA
ATOM    107  O   UNL A   1      39.018  37.096  41.889  1.00  0.00    -0.237 OA
ATOM    108  O   UNL A   1      37.447  35.321  42.566  1.00  0.00    -0.744 OA
ENDBRANCH 104 105
ENDBRANCH  78  99
ENDBRANCH  52  53
ENDBRANCH  44  47
ENDBRANCH  42  43
ENDBRANCH  41  42
ENDBRANCH  40  41
ENDBRANCH   1  40
TORSDOF 20
ENDMDL
MODEL 2
REMARK VINA RESULT:     -12.4      5.203      9.329
REMARK SMILES Cc1ccc2c(c1)[C@@]1([NH2+][C@@H](CCC(=O)NCCCCCCNC(=O)c3ccc(-c4c5nc(c(-c6ccc(S(=O)(=O)[O-])cc6)c6ccc([nH]6)c(-c6ccc(S(=O)(=O)[O-])cc6)c6nc(c(-c7ccc(S(=O)(=O)[O-])cc7)c7ccc4[nH]7)C=C6)C=C5)cc3)[C@H]3C(=O)N(Cc4ccccc4)C(=O)[C@H]31)C(=O)N2
REMARK SMILES IDX 18 1 17 2 16 3 15 4 13 5 14 6 12 8 11 9 10 10 1 11 2 12 3 13
REMARK SMILES IDX 7 14 4 15 6 16 5 17 8 18 101 19 9 20 98 21 99 22 85 26 96 27
REMARK SMILES IDX 100 28 86 29 88 30 97 31 87 32 89 33 90 34 91 35 95 36 92 37
REMARK SMILES IDX 94 38 93 39 19 40 20 41 21 42 22 43 23 44 24 46 25 47 26 48
REMARK SMILES IDX 84 49 27 50 83 51 28 52 29 53 30 54 77 55 31 56 82 57 76 58
REMARK SMILES IDX 78 59 32 60 81 61 75 62 74 63 33 65 63 66 44 67 62 68 45 69
REMARK SMILES IDX 48 70 61 71 79 72 46 73 47 74 60 76 80 77 49 78 34 79 35 80
REMARK SMILES IDX 43 81 36 82 42 83 37 84 38 85 39 86 40 87 41 88 64 89 65 90
REMARK SMILES IDX 73 91 66 92 72 93 67 94 68 95 69 96 70 97 71 98 50 99 51 100
REMARK SMILES IDX 59 101 52 102 58 103 53 104 54 105 55 106 56 107 57 108
REMARK H PARENT 15 7 101 23 9 24 9 25 22 45 78 64 48 75
REMARK Flexibility Score: inf
ROOT
ATOM      1  C   UNL A   1      36.551  22.592  24.199  1.00  0.00     0.002 C 
ENDROOT
BRANCH   1   2
ATOM      2  C   UNL A   1      36.165  21.350  24.840  1.00  0.00     0.021 C 
BRANCH   2   3
ATOM      3  C   UNL A   1      35.356  21.559  26.079  1.00  0.00     0.116 C 
BRANCH   3   4
ATOM      4  N   UNL A   1      34.081  21.134  25.634  1.00  0.00    -0.356 N 
ATOM      5  C   UNL A   1      32.955  21.883  25.723  1.00  0.00     0.220 C 
ATOM      6  O   UNL A   1      31.878  21.300  25.626  1.00  0.00    -0.275 OA
ATOM      7  H   UNL A   1      34.009  20.238  25.234  1.00  0.00     0.163 HD
BRANCH   5   8
ATOM      8  C   UNL A   1      33.069  23.383  25.946  1.00  0.00     0.106 C 
BRANCH   8   9
ATOM      9  C   UNL A   1      32.716  24.299  24.733  1.00  0.00     0.076 C 
BRANCH   9  10
ATOM     10  C   UNL A   1      33.139  25.785  24.814  1.00  0.00     0.197 C 
ATOM     11  C   UNL A   1      38.035  28.942  28.757  1.00  0.00     0.044 C 
ATOM     12  C   UNL A   1      36.287  29.372  28.195  1.00  0.00    -0.050 A 
ATOM     13  C   UNL A   1      35.597  30.471  28.679  1.00  0.00     0.005 A 
ATOM     14  C   UNL A   1      35.521  28.909  26.873  1.00  0.00     0.016 A 
ATOM     15  C   UNL A   1      34.460  30.970  27.902  1.00  0.00     0.027 A 
ATOM     16  C   UNL A   1      34.203  29.021  26.445  1.00  0.00     0.047 A 
ATOM     17  C   UNL A   1      33.768  30.217  26.890  1.00  0.00     0.051 A 
ATOM     18  C   UNL A   1      33.238  28.255  25.418  1.00  0.00     0.216 C 
ATOM     19  N   UNL A   1      32.547  30.467  26.294  1.00  0.00    -0.320 N 
ATOM     20  N   UNL A   1      32.522  26.904  25.549  1.00  0.00    -0.326 N 
ATOM     21  C   UNL A   1      33.790  28.041  23.984  1.00  0.00     0.174 C 
ATOM     22  C   UNL A   1      32.034  29.309  25.691  1.00  0.00     0.291 C 
ATOM     23  H   UNL A   1      32.097  31.342  26.294  1.00  0.00     0.170 HD
ATOM     24  H   UNL A   1      31.569  27.019  25.203  1.00  0.00     0.347 HD
ATOM     25  H   UNL A   1      32.573  26.653  26.535  1.00  0.00     0.347 HD
ATOM     26  C   UNL A   1      33.957  26.429  23.749  1.00  0.00     0.157 C 
ATOM     27  C   UNL A   1      33.725  28.137  22.387  1.00  0.00     0.240 C 
ATOM     28  O   UNL A   1      30.833  29.074  25.620  1.00  0.00    -0.267 OA
ATOM     29  C   UNL A   1      33.277  26.142  22.483  1.00  0.00     0.239 C 
ATOM     30  N   UNL A   1      32.587  27.263  22.379  1.00  0.00    -0.277 N 
ATOM     31  O   UNL A   1      34.634  28.950  22.467  1.00  0.00    -0.274 OA
ATOM     32  O   UNL A   1      33.246  25.134  21.757  1.00  0.00    -0.274 OA
BRANCH  30  33
ATOM     33  C   UNL A   1      31.019  27.143  22.672  1.00  0.00     0.164 C 
BRANCH  33  34
ATOM     34  C   UNL A   1      29.864  28.369  22.540  1.00  0.00    -0.028 A 
ATOM     35  C   UNL A   1      28.543  28.285  23.098  1.00  0.00     0.005 A 
ATOM     36  C   UNL A   1      30.123  29.685  22.073  1.00  0.00     0.005 A 
ATOM     37  C   UNL A   1      27.514  29.286  22.906  1.00  0.00     0.000 A 
ATOM     38  C   UNL A   1      29.108  30.701  21.907  1.00  0.00     0.000 A 
ATOM     39  C   UNL A   1      27.781  30.472  22.241  1.00  0.00     0.000 A 
ENDBRANCH  33  34
ENDBRANCH  30  33
ENDBRANCH   9  10
ENDBRANCH   8   9
ENDBRANCH   5   8
ENDBRANCH   3   4
ENDBRANCH   2   3
ENDBRANCH   1   2
BRANCH   1  40
ATOM     40  C   UNL A   1      36.753  23.549  25.446  1.00  0.00     0.002 C 
BRANCH  40  41
ATOM     41  C   UNL A   1      38.344  24.067  26.414  1.00  0.00     0.021 C 
BRANCH  41  42
ATOM     42  C   UNL A   1      39.646  22.980  27.250  1.00  0.00     0.116 C 
BRANCH  42  43
ATOM     43  N   UNL A   1      40.141  21.602  26.576  1.00  0.00    -0.352 N 
ATOM     44  C   UNL A   1      41.224  20.849  26.365  1.00  0.00     0.251 C 
ATOM     45  H   UNL A   1      39.363  21.152  26.174  1.00  0.00     0.163 HD
ATOM     46  O   UNL A   1      41.160  19.693  25.975  1.00  0.00    -0.269 OA
BRANCH  44  47
ATOM     47  C   UNL A   1      42.368  21.650  26.435  1.00  0.00     0.039 A 
ATOM     48  C   UNL A   1      42.882  21.855  27.718  1.00  0.00     0.014 A 
ATOM     49  C   UNL A   1      42.274  22.595  25.424  1.00  0.00     0.014 A 
ATOM     50  C   UNL A   1      43.328  23.119  27.995  1.00  0.00     0.010 A 
ATOM     51  C   UNL A   1      42.920  23.767  25.643  1.00  0.00     0.010 A 
ATOM     52  C   UNL A   1      43.401  24.044  26.939  1.00  0.00    -0.014 A 
BRANCH  52  53
ATOM     53  C   UNL A   1      43.963  25.373  27.156  1.00  0.00     0.031 A 
ATOM     54  C   UNL A   1      45.326  25.681  26.644  1.00  0.00     0.074 A 
ATOM     55  C   UNL A   1      43.276  26.232  27.929  1.00  0.00     0.049 A 
ATOM     56  N   UNL A   1      46.043  26.734  26.911  1.00  0.00    -0.248 NA
ATOM     57  C   UNL A   1      45.979  24.705  25.748  1.00  0.00     0.031 C 
ATOM     58  C   UNL A   1      41.924  26.002  28.434  1.00  0.00     0.029 A 
ATOM     59  N   UNL A   1      43.626  27.454  28.442  1.00  0.00    -0.354 N 
ATOM     60  C   UNL A   1      47.236  26.546  26.242  1.00  0.00     0.074 A 
ATOM     61  C   UNL A   1      47.163  25.270  25.567  1.00  0.00     0.031 C 
ATOM     62  C   UNL A   1      41.559  27.047  29.186  1.00  0.00     0.029 A 
ATOM     63  C   UNL A   1      42.665  27.995  29.266  1.00  0.00     0.049 A 
ATOM     64  H   UNL A   1      44.480  27.900  28.241  1.00  0.00     0.167 HD
ATOM     65  C   UNL A   1      48.292  27.383  26.210  1.00  0.00     0.031 A 
ATOM     66  C   UNL A   1      42.659  29.115  30.022  1.00  0.00     0.031 A 
ATOM     67  C   UNL A   1      48.315  28.651  26.893  1.00  0.00     0.049 A 
ATOM     68  C   UNL A   1      43.864  30.009  29.990  1.00  0.00     0.074 A 
ATOM     69  C   UNL A   1      49.330  29.586  26.863  1.00  0.00     0.029 A 
ATOM     70  N   UNL A   1      47.314  29.175  27.706  1.00  0.00    -0.354 N 
ATOM     71  N   UNL A   1      44.969  29.851  29.308  1.00  0.00    -0.248 NA
ATOM     72  C   UNL A   1      43.835  31.228  30.813  1.00  0.00     0.031 C 
ATOM     73  C   UNL A   1      48.992  30.627  27.714  1.00  0.00     0.029 A 
ATOM     74  C   UNL A   1      47.721  30.403  28.212  1.00  0.00     0.049 A 
ATOM     75  H   UNL A   1      46.450  28.742  27.894  1.00  0.00     0.167 HD
ATOM     76  C   UNL A   1      45.749  30.963  29.589  1.00  0.00     0.074 A 
ATOM     77  C   UNL A   1      45.001  31.785  30.514  1.00  0.00     0.031 C 
ATOM     78  C   UNL A   1      46.975  31.262  29.103  1.00  0.00     0.031 A 
BRANCH  65  79
ATOM     79  C   UNL A   1      49.497  26.994  25.391  1.00  0.00    -0.014 A 
ATOM     80  C   UNL A   1      50.538  26.249  25.976  1.00  0.00     0.010 A 
ATOM     81  C   UNL A   1      49.675  27.500  24.091  1.00  0.00     0.010 A 
ATOM     82  C   UNL A   1      51.777  26.140  25.337  1.00  0.00     0.020 A 
ATOM     83  C   UNL A   1      50.857  27.262  23.390  1.00  0.00     0.020 A 
ATOM     84  C   UNL A   1      51.926  26.652  24.046  1.00  0.00     0.054 A 
BRANCH  84  85
ATOM     85  S   UNL A   1      53.551  26.573  23.242  1.00  0.00     0.124 S 
ATOM     86  O   UNL A   1      54.324  25.749  24.167  1.00  0.00    -0.237 OA
ATOM     87  O   UNL A   1      53.233  25.958  21.957  1.00  0.00    -0.237 OA
ATOM     88  O   UNL A   1      53.962  27.975  23.169  1.00  0.00    -0.744 OA
ENDBRANCH  84  85
ENDBRANCH  65  79
BRANCH  66  89
ATOM     89  C   UNL A   1      41.452  29.468  30.827  1.00  0.00    -0.014 A 
ATOM     90  C   UNL A   1      40.581  30.494  30.414  1.00  0.00     0.010 A 
ATOM     91  C   UNL A   1      41.200  28.824  32.050  1.00  0.00     0.010 A 
ATOM     92  C   UNL A   1      39.596  30.977  31.280  1.00  0.00     0.020 A 
ATOM     93  C   UNL A   1      40.121  29.204  32.851  1.00  0.00     0.020 A 
ATOM     94  C   UNL A   1      39.378  30.332  32.500  1.00  0.00     0.054 A 
BRANCH  94  95
ATOM     95  S   UNL A   1      38.169  31.026  33.661  1.00  0.00     0.124 S 
ATOM     96  O   UNL A   1      38.696  32.371  33.882  1.00  0.00    -0.237 OA
ATOM     97  O   UNL A   1      36.926  30.952  32.900  1.00  0.00    -0.237 OA
ATOM     98  O   UNL A   1      38.250  30.132  34.815  1.00  0.00    -0.744 OA
ENDBRANCH  94  95
ENDBRANCH  66  89
BRANCH  78  99
ATOM     99  C   UNL A   1      47.642  32.559  29.509  1.00  0.00    -0.014 A 
ATOM    100  C   UNL A   1      47.501  33.686  28.673  1.00  0.00     0.010 A 
ATOM    101  C   UNL A   1      48.578  32.608  30.555  1.00  0.00     0.010 A 
ATOM    102  C   UNL A   1      48.401  34.751  28.761  1.00  0.00     0.020 A 
ATOM    103  C   UNL A   1      49.379  33.739  30.739  1.00  0.00     0.020 A 
ATOM    104  C   UNL A   1      49.344  34.765  29.791  1.00  0.00     0.054 A 
BRANCH 104 105
ATOM    105  S   UNL A   1      50.568  36.105  29.844  1.00  0.00     0.124 S 
ATOM    106  O   UNL A   1      50.623  36.430  31.266  1.00  0.00    -0.237 OA
ATOM    107  O   UNL A   1      51.759  35.462  29.297  1.00  0.00    -0.237 OA
ATOM    108  O   UNL A   1      49.979  37.141  28.995  1.00  0.00    -0.744 OA
ENDBRANCH 104 105
ENDBRANCH  78  99
ENDBRANCH  52  53
ENDBRANCH  44  47
ENDBRANCH  42  43
ENDBRANCH  41  42
ENDBRANCH  40  41
ENDBRANCH   1  40
TORSDOF 20
ENDMDL
MODEL 3
REMARK VINA RESULT:     -12.1      5.136     10.544
REMARK SMILES Cc1ccc2c(c1)[C@@]1([NH2+][C@@H](CCC(=O)NCCCCCCNC(=O)c3ccc(-c4c5nc(c(-c6ccc(S(=O)(=O)[O-])cc6)c6ccc([nH]6)c(-c6ccc(S(=O)(=O)[O-])cc6)c6nc(c(-c7ccc(S(=O)(=O)[O-])cc7)c7ccc4[nH]7)C=C6)C=C5)cc3)[C@H]3C(=O)N(Cc4ccccc4)C(=O)[C@H]31)C(=O)N2
REMARK SMILES IDX 18 1 17 2 16 3 15 4 13 5 14 6 12 8 11 9 10 10 1 11 2 12 3 13
REMARK SMILES IDX 7 14 4 15 6 16 5 17 8 18 101 19 9 20 98 21 99 22 85 26 96 27
REMARK SMILES IDX 100 28 86 29 88 30 97 31 87 32 89 33 90 34 91 35 95 36 92 37
REMARK SMILES IDX 94 38 93 39 19 40 20 41 21 42 22 43 23 44 24 46 25 47 26 48
REMARK SMILES IDX 84 49 27 50 83 51 28 52 29 53 30 54 77 55 31 56 82 57 76 58
REMARK SMILES IDX 78 59 32 60 81 61 75 62 74 63 33 65 63 66 44 67 62 68 45 69
REMARK SMILES IDX 48 70 61 71 79 72 46 73 47 74 60 76 80 77 49 78 34 79 35 80
REMARK SMILES IDX 43 81 36 82 42 83 37 84 38 85 39 86 40 87 41 88 64 89 65 90
REMARK SMILES IDX 73 91 66 92 72 93 67 94 68 95 69 96 70 97 71 98 50 99 51 100
REMARK SMILES IDX 59 101 52 102 58 103 53 104 54 105 55 106 56 107 57 108
REMARK H PARENT 15 7 101 23 9 24 9 25 22 45 78 64 48 75
REMARK Flexibility Score: inf
ROOT
ATOM      1  C   UNL A   1      36.652  23.210  24.034  1.00  0.00     0.002 C 
ENDROOT
BRANCH   1   2
ATOM      2  C   UNL A   1      36.398  21.801  24.259  1.00  0.00     0.021 C 
BRANCH   2   3
ATOM      3  C   UNL A   1      35.600  21.541  25.495  1.00  0.00     0.116 C 
BRANCH   3   4
ATOM      4  N   UNL A   1      34.365  21.141  24.930  1.00  0.00    -0.356 N 
ATOM      5  C   UNL A   1      33.184  21.766  25.157  1.00  0.00     0.220 C 
ATOM      6  O   UNL A   1      32.155  21.147  24.899  1.00  0.00    -0.275 OA
ATOM      7  H   UNL A   1      34.365  20.359  24.332  1.00  0.00     0.163 HD
BRANCH   5   8
ATOM      8  C   UNL A   1      33.182  23.179  25.721  1.00  0.00     0.106 C 
BRANCH   8   9
ATOM      9  C   UNL A   1      32.327  24.236  24.956  1.00  0.00     0.076 C 
BRANCH   9  10
ATOM     10  C   UNL A   1      32.844  25.694  24.939  1.00  0.00     0.197 C 
ATOM     11  C   UNL A   1      37.904  28.802  28.711  1.00  0.00     0.044 C 
ATOM     12  C   UNL A   1      36.191  29.302  28.100  1.00  0.00    -0.050 A 
ATOM     13  C   UNL A   1      35.569  30.474  28.499  1.00  0.00     0.005 A 
ATOM     14  C   UNL A   1      35.406  28.797  26.805  1.00  0.00     0.016 A 
ATOM     15  C   UNL A   1      34.473  30.989  27.676  1.00  0.00     0.027 A 
ATOM     16  C   UNL A   1      34.102  28.962  26.355  1.00  0.00     0.047 A 
ATOM     17  C   UNL A   1      33.741  30.212  26.711  1.00  0.00     0.051 A 
ATOM     18  C   UNL A   1      33.096  28.189  25.372  1.00  0.00     0.216 C 
ATOM     19  N   UNL A   1      32.543  30.497  26.085  1.00  0.00    -0.320 N 
ATOM     20  N   UNL A   1      32.294  26.899  25.588  1.00  0.00    -0.326 N 
ATOM     21  C   UNL A   1      33.644  27.842  23.963  1.00  0.00     0.174 C 
ATOM     22  C   UNL A   1      31.961  29.334  25.558  1.00  0.00     0.291 C 
ATOM     23  H   UNL A   1      32.150  31.397  26.019  1.00  0.00     0.170 HD
ATOM     24  H   UNL A   1      31.354  27.050  25.224  1.00  0.00     0.347 HD
ATOM     25  H   UNL A   1      32.322  26.715  26.590  1.00  0.00     0.347 HD
ATOM     26  C   UNL A   1      33.709  26.210  23.842  1.00  0.00     0.157 C 
ATOM     27  C   UNL A   1      33.597  27.830  22.363  1.00  0.00     0.240 C 
ATOM     28  O   UNL A   1      30.748  29.172  25.489  1.00  0.00    -0.267 OA
ATOM     29  C   UNL A   1      33.021  25.878  22.591  1.00  0.00     0.239 C 
ATOM     30  N   UNL A   1      32.405  27.031  22.402  1.00  0.00    -0.277 N 
ATOM     31  O   UNL A   1      34.556  28.587  22.396  1.00  0.00    -0.274 OA
ATOM     32  O   UNL A   1      32.931  24.826  21.936  1.00  0.00    -0.274 OA
BRANCH  30  33
ATOM     33  C   UNL A   1      30.830  27.032  22.684  1.00  0.00     0.164 C 
BRANCH  33  34
ATOM     34  C   UNL A   1      29.774  28.344  22.549  1.00  0.00    -0.028 A 
ATOM     35  C   UNL A   1      28.454  28.367  23.112  1.00  0.00     0.005 A 
ATOM     36  C   UNL A   1      30.134  29.632  22.072  1.00  0.00     0.005 A 
ATOM     37  C   UNL A   1      27.505  29.444  22.918  1.00  0.00     0.000 A 
ATOM     38  C   UNL A   1      29.201  30.724  21.904  1.00  0.00     0.000 A 
ATOM     39  C   UNL A   1      27.861  30.602  22.244  1.00  0.00     0.000 A 
ENDBRANCH  33  34
ENDBRANCH  30  33
ENDBRANCH   9  10
ENDBRANCH   8   9
ENDBRANCH   5   8
ENDBRANCH   3   4
ENDBRANCH   2   3
ENDBRANCH   1   2
BRANCH   1  40
ATOM     40  C   UNL A   1      36.772  23.757  25.516  1.00  0.00     0.002 C 
BRANCH  40  41
ATOM     41  C   UNL A   1      38.292  24.397  26.523  1.00  0.00     0.021 C 
BRANCH  41  42
ATOM     42  C   UNL A   1      39.747  23.428  27.243  1.00  0.00     0.116 C 
BRANCH  42  43
ATOM     43  N   UNL A   1      40.279  22.077  26.542  1.00  0.00    -0.352 N 
ATOM     44  C   UNL A   1      41.347  21.281  26.437  1.00  0.00     0.251 C 
ATOM     45  H   UNL A   1      39.554  21.703  25.991  1.00  0.00     0.163 HD
ATOM     46  O   UNL A   1      41.293  20.163  25.949  1.00  0.00    -0.269 OA
BRANCH  44  47
ATOM     47  C   UNL A   1      42.500  22.008  26.746  1.00  0.00     0.039 A 
ATOM     48  C   UNL A   1      42.825  22.075  28.103  1.00  0.00     0.014 A 
ATOM     49  C   UNL A   1      42.600  23.038  25.822  1.00  0.00     0.014 A 
ATOM     50  C   UNL A   1      43.278  23.284  28.556  1.00  0.00     0.010 A 
ATOM     51  C   UNL A   1      43.255  24.150  26.239  1.00  0.00     0.010 A 
ATOM     52  C   UNL A   1      43.548  24.290  27.611  1.00  0.00    -0.014 A 
BRANCH  52  53
ATOM     53  C   UNL A   1      44.128  25.562  28.028  1.00  0.00     0.031 A 
ATOM     54  C   UNL A   1      43.247  26.610  28.612  1.00  0.00     0.074 A 
ATOM     55  C   UNL A   1      45.422  25.790  27.744  1.00  0.00     0.049 A 
ATOM     56  N   UNL A   1      43.560  27.849  28.856  1.00  0.00    -0.248 NA
ATOM     57  C   UNL A   1      41.855  26.249  28.952  1.00  0.00     0.031 C 
ATOM     58  C   UNL A   1      46.345  24.796  27.200  1.00  0.00     0.029 A 
ATOM     59  N   UNL A   1      46.176  26.930  27.850  1.00  0.00    -0.354 N 
ATOM     60  C   UNL A   1      42.408  28.428  29.352  1.00  0.00     0.074 A 
ATOM     61  C   UNL A   1      41.378  27.414  29.363  1.00  0.00     0.031 C 
ATOM     62  C   UNL A   1      47.541  25.369  27.019  1.00  0.00     0.029 A 
ATOM     63  C   UNL A   1      47.460  26.781  27.376  1.00  0.00     0.049 A 
ATOM     64  H   UNL A   1      45.833  27.772  28.226  1.00  0.00     0.167 HD
ATOM     65  C   UNL A   1      42.249  29.703  29.758  1.00  0.00     0.031 A 
ATOM     66  C   UNL A   1      48.468  27.668  27.222  1.00  0.00     0.031 A 
ATOM     67  C   UNL A   1      43.309  30.677  29.737  1.00  0.00     0.049 A 
ATOM     68  C   UNL A   1      48.247  29.088  27.654  1.00  0.00     0.074 A 
ATOM     69  C   UNL A   1      43.242  31.980  30.187  1.00  0.00     0.029 A 
ATOM     70  N   UNL A   1      44.605  30.484  29.266  1.00  0.00    -0.354 N 
ATOM     71  N   UNL A   1      47.170  29.615  28.176  1.00  0.00    -0.248 NA
ATOM     72  C   UNL A   1      49.360  30.036  27.486  1.00  0.00     0.031 C 
ATOM     73  C   UNL A   1      44.452  32.601  29.915  1.00  0.00     0.029 A 
ATOM     74  C   UNL A   1      45.323  31.668  29.380  1.00  0.00     0.049 A 
ATOM     75  H   UNL A   1      44.958  29.639  28.907  1.00  0.00     0.167 HD
ATOM     76  C   UNL A   1      47.484  30.941  28.434  1.00  0.00     0.074 A 
ATOM     77  C   UNL A   1      48.847  31.148  27.999  1.00  0.00     0.031 C 
ATOM     78  C   UNL A   1      46.697  31.888  28.993  1.00  0.00     0.031 A 
BRANCH  65  79
ATOM     79  C   UNL A   1      40.904  30.127  30.296  1.00  0.00    -0.014 A 
ATOM     80  C   UNL A   1      40.131  31.073  29.597  1.00  0.00     0.010 A 
ATOM     81  C   UNL A   1      40.477  29.711  31.568  1.00  0.00     0.010 A 
ATOM     82  C   UNL A   1      39.043  31.695  30.218  1.00  0.00     0.020 A 
ATOM     83  C   UNL A   1      39.305  30.219  32.128  1.00  0.00     0.020 A 
ATOM     84  C   UNL A   1      38.640  31.263  31.483  1.00  0.00     0.054 A 
BRANCH  84  85
ATOM     85  S   UNL A   1      37.273  32.114  32.319  1.00  0.00     0.124 S 
ATOM     86  O   UNL A   1      37.813  32.347  33.656  1.00  0.00    -0.237 OA
ATOM     87  O   UNL A   1      37.094  33.303  31.491  1.00  0.00    -0.237 OA
ATOM     88  O   UNL A   1      36.178  31.147  32.252  1.00  0.00    -0.744 OA
ENDBRANCH  84  85
ENDBRANCH  65  79
BRANCH  66  89
ATOM     89  C   UNL A   1      49.785  27.217  26.682  1.00  0.00    -0.014 A 
ATOM     90  C   UNL A   1      49.983  27.056  25.297  1.00  0.00     0.010 A 
ATOM     91  C   UNL A   1      50.834  26.882  27.554  1.00  0.00     0.010 A 
ATOM     92  C   UNL A   1      51.127  26.414  24.816  1.00  0.00     0.020 A 
ATOM     93  C   UNL A   1      52.042  26.380  27.063  1.00  0.00     0.020 A 
ATOM     94  C   UNL A   1      52.148  26.072  25.707  1.00  0.00     0.054 A 
BRANCH  94  95
ATOM     95  S   UNL A   1      53.583  25.150  25.090  1.00  0.00     0.124 S 
ATOM     96  O   UNL A   1      53.149  23.764  25.255  1.00  0.00    -0.237 OA
ATOM     97  O   UNL A   1      53.689  25.619  23.713  1.00  0.00    -0.237 OA
ATOM     98  O   UNL A   1      54.667  25.568  25.978  1.00  0.00    -0.744 OA
ENDBRANCH  94  95
ENDBRANCH  66  89
BRANCH  78  99
ATOM     99  C   UNL A   1      47.253  33.277  29.226  1.00  0.00    -0.014 A 
ATOM    100  C   UNL A   1      47.203  34.214  28.173  1.00  0.00     0.010 A 
ATOM    101  C   UNL A   1      48.019  33.580  30.364  1.00  0.00     0.010 A 
ATOM    102  C   UNL A   1      48.044  35.329  28.177  1.00  0.00     0.020 A 
ATOM    103  C   UNL A   1      48.746  34.772  30.434  1.00  0.00     0.020 A 
ATOM    104  C   UNL A   1      48.821  35.596  29.307  1.00  0.00     0.054 A 
BRANCH 104 105
ATOM    105  S   UNL A   1      49.978  36.994  29.269  1.00  0.00     0.124 S 
ATOM    106  O   UNL A   1      50.604  36.853  27.957  1.00  0.00    -0.237 OA
ATOM    107  O   UNL A   1      49.089  38.141  29.422  1.00  0.00    -0.237 OA
ATOM    108  O   UNL A   1      50.862  36.739  30.405  1.00  0.00    -0.744 OA
ENDBRANCH 104 105
ENDBRANCH  78  99
ENDBRANCH  52  53
ENDBRANCH  44  47
ENDBRANCH  42  43
ENDBRANCH  41  42
ENDBRANCH  40  41
ENDBRANCH   1  40
TORSDOF 20
ENDMDL
