MODEL 1
REMARK VINA RESULT:     -14.0      0.000      0.000
REMARK SMILES Cc1ccc(-c2nc(C)cc(N3CCCC[C@H]3C(=O)NCCCCCCNC(=O)c3ccc(-c4c5nc(c(-c6ccc(S(=O)(=O)[O-])cc6)c6ccc([nH]6)c(-c6ccc(S(=O)(=O)[O-])cc6)c6nc(c(-c7ccc(S(=O)(=O)[O-])cc7)c7ccc4[nH]7)C=C6)C=C5)cc3)n2)cc1
REMARK SMILES IDX 24 1 23 2 22 3 21 4 20 5 18 6 19 7 17 9 12 10 13 11 14 12
REMARK SMILES IDX 16 13 15 14 11 15 6 16 7 17 90 18 8 19 9 20 10 21 5 22 1 23
REMARK SMILES IDX 2 24 3 25 92 26 4 27 91 28 25 29 26 30 27 31 28 32 29 34
REMARK SMILES IDX 30 35 31 36 89 37 32 38 88 39 33 40 34 41 35 42 82 43 36 44
REMARK SMILES IDX 87 45 81 46 83 47 37 48 86 49 80 50 79 51 38 53 68 54 49 55
REMARK SMILES IDX 67 56 50 57 53 58 66 59 84 60 51 61 52 62 65 64 85 65 54 66
REMARK SMILES IDX 39 67 40 68 48 69 41 70 47 71 42 72 43 73 44 74 45 75 46 76
REMARK SMILES IDX 69 77 70 78 78 79 71 80 77 81 72 82 73 83 74 84 75 85 76 86
REMARK SMILES IDX 55 87 56 88 64 89 57 90 63 91 58 92 59 93 60 94 61 95 62 96
REMARK H PARENT 20 8 27 33 83 52 53 63
REMARK Flexibility Score: inf
ROOT
ATOM      1  C   UNL A   1      33.363  29.035  25.510  1.00  0.00     0.002 C 
ENDROOT
BRANCH   1   2
ATOM      2  C   UNL A   1      32.284  29.283  24.444  1.00  0.00     0.002 C 
BRANCH   2   3
ATOM      3  C   UNL A   1      31.067  28.351  24.461  1.00  0.00     0.021 C 
BRANCH   3   4
ATOM      4  C   UNL A   1      30.861  27.508  23.200  1.00  0.00     0.116 C 
BRANCH   4   5
ATOM      5  N   UNL A   1      32.106  27.185  22.537  1.00  0.00    -0.354 N 
ATOM      6  C   UNL A   1      32.858  26.066  22.422  1.00  0.00     0.242 C 
ATOM      7  O   UNL A   1      33.806  26.165  21.621  1.00  0.00    -0.273 OA
ATOM      8  H   UNL A   1      32.493  27.955  22.060  1.00  0.00     0.163 HD
BRANCH   6   9
ATOM      9  C   UNL A   1      32.651  24.709  23.165  1.00  0.00     0.173 C 
ATOM     10  N   UNL A   1      33.325  24.781  24.482  1.00  0.00    -0.344 N 
ATOM     11  C   UNL A   1      32.597  25.401  25.582  1.00  0.00     0.119 C 
ATOM     12  C   UNL A   1      31.251  24.721  25.801  1.00  0.00     0.022 C 
ATOM     13  C   UNL A   1      31.284  24.044  23.368  1.00  0.00     0.035 C 
ATOM     14  C   UNL A   1      30.457  24.657  24.500  1.00  0.00     0.004 C 
BRANCH  10  15
ATOM     15  C   UNL A   1      34.243  23.788  24.780  1.00  0.00     0.133 A 
ATOM     16  C   UNL A   1      34.781  21.577  25.045  1.00  0.00     0.161 A 
ATOM     17  N   UNL A   1      36.039  21.831  25.448  1.00  0.00    -0.233 NA
ATOM     18  N   UNL A   1      33.864  22.503  24.716  1.00  0.00    -0.211 NA
ATOM     19  C   UNL A   1      36.398  23.129  25.488  1.00  0.00     0.043 A 
ATOM     20  C   UNL A   1      37.791  23.430  25.948  1.00  0.00     0.067 C 
ATOM     21  C   UNL A   1      35.528  24.143  25.149  1.00  0.00     0.070 A 
BRANCH  16  22
ATOM     22  C   UNL A   1      34.384  20.173  24.933  1.00  0.00     0.019 A 
ATOM     23  C   UNL A   1      33.217  16.017  24.593  1.00  0.00     0.044 C 
ATOM     24  C   UNL A   1      33.611  17.460  24.701  1.00  0.00    -0.051 A 
ATOM     25  C   UNL A   1      34.948  17.834  24.535  1.00  0.00     0.004 A 
ATOM     26  C   UNL A   1      32.661  18.445  24.993  1.00  0.00     0.004 A 
ATOM     27  C   UNL A   1      35.327  19.176  24.640  1.00  0.00     0.012 A 
ATOM     28  C   UNL A   1      33.046  19.784  25.114  1.00  0.00     0.012 A 
ENDBRANCH  16  22
ENDBRANCH  10  15
ENDBRANCH   6   9
ENDBRANCH   4   5
ENDBRANCH   3   4
ENDBRANCH   2   3
ENDBRANCH   1   2
BRANCH   1  29
ATOM     29  C   UNL A   1      33.570  30.147  26.541  1.00  0.00     0.021 C 
BRANCH  29  30
ATOM     30  C   UNL A   1      34.505  29.770  27.682  1.00  0.00     0.116 C 
BRANCH  30  31
ATOM     31  N   UNL A   1      35.281  30.908  28.180  1.00  0.00    -0.352 N 
ATOM     32  C   UNL A   1      36.558  30.915  28.706  1.00  0.00     0.251 C 
ATOM     33  H   UNL A   1      34.833  31.784  28.132  1.00  0.00     0.163 HD
ATOM     34  O   UNL A   1      37.088  31.900  29.210  1.00  0.00    -0.269 OA
BRANCH  32  35
ATOM     35  C   UNL A   1      37.354  29.696  28.495  1.00  0.00     0.039 A 
ATOM     36  C   UNL A   1      37.571  28.899  29.624  1.00  0.00     0.014 A 
ATOM     37  C   UNL A   1      38.165  29.611  27.366  1.00  0.00     0.014 A 
ATOM     38  C   UNL A   1      38.755  28.187  29.716  1.00  0.00     0.010 A 
ATOM     39  C   UNL A   1      39.386  28.989  27.502  1.00  0.00     0.010 A 
ATOM     40  C   UNL A   1      39.700  28.343  28.701  1.00  0.00    -0.014 A 
BRANCH  40  41
ATOM     41  C   UNL A   1      41.062  27.856  28.840  1.00  0.00     0.031 A 
ATOM     42  C   UNL A   1      41.317  26.457  28.434  1.00  0.00     0.074 A 
ATOM     43  C   UNL A   1      42.027  28.648  29.365  1.00  0.00     0.049 A 
ATOM     44  N   UNL A   1      42.213  25.692  28.952  1.00  0.00    -0.248 NA
ATOM     45  C   UNL A   1      40.494  25.783  27.429  1.00  0.00     0.031 C 
ATOM     46  C   UNL A   1      43.443  28.316  29.507  1.00  0.00     0.029 A 
ATOM     47  N   UNL A   1      41.906  29.844  30.083  1.00  0.00    -0.354 N 
ATOM     48  C   UNL A   1      42.272  24.551  28.181  1.00  0.00     0.074 A 
ATOM     49  C   UNL A   1      41.127  24.616  27.307  1.00  0.00     0.031 C 
ATOM     50  C   UNL A   1      43.947  29.046  30.516  1.00  0.00     0.029 A 
ATOM     51  C   UNL A   1      42.832  29.753  31.131  1.00  0.00     0.049 A 
ATOM     52  H   UNL A   1      41.297  30.594  29.892  1.00  0.00     0.167 HD
ATOM     53  C   UNL A   1      43.368  23.746  28.253  1.00  0.00     0.031 A 
ATOM     54  C   UNL A   1      42.486  29.654  32.450  1.00  0.00     0.031 A 
ATOM     55  C   UNL A   1      44.285  24.206  29.292  1.00  0.00     0.049 A 
ATOM     56  C   UNL A   1      42.998  28.367  33.093  1.00  0.00     0.074 A 
ATOM     57  C   UNL A   1      45.404  25.022  29.259  1.00  0.00     0.029 A 
ATOM     58  N   UNL A   1      43.875  24.153  30.621  1.00  0.00    -0.354 N 
ATOM     59  N   UNL A   1      43.359  27.307  32.413  1.00  0.00    -0.248 NA
ATOM     60  C   UNL A   1      43.158  28.168  34.533  1.00  0.00     0.031 C 
ATOM     61  C   UNL A   1      45.584  25.565  30.562  1.00  0.00     0.029 A 
ATOM     62  C   UNL A   1      44.609  25.039  31.390  1.00  0.00     0.049 A 
ATOM     63  H   UNL A   1      43.163  23.567  30.966  1.00  0.00     0.167 HD
ATOM     64  C   UNL A   1      43.839  26.343  33.263  1.00  0.00     0.074 A 
ATOM     65  C   UNL A   1      43.681  26.927  34.584  1.00  0.00     0.031 C 
ATOM     66  C   UNL A   1      44.349  25.151  32.822  1.00  0.00     0.031 A 
BRANCH  53  67
ATOM     67  C   UNL A   1      43.723  22.791  27.137  1.00  0.00    -0.014 A 
ATOM     68  C   UNL A   1      42.874  21.704  26.853  1.00  0.00     0.010 A 
ATOM     69  C   UNL A   1      44.922  22.853  26.400  1.00  0.00     0.010 A 
ATOM     70  C   UNL A   1      43.252  20.677  25.974  1.00  0.00     0.020 A 
ATOM     71  C   UNL A   1      45.337  21.812  25.556  1.00  0.00     0.020 A 
ATOM     72  C   UNL A   1      44.500  20.720  25.356  1.00  0.00     0.054 A 
BRANCH  72  73
ATOM     73  S   UNL A   1      45.017  19.340  24.300  1.00  0.00     0.124 S 
ATOM     74  O   UNL A   1      44.576  19.770  22.976  1.00  0.00    -0.237 OA
ATOM     75  O   UNL A   1      46.461  19.314  24.506  1.00  0.00    -0.237 OA
ATOM     76  O   UNL A   1      44.290  18.195  24.847  1.00  0.00    -0.744 OA
ENDBRANCH  72  73
ENDBRANCH  53  67
BRANCH  54  77
ATOM     77  C   UNL A   1      41.272  30.427  32.847  1.00  0.00    -0.014 A 
ATOM     78  C   UNL A   1      40.094  29.699  33.120  1.00  0.00     0.010 A 
ATOM     79  C   UNL A   1      41.344  31.759  33.287  1.00  0.00     0.010 A 
ATOM     80  C   UNL A   1      39.077  30.233  33.924  1.00  0.00     0.020 A 
ATOM     81  C   UNL A   1      40.323  32.300  34.095  1.00  0.00     0.020 A 
ATOM     82  C   UNL A   1      39.224  31.513  34.453  1.00  0.00     0.054 A 
BRANCH  82  83
ATOM     83  S   UNL A   1      37.980  32.124  35.636  1.00  0.00     0.124 S 
ATOM     84  O   UNL A   1      38.650  33.270  36.246  1.00  0.00    -0.237 OA
ATOM     85  O   UNL A   1      36.857  32.460  34.762  1.00  0.00    -0.237 OA
ATOM     86  O   UNL A   1      37.769  30.982  36.518  1.00  0.00    -0.744 OA
ENDBRANCH  82  83
ENDBRANCH  54  77
BRANCH  66  87
ATOM     87  C   UNL A   1      44.739  23.967  33.681  1.00  0.00    -0.014 A 
ATOM     88  C   UNL A   1      43.865  22.935  34.049  1.00  0.00     0.010 A 
ATOM     89  C   UNL A   1      46.109  23.794  34.009  1.00  0.00     0.010 A 
ATOM     90  C   UNL A   1      44.329  21.802  34.739  1.00  0.00     0.020 A 
ATOM     91  C   UNL A   1      46.589  22.651  34.651  1.00  0.00     0.020 A 
ATOM     92  C   UNL A   1      45.688  21.665  35.030  1.00  0.00     0.054 A 
BRANCH  92  93
ATOM     93  S   UNL A   1      46.295  20.156  35.825  1.00  0.00     0.124 S 
ATOM     94  O   UNL A   1      45.704  20.258  37.156  1.00  0.00    -0.237 OA
ATOM     95  O   UNL A   1      45.752  19.097  34.977  1.00  0.00    -0.237 OA
ATOM     96  O   UNL A   1      47.748  20.301  35.769  1.00  0.00    -0.744 OA
ENDBRANCH  92  93
ENDBRANCH  66  87
ENDBRANCH  40  41
ENDBRANCH  32  35
ENDBRANCH  30  31
ENDBRANCH  29  30
ENDBRANCH   1  29
TORSDOF 18
ENDMDL
MODEL 2
REMARK VINA RESULT:     -13.3      2.055      3.458
REMARK SMILES Cc1ccc(-c2nc(C)cc(N3CCCC[C@H]3C(=O)NCCCCCCNC(=O)c3ccc(-c4c5nc(c(-c6ccc(S(=O)(=O)[O-])cc6)c6ccc([nH]6)c(-c6ccc(S(=O)(=O)[O-])cc6)c6nc(c(-c7ccc(S(=O)(=O)[O-])cc7)c7ccc4[nH]7)C=C6)C=C5)cc3)n2)cc1
REMARK SMILES IDX 24 1 23 2 22 3 21 4 20 5 18 6 19 7 17 9 12 10 13 11 14 12
REMARK SMILES IDX 16 13 15 14 11 15 6 16 7 17 90 18 8 19 9 20 10 21 5 22 1 23
REMARK SMILES IDX 2 24 3 25 92 26 4 27 91 28 25 29 26 30 27 31 28 32 29 34
REMARK SMILES IDX 30 35 31 36 89 37 32 38 88 39 33 40 34 41 35 42 82 43 36 44
REMARK SMILES IDX 87 45 81 46 83 47 37 48 86 49 80 50 79 51 38 53 68 54 49 55
REMARK SMILES IDX 67 56 50 57 53 58 66 59 84 60 51 61 52 62 65 64 85 65 54 66
REMARK SMILES IDX 39 67 40 68 48 69 41 70 47 71 42 72 43 73 44 74 45 75 46 76
REMARK SMILES IDX 69 77 70 78 78 79 71 80 77 81 72 82 73 83 74 84 75 85 76 86
REMARK SMILES IDX 55 87 56 88 64 89 57 90 63 91 58 92 59 93 60 94 61 95 62 96
REMARK H PARENT 20 8 27 33 83 52 53 63
REMARK Flexibility Score: inf
ROOT
ATOM      1  C   UNL A   1      31.930  29.656  25.163  1.00  0.00     0.002 C 
ENDROOT
BRANCH   1   2
ATOM      2  C   UNL A   1      31.100  28.746  24.244  1.00  0.00     0.002 C 
BRANCH   2   3
ATOM      3  C   UNL A   1      30.285  27.637  24.920  1.00  0.00     0.021 C 
BRANCH   3   4
ATOM      4  C   UNL A   1      30.368  26.259  24.261  1.00  0.00     0.116 C 
BRANCH   4   5
ATOM      5  N   UNL A   1      30.252  25.177  25.215  1.00  0.00    -0.354 N 
ATOM      6  C   UNL A   1      31.136  24.402  25.884  1.00  0.00     0.242 C 
ATOM      7  O   UNL A   1      30.624  23.666  26.748  1.00  0.00    -0.273 OA
ATOM      8  H   UNL A   1      29.315  24.955  25.425  1.00  0.00     0.163 HD
BRANCH   6   9
ATOM      9  C   UNL A   1      32.685  24.352  25.690  1.00  0.00     0.173 C 
ATOM     10  N   UNL A   1      32.989  23.496  24.521  1.00  0.00    -0.344 N 
ATOM     11  C   UNL A   1      32.924  24.106  23.199  1.00  0.00     0.119 C 
ATOM     12  C   UNL A   1      33.833  25.325  23.113  1.00  0.00     0.022 C 
ATOM     13  C   UNL A   1      33.578  25.597  25.611  1.00  0.00     0.035 C 
ATOM     14  C   UNL A   1      33.545  26.298  24.251  1.00  0.00     0.004 C 
BRANCH  10  15
ATOM     15  C   UNL A   1      33.870  22.446  24.717  1.00  0.00     0.133 A 
ATOM     16  C   UNL A   1      35.962  21.659  25.222  1.00  0.00     0.161 A 
ATOM     17  N   UNL A   1      35.631  20.370  25.024  1.00  0.00    -0.233 NA
ATOM     18  N   UNL A   1      35.135  22.709  25.075  1.00  0.00    -0.211 NA
ATOM     19  C   UNL A   1      34.351  20.133  24.679  1.00  0.00     0.043 A 
ATOM     20  C   UNL A   1      33.970  18.704  24.440  1.00  0.00     0.067 C 
ATOM     21  C   UNL A   1      33.430  21.148  24.526  1.00  0.00     0.070 A 
BRANCH  16  22
ATOM     22  C   UNL A   1      37.330  21.941  25.657  1.00  0.00     0.019 A 
ATOM     23  C   UNL A   1      41.381  22.762  26.949  1.00  0.00     0.044 C 
ATOM     24  C   UNL A   1      39.972  22.483  26.514  1.00  0.00    -0.051 A 
ATOM     25  C   UNL A   1      39.615  21.202  26.080  1.00  0.00     0.004 A 
ATOM     26  C   UNL A   1      39.008  23.496  26.510  1.00  0.00     0.004 A 
ATOM     27  C   UNL A   1      38.307  20.933  25.667  1.00  0.00     0.012 A 
ATOM     28  C   UNL A   1      37.704  23.228  26.079  1.00  0.00     0.012 A 
ENDBRANCH  16  22
ENDBRANCH  10  15
ENDBRANCH   6   9
ENDBRANCH   4   5
ENDBRANCH   3   4
ENDBRANCH   2   3
ENDBRANCH   1   2
BRANCH   1  29
ATOM     29  C   UNL A   1      31.991  29.258  26.640  1.00  0.00     0.021 C 
BRANCH  29  30
ATOM     30  C   UNL A   1      33.395  29.275  27.230  1.00  0.00     0.116 C 
BRANCH  30  31
ATOM     31  N   UNL A   1      33.797  30.602  27.700  1.00  0.00    -0.352 N 
ATOM     32  C   UNL A   1      34.952  30.967  28.364  1.00  0.00     0.251 C 
ATOM     33  H   UNL A   1      33.160  31.331  27.519  1.00  0.00     0.163 HD
ATOM     34  O   UNL A   1      35.154  32.085  28.827  1.00  0.00    -0.269 OA
BRANCH  32  35
ATOM     35  C   UNL A   1      36.042  29.979  28.361  1.00  0.00     0.039 A 
ATOM     36  C   UNL A   1      36.282  29.325  29.575  1.00  0.00     0.014 A 
ATOM     37  C   UNL A   1      37.002  30.041  27.354  1.00  0.00     0.014 A 
ATOM     38  C   UNL A   1      37.578  28.940  29.876  1.00  0.00     0.010 A 
ATOM     39  C   UNL A   1      38.305  29.754  27.695  1.00  0.00     0.010 A 
ATOM     40  C   UNL A   1      38.592  29.275  28.977  1.00  0.00    -0.014 A 
BRANCH  40  41
ATOM     41  C   UNL A   1      39.997  29.155  29.326  1.00  0.00     0.031 A 
ATOM     42  C   UNL A   1      40.685  27.910  28.919  1.00  0.00     0.074 A 
ATOM     43  C   UNL A   1      40.615  30.129  30.035  1.00  0.00     0.049 A 
ATOM     44  N   UNL A   1      41.665  27.370  29.554  1.00  0.00    -0.248 NA
ATOM     45  C   UNL A   1      40.241  27.126  27.766  1.00  0.00     0.031 C 
ATOM     46  C   UNL A   1      42.029  30.172  30.403  1.00  0.00     0.029 A 
ATOM     47  N   UNL A   1      40.063  31.189  30.765  1.00  0.00    -0.354 N 
ATOM     48  C   UNL A   1      42.152  26.351  28.764  1.00  0.00     0.074 A 
ATOM     49  C   UNL A   1      41.181  26.181  27.712  1.00  0.00     0.031 C 
ATOM     50  C   UNL A   1      42.153  30.927  31.508  1.00  0.00     0.029 A 
ATOM     51  C   UNL A   1      40.808  31.261  31.950  1.00  0.00     0.049 A 
ATOM     52  H   UNL A   1      39.309  31.764  30.500  1.00  0.00     0.167 HD
ATOM     53  C   UNL A   1      43.402  25.862  28.991  1.00  0.00     0.031 A 
ATOM     54  C   UNL A   1      40.304  30.969  33.187  1.00  0.00     0.031 A 
ATOM     55  C   UNL A   1      43.987  26.462  30.186  1.00  0.00     0.049 A 
ATOM     56  C   UNL A   1      41.044  29.816  33.861  1.00  0.00     0.074 A 
ATOM     57  C   UNL A   1      44.832  27.544  30.373  1.00  0.00     0.029 A 
ATOM     58  N   UNL A   1      43.409  26.196  31.424  1.00  0.00    -0.354 N 
ATOM     59  N   UNL A   1      41.781  28.947  33.214  1.00  0.00    -0.248 NA
ATOM     60  C   UNL A   1      41.029  29.551  35.299  1.00  0.00     0.031 C 
ATOM     61  C   UNL A   1      44.655  28.009  31.706  1.00  0.00     0.029 A 
ATOM     62  C   UNL A   1      43.746  27.180  32.338  1.00  0.00     0.049 A 
ATOM     63  H   UNL A   1      42.841  25.417  31.623  1.00  0.00     0.167 HD
ATOM     64  C   UNL A   1      42.371  28.079  34.099  1.00  0.00     0.074 A 
ATOM     65  C   UNL A   1      41.858  28.493  35.394  1.00  0.00     0.031 C 
ATOM     66  C   UNL A   1      43.248  27.104  33.707  1.00  0.00     0.031 A 
BRANCH  53  67
ATOM     67  C   UNL A   1      44.171  25.127  27.918  1.00  0.00    -0.014 A 
ATOM     68  C   UNL A   1      44.197  25.636  26.605  1.00  0.00     0.010 A 
ATOM     69  C   UNL A   1      44.805  23.884  28.116  1.00  0.00     0.010 A 
ATOM     70  C   UNL A   1      44.718  24.895  25.532  1.00  0.00     0.020 A 
ATOM     71  C   UNL A   1      45.284  23.109  27.049  1.00  0.00     0.020 A 
ATOM     72  C   UNL A   1      45.229  23.618  25.756  1.00  0.00     0.054 A 
BRANCH  72  73
ATOM     73  S   UNL A   1      45.808  22.634  24.348  1.00  0.00     0.124 S 
ATOM     74  O   UNL A   1      46.360  21.447  24.995  1.00  0.00    -0.237 OA
ATOM     75  O   UNL A   1      44.579  22.424  23.589  1.00  0.00    -0.237 OA
ATOM     76  O   UNL A   1      46.796  23.499  23.705  1.00  0.00    -0.744 OA
ENDBRANCH  72  73
ENDBRANCH  53  67
BRANCH  54  77
ATOM     77  C   UNL A   1      38.879  31.360  33.400  1.00  0.00    -0.014 A 
ATOM     78  C   UNL A   1      38.629  32.605  34.019  1.00  0.00     0.010 A 
ATOM     79  C   UNL A   1      37.821  30.734  32.722  1.00  0.00     0.010 A 
ATOM     80  C   UNL A   1      37.407  33.270  33.851  1.00  0.00     0.020 A 
ATOM     81  C   UNL A   1      36.590  31.399  32.551  1.00  0.00     0.020 A 
ATOM     82  C   UNL A   1      36.412  32.686  33.070  1.00  0.00     0.054 A 
BRANCH  82  83
ATOM     83  S   UNL A   1      34.899  33.639  32.716  1.00  0.00     0.124 S 
ATOM     84  O   UNL A   1      35.374  34.667  31.794  1.00  0.00    -0.237 OA
ATOM     85  O   UNL A   1      34.028  32.628  32.117  1.00  0.00    -0.237 OA
ATOM     86  O   UNL A   1      34.492  34.119  34.031  1.00  0.00    -0.744 OA
ENDBRANCH  82  83
ENDBRANCH  54  77
BRANCH  66  87
ATOM     87  C   UNL A   1      43.811  25.999  34.577  1.00  0.00    -0.014 A 
ATOM     88  C   UNL A   1      43.210  24.745  34.751  1.00  0.00     0.010 A 
ATOM     89  C   UNL A   1      45.107  26.171  35.130  1.00  0.00     0.010 A 
ATOM     90  C   UNL A   1      43.855  23.725  35.469  1.00  0.00     0.020 A 
ATOM     91  C   UNL A   1      45.778  25.148  35.803  1.00  0.00     0.020 A 
ATOM     92  C   UNL A   1      45.137  23.930  35.985  1.00  0.00     0.054 A 
BRANCH  92  93
ATOM     93  S   UNL A   1      46.005  22.577  36.817  1.00  0.00     0.124 S 
ATOM     94  O   UNL A   1      45.354  21.403  36.244  1.00  0.00    -0.237 OA
ATOM     95  O   UNL A   1      47.395  22.783  36.415  1.00  0.00    -0.237 OA
ATOM     96  O   UNL A   1      45.735  22.817  38.233  1.00  0.00    -0.744 OA
ENDBRANCH  92  93
ENDBRANCH  66  87
ENDBRANCH  40  41
ENDBRANCH  32  35
ENDBRANCH  30  31
ENDBRANCH  29  30
ENDBRANCH   1  29
TORSDOF 18
ENDMDL
MODEL 3
REMARK VINA RESULT:     -12.7      1.398      2.024
REMARK SMILES Cc1ccc(-c2nc(C)cc(N3CCCC[C@H]3C(=O)NCCCCCCNC(=O)c3ccc(-c4c5nc(c(-c6ccc(S(=O)(=O)[O-])cc6)c6ccc([nH]6)c(-c6ccc(S(=O)(=O)[O-])cc6)c6nc(c(-c7ccc(S(=O)(=O)[O-])cc7)c7ccc4[nH]7)C=C6)C=C5)cc3)n2)cc1
REMARK SMILES IDX 24 1 23 2 22 3 21 4 20 5 18 6 19 7 17 9 12 10 13 11 14 12
REMARK SMILES IDX 16 13 15 14 11 15 6 16 7 17 90 18 8 19 9 20 10 21 5 22 1 23
REMARK SMILES IDX 2 24 3 25 92 26 4 27 91 28 25 29 26 30 27 31 28 32 29 34
REMARK SMILES IDX 30 35 31 36 89 37 32 38 88 39 33 40 34 41 35 42 82 43 36 44
REMARK SMILES IDX 87 45 81 46 83 47 37 48 86 49 80 50 79 51 38 53 68 54 49 55
REMARK SMILES IDX 67 56 50 57 53 58 66 59 84 60 51 61 52 62 65 64 85 65 54 66
REMARK SMILES IDX 39 67 40 68 48 69 41 70 47 71 42 72 43 73 44 74 45 75 46 76
REMARK SMILES IDX 69 77 70 78 78 79 71 80 77 81 72 82 73 83 74 84 75 85 76 86
REMARK SMILES IDX 55 87 56 88 64 89 57 90 63 91 58 92 59 93 60 94 61 95 62 96
REMARK H PARENT 20 8 27 33 83 52 53 63
REMARK Flexibility Score: inf
ROOT
ATOM      1  C   UNL A   1      33.257  31.238  27.515  1.00  0.00     0.002 C 
ENDROOT
BRANCH   1   2
ATOM      2  C   UNL A   1      32.109  30.263  27.210  1.00  0.00     0.002 C 
BRANCH   2   3
ATOM      3  C   UNL A   1      32.467  28.774  27.134  1.00  0.00     0.021 C 
BRANCH   3   4
ATOM      4  C   UNL A   1      31.568  27.922  26.236  1.00  0.00     0.116 C 
BRANCH   4   5
ATOM      5  N   UNL A   1      31.346  26.594  26.770  1.00  0.00    -0.354 N 
ATOM      6  C   UNL A   1      31.786  25.356  26.447  1.00  0.00     0.242 C 
ATOM      7  O   UNL A   1      31.473  24.472  27.265  1.00  0.00    -0.273 OA
ATOM      8  H   UNL A   1      30.736  26.593  27.543  1.00  0.00     0.163 HD
BRANCH   6   9
ATOM      9  C   UNL A   1      32.627  24.948  25.197  1.00  0.00     0.173 C 
ATOM     10  N   UNL A   1      32.279  23.558  24.824  1.00  0.00    -0.344 N 
ATOM     11  C   UNL A   1      31.097  23.356  23.994  1.00  0.00     0.119 C 
ATOM     12  C   UNL A   1      31.190  24.159  22.703  1.00  0.00     0.022 C 
ATOM     13  C   UNL A   1      32.707  25.779  23.910  1.00  0.00     0.035 C 
ATOM     14  C   UNL A   1      31.488  25.626  22.997  1.00  0.00     0.004 C 
BRANCH  10  15
ATOM     15  C   UNL A   1      33.319  22.650  24.717  1.00  0.00     0.133 A 
ATOM     16  C   UNL A   1      34.115  20.504  24.797  1.00  0.00     0.161 A 
ATOM     17  N   UNL A   1      35.393  20.867  24.585  1.00  0.00    -0.233 NA
ATOM     18  N   UNL A   1      33.068  21.343  24.878  1.00  0.00    -0.211 NA
ATOM     19  C   UNL A   1      35.615  22.184  24.413  1.00  0.00     0.043 A 
ATOM     20  C   UNL A   1      37.034  22.606  24.191  1.00  0.00     0.067 C 
ATOM     21  C   UNL A   1      34.597  23.113  24.460  1.00  0.00     0.070 A 
BRANCH  16  22
ATOM     22  C   UNL A   1      33.837  19.073  24.927  1.00  0.00     0.019 A 
ATOM     23  C   UNL A   1      33.010  14.841  25.322  1.00  0.00     0.044 C 
ATOM     24  C   UNL A   1      33.310  16.305  25.192  1.00  0.00    -0.051 A 
ATOM     25  C   UNL A   1      32.380  17.251  25.634  1.00  0.00     0.004 A 
ATOM     26  C   UNL A   1      34.502  16.746  24.607  1.00  0.00     0.004 A 
ATOM     27  C   UNL A   1      32.646  18.618  25.513  1.00  0.00     0.012 A 
ATOM     28  C   UNL A   1      34.757  18.115  24.470  1.00  0.00     0.012 A 
ENDBRANCH  16  22
ENDBRANCH  10  15
ENDBRANCH   6   9
ENDBRANCH   4   5
ENDBRANCH   3   4
ENDBRANCH   2   3
ENDBRANCH   1   2
BRANCH   1  29
ATOM     29  C   UNL A   1      34.664  30.639  27.567  1.00  0.00     0.021 C 
BRANCH  29  30
ATOM     30  C   UNL A   1      35.636  31.412  28.449  1.00  0.00     0.116 C 
BRANCH  30  31
ATOM     31  N   UNL A   1      35.751  30.847  29.795  1.00  0.00    -0.352 N 
ATOM     32  C   UNL A   1      36.595  29.849  30.240  1.00  0.00     0.251 C 
ATOM     33  H   UNL A   1      35.147  31.230  30.472  1.00  0.00     0.163 HD
ATOM     34  O   UNL A   1      36.541  29.354  31.362  1.00  0.00    -0.269 OA
BRANCH  32  35
ATOM     35  C   UNL A   1      37.707  29.492  29.347  1.00  0.00     0.039 A 
ATOM     36  C   UNL A   1      37.825  28.135  29.022  1.00  0.00     0.014 A 
ATOM     37  C   UNL A   1      38.775  30.376  29.217  1.00  0.00     0.014 A 
ATOM     38  C   UNL A   1      39.088  27.614  28.798  1.00  0.00     0.010 A 
ATOM     39  C   UNL A   1      40.038  29.840  29.098  1.00  0.00     0.010 A 
ATOM     40  C   UNL A   1      40.189  28.456  28.962  1.00  0.00    -0.014 A 
BRANCH  40  41
ATOM     41  C   UNL A   1      41.546  27.942  29.012  1.00  0.00     0.031 A 
ATOM     42  C   UNL A   1      41.749  26.542  28.579  1.00  0.00     0.074 A 
ATOM     43  C   UNL A   1      42.556  28.711  29.484  1.00  0.00     0.049 A 
ATOM     44  N   UNL A   1      42.659  25.755  29.035  1.00  0.00    -0.248 NA
ATOM     45  C   UNL A   1      40.852  25.894  27.621  1.00  0.00     0.031 C 
ATOM     46  C   UNL A   1      43.972  28.350  29.536  1.00  0.00     0.029 A 
ATOM     47  N   UNL A   1      42.503  29.902  30.218  1.00  0.00    -0.354 N 
ATOM     48  C   UNL A   1      42.649  24.621  28.252  1.00  0.00     0.074 A 
ATOM     49  C   UNL A   1      41.454  24.716  27.451  1.00  0.00     0.031 C 
ATOM     50  C   UNL A   1      44.551  29.061  30.519  1.00  0.00     0.029 A 
ATOM     51  C   UNL A   1      43.490  29.782  31.207  1.00  0.00     0.049 A 
ATOM     52  H   UNL A   1      41.899  30.665  30.072  1.00  0.00     0.167 HD
ATOM     53  C   UNL A   1      43.732  23.795  28.250  1.00  0.00     0.031 A 
ATOM     54  C   UNL A   1      43.223  29.677  32.543  1.00  0.00     0.031 A 
ATOM     55  C   UNL A   1      44.719  24.227  29.235  1.00  0.00     0.049 A 
ATOM     56  C   UNL A   1      43.749  28.375  33.143  1.00  0.00     0.074 A 
ATOM     57  C   UNL A   1      45.850  25.022  29.140  1.00  0.00     0.029 A 
ATOM     58  N   UNL A   1      44.390  24.169  30.586  1.00  0.00    -0.354 N 
ATOM     59  N   UNL A   1      44.046  27.315  32.433  1.00  0.00    -0.248 NA
ATOM     60  C   UNL A   1      43.992  28.158  34.568  1.00  0.00     0.031 C 
ATOM     61  C   UNL A   1      46.120  25.549  30.434  1.00  0.00     0.029 A 
ATOM     62  C   UNL A   1      45.187  25.033  31.316  1.00  0.00     0.049 A 
ATOM     63  H   UNL A   1      43.689  23.593  30.969  1.00  0.00     0.167 HD
ATOM     64  C   UNL A   1      44.559  26.334  33.244  1.00  0.00     0.074 A 
ATOM     65  C   UNL A   1      44.493  26.908  34.577  1.00  0.00     0.031 C 
ATOM     66  C   UNL A   1      45.017  25.137  32.762  1.00  0.00     0.031 A 
BRANCH  53  67
ATOM     67  C   UNL A   1      43.999  22.844  27.106  1.00  0.00    -0.014 A 
ATOM     68  C   UNL A   1      43.074  21.821  26.819  1.00  0.00     0.010 A 
ATOM     69  C   UNL A   1      45.183  22.845  26.342  1.00  0.00     0.010 A 
ATOM     70  C   UNL A   1      43.365  20.792  25.909  1.00  0.00     0.020 A 
ATOM     71  C   UNL A   1      45.511  21.798  25.468  1.00  0.00     0.020 A 
ATOM     72  C   UNL A   1      44.600  20.768  25.264  1.00  0.00     0.054 A 
BRANCH  72  73
ATOM     73  S   UNL A   1      45.001  19.382  24.167  1.00  0.00     0.124 S 
ATOM     74  O   UNL A   1      44.508  19.845  22.874  1.00  0.00    -0.237 OA
ATOM     75  O   UNL A   1      46.453  19.295  24.294  1.00  0.00    -0.237 OA
ATOM     76  O   UNL A   1      44.259  18.260  24.741  1.00  0.00    -0.744 OA
ENDBRANCH  72  73
ENDBRANCH  53  67
BRANCH  54  77
ATOM     77  C   UNL A   1      42.052  30.469  33.021  1.00  0.00    -0.014 A 
ATOM     78  C   UNL A   1      42.146  31.877  32.956  1.00  0.00     0.010 A 
ATOM     79  C   UNL A   1      40.780  29.898  33.190  1.00  0.00     0.010 A 
ATOM     80  C   UNL A   1      41.000  32.683  32.923  1.00  0.00     0.020 A 
ATOM     81  C   UNL A   1      39.625  30.706  33.158  1.00  0.00     0.020 A 
ATOM     82  C   UNL A   1      39.742  32.087  32.968  1.00  0.00     0.054 A 
BRANCH  82  83
ATOM     83  S   UNL A   1      38.264  33.130  32.747  1.00  0.00     0.124 S 
ATOM     84  O   UNL A   1      37.369  32.648  33.795  1.00  0.00    -0.237 OA
ATOM     85  O   UNL A   1      38.798  34.475  32.962  1.00  0.00    -0.237 OA
ATOM     86  O   UNL A   1      37.846  32.832  31.382  1.00  0.00    -0.744 OA
ENDBRANCH  82  83
ENDBRANCH  54  77
BRANCH  66  87
ATOM     87  C   UNL A   1      45.435  23.936  33.585  1.00  0.00    -0.014 A 
ATOM     88  C   UNL A   1      46.648  23.839  34.282  1.00  0.00     0.010 A 
ATOM     89  C   UNL A   1      44.485  22.905  33.805  1.00  0.00     0.010 A 
ATOM     90  C   UNL A   1      46.912  22.750  35.129  1.00  0.00     0.020 A 
ATOM     91  C   UNL A   1      44.718  21.844  34.682  1.00  0.00     0.020 A 
ATOM     92  C   UNL A   1      45.943  21.763  35.328  1.00  0.00     0.054 A 
BRANCH  92  93
ATOM     93  S   UNL A   1      46.249  20.420  36.503  1.00  0.00     0.124 S 
ATOM     94  O   UNL A   1      45.386  19.363  35.983  1.00  0.00    -0.237 OA
ATOM     95  O   UNL A   1      47.685  20.183  36.363  1.00  0.00    -0.237 OA
ATOM     96  O   UNL A   1      45.843  20.989  37.786  1.00  0.00    -0.744 OA
ENDBRANCH  92  93
ENDBRANCH  66  87
ENDBRANCH  40  41
ENDBRANCH  32  35
ENDBRANCH  30  31
ENDBRANCH  29  30
ENDBRANCH   1  29
TORSDOF 18
ENDMDL
