MODEL 1
REMARK VINA RESULT:     -10.5      0.000      0.000
REMARK SMILES CCn1cc(Br)c(C(=O)NCCCCCCNC(=O)c2ccc(-c3c4nc(c(-c5ccc(S(=O)(=O)[O-])cc5)c5ccc([nH]5)c(-c5ccc(S(=O)(=O)[O-])cc5)c5nc(c(-c6ccc(S(=O)(=O)[O-])cc6)c6ccc3[nH]6)C=C5)C=C4)cc2)n1
REMARK SMILES IDX 14 1 13 2 12 3 11 4 10 5 8 6 9 7 7 9 3 10 4 11 80 12 5 13
REMARK SMILES IDX 6 14 2 15 1 16 15 17 16 18 17 19 18 20 19 22 20 23 21 24
REMARK SMILES IDX 79 25 22 26 78 27 23 28 24 29 25 30 72 31 26 32 77 33 71 34
REMARK SMILES IDX 73 35 27 36 76 37 70 38 69 39 28 41 58 42 39 43 57 44 40 45
REMARK SMILES IDX 43 46 56 47 74 48 41 49 42 50 55 52 75 53 44 54 29 55 30 56
REMARK SMILES IDX 38 57 31 58 37 59 32 60 33 61 34 62 35 63 36 64 59 65 60 66
REMARK SMILES IDX 68 67 61 68 67 69 62 70 63 71 64 72 65 73 66 74 45 75 46 76
REMARK SMILES IDX 54 77 47 78 53 79 48 80 49 81 50 82 51 83 52 84
REMARK H PARENT 10 8 17 21 73 40 43 51
REMARK Flexibility Score: inf
ROOT
ATOM      1  C   UNL A   1      39.003  23.779  26.838  1.00  0.00     0.002 C 
ENDROOT
BRANCH   1   2
ATOM      2  C   UNL A   1      37.728  24.256  26.126  1.00  0.00     0.002 C 
BRANCH   2   3
ATOM      3  C   UNL A   1      36.557  23.271  26.102  1.00  0.00     0.021 C 
BRANCH   3   4
ATOM      4  C   UNL A   1      35.197  23.883  25.769  1.00  0.00     0.116 C 
BRANCH   4   5
ATOM      5  N   UNL A   1      34.189  23.553  26.760  1.00  0.00    -0.351 N 
ATOM      6  C   UNL A   1      33.216  22.576  26.791  1.00  0.00     0.272 C 
ATOM      7  O   UNL A   1      32.503  22.561  27.798  1.00  0.00    -0.267 OA
ATOM      8  H   UNL A   1      34.204  24.131  27.556  1.00  0.00     0.163 HD
BRANCH   6   9
ATOM      9  C   UNL A   1      33.048  21.599  25.695  1.00  0.00     0.164 A 
ATOM     10  N   UNL A   1      33.243  19.801  24.549  1.00  0.00    -0.271 N 
ATOM     11  C   UNL A   1      32.456  20.594  23.776  1.00  0.00     0.125 A 
ATOM     12  N   UNL A   1      33.548  20.347  25.736  1.00  0.00    -0.166 NA
ATOM     13  C   UNL A   1      32.326  21.764  24.480  1.00  0.00     0.069 A 
ATOM     14  Br  UNL A   1      31.370  23.270  23.905  1.00  0.00    -0.047 Br
BRANCH  10  15
ATOM     15  C   UNL A   1      33.695  18.454  24.252  1.00  0.00     0.141 C 
ATOM     16  C   UNL A   1      32.788  17.723  23.278  1.00  0.00     0.029 C 
ENDBRANCH  10  15
ENDBRANCH   6   9
ENDBRANCH   4   5
ENDBRANCH   3   4
ENDBRANCH   2   3
ENDBRANCH   1   2
BRANCH   1  17
ATOM     17  C   UNL A   1      39.455  22.338  26.562  1.00  0.00     0.021 C 
BRANCH  17  18
ATOM     18  C   UNL A   1      40.783  21.964  27.199  1.00  0.00     0.116 C 
BRANCH  18  19
ATOM     19  N   UNL A   1      41.877  21.894  26.228  1.00  0.00    -0.352 N 
ATOM     20  C   UNL A   1      42.537  22.944  25.611  1.00  0.00     0.251 C 
ATOM     21  H   UNL A   1      42.181  20.990  25.984  1.00  0.00     0.163 HD
ATOM     22  O   UNL A   1      43.147  22.782  24.568  1.00  0.00    -0.269 OA
BRANCH  20  23
ATOM     23  C   UNL A   1      42.489  24.267  26.261  1.00  0.00     0.039 A 
ATOM     24  C   UNL A   1      41.797  25.344  25.703  1.00  0.00     0.014 A 
ATOM     25  C   UNL A   1      43.129  24.387  27.489  1.00  0.00     0.014 A 
ATOM     26  C   UNL A   1      41.690  26.524  26.437  1.00  0.00     0.010 A 
ATOM     27  C   UNL A   1      42.866  25.469  28.282  1.00  0.00     0.010 A 
ATOM     28  C   UNL A   1      42.216  26.570  27.738  1.00  0.00    -0.014 A 
BRANCH  28  29
ATOM     29  C   UNL A   1      42.043  27.738  28.591  1.00  0.00     0.031 A 
ATOM     30  C   UNL A   1      43.102  28.776  28.474  1.00  0.00     0.074 A 
ATOM     31  C   UNL A   1      40.880  27.983  29.235  1.00  0.00     0.049 A 
ATOM     32  N   UNL A   1      43.951  29.139  29.376  1.00  0.00    -0.248 NA
ATOM     33  C   UNL A   1      43.323  29.405  27.161  1.00  0.00     0.031 C 
ATOM     34  C   UNL A   1      39.620  27.231  29.166  1.00  0.00     0.029 A 
ATOM     35  N   UNL A   1      40.532  29.066  29.973  1.00  0.00    -0.354 N 
ATOM     36  C   UNL A   1      44.680  30.187  28.821  1.00  0.00     0.074 A 
ATOM     37  C   UNL A   1      44.380  30.181  27.411  1.00  0.00     0.031 C 
ATOM     38  C   UNL A   1      38.605  28.018  29.585  1.00  0.00     0.029 A 
ATOM     39  C   UNL A   1      39.162  29.247  30.116  1.00  0.00     0.049 A 
ATOM     40  H   UNL A   1      41.196  29.674  30.374  1.00  0.00     0.167 HD
ATOM     41  C   UNL A   1      45.293  31.126  29.597  1.00  0.00     0.031 A 
ATOM     42  C   UNL A   1      38.535  30.358  30.579  1.00  0.00     0.031 A 
ATOM     43  C   UNL A   1      45.326  30.736  30.983  1.00  0.00     0.049 A 
ATOM     44  C   UNL A   1      39.548  31.123  31.356  1.00  0.00     0.074 A 
ATOM     45  C   UNL A   1      45.830  29.643  31.663  1.00  0.00     0.029 A 
ATOM     46  N   UNL A   1      44.395  31.304  31.823  1.00  0.00    -0.354 N 
ATOM     47  N   UNL A   1      40.096  30.671  32.452  1.00  0.00    -0.248 NA
ATOM     48  C   UNL A   1      40.313  32.146  30.658  1.00  0.00     0.031 C 
ATOM     49  C   UNL A   1      44.817  29.314  32.612  1.00  0.00     0.029 A 
ATOM     50  C   UNL A   1      43.809  30.277  32.520  1.00  0.00     0.049 A 
ATOM     51  H   UNL A   1      44.188  32.264  31.906  1.00  0.00     0.167 HD
ATOM     52  C   UNL A   1      41.438  31.012  32.349  1.00  0.00     0.074 A 
ATOM     53  C   UNL A   1      41.494  31.998  31.267  1.00  0.00     0.031 C 
ATOM     54  C   UNL A   1      42.421  30.262  32.937  1.00  0.00     0.031 A 
BRANCH  41  55
ATOM     55  C   UNL A   1      45.528  32.552  29.169  1.00  0.00    -0.014 A 
ATOM     56  C   UNL A   1      44.421  33.362  28.840  1.00  0.00     0.010 A 
ATOM     57  C   UNL A   1      46.805  33.044  28.828  1.00  0.00     0.010 A 
ATOM     58  C   UNL A   1      44.586  34.576  28.158  1.00  0.00     0.020 A 
ATOM     59  C   UNL A   1      46.982  34.273  28.191  1.00  0.00     0.020 A 
ATOM     60  C   UNL A   1      45.868  35.018  27.831  1.00  0.00     0.054 A 
BRANCH  60  61
ATOM     61  S   UNL A   1      46.066  36.540  26.873  1.00  0.00     0.124 S 
ATOM     62  O   UNL A   1      44.706  37.070  26.866  1.00  0.00    -0.237 OA
ATOM     63  O   UNL A   1      47.035  37.285  27.672  1.00  0.00    -0.237 OA
ATOM     64  O   UNL A   1      46.562  36.068  25.582  1.00  0.00    -0.744 OA
ENDBRANCH  60  61
ENDBRANCH  41  55
BRANCH  42  65
ATOM     65  C   UNL A   1      37.255  30.937  30.087  1.00  0.00    -0.014 A 
ATOM     66  C   UNL A   1      36.263  31.385  30.979  1.00  0.00     0.010 A 
ATOM     67  C   UNL A   1      37.112  31.292  28.729  1.00  0.00     0.010 A 
ATOM     68  C   UNL A   1      35.210  32.210  30.539  1.00  0.00     0.020 A 
ATOM     69  C   UNL A   1      36.062  32.104  28.280  1.00  0.00     0.020 A 
ATOM     70  C   UNL A   1      35.129  32.583  29.194  1.00  0.00     0.054 A 
BRANCH  70  71
ATOM     71  S   UNL A   1      33.887  33.802  28.665  1.00  0.00     0.124 S 
ATOM     72  O   UNL A   1      33.036  33.016  27.778  1.00  0.00    -0.237 OA
ATOM     73  O   UNL A   1      33.281  34.207  29.930  1.00  0.00    -0.237 OA
ATOM     74  O   UNL A   1      34.682  34.838  28.007  1.00  0.00    -0.744 OA
ENDBRANCH  70  71
ENDBRANCH  42  65
BRANCH  54  75
ATOM     75  C   UNL A   1      42.034  29.166  33.909  1.00  0.00    -0.014 A 
ATOM     76  C   UNL A   1      41.778  27.832  33.533  1.00  0.00     0.010 A 
ATOM     77  C   UNL A   1      42.118  29.462  35.282  1.00  0.00     0.010 A 
ATOM     78  C   UNL A   1      41.589  26.833  34.502  1.00  0.00     0.020 A 
ATOM     79  C   UNL A   1      41.950  28.470  36.251  1.00  0.00     0.020 A 
ATOM     80  C   UNL A   1      41.678  27.160  35.858  1.00  0.00     0.054 A 
BRANCH  80  81
ATOM     81  S   UNL A   1      41.479  25.860  37.111  1.00  0.00     0.124 S 
ATOM     82  O   UNL A   1      42.643  26.067  37.968  1.00  0.00    -0.237 OA
ATOM     83  O   UNL A   1      40.188  26.183  37.714  1.00  0.00    -0.237 OA
ATOM     84  O   UNL A   1      41.497  24.622  36.334  1.00  0.00    -0.744 OA
ENDBRANCH  80  81
ENDBRANCH  54  75
ENDBRANCH  28  29
ENDBRANCH  20  23
ENDBRANCH  18  19
ENDBRANCH  17  18
ENDBRANCH   1  17
TORSDOF 17
ENDMDL
MODEL 2
REMARK VINA RESULT:     -10.5      2.941      3.841
REMARK SMILES CCn1cc(Br)c(C(=O)NCCCCCCNC(=O)c2ccc(-c3c4nc(c(-c5ccc(S(=O)(=O)[O-])cc5)c5ccc([nH]5)c(-c5ccc(S(=O)(=O)[O-])cc5)c5nc(c(-c6ccc(S(=O)(=O)[O-])cc6)c6ccc3[nH]6)C=C5)C=C4)cc2)n1
REMARK SMILES IDX 14 1 13 2 12 3 11 4 10 5 8 6 9 7 7 9 3 10 4 11 80 12 5 13
REMARK SMILES IDX 6 14 2 15 1 16 15 17 16 18 17 19 18 20 19 22 20 23 21 24
REMARK SMILES IDX 79 25 22 26 78 27 23 28 24 29 25 30 72 31 26 32 77 33 71 34
REMARK SMILES IDX 73 35 27 36 76 37 70 38 69 39 28 41 58 42 39 43 57 44 40 45
REMARK SMILES IDX 43 46 56 47 74 48 41 49 42 50 55 52 75 53 44 54 29 55 30 56
REMARK SMILES IDX 38 57 31 58 37 59 32 60 33 61 34 62 35 63 36 64 59 65 60 66
REMARK SMILES IDX 68 67 61 68 67 69 62 70 63 71 64 72 65 73 66 74 45 75 46 76
REMARK SMILES IDX 54 77 47 78 53 79 48 80 49 81 50 82 51 83 52 84
REMARK H PARENT 10 8 17 21 73 40 43 51
REMARK Flexibility Score: inf
ROOT
ATOM      1  C   UNL A   1      35.130  23.920  26.132  1.00  0.00     0.002 C 
ENDROOT
BRANCH   1   2
ATOM      2  C   UNL A   1      34.027  24.704  25.405  1.00  0.00     0.002 C 
BRANCH   2   3
ATOM      3  C   UNL A   1      33.951  26.203  25.703  1.00  0.00     0.021 C 
BRANCH   3   4
ATOM      4  C   UNL A   1      33.660  27.094  24.497  1.00  0.00     0.116 C 
BRANCH   4   5
ATOM      5  N   UNL A   1      33.411  26.323  23.292  1.00  0.00    -0.351 N 
ATOM      6  C   UNL A   1      32.290  26.195  22.498  1.00  0.00     0.272 C 
ATOM      7  O   UNL A   1      32.406  25.444  21.526  1.00  0.00    -0.267 OA
ATOM      8  H   UNL A   1      34.183  25.795  22.987  1.00  0.00     0.163 HD
BRANCH   6   9
ATOM      9  C   UNL A   1      31.037  26.923  22.785  1.00  0.00     0.164 A 
ATOM     10  N   UNL A   1      29.466  28.371  22.634  1.00  0.00    -0.271 N 
ATOM     11  C   UNL A   1      29.102  27.606  23.697  1.00  0.00     0.125 A 
ATOM     12  N   UNL A   1      30.579  27.938  22.023  1.00  0.00    -0.166 NA
ATOM     13  C   UNL A   1      30.102  26.675  23.828  1.00  0.00     0.069 A 
ATOM     14  Br  UNL A   1      30.177  25.352  25.152  1.00  0.00    -0.047 Br
BRANCH  10  15
ATOM     15  C   UNL A   1      28.753  29.508  22.085  1.00  0.00     0.141 C 
ATOM     16  C   UNL A   1      27.927  30.250  23.120  1.00  0.00     0.029 C 
ENDBRANCH  10  15
ENDBRANCH   6   9
ENDBRANCH   4   5
ENDBRANCH   3   4
ENDBRANCH   2   3
ENDBRANCH   1   2
BRANCH   1  17
ATOM     17  C   UNL A   1      35.905  22.883  25.306  1.00  0.00     0.021 C 
BRANCH  17  18
ATOM     18  C   UNL A   1      37.402  23.131  25.233  1.00  0.00     0.116 C 
BRANCH  18  19
ATOM     19  N   UNL A   1      38.180  22.114  25.943  1.00  0.00    -0.352 N 
ATOM     20  C   UNL A   1      39.379  22.276  26.618  1.00  0.00     0.251 C 
ATOM     21  H   UNL A   1      37.805  21.203  25.940  1.00  0.00     0.163 HD
ATOM     22  O   UNL A   1      40.114  21.329  26.837  1.00  0.00    -0.269 OA
BRANCH  20  23
ATOM     23  C   UNL A   1      39.736  23.632  27.076  1.00  0.00     0.039 A 
ATOM     24  C   UNL A   1      38.831  24.695  27.026  1.00  0.00     0.014 A 
ATOM     25  C   UNL A   1      41.009  23.800  27.608  1.00  0.00     0.014 A 
ATOM     26  C   UNL A   1      39.199  25.913  27.594  1.00  0.00     0.010 A 
ATOM     27  C   UNL A   1      41.294  24.928  28.326  1.00  0.00     0.010 A 
ATOM     28  C   UNL A   1      40.431  26.014  28.259  1.00  0.00    -0.014 A 
BRANCH  28  29
ATOM     29  C   UNL A   1      40.823  27.228  28.961  1.00  0.00     0.031 A 
ATOM     30  C   UNL A   1      41.928  28.000  28.332  1.00  0.00     0.074 A 
ATOM     31  C   UNL A   1      40.067  27.754  29.951  1.00  0.00     0.049 A 
ATOM     32  N   UNL A   1      43.112  28.207  28.805  1.00  0.00    -0.248 NA
ATOM     33  C   UNL A   1      41.739  28.505  26.962  1.00  0.00     0.031 C 
ATOM     34  C   UNL A   1      38.761  27.297  30.446  1.00  0.00     0.029 A 
ATOM     35  N   UNL A   1      40.241  28.920  30.622  1.00  0.00    -0.354 N 
ATOM     36  C   UNL A   1      43.752  29.041  27.894  1.00  0.00     0.074 A 
ATOM     37  C   UNL A   1      42.935  29.038  26.705  1.00  0.00     0.031 C 
ATOM     38  C   UNL A   1      38.154  28.307  31.106  1.00  0.00     0.029 A 
ATOM     39  C   UNL A   1      39.093  29.406  31.235  1.00  0.00     0.049 A 
ATOM     40  H   UNL A   1      41.109  29.383  30.671  1.00  0.00     0.167 HD
ATOM     41  C   UNL A   1      44.781  29.855  28.264  1.00  0.00     0.031 A 
ATOM     42  C   UNL A   1      38.914  30.648  31.752  1.00  0.00     0.031 A 
ATOM     43  C   UNL A   1      45.274  29.530  29.578  1.00  0.00     0.049 A 
ATOM     44  C   UNL A   1      40.272  31.204  31.999  1.00  0.00     0.074 A 
ATOM     45  C   UNL A   1      45.787  28.385  30.157  1.00  0.00     0.029 A 
ATOM     46  N   UNL A   1      44.863  30.328  30.623  1.00  0.00    -0.354 N 
ATOM     47  N   UNL A   1      41.105  30.691  32.864  1.00  0.00    -0.248 NA
ATOM     48  C   UNL A   1      40.885  31.999  30.945  1.00  0.00     0.031 C 
ATOM     49  C   UNL A   1      45.177  28.332  31.446  1.00  0.00     0.029 A 
ATOM     50  C   UNL A   1      44.412  29.489  31.611  1.00  0.00     0.049 A 
ATOM     51  H   UNL A   1      44.888  31.313  30.654  1.00  0.00     0.167 HD
ATOM     52  C   UNL A   1      42.342  30.722  32.232  1.00  0.00     0.074 A 
ATOM     53  C   UNL A   1      42.159  31.621  31.090  1.00  0.00     0.031 C 
ATOM     54  C   UNL A   1      43.316  29.800  32.507  1.00  0.00     0.031 A 
BRANCH  41  55
ATOM     55  C   UNL A   1      45.095  31.174  27.603  1.00  0.00    -0.014 A 
ATOM     56  C   UNL A   1      46.368  31.370  27.030  1.00  0.00     0.010 A 
ATOM     57  C   UNL A   1      44.278  32.313  27.755  1.00  0.00     0.010 A 
ATOM     58  C   UNL A   1      46.817  32.650  26.677  1.00  0.00     0.020 A 
ATOM     59  C   UNL A   1      44.698  33.585  27.363  1.00  0.00     0.020 A 
ATOM     60  C   UNL A   1      45.979  33.751  26.856  1.00  0.00     0.054 A 
BRANCH  60  61
ATOM     61  S   UNL A   1      46.599  35.410  26.482  1.00  0.00     0.124 S 
ATOM     62  O   UNL A   1      47.348  35.180  25.250  1.00  0.00    -0.237 OA
ATOM     63  O   UNL A   1      45.363  36.176  26.342  1.00  0.00    -0.237 OA
ATOM     64  O   UNL A   1      47.405  35.744  27.654  1.00  0.00    -0.744 OA
ENDBRANCH  60  61
ENDBRANCH  41  55
BRANCH  42  65
ATOM     65  C   UNL A   1      37.676  31.472  31.697  1.00  0.00    -0.014 A 
ATOM     66  C   UNL A   1      36.679  31.365  32.685  1.00  0.00     0.010 A 
ATOM     67  C   UNL A   1      37.589  32.564  30.806  1.00  0.00     0.010 A 
ATOM     68  C   UNL A   1      35.677  32.346  32.816  1.00  0.00     0.020 A 
ATOM     69  C   UNL A   1      36.589  33.539  30.922  1.00  0.00     0.020 A 
ATOM     70  C   UNL A   1      35.653  33.441  31.946  1.00  0.00     0.054 A 
BRANCH  70  71
ATOM     71  S   UNL A   1      34.483  34.802  32.236  1.00  0.00     0.124 S 
ATOM     72  O   UNL A   1      34.175  35.244  30.880  1.00  0.00    -0.237 OA
ATOM     73  O   UNL A   1      33.395  34.139  32.949  1.00  0.00    -0.237 OA
ATOM     74  O   UNL A   1      35.253  35.751  33.039  1.00  0.00    -0.744 OA
ENDBRANCH  70  71
ENDBRANCH  42  65
BRANCH  54  75
ATOM     75  C   UNL A   1      43.136  28.862  33.684  1.00  0.00    -0.014 A 
ATOM     76  C   UNL A   1      43.490  29.184  35.010  1.00  0.00     0.010 A 
ATOM     77  C   UNL A   1      42.407  27.680  33.461  1.00  0.00     0.010 A 
ATOM     78  C   UNL A   1      43.143  28.336  36.075  1.00  0.00     0.020 A 
ATOM     79  C   UNL A   1      42.041  26.842  34.517  1.00  0.00     0.020 A 
ATOM     80  C   UNL A   1      42.418  27.168  35.820  1.00  0.00     0.054 A 
BRANCH  80  81
ATOM     81  S   UNL A   1      41.930  26.094  37.201  1.00  0.00     0.124 S 
ATOM     82  O   UNL A   1      40.633  26.645  37.586  1.00  0.00    -0.237 OA
ATOM     83  O   UNL A   1      41.894  24.770  36.587  1.00  0.00    -0.237 OA
ATOM     84  O   UNL A   1      42.997  26.284  38.183  1.00  0.00    -0.744 OA
ENDBRANCH  80  81
ENDBRANCH  54  75
ENDBRANCH  28  29
ENDBRANCH  20  23
ENDBRANCH  18  19
ENDBRANCH  17  18
ENDBRANCH   1  17
TORSDOF 17
ENDMDL
MODEL 3
REMARK VINA RESULT:     -10.4      1.486      2.640
REMARK SMILES CCn1cc(Br)c(C(=O)NCCCCCCNC(=O)c2ccc(-c3c4nc(c(-c5ccc(S(=O)(=O)[O-])cc5)c5ccc([nH]5)c(-c5ccc(S(=O)(=O)[O-])cc5)c5nc(c(-c6ccc(S(=O)(=O)[O-])cc6)c6ccc3[nH]6)C=C5)C=C4)cc2)n1
REMARK SMILES IDX 14 1 13 2 12 3 11 4 10 5 8 6 9 7 7 9 3 10 4 11 80 12 5 13
REMARK SMILES IDX 6 14 2 15 1 16 15 17 16 18 17 19 18 20 19 22 20 23 21 24
REMARK SMILES IDX 79 25 22 26 78 27 23 28 24 29 25 30 72 31 26 32 77 33 71 34
REMARK SMILES IDX 73 35 27 36 76 37 70 38 69 39 28 41 58 42 39 43 57 44 40 45
REMARK SMILES IDX 43 46 56 47 74 48 41 49 42 50 55 52 75 53 44 54 29 55 30 56
REMARK SMILES IDX 38 57 31 58 37 59 32 60 33 61 34 62 35 63 36 64 59 65 60 66
REMARK SMILES IDX 68 67 61 68 67 69 62 70 63 71 64 72 65 73 66 74 45 75 46 76
REMARK SMILES IDX 54 77 47 78 53 79 48 80 49 81 50 82 51 83 52 84
REMARK H PARENT 10 8 17 21 73 40 43 51
REMARK Flexibility Score: inf
ROOT
ATOM      1  C   UNL A   1      36.945  22.863  25.632  1.00  0.00     0.002 C 
ENDROOT
BRANCH   1   2
ATOM      2  C   UNL A   1      35.797  22.485  24.682  1.00  0.00     0.002 C 
BRANCH   2   3
ATOM      3  C   UNL A   1      34.444  22.196  25.337  1.00  0.00     0.021 C 
BRANCH   3   4
ATOM      4  C   UNL A   1      34.076  23.109  26.505  1.00  0.00     0.116 C 
BRANCH   4   5
ATOM      5  N   UNL A   1      32.712  22.899  26.957  1.00  0.00    -0.351 N 
ATOM      6  C   UNL A   1      31.583  23.687  26.867  1.00  0.00     0.272 C 
ATOM      7  O   UNL A   1      30.557  23.210  27.362  1.00  0.00    -0.267 OA
ATOM      8  H   UNL A   1      32.567  22.038  27.409  1.00  0.00     0.163 HD
BRANCH   6   9
ATOM      9  C   UNL A   1      31.597  25.008  26.208  1.00  0.00     0.164 A 
ATOM     10  N   UNL A   1      31.671  27.133  25.951  1.00  0.00    -0.271 N 
ATOM     11  C   UNL A   1      31.538  26.657  24.685  1.00  0.00     0.125 A 
ATOM     12  N   UNL A   1      31.786  26.167  26.874  1.00  0.00    -0.166 NA
ATOM     13  C   UNL A   1      31.472  25.294  24.820  1.00  0.00     0.069 A 
ATOM     14  Br  UNL A   1      31.253  24.079  23.410  1.00  0.00    -0.047 Br
BRANCH  10  15
ATOM     15  C   UNL A   1      31.771  28.521  26.362  1.00  0.00     0.141 C 
ATOM     16  C   UNL A   1      33.130  28.873  26.942  1.00  0.00     0.029 C 
ENDBRANCH  10  15
ENDBRANCH   6   9
ENDBRANCH   4   5
ENDBRANCH   3   4
ENDBRANCH   2   3
ENDBRANCH   1   2
BRANCH   1  17
ATOM     17  C   UNL A   1      38.221  22.013  25.551  1.00  0.00     0.021 C 
BRANCH  17  18
ATOM     18  C   UNL A   1      39.325  22.447  26.501  1.00  0.00     0.116 C 
BRANCH  18  19
ATOM     19  N   UNL A   1      40.654  22.024  26.056  1.00  0.00    -0.352 N 
ATOM     20  C   UNL A   1      41.742  22.823  25.747  1.00  0.00     0.251 C 
ATOM     21  H   UNL A   1      40.791  21.054  25.967  1.00  0.00     0.163 HD
ATOM     22  O   UNL A   1      42.648  22.413  25.042  1.00  0.00    -0.269 OA
BRANCH  20  23
ATOM     23  C   UNL A   1      41.780  24.187  26.307  1.00  0.00     0.039 A 
ATOM     24  C   UNL A   1      41.014  25.229  25.777  1.00  0.00     0.014 A 
ATOM     25  C   UNL A   1      42.581  24.386  27.425  1.00  0.00     0.014 A 
ATOM     26  C   UNL A   1      41.005  26.456  26.438  1.00  0.00     0.010 A 
ATOM     27  C   UNL A   1      42.425  25.520  28.172  1.00  0.00     0.010 A 
ATOM     28  C   UNL A   1      41.703  26.586  27.648  1.00  0.00    -0.014 A 
BRANCH  28  29
ATOM     29  C   UNL A   1      41.645  27.809  28.437  1.00  0.00     0.031 A 
ATOM     30  C   UNL A   1      42.732  28.790  28.174  1.00  0.00     0.074 A 
ATOM     31  C   UNL A   1      40.548  28.144  29.151  1.00  0.00     0.049 A 
ATOM     32  N   UNL A   1      43.663  29.169  28.983  1.00  0.00    -0.248 NA
ATOM     33  C   UNL A   1      42.873  29.329  26.810  1.00  0.00     0.031 C 
ATOM     34  C   UNL A   1      39.257  27.446  29.227  1.00  0.00     0.029 A 
ATOM     35  N   UNL A   1      40.302  29.284  29.844  1.00  0.00    -0.354 N 
ATOM     36  C   UNL A   1      44.387  30.148  28.309  1.00  0.00     0.074 A 
ATOM     37  C   UNL A   1      43.976  30.071  26.929  1.00  0.00     0.031 C 
ATOM     38  C   UNL A   1      38.310  28.301  29.671  1.00  0.00     0.029 A 
ATOM     39  C   UNL A   1      38.956  29.534  30.080  1.00  0.00     0.049 A 
ATOM     40  H   UNL A   1      41.019  29.884  30.153  1.00  0.00     0.167 HD
ATOM     41  C   UNL A   1      45.096  31.104  28.974  1.00  0.00     0.031 A 
ATOM     42  C   UNL A   1      38.412  30.697  30.518  1.00  0.00     0.031 A 
ATOM     43  C   UNL A   1      45.224  30.796  30.376  1.00  0.00     0.049 A 
ATOM     44  C   UNL A   1      39.513  31.462  31.165  1.00  0.00     0.074 A 
ATOM     45  C   UNL A   1      45.736  29.725  31.083  1.00  0.00     0.029 A 
ATOM     46  N   UNL A   1      44.384  31.455  31.247  1.00  0.00    -0.354 N 
ATOM     47  N   UNL A   1      40.127  31.052  32.243  1.00  0.00    -0.248 NA
ATOM     48  C   UNL A   1      40.261  32.406  30.347  1.00  0.00     0.031 C 
ATOM     49  C   UNL A   1      44.789  29.499  32.126  1.00  0.00     0.029 A 
ATOM     50  C   UNL A   1      43.816  30.498  32.051  1.00  0.00     0.049 A 
ATOM     51  H   UNL A   1      44.223  32.426  31.285  1.00  0.00     0.167 HD
ATOM     52  C   UNL A   1      41.470  31.326  32.016  1.00  0.00     0.074 A 
ATOM     53  C   UNL A   1      41.479  32.242  30.872  1.00  0.00     0.031 C 
ATOM     54  C   UNL A   1      42.465  30.570  32.573  1.00  0.00     0.031 A 
BRANCH  41  55
ATOM     55  C   UNL A   1      45.352  32.490  28.440  1.00  0.00    -0.014 A 
ATOM     56  C   UNL A   1      46.681  32.950  28.330  1.00  0.00     0.010 A 
ATOM     57  C   UNL A   1      44.328  33.447  28.290  1.00  0.00     0.010 A 
ATOM     58  C   UNL A   1      46.966  34.308  28.132  1.00  0.00     0.020 A 
ATOM     59  C   UNL A   1      44.601  34.795  28.046  1.00  0.00     0.020 A 
ATOM     60  C   UNL A   1      45.921  35.222  28.000  1.00  0.00     0.054 A 
BRANCH  60  61
ATOM     61  S   UNL A   1      46.297  36.985  27.835  1.00  0.00     0.124 S 
ATOM     62  O   UNL A   1      47.694  36.955  27.412  1.00  0.00    -0.237 OA
ATOM     63  O   UNL A   1      45.335  37.413  26.823  1.00  0.00    -0.237 OA
ATOM     64  O   UNL A   1      46.058  37.512  29.177  1.00  0.00    -0.744 OA
ENDBRANCH  60  61
ENDBRANCH  41  55
BRANCH  42  65
ATOM     65  C   UNL A   1      37.121  31.301  30.090  1.00  0.00    -0.014 A 
ATOM     66  C   UNL A   1      36.155  31.708  31.030  1.00  0.00     0.010 A 
ATOM     67  C   UNL A   1      36.943  31.723  28.755  1.00  0.00     0.010 A 
ATOM     68  C   UNL A   1      35.093  32.555  30.659  1.00  0.00     0.020 A 
ATOM     69  C   UNL A   1      35.883  32.558  28.376  1.00  0.00     0.020 A 
ATOM     70  C   UNL A   1      34.977  32.994  29.336  1.00  0.00     0.054 A 
BRANCH  70  71
ATOM     71  S   UNL A   1      33.725  34.239  28.902  1.00  0.00     0.124 S 
ATOM     72  O   UNL A   1      33.159  34.579  30.203  1.00  0.00    -0.237 OA
ATOM     73  O   UNL A   1      34.524  35.283  28.266  1.00  0.00    -0.237 OA
ATOM     74  O   UNL A   1      32.825  33.522  28.001  1.00  0.00    -0.744 OA
ENDBRANCH  70  71
ENDBRANCH  42  65
BRANCH  54  75
ATOM     75  C   UNL A   1      42.113  29.553  33.639  1.00  0.00    -0.014 A 
ATOM     76  C   UNL A   1      41.571  28.280  33.367  1.00  0.00     0.010 A 
ATOM     77  C   UNL A   1      42.526  29.829  34.956  1.00  0.00     0.010 A 
ATOM     78  C   UNL A   1      41.425  27.326  34.387  1.00  0.00     0.020 A 
ATOM     79  C   UNL A   1      42.402  28.878  35.971  1.00  0.00     0.020 A 
ATOM     80  C   UNL A   1      41.844  27.631  35.685  1.00  0.00     0.054 A 
BRANCH  80  81
ATOM     81  S   UNL A   1      41.698  26.381  36.995  1.00  0.00     0.124 S 
ATOM     82  O   UNL A   1      41.756  25.129  36.244  1.00  0.00    -0.237 OA
ATOM     83  O   UNL A   1      42.854  26.661  37.842  1.00  0.00    -0.237 OA
ATOM     84  O   UNL A   1      40.404  26.672  37.611  1.00  0.00    -0.744 OA
ENDBRANCH  80  81
ENDBRANCH  54  75
ENDBRANCH  28  29
ENDBRANCH  20  23
ENDBRANCH  18  19
ENDBRANCH  17  18
ENDBRANCH   1  17
TORSDOF 17
ENDMDL
