MODEL 1
REMARK VINA RESULT:     -10.2      0.000      0.000
REMARK SMILES Cc1ccc(N2C(=O)[NH+]=C(NCCCCCCNC(=O)c3ccc(-c4c5nc(c(-c6ccc(S(=O)(=O)[O-])cc6)c6ccc([nH]6)c(-c6ccc(S(=O)(=O)[O-])cc6)c6nc(c(-c7ccc(S(=O)(=O)[O-])cc7)c7ccc4[nH]7)C=C6)C=C5)cc3)/C(=C\c3ccccc3OCc3cccc(C(=O)[O-])c3)C2=O)cc1
REMARK SMILES IDX 14 1 13 2 12 3 11 4 6 5 7 6 100 7 8 8 9 9 81 10 101 11 10 12
REMARK SMILES IDX 82 14 5 16 1 17 2 18 3 19 103 20 4 21 102 22 83 23 84 24
REMARK SMILES IDX 88 25 85 26 87 27 86 28 89 29 90 30 91 31 92 32 99 33 93 34
REMARK SMILES IDX 95 35 94 36 96 37 97 38 98 39 15 40 16 41 17 42 18 43 19 44
REMARK SMILES IDX 20 46 21 47 22 48 80 49 23 50 79 51 24 52 25 53 26 54 73 55
REMARK SMILES IDX 27 56 78 57 72 58 74 59 28 60 77 61 71 62 70 63 29 65 59 66
REMARK SMILES IDX 40 67 58 68 41 69 44 70 57 71 75 72 42 73 43 74 56 76 76 77
REMARK SMILES IDX 45 78 30 79 31 80 39 81 32 82 38 83 33 84 34 85 35 86 36 87
REMARK SMILES IDX 37 88 60 89 61 90 69 91 62 92 68 93 63 94 64 95 65 96 66 97
REMARK SMILES IDX 67 98 46 99 47 100 55 101 48 102 54 103 49 104 50 105 51 106
REMARK SMILES IDX 52 107 53 108
REMARK H PARENT 9 13 11 15 18 45 74 64 44 75
REMARK Flexibility Score: inf
ROOT
ATOM      1  C   UNL A   1      39.573  34.363  30.227  1.00  0.00     0.003 C 
ENDROOT
BRANCH   1   2
ATOM      2  C   UNL A   1      40.946  34.870  29.767  1.00  0.00     0.037 C 
BRANCH   2   3
ATOM      3  C   UNL A   1      40.943  35.703  28.486  1.00  0.00     0.194 C 
BRANCH   3   4
ATOM      4  N   UNL A   1      42.289  35.890  27.962  1.00  0.00    -0.305 N 
ATOM      5  N   UNL A   1      43.734  39.629  26.851  1.00  0.00    -0.155 N 
ATOM      6  C   UNL A   1      42.372  39.352  27.060  1.00  0.00     0.448 C 
ATOM      7  C   UNL A   1      44.725  38.661  26.998  1.00  0.00     0.328 C 
ATOM      8  O   UNL A   1      41.501  40.210  26.920  1.00  0.00    -0.212 OA
ATOM      9  N   UNL A   1      41.976  38.084  27.373  1.00  0.00    -0.209 N 
ATOM     10  C   UNL A   1      44.264  37.411  27.663  1.00  0.00     0.129 C 
ATOM     11  O   UNL A   1      45.925  38.817  26.760  1.00  0.00    -0.249 OA
ATOM     12  C   UNL A   1      42.806  37.132  27.665  1.00  0.00     0.236 C 
ATOM     13  H   UNL A   1      41.012  37.883  27.378  1.00  0.00     0.270 HD
ATOM     14  C   UNL A   1      45.198  36.773  28.403  1.00  0.00     0.034 C 
ATOM     15  H   UNL A   1      42.853  35.098  27.815  1.00  0.00     0.256 HD
BRANCH   5  16
ATOM     16  C   UNL A   1      44.123  40.973  26.501  1.00  0.00     0.111 A 
ATOM     17  C   UNL A   1      45.281  45.024  25.485  1.00  0.00     0.044 C 
ATOM     18  C   UNL A   1      44.884  43.620  25.829  1.00  0.00    -0.051 A 
ATOM     19  C   UNL A   1      44.965  43.173  27.149  1.00  0.00     0.007 A 
ATOM     20  C   UNL A   1      44.443  42.734  24.843  1.00  0.00     0.007 A 
ATOM     21  C   UNL A   1      44.579  41.871  27.481  1.00  0.00     0.044 A 
ATOM     22  C   UNL A   1      44.074  41.425  25.176  1.00  0.00     0.044 A 
ENDBRANCH   5  16
BRANCH  14  23
ATOM     23  C   UNL A   1      45.030  35.735  29.433  1.00  0.00     0.018 A 
ATOM     24  C   UNL A   1      45.164  36.156  30.769  1.00  0.00     0.012 A 
ATOM     25  C   UNL A   1      44.711  34.388  29.180  1.00  0.00     0.127 A 
ATOM     26  C   UNL A   1      45.079  35.245  31.824  1.00  0.00     0.001 A 
ATOM     27  C   UNL A   1      44.623  33.486  30.248  1.00  0.00     0.047 A 
ATOM     28  C   UNL A   1      44.827  33.904  31.562  1.00  0.00     0.004 A 
BRANCH  25  29
ATOM     29  O   UNL A   1      44.634  33.808  27.939  1.00  0.00    -0.488 OA
BRANCH  29  30
ATOM     30  C   UNL A   1      45.781  33.073  27.516  1.00  0.00     0.265 C 
BRANCH  30  31
ATOM     31  C   UNL A   1      45.376  31.689  27.054  1.00  0.00    -0.010 A 
ATOM     32  C   UNL A   1      44.022  31.318  27.063  1.00  0.00     0.007 A 
ATOM     33  C   UNL A   1      46.335  30.733  26.685  1.00  0.00     0.017 A 
ATOM     34  C   UNL A   1      43.631  30.025  26.713  1.00  0.00     0.001 A 
ATOM     35  C   UNL A   1      45.948  29.425  26.360  1.00  0.00    -0.002 A 
ATOM     36  C   UNL A   1      44.594  29.075  26.375  1.00  0.00     0.010 A 
BRANCH  35  37
ATOM     37  C   UNL A   1      46.947  28.378  26.054  1.00  0.00     0.071 C 
ATOM     38  O   UNL A   1      47.075  27.315  26.657  1.00  0.00    -0.545 OA
ATOM     39  O   UNL A   1      47.752  28.702  25.033  1.00  0.00    -0.545 OA
ENDBRANCH  35  37
ENDBRANCH  30  31
ENDBRANCH  29  30
ENDBRANCH  25  29
ENDBRANCH  14  23
ENDBRANCH   3   4
ENDBRANCH   2   3
ENDBRANCH   1   2
BRANCH   1  40
ATOM     40  C   UNL A   1      38.482  34.278  29.147  1.00  0.00     0.002 C 
BRANCH  40  41
ATOM     41  C   UNL A   1      37.297  33.354  29.399  1.00  0.00     0.021 C 
BRANCH  41  42
ATOM     42  C   UNL A   1      36.398  33.140  28.201  1.00  0.00     0.116 C 
BRANCH  42  43
ATOM     43  N   UNL A   1      35.140  32.453  28.434  1.00  0.00    -0.352 N 
ATOM     44  C   UNL A   1      34.876  31.134  28.060  1.00  0.00     0.251 C 
ATOM     45  H   UNL A   1      34.423  32.952  28.888  1.00  0.00     0.163 HD
ATOM     46  O   UNL A   1      33.792  30.785  27.610  1.00  0.00    -0.269 OA
BRANCH  44  47
ATOM     47  C   UNL A   1      35.908  30.126  28.420  1.00  0.00     0.039 A 
ATOM     48  C   UNL A   1      35.986  29.676  29.744  1.00  0.00     0.014 A 
ATOM     49  C   UNL A   1      36.956  29.897  27.544  1.00  0.00     0.014 A 
ATOM     50  C   UNL A   1      37.203  29.213  30.236  1.00  0.00     0.010 A 
ATOM     51  C   UNL A   1      38.195  29.683  28.071  1.00  0.00     0.010 A 
ATOM     52  C   UNL A   1      38.315  29.338  29.417  1.00  0.00    -0.014 A 
BRANCH  52  53
ATOM     53  C   UNL A   1      39.672  28.978  29.739  1.00  0.00     0.031 A 
ATOM     54  C   UNL A   1      40.125  27.663  29.238  1.00  0.00     0.074 A 
ATOM     55  C   UNL A   1      40.508  29.964  30.126  1.00  0.00     0.049 A 
ATOM     56  N   UNL A   1      41.248  27.132  29.545  1.00  0.00    -0.248 NA
ATOM     57  C   UNL A   1      39.324  26.809  28.352  1.00  0.00     0.031 C 
ATOM     58  C   UNL A   1      41.957  30.040  29.979  1.00  0.00     0.029 A 
ATOM     59  N   UNL A   1      40.216  31.079  30.887  1.00  0.00    -0.354 N 
ATOM     60  C   UNL A   1      41.466  26.099  28.660  1.00  0.00     0.074 A 
ATOM     61  C   UNL A   1      40.199  25.852  28.027  1.00  0.00     0.031 C 
ATOM     62  C   UNL A   1      42.434  30.977  30.821  1.00  0.00     0.029 A 
ATOM     63  C   UNL A   1      41.328  31.394  31.670  1.00  0.00     0.049 A 
ATOM     64  H   UNL A   1      39.363  31.571  30.878  1.00  0.00     0.167 HD
ATOM     65  C   UNL A   1      42.747  25.693  28.464  1.00  0.00     0.031 A 
ATOM     66  C   UNL A   1      41.291  31.183  33.026  1.00  0.00     0.031 A 
ATOM     67  C   UNL A   1      43.645  26.443  29.340  1.00  0.00     0.049 A 
ATOM     68  C   UNL A   1      42.225  30.076  33.492  1.00  0.00     0.074 A 
ATOM     69  C   UNL A   1      44.488  27.520  29.134  1.00  0.00     0.029 A 
ATOM     70  N   UNL A   1      43.471  26.332  30.707  1.00  0.00    -0.354 N 
ATOM     71  N   UNL A   1      42.762  29.181  32.710  1.00  0.00    -0.248 NA
ATOM     72  C   UNL A   1      42.617  29.885  34.884  1.00  0.00     0.031 C 
ATOM     73  C   UNL A   1      44.821  28.057  30.409  1.00  0.00     0.029 A 
ATOM     74  C   UNL A   1      44.202  27.287  31.378  1.00  0.00     0.049 A 
ATOM     75  H   UNL A   1      42.902  25.658  31.143  1.00  0.00     0.167 HD
ATOM     76  C   UNL A   1      43.539  28.312  33.435  1.00  0.00     0.074 A 
ATOM     77  C   UNL A   1      43.399  28.792  34.799  1.00  0.00     0.031 C 
ATOM     78  C   UNL A   1      44.203  27.273  32.835  1.00  0.00     0.031 A 
BRANCH  65  79
ATOM     79  C   UNL A   1      43.262  24.808  27.359  1.00  0.00    -0.014 A 
ATOM     80  C   UNL A   1      42.741  23.498  27.277  1.00  0.00     0.010 A 
ATOM     81  C   UNL A   1      44.248  25.146  26.414  1.00  0.00     0.010 A 
ATOM     82  C   UNL A   1      43.207  22.561  26.351  1.00  0.00     0.020 A 
ATOM     83  C   UNL A   1      44.727  24.214  25.474  1.00  0.00     0.020 A 
ATOM     84  C   UNL A   1      44.208  22.922  25.459  1.00  0.00     0.054 A 
BRANCH  84  85
ATOM     85  S   UNL A   1      44.804  21.677  24.289  1.00  0.00     0.124 S 
ATOM     86  O   UNL A   1      44.139  20.465  24.760  1.00  0.00    -0.237 OA
ATOM     87  O   UNL A   1      44.333  22.197  23.009  1.00  0.00    -0.237 OA
ATOM     88  O   UNL A   1      46.254  21.695  24.471  1.00  0.00    -0.744 OA
ENDBRANCH  84  85
ENDBRANCH  65  79
BRANCH  66  89
ATOM     89  C   UNL A   1      39.941  31.479  33.613  1.00  0.00    -0.014 A 
ATOM     90  C   UNL A   1      39.250  30.392  34.195  1.00  0.00     0.010 A 
ATOM     91  C   UNL A   1      39.647  32.782  34.060  1.00  0.00     0.010 A 
ATOM     92  C   UNL A   1      38.494  30.575  35.356  1.00  0.00     0.020 A 
ATOM     93  C   UNL A   1      38.868  32.967  35.213  1.00  0.00     0.020 A 
ATOM     94  C   UNL A   1      38.384  31.853  35.903  1.00  0.00     0.054 A 
BRANCH  94  95
ATOM     95  S   UNL A   1      37.818  31.994  37.628  1.00  0.00     0.124 S 
ATOM     96  O   UNL A   1      37.355  30.640  37.919  1.00  0.00    -0.237 OA
ATOM     97  O   UNL A   1      39.048  32.395  38.314  1.00  0.00    -0.237 OA
ATOM     98  O   UNL A   1      36.774  33.011  37.560  1.00  0.00    -0.744 OA
ENDBRANCH  94  95
ENDBRANCH  66  89
BRANCH  78  99
ATOM     99  C   UNL A   1      44.917  26.106  33.504  1.00  0.00    -0.014 A 
ATOM    100  C   UNL A   1      44.315  24.910  33.900  1.00  0.00     0.010 A 
ATOM    101  C   UNL A   1      46.313  26.211  33.768  1.00  0.00     0.010 A 
ATOM    102  C   UNL A   1      45.064  23.864  34.465  1.00  0.00     0.020 A 
ATOM    103  C   UNL A   1      47.074  25.179  34.316  1.00  0.00     0.020 A 
ATOM    104  C   UNL A   1      46.439  24.002  34.660  1.00  0.00     0.054 A 
BRANCH 104 105
ATOM    105  S   UNL A   1      47.369  22.638  35.390  1.00  0.00     0.124 S 
ATOM    106  O   UNL A   1      48.742  23.134  35.316  1.00  0.00    -0.237 OA
ATOM    107  O   UNL A   1      46.801  22.561  36.733  1.00  0.00    -0.237 OA
ATOM    108  O   UNL A   1      47.069  21.501  34.524  1.00  0.00    -0.744 OA
ENDBRANCH 104 105
ENDBRANCH  78  99
ENDBRANCH  52  53
ENDBRANCH  44  47
ENDBRANCH  42  43
ENDBRANCH  41  42
ENDBRANCH  40  41
ENDBRANCH   1  40
TORSDOF 21
ENDMDL
MODEL 2
REMARK VINA RESULT:     -10.1      4.937     14.218
REMARK SMILES Cc1ccc(N2C(=O)[NH+]=C(NCCCCCCNC(=O)c3ccc(-c4c5nc(c(-c6ccc(S(=O)(=O)[O-])cc6)c6ccc([nH]6)c(-c6ccc(S(=O)(=O)[O-])cc6)c6nc(c(-c7ccc(S(=O)(=O)[O-])cc7)c7ccc4[nH]7)C=C6)C=C5)cc3)/C(=C\c3ccccc3OCc3cccc(C(=O)[O-])c3)C2=O)cc1
REMARK SMILES IDX 14 1 13 2 12 3 11 4 6 5 7 6 100 7 8 8 9 9 81 10 101 11 10 12
REMARK SMILES IDX 82 14 5 16 1 17 2 18 3 19 103 20 4 21 102 22 83 23 84 24
REMARK SMILES IDX 88 25 85 26 87 27 86 28 89 29 90 30 91 31 92 32 99 33 93 34
REMARK SMILES IDX 95 35 94 36 96 37 97 38 98 39 15 40 16 41 17 42 18 43 19 44
REMARK SMILES IDX 20 46 21 47 22 48 80 49 23 50 79 51 24 52 25 53 26 54 73 55
REMARK SMILES IDX 27 56 78 57 72 58 74 59 28 60 77 61 71 62 70 63 29 65 59 66
REMARK SMILES IDX 40 67 58 68 41 69 44 70 57 71 75 72 42 73 43 74 56 76 76 77
REMARK SMILES IDX 45 78 30 79 31 80 39 81 32 82 38 83 33 84 34 85 35 86 36 87
REMARK SMILES IDX 37 88 60 89 61 90 69 91 62 92 68 93 63 94 64 95 65 96 66 97
REMARK SMILES IDX 67 98 46 99 47 100 55 101 48 102 54 103 49 104 50 105 51 106
REMARK SMILES IDX 52 107 53 108
REMARK H PARENT 9 13 11 15 18 45 74 64 44 75
REMARK Flexibility Score: inf
ROOT
ATOM      1  C   UNL A   1      43.255  18.843  25.629  1.00  0.00     0.003 C 
ENDROOT
BRANCH   1   2
ATOM      2  C   UNL A   1      42.580  20.202  25.859  1.00  0.00     0.037 C 
BRANCH   2   3
ATOM      3  C   UNL A   1      41.053  20.194  25.804  1.00  0.00     0.194 C 
BRANCH   3   4
ATOM      4  N   UNL A   1      40.511  21.540  25.692  1.00  0.00    -0.305 N 
ATOM      5  N   UNL A   1      36.420  22.293  25.707  1.00  0.00    -0.155 N 
ATOM      6  C   UNL A   1      36.976  21.019  25.500  1.00  0.00     0.448 C 
ATOM      7  C   UNL A   1      37.204  23.424  25.924  1.00  0.00     0.328 C 
ATOM      8  O   UNL A   1      36.278  20.025  25.300  1.00  0.00    -0.212 OA
ATOM      9  N   UNL A   1      38.332  20.867  25.459  1.00  0.00    -0.209 N 
ATOM     10  C   UNL A   1      38.637  23.131  26.203  1.00  0.00     0.129 C 
ATOM     11  O   UNL A   1      36.785  24.578  26.039  1.00  0.00    -0.249 OA
ATOM     12  C   UNL A   1      39.163  21.810  25.775  1.00  0.00     0.236 C 
ATOM     13  H   UNL A   1      38.697  19.997  25.176  1.00  0.00     0.270 HD
ATOM     14  C   UNL A   1      39.254  24.004  27.029  1.00  0.00     0.034 C 
ATOM     15  H   UNL A   1      41.134  22.289  25.553  1.00  0.00     0.256 HD
BRANCH   5  16
ATOM     16  C   UNL A   1      34.984  22.429  25.725  1.00  0.00     0.111 A 
ATOM     17  C   UNL A   1      30.672  22.859  25.746  1.00  0.00     0.044 C 
ATOM     18  C   UNL A   1      32.163  22.705  25.746  1.00  0.00    -0.051 A 
ATOM     19  C   UNL A   1      32.865  22.692  24.539  1.00  0.00     0.007 A 
ATOM     20  C   UNL A   1      32.873  22.557  26.941  1.00  0.00     0.007 A 
ATOM     21  C   UNL A   1      34.257  22.566  24.531  1.00  0.00     0.044 A 
ATOM     22  C   UNL A   1      34.266  22.415  26.928  1.00  0.00     0.044 A 
ENDBRANCH   5  16
BRANCH  14  23
ATOM     23  C   UNL A   1      40.518  23.862  27.769  1.00  0.00     0.018 A 
ATOM     24  C   UNL A   1      40.909  22.549  28.087  1.00  0.00     0.012 A 
ATOM     25  C   UNL A   1      41.364  24.924  28.137  1.00  0.00     0.127 A 
ATOM     26  C   UNL A   1      42.063  22.300  28.835  1.00  0.00     0.001 A 
ATOM     27  C   UNL A   1      42.521  24.661  28.882  1.00  0.00     0.047 A 
ATOM     28  C   UNL A   1      42.860  23.359  29.250  1.00  0.00     0.004 A 
BRANCH  25  29
ATOM     29  O   UNL A   1      41.084  26.257  27.979  1.00  0.00    -0.488 OA
BRANCH  29  30
ATOM     30  C   UNL A   1      41.080  27.046  29.167  1.00  0.00     0.265 C 
BRANCH  30  31
ATOM     31  C   UNL A   1      39.760  27.774  29.311  1.00  0.00    -0.010 A 
ATOM     32  C   UNL A   1      39.182  28.398  28.194  1.00  0.00     0.007 A 
ATOM     33  C   UNL A   1      39.130  27.905  30.558  1.00  0.00     0.017 A 
ATOM     34  C   UNL A   1      38.004  29.137  28.316  1.00  0.00     0.001 A 
ATOM     35  C   UNL A   1      37.963  28.671  30.690  1.00  0.00    -0.002 A 
ATOM     36  C   UNL A   1      37.403  29.285  29.565  1.00  0.00     0.010 A 
BRANCH  35  37
ATOM     37  C   UNL A   1      37.332  28.896  32.008  1.00  0.00     0.071 C 
ATOM     38  O   UNL A   1      37.540  28.234  33.022  1.00  0.00    -0.545 OA
ATOM     39  O   UNL A   1      36.459  29.913  32.007  1.00  0.00    -0.545 OA
ENDBRANCH  35  37
ENDBRANCH  30  31
ENDBRANCH  29  30
ENDBRANCH  25  29
ENDBRANCH  14  23
ENDBRANCH   3   4
ENDBRANCH   2   3
ENDBRANCH   1   2
BRANCH   1  40
ATOM     40  C   UNL A   1      44.493  18.844  24.717  1.00  0.00     0.002 C 
BRANCH  40  41
ATOM     41  C   UNL A   1      45.822  19.287  25.317  1.00  0.00     0.021 C 
BRANCH  41  42
ATOM     42  C   UNL A   1      46.544  20.358  24.531  1.00  0.00     0.116 C 
BRANCH  42  43
ATOM     43  N   UNL A   1      45.723  21.307  23.799  1.00  0.00    -0.352 N 
ATOM     44  C   UNL A   1      45.116  22.430  24.364  1.00  0.00     0.251 C 
ATOM     45  H   UNL A   1      45.585  21.146  22.838  1.00  0.00     0.163 HD
ATOM     46  O   UNL A   1      43.989  22.793  24.051  1.00  0.00    -0.269 OA
BRANCH  44  47
ATOM     47  C   UNL A   1      45.978  23.287  25.219  1.00  0.00     0.039 A 
ATOM     48  C   UNL A   1      45.801  23.259  26.609  1.00  0.00     0.014 A 
ATOM     49  C   UNL A   1      46.698  24.314  24.631  1.00  0.00     0.014 A 
ATOM     50  C   UNL A   1      46.143  24.377  27.363  1.00  0.00     0.010 A 
ATOM     51  C   UNL A   1      46.806  25.491  25.310  1.00  0.00     0.010 A 
ATOM     52  C   UNL A   1      46.531  25.519  26.678  1.00  0.00    -0.014 A 
BRANCH  52  53
ATOM     53  C   UNL A   1      46.875  26.796  27.248  1.00  0.00     0.031 A 
ATOM     54  C   UNL A   1      45.752  27.737  27.445  1.00  0.00     0.074 A 
ATOM     55  C   UNL A   1      48.065  26.903  27.875  1.00  0.00     0.049 A 
ATOM     56  N   UNL A   1      45.898  28.954  27.812  1.00  0.00    -0.248 NA
ATOM     57  C   UNL A   1      44.345  27.384  27.217  1.00  0.00     0.031 C 
ATOM     58  C   UNL A   1      48.444  27.796  28.964  1.00  0.00     0.029 A 
ATOM     59  N   UNL A   1      49.260  26.295  27.544  1.00  0.00    -0.354 N 
ATOM     60  C   UNL A   1      44.659  29.413  28.202  1.00  0.00     0.074 A 
ATOM     61  C   UNL A   1      43.711  28.458  27.698  1.00  0.00     0.031 C 
ATOM     62  C   UNL A   1      49.787  27.858  29.033  1.00  0.00     0.029 A 
ATOM     63  C   UNL A   1      50.309  27.157  27.868  1.00  0.00     0.049 A 
ATOM     64  H   UNL A   1      49.356  25.400  27.146  1.00  0.00     0.167 HD
ATOM     65  C   UNL A   1      44.617  30.472  29.052  1.00  0.00     0.031 A 
ATOM     66  C   UNL A   1      51.021  27.773  26.869  1.00  0.00     0.031 A 
ATOM     67  C   UNL A   1      45.971  30.952  29.316  1.00  0.00     0.049 A 
ATOM     68  C   UNL A   1      50.807  29.278  26.811  1.00  0.00     0.074 A 
ATOM     69  C   UNL A   1      46.846  30.785  30.374  1.00  0.00     0.029 A 
ATOM     70  N   UNL A   1      46.722  31.416  28.251  1.00  0.00    -0.354 N 
ATOM     71  N   UNL A   1      49.825  29.909  27.393  1.00  0.00    -0.248 NA
ATOM     72  C   UNL A   1      51.681  30.189  26.081  1.00  0.00     0.031 C 
ATOM     73  C   UNL A   1      48.144  31.158  29.924  1.00  0.00     0.029 A 
ATOM     74  C   UNL A   1      48.043  31.576  28.609  1.00  0.00     0.049 A 
ATOM     75  H   UNL A   1      46.360  31.607  27.355  1.00  0.00     0.167 HD
ATOM     76  C   UNL A   1      49.900  31.256  27.137  1.00  0.00     0.074 A 
ATOM     77  C   UNL A   1      51.077  31.374  26.294  1.00  0.00     0.031 C 
ATOM     78  C   UNL A   1      48.970  32.132  27.633  1.00  0.00     0.031 A 
BRANCH  65  79
ATOM     79  C   UNL A   1      43.427  30.961  29.837  1.00  0.00    -0.014 A 
ATOM     80  C   UNL A   1      42.873  32.207  29.470  1.00  0.00     0.010 A 
ATOM     81  C   UNL A   1      42.831  30.312  30.933  1.00  0.00     0.010 A 
ATOM     82  C   UNL A   1      41.826  32.801  30.181  1.00  0.00     0.020 A 
ATOM     83  C   UNL A   1      41.777  30.897  31.659  1.00  0.00     0.020 A 
ATOM     84  C   UNL A   1      41.289  32.146  31.282  1.00  0.00     0.054 A 
BRANCH  84  85
ATOM     85  S   UNL A   1      39.952  32.955  32.193  1.00  0.00     0.124 S 
ATOM     86  O   UNL A   1      40.341  32.730  33.582  1.00  0.00    -0.237 OA
ATOM     87  O   UNL A   1      40.044  34.335  31.728  1.00  0.00    -0.237 OA
ATOM     88  O   UNL A   1      38.754  32.234  31.763  1.00  0.00    -0.744 OA
ENDBRANCH  84  85
ENDBRANCH  65  79
BRANCH  66  89
ATOM     89  C   UNL A   1      51.218  26.881  25.676  1.00  0.00    -0.014 A 
ATOM     90  C   UNL A   1      50.417  27.151  24.544  1.00  0.00     0.010 A 
ATOM     91  C   UNL A   1      52.454  26.232  25.489  1.00  0.00     0.010 A 
ATOM     92  C   UNL A   1      50.945  27.019  23.257  1.00  0.00     0.020 A 
ATOM     93  C   UNL A   1      52.975  26.079  24.194  1.00  0.00     0.020 A 
ATOM     94  C   UNL A   1      52.254  26.566  23.101  1.00  0.00     0.054 A 
BRANCH  94  95
ATOM     95  S   UNL A   1      53.067  26.850  21.497  1.00  0.00     0.124 S 
ATOM     96  O   UNL A   1      52.789  28.262  21.248  1.00  0.00    -0.237 OA
ATOM     97  O   UNL A   1      54.463  26.533  21.809  1.00  0.00    -0.237 OA
ATOM     98  O   UNL A   1      52.394  25.914  20.604  1.00  0.00    -0.744 OA
ENDBRANCH  94  95
ENDBRANCH  66  89
BRANCH  78  99
ATOM     99  C   UNL A   1      48.780  33.600  27.273  1.00  0.00    -0.014 A 
ATOM    100  C   UNL A   1      48.020  34.079  26.203  1.00  0.00     0.010 A 
ATOM    101  C   UNL A   1      49.420  34.594  28.068  1.00  0.00     0.010 A 
ATOM    102  C   UNL A   1      47.859  35.456  25.977  1.00  0.00     0.020 A 
ATOM    103  C   UNL A   1      49.261  35.965  27.866  1.00  0.00     0.020 A 
ATOM    104  C   UNL A   1      48.471  36.389  26.815  1.00  0.00     0.054 A 
BRANCH 104 105
ATOM    105  S   UNL A   1      48.243  38.150  26.493  1.00  0.00     0.124 S 
ATOM    106  O   UNL A   1      49.500  38.713  26.982  1.00  0.00    -0.237 OA
ATOM    107  O   UNL A   1      48.063  38.179  25.044  1.00  0.00    -0.237 OA
ATOM    108  O   UNL A   1      47.058  38.501  27.272  1.00  0.00    -0.744 OA
ENDBRANCH 104 105
ENDBRANCH  78  99
ENDBRANCH  52  53
ENDBRANCH  44  47
ENDBRANCH  42  43
ENDBRANCH  41  42
ENDBRANCH  40  41
ENDBRANCH   1  40
TORSDOF 21
ENDMDL
MODEL 3
REMARK VINA RESULT:     -10.0      3.706      9.887
REMARK SMILES Cc1ccc(N2C(=O)[NH+]=C(NCCCCCCNC(=O)c3ccc(-c4c5nc(c(-c6ccc(S(=O)(=O)[O-])cc6)c6ccc([nH]6)c(-c6ccc(S(=O)(=O)[O-])cc6)c6nc(c(-c7ccc(S(=O)(=O)[O-])cc7)c7ccc4[nH]7)C=C6)C=C5)cc3)/C(=C\c3ccccc3OCc3cccc(C(=O)[O-])c3)C2=O)cc1
REMARK SMILES IDX 14 1 13 2 12 3 11 4 6 5 7 6 100 7 8 8 9 9 81 10 101 11 10 12
REMARK SMILES IDX 82 14 5 16 1 17 2 18 3 19 103 20 4 21 102 22 83 23 84 24
REMARK SMILES IDX 88 25 85 26 87 27 86 28 89 29 90 30 91 31 92 32 99 33 93 34
REMARK SMILES IDX 95 35 94 36 96 37 97 38 98 39 15 40 16 41 17 42 18 43 19 44
REMARK SMILES IDX 20 46 21 47 22 48 80 49 23 50 79 51 24 52 25 53 26 54 73 55
REMARK SMILES IDX 27 56 78 57 72 58 74 59 28 60 77 61 71 62 70 63 29 65 59 66
REMARK SMILES IDX 40 67 58 68 41 69 44 70 57 71 75 72 42 73 43 74 56 76 76 77
REMARK SMILES IDX 45 78 30 79 31 80 39 81 32 82 38 83 33 84 34 85 35 86 36 87
REMARK SMILES IDX 37 88 60 89 61 90 69 91 62 92 68 93 63 94 64 95 65 96 66 97
REMARK SMILES IDX 67 98 46 99 47 100 55 101 48 102 54 103 49 104 50 105 51 106
REMARK SMILES IDX 52 107 53 108
REMARK H PARENT 9 13 11 15 18 45 74 64 44 75
REMARK Flexibility Score: inf
ROOT
ATOM      1  C   UNL A   1      38.724  34.234  31.715  1.00  0.00     0.003 C 
ENDROOT
BRANCH   1   2
ATOM      2  C   UNL A   1      37.921  34.793  30.533  1.00  0.00     0.037 C 
BRANCH   2   3
ATOM      3  C   UNL A   1      37.489  33.764  29.489  1.00  0.00     0.194 C 
BRANCH   3   4
ATOM      4  N   UNL A   1      36.189  34.089  28.919  1.00  0.00    -0.305 N 
ATOM      5  N   UNL A   1      33.707  31.190  27.265  1.00  0.00    -0.155 N 
ATOM      6  C   UNL A   1      35.070  30.984  27.536  1.00  0.00     0.448 C 
ATOM      7  C   UNL A   1      33.066  32.398  27.528  1.00  0.00     0.328 C 
ATOM      8  O   UNL A   1      35.632  29.916  27.293  1.00  0.00    -0.212 OA
ATOM      9  N   UNL A   1      35.827  32.005  28.032  1.00  0.00    -0.209 N 
ATOM     10  C   UNL A   1      33.856  33.338  28.371  1.00  0.00     0.129 C 
ATOM     11  O   UNL A   1      31.896  32.669  27.248  1.00  0.00    -0.249 OA
ATOM     12  C   UNL A   1      35.325  33.129  28.440  1.00  0.00     0.236 C 
ATOM     13  H   UNL A   1      36.803  31.883  28.084  1.00  0.00     0.270 HD
ATOM     14  C   UNL A   1      33.128  34.142  29.176  1.00  0.00     0.034 C 
ATOM     15  H   UNL A   1      35.916  35.033  28.875  1.00  0.00     0.256 HD
BRANCH   5  16
ATOM     16  C   UNL A   1      32.935  30.099  26.721  1.00  0.00     0.111 A 
ATOM     17  C   UNL A   1      30.631  26.798  25.116  1.00  0.00     0.044 C 
ATOM     18  C   UNL A   1      31.423  27.945  25.666  1.00  0.00    -0.051 A 
ATOM     19  C   UNL A   1      31.778  27.967  27.016  1.00  0.00     0.007 A 
ATOM     20  C   UNL A   1      31.808  29.013  24.850  1.00  0.00     0.007 A 
ATOM     21  C   UNL A   1      32.532  29.025  27.533  1.00  0.00     0.044 A 
ATOM     22  C   UNL A   1      32.548  30.079  25.375  1.00  0.00     0.044 A 
ENDBRANCH   5  16
BRANCH  14  23
ATOM     23  C   UNL A   1      33.551  34.931  30.345  1.00  0.00     0.018 A 
ATOM     24  C   UNL A   1      33.260  36.306  30.307  1.00  0.00     0.012 A 
ATOM     25  C   UNL A   1      34.176  34.406  31.491  1.00  0.00     0.127 A 
ATOM     26  C   UNL A   1      33.665  37.158  31.337  1.00  0.00     0.001 A 
ATOM     27  C   UNL A   1      34.570  35.270  32.520  1.00  0.00     0.047 A 
ATOM     28  C   UNL A   1      34.338  36.643  32.437  1.00  0.00     0.004 A 
BRANCH  25  29
ATOM     29  O   UNL A   1      34.602  33.111  31.644  1.00  0.00    -0.488 OA
BRANCH  29  30
ATOM     30  C   UNL A   1      35.154  32.776  32.915  1.00  0.00     0.265 C 
BRANCH  30  31
ATOM     31  C   UNL A   1      36.254  31.747  32.756  1.00  0.00    -0.010 A 
ATOM     32  C   UNL A   1      37.096  31.453  33.839  1.00  0.00     0.007 A 
ATOM     33  C   UNL A   1      36.502  31.129  31.521  1.00  0.00     0.017 A 
ATOM     34  C   UNL A   1      38.163  30.564  33.697  1.00  0.00     0.001 A 
ATOM     35  C   UNL A   1      37.589  30.258  31.366  1.00  0.00    -0.002 A 
ATOM     36  C   UNL A   1      38.418  29.977  32.458  1.00  0.00     0.010 A 
BRANCH  35  37
ATOM     37  C   UNL A   1      37.923  29.664  30.053  1.00  0.00     0.071 C 
ATOM     38  O   UNL A   1      37.908  28.465  29.787  1.00  0.00    -0.545 OA
ATOM     39  O   UNL A   1      38.278  30.576  29.138  1.00  0.00    -0.545 OA
ENDBRANCH  35  37
ENDBRANCH  30  31
ENDBRANCH  29  30
ENDBRANCH  25  29
ENDBRANCH  14  23
ENDBRANCH   3   4
ENDBRANCH   2   3
ENDBRANCH   1   2
BRANCH   1  40
ATOM     40  C   UNL A   1      38.304  34.718  33.112  1.00  0.00     0.002 C 
BRANCH  40  41
ATOM     41  C   UNL A   1      39.066  34.174  34.316  1.00  0.00     0.021 C 
BRANCH  41  42
ATOM     42  C   UNL A   1      40.192  35.059  34.802  1.00  0.00     0.116 C 
BRANCH  42  43
ATOM     43  N   UNL A   1      40.477  35.044  36.226  1.00  0.00    -0.352 N 
ATOM     44  C   UNL A   1      40.641  33.887  36.989  1.00  0.00     0.251 C 
ATOM     45  H   UNL A   1      40.560  35.911  36.685  1.00  0.00     0.163 HD
ATOM     46  O   UNL A   1      40.203  33.785  38.128  1.00  0.00    -0.269 OA
BRANCH  44  47
ATOM     47  C   UNL A   1      41.549  32.850  36.430  1.00  0.00     0.039 A 
ATOM     48  C   UNL A   1      42.776  33.245  35.880  1.00  0.00     0.014 A 
ATOM     49  C   UNL A   1      41.045  31.586  36.171  1.00  0.00     0.014 A 
ATOM     50  C   UNL A   1      43.365  32.460  34.893  1.00  0.00     0.010 A 
ATOM     51  C   UNL A   1      41.475  30.944  35.048  1.00  0.00     0.010 A 
ATOM     52  C   UNL A   1      42.638  31.381  34.413  1.00  0.00    -0.014 A 
BRANCH  52  53
ATOM     53  C   UNL A   1      43.026  30.473  33.364  1.00  0.00     0.031 A 
ATOM     54  C   UNL A   1      43.958  29.396  33.757  1.00  0.00     0.074 A 
ATOM     55  C   UNL A   1      42.266  30.441  32.249  1.00  0.00     0.049 A 
ATOM     56  N   UNL A   1      44.506  28.590  32.928  1.00  0.00    -0.248 NA
ATOM     57  C   UNL A   1      44.378  29.149  35.142  1.00  0.00     0.031 C 
ATOM     58  C   UNL A   1      42.051  29.333  31.325  1.00  0.00     0.029 A 
ATOM     59  N   UNL A   1      41.618  31.491  31.629  1.00  0.00    -0.354 N 
ATOM     60  C   UNL A   1      45.030  27.546  33.660  1.00  0.00     0.074 A 
ATOM     61  C   UNL A   1      45.043  27.995  35.026  1.00  0.00     0.031 C 
ATOM     62  C   UNL A   1      41.555  29.816  30.170  1.00  0.00     0.029 A 
ATOM     63  C   UNL A   1      41.618  31.269  30.251  1.00  0.00     0.049 A 
ATOM     64  H   UNL A   1      41.221  32.269  32.084  1.00  0.00     0.167 HD
ATOM     65  C   UNL A   1      45.234  26.366  33.020  1.00  0.00     0.031 A 
ATOM     66  C   UNL A   1      42.406  32.040  29.433  1.00  0.00     0.031 A 
ATOM     67  C   UNL A   1      44.898  26.502  31.605  1.00  0.00     0.049 A 
ATOM     68  C   UNL A   1      43.550  31.270  28.792  1.00  0.00     0.074 A 
ATOM     69  C   UNL A   1      43.795  26.138  30.855  1.00  0.00     0.029 A 
ATOM     70  N   UNL A   1      45.609  27.414  30.847  1.00  0.00    -0.354 N 
ATOM     71  N   UNL A   1      43.978  30.106  29.196  1.00  0.00    -0.248 NA
ATOM     72  C   UNL A   1      44.312  31.761  27.649  1.00  0.00     0.031 C 
ATOM     73  C   UNL A   1      43.856  26.851  29.624  1.00  0.00     0.029 A 
ATOM     74  C   UNL A   1      45.007  27.618  29.625  1.00  0.00     0.049 A 
ATOM     75  H   UNL A   1      46.438  27.858  31.141  1.00  0.00     0.167 HD
ATOM     76  C   UNL A   1      45.032  29.686  28.424  1.00  0.00     0.074 A 
ATOM     77  C   UNL A   1      45.211  30.773  27.477  1.00  0.00     0.031 C 
ATOM     78  C   UNL A   1      45.661  28.491  28.659  1.00  0.00     0.031 A 
BRANCH  65  79
ATOM     79  C   UNL A   1      45.513  25.026  33.651  1.00  0.00    -0.014 A 
ATOM     80  C   UNL A   1      46.819  24.791  34.132  1.00  0.00     0.010 A 
ATOM     81  C   UNL A   1      44.601  23.962  33.777  1.00  0.00     0.010 A 
ATOM     82  C   UNL A   1      47.216  23.557  34.654  1.00  0.00     0.020 A 
ATOM     83  C   UNL A   1      44.985  22.713  34.302  1.00  0.00     0.020 A 
ATOM     84  C   UNL A   1      46.297  22.518  34.727  1.00  0.00     0.054 A 
BRANCH  84  85
ATOM     85  S   UNL A   1      46.851  20.928  35.388  1.00  0.00     0.124 S 
ATOM     86  O   UNL A   1      45.656  20.442  36.072  1.00  0.00    -0.237 OA
ATOM     87  O   UNL A   1      47.225  20.198  34.180  1.00  0.00    -0.237 OA
ATOM     88  O   UNL A   1      47.963  21.285  36.267  1.00  0.00    -0.744 OA
ENDBRANCH  84  85
ENDBRANCH  65  79
BRANCH  66  89
ATOM     89  C   UNL A   1      42.475  33.469  29.891  1.00  0.00    -0.014 A 
ATOM     90  C   UNL A   1      43.736  33.936  30.324  1.00  0.00     0.010 A 
ATOM     91  C   UNL A   1      41.542  34.403  29.400  1.00  0.00     0.010 A 
ATOM     92  C   UNL A   1      44.147  35.240  30.031  1.00  0.00     0.020 A 
ATOM     93  C   UNL A   1      41.948  35.720  29.126  1.00  0.00     0.020 A 
ATOM     94  C   UNL A   1      43.275  36.092  29.355  1.00  0.00     0.054 A 
BRANCH  94  95
ATOM     95  S   UNL A   1      43.976  37.581  28.575  1.00  0.00     0.124 S 
ATOM     96  O   UNL A   1      45.406  37.424  28.824  1.00  0.00    -0.237 OA
ATOM     97  O   UNL A   1      43.562  37.412  27.181  1.00  0.00    -0.237 OA
ATOM     98  O   UNL A   1      43.333  38.675  29.295  1.00  0.00    -0.744 OA
ENDBRANCH  94  95
ENDBRANCH  66  89
BRANCH  78  99
ATOM     99  C   UNL A   1      46.961  27.981  28.052  1.00  0.00    -0.014 A 
ATOM    100  C   UNL A   1      48.215  28.579  28.203  1.00  0.00     0.010 A 
ATOM    101  C   UNL A   1      46.935  26.802  27.252  1.00  0.00     0.010 A 
ATOM    102  C   UNL A   1      49.372  28.008  27.648  1.00  0.00     0.020 A 
ATOM    103  C   UNL A   1      48.074  26.214  26.704  1.00  0.00     0.020 A 
ATOM    104  C   UNL A   1      49.296  26.826  26.911  1.00  0.00     0.054 A 
BRANCH 104 105
ATOM    105  S   UNL A   1      50.803  26.122  26.211  1.00  0.00     0.124 S 
ATOM    106  O   UNL A   1      51.809  27.102  26.611  1.00  0.00    -0.237 OA
ATOM    107  O   UNL A   1      50.882  24.829  26.886  1.00  0.00    -0.237 OA
ATOM    108  O   UNL A   1      50.531  26.057  24.777  1.00  0.00    -0.744 OA
ENDBRANCH 104 105
ENDBRANCH  78  99
ENDBRANCH  52  53
ENDBRANCH  44  47
ENDBRANCH  42  43
ENDBRANCH  41  42
ENDBRANCH  40  41
ENDBRANCH   1  40
TORSDOF 21
ENDMDL
