MODEL 1
REMARK VINA RESULT:      -8.1      0.000      0.000
REMARK SMILES CC[C@@H](C)[C@H](NC(=O)[C@H](C)N1C(=O)N2CCC3=c4cc(OC)ccc4=N[C@@H]3[C@@]2(C)C1=O)C(=O)NCCCCCCNC(=O)c1ccc(-c2c3nc(c(-c4ccc(S(=O)(=O)[O-])cc4)c4ccc([nH]4)c(-c4ccc(S(=O)(=O)[O-])cc4)c4nc(c(-c5ccc(S(=O)(=O)[O-])cc5)c5ccc2[nH]5)C=C4)C=C3)cc1
REMARK SMILES IDX 37 1 36 2 35 3 34 4 32 5 33 6 5 8 3 9 4 10 2 11 1 12 6 13
REMARK SMILES IDX 7 14 8 16 9 17 10 18 11 19 12 20 30 21 14 22 13 23 28 24
REMARK SMILES IDX 31 25 15 26 27 27 29 28 16 29 17 30 26 31 18 32 25 33 19 34
REMARK SMILES IDX 24 35 20 36 23 37 21 38 22 39 38 40 39 41 40 42 41 43 42 44
REMARK SMILES IDX 43 46 44 47 45 48 103 49 46 50 102 51 47 52 48 53 49 54
REMARK SMILES IDX 96 55 50 56 101 57 95 58 97 59 51 60 100 61 94 62 93 63
REMARK SMILES IDX 52 65 82 66 63 67 81 68 64 69 67 70 80 71 98 72 65 73 66 74
REMARK SMILES IDX 79 76 99 77 68 78 53 79 54 80 62 81 55 82 61 83 56 84 57 85
REMARK SMILES IDX 58 86 59 87 60 88 83 89 84 90 92 91 85 92 91 93 86 94 87 95
REMARK SMILES IDX 88 96 89 97 90 98 69 99 70 100 78 101 71 102 77 103 72 104
REMARK SMILES IDX 73 105 74 106 75 107 76 108
REMARK H PARENT 34 7 6 15 41 45 97 64 67 75
REMARK Flexibility Score: inf
ROOT
ATOM      1  C   UNL A   1      38.214  34.086  29.139  1.00  0.00     0.002 C 
ENDROOT
BRANCH   1   2
ATOM      2  C   UNL A   1      39.517  34.122  29.947  1.00  0.00     0.021 C 
BRANCH   2   3
ATOM      3  C   UNL A   1      40.486  32.949  29.787  1.00  0.00     0.116 C 
BRANCH   3   4
ATOM      4  N   UNL A   1      41.819  33.179  30.315  1.00  0.00    -0.354 N 
ATOM      5  C   UNL A   1      43.061  33.049  29.758  1.00  0.00     0.242 C 
ATOM      6  O   UNL A   1      43.910  33.861  30.156  1.00  0.00    -0.273 OA
ATOM      7  H   UNL A   1      41.831  33.484  31.251  1.00  0.00     0.163 HD
BRANCH   5   8
ATOM      8  C   UNL A   1      43.401  32.110  28.562  1.00  0.00     0.174 C 
BRANCH   8   9
ATOM      9  C   UNL A   1      43.431  30.592  29.025  1.00  0.00     0.018 C 
ATOM     10  C   UNL A   1      44.230  30.293  30.301  1.00  0.00     0.010 C 
BRANCH   9  11
ATOM     11  C   UNL A   1      43.848  29.606  27.917  1.00  0.00     0.002 C 
ATOM     12  C   UNL A   1      42.815  29.372  26.823  1.00  0.00     0.004 C 
ENDBRANCH   9  11
ENDBRANCH   8   9
BRANCH   8  13
ATOM     13  N   UNL A   1      44.516  32.583  27.716  1.00  0.00    -0.342 N 
ATOM     14  C   UNL A   1      44.308  33.108  26.456  1.00  0.00     0.243 C 
ATOM     15  H   UNL A   1      45.436  32.521  28.061  1.00  0.00     0.164 HD
ATOM     16  O   UNL A   1      44.443  32.333  25.497  1.00  0.00    -0.273 OA
BRANCH  14  17
ATOM     17  C   UNL A   1      44.455  34.625  26.150  1.00  0.00     0.181 C 
ATOM     18  C   UNL A   1      45.520  34.642  25.023  1.00  0.00     0.042 C 
BRANCH  17  19
ATOM     19  N   UNL A   1      44.704  35.627  27.192  1.00  0.00    -0.250 N 
ATOM     20  C   UNL A   1      45.717  35.612  28.167  1.00  0.00     0.328 C 
ATOM     21  C   UNL A   1      43.867  36.678  27.407  1.00  0.00     0.259 C 
ATOM     22  N   UNL A   1      45.486  36.713  29.059  1.00  0.00    -0.307 N 
ATOM     23  O   UNL A   1      46.664  34.859  28.217  1.00  0.00    -0.248 OA
ATOM     24  C   UNL A   1      44.523  37.551  28.403  1.00  0.00     0.147 C 
ATOM     25  O   UNL A   1      42.784  36.944  26.906  1.00  0.00    -0.271 OA
ATOM     26  C   UNL A   1      46.482  37.496  29.906  1.00  0.00     0.127 C 
ATOM     27  C   UNL A   1      45.515  38.445  27.647  1.00  0.00     0.168 C 
ATOM     28  C   UNL A   1      43.481  38.002  29.448  1.00  0.00     0.048 C 
ATOM     29  C   UNL A   1      46.340  39.173  29.775  1.00  0.00     0.055 C 
ATOM     30  C   UNL A   1      45.652  39.634  28.482  1.00  0.00    -0.032 C 
ATOM     31  N   UNL A   1      45.394  38.837  26.264  1.00  0.00    -0.274 NA
ATOM     32  C   UNL A   1      45.281  40.727  27.773  1.00  0.00     0.005 A 
ATOM     33  C   UNL A   1      45.645  40.109  26.414  1.00  0.00     0.066 A 
ATOM     34  C   UNL A   1      43.815  41.052  27.480  1.00  0.00     0.056 A 
ATOM     35  C   UNL A   1      45.675  41.050  25.294  1.00  0.00     0.032 A 
ATOM     36  C   UNL A   1      43.450  41.280  26.184  1.00  0.00     0.119 A 
ATOM     37  C   UNL A   1      44.463  41.607  25.180  1.00  0.00     0.048 A 
BRANCH  36  38
ATOM     38  O   UNL A   1      42.213  40.913  25.684  1.00  0.00    -0.497 OA
ATOM     39  C   UNL A   1      41.448  40.134  26.640  1.00  0.00     0.278 C 
ENDBRANCH  36  38
ENDBRANCH  17  19
ENDBRANCH  14  17
ENDBRANCH   8  13
ENDBRANCH   5   8
ENDBRANCH   3   4
ENDBRANCH   2   3
ENDBRANCH   1   2
BRANCH   1  40
ATOM     40  C   UNL A   1      36.899  33.898  29.896  1.00  0.00     0.002 C 
BRANCH  40  41
ATOM     41  C   UNL A   1      35.611  33.963  29.077  1.00  0.00     0.021 C 
BRANCH  41  42
ATOM     42  C   UNL A   1      34.545  32.928  29.408  1.00  0.00     0.116 C 
BRANCH  42  43
ATOM     43  N   UNL A   1      33.951  32.273  28.252  1.00  0.00    -0.352 N 
ATOM     44  C   UNL A   1      34.418  31.134  27.624  1.00  0.00     0.251 C 
ATOM     45  H   UNL A   1      33.136  32.682  27.880  1.00  0.00     0.163 HD
ATOM     46  O   UNL A   1      33.872  30.681  26.626  1.00  0.00    -0.269 OA
BRANCH  44  47
ATOM     47  C   UNL A   1      35.635  30.501  28.176  1.00  0.00     0.039 A 
ATOM     48  C   UNL A   1      35.533  29.684  29.304  1.00  0.00     0.014 A 
ATOM     49  C   UNL A   1      36.885  30.857  27.662  1.00  0.00     0.014 A 
ATOM     50  C   UNL A   1      36.683  29.357  30.012  1.00  0.00     0.010 A 
ATOM     51  C   UNL A   1      38.044  30.460  28.336  1.00  0.00     0.010 A 
ATOM     52  C   UNL A   1      37.951  29.747  29.542  1.00  0.00    -0.014 A 
BRANCH  52  53
ATOM     53  C   UNL A   1      39.158  29.368  30.321  1.00  0.00     0.031 A 
ATOM     54  C   UNL A   1      40.108  28.308  29.834  1.00  0.00     0.074 A 
ATOM     55  C   UNL A   1      39.432  30.052  31.449  1.00  0.00     0.049 A 
ATOM     56  N   UNL A   1      41.238  27.916  30.366  1.00  0.00    -0.248 NA
ATOM     57  C   UNL A   1      39.753  27.596  28.596  1.00  0.00     0.031 C 
ATOM     58  C   UNL A   1      38.593  31.116  32.005  1.00  0.00     0.029 A 
ATOM     59  N   UNL A   1      40.505  29.993  32.300  1.00  0.00    -0.354 N 
ATOM     60  C   UNL A   1      41.722  26.907  29.542  1.00  0.00     0.074 A 
ATOM     61  C   UNL A   1      40.753  26.731  28.483  1.00  0.00     0.031 C 
ATOM     62  C   UNL A   1      39.221  31.665  33.052  1.00  0.00     0.029 A 
ATOM     63  C   UNL A   1      40.470  30.948  33.287  1.00  0.00     0.049 A 
ATOM     64  H   UNL A   1      41.229  29.332  32.212  1.00  0.00     0.167 HD
ATOM     65  C   UNL A   1      42.873  26.199  29.657  1.00  0.00     0.031 A 
ATOM     66  C   UNL A   1      41.341  31.224  34.278  1.00  0.00     0.031 A 
ATOM     67  C   UNL A   1      43.834  26.383  30.713  1.00  0.00     0.049 A 
ATOM     68  C   UNL A   1      42.585  30.400  34.410  1.00  0.00     0.074 A 
ATOM     69  C   UNL A   1      45.033  25.717  30.907  1.00  0.00     0.029 A 
ATOM     70  N   UNL A   1      43.714  27.294  31.752  1.00  0.00    -0.354 N 
ATOM     71  N   UNL A   1      43.013  29.439  33.629  1.00  0.00    -0.248 NA
ATOM     72  C   UNL A   1      43.453  30.684  35.560  1.00  0.00     0.031 C 
ATOM     73  C   UNL A   1      45.611  26.189  32.090  1.00  0.00     0.029 A 
ATOM     74  C   UNL A   1      44.801  27.189  32.605  1.00  0.00     0.049 A 
ATOM     75  H   UNL A   1      42.965  27.924  31.866  1.00  0.00     0.167 HD
ATOM     76  C   UNL A   1      44.196  28.989  34.200  1.00  0.00     0.074 A 
ATOM     77  C   UNL A   1      44.431  29.805  35.375  1.00  0.00     0.031 C 
ATOM     78  C   UNL A   1      45.005  27.983  33.791  1.00  0.00     0.031 A 
BRANCH  65  79
ATOM     79  C   UNL A   1      43.162  25.144  28.621  1.00  0.00    -0.014 A 
ATOM     80  C   UNL A   1      43.827  25.497  27.431  1.00  0.00     0.010 A 
ATOM     81  C   UNL A   1      42.697  23.827  28.778  1.00  0.00     0.010 A 
ATOM     82  C   UNL A   1      44.013  24.557  26.413  1.00  0.00     0.020 A 
ATOM     83  C   UNL A   1      42.901  22.877  27.771  1.00  0.00     0.020 A 
ATOM     84  C   UNL A   1      43.543  23.253  26.588  1.00  0.00     0.054 A 
BRANCH  84  85
ATOM     85  S   UNL A   1      43.806  22.035  25.268  1.00  0.00     0.124 S 
ATOM     86  O   UNL A   1      42.789  21.032  25.565  1.00  0.00    -0.237 OA
ATOM     87  O   UNL A   1      43.586  22.820  24.055  1.00  0.00    -0.237 OA
ATOM     88  O   UNL A   1      45.189  21.606  25.476  1.00  0.00    -0.744 OA
ENDBRANCH  84  85
ENDBRANCH  65  79
BRANCH  66  89
ATOM     89  C   UNL A   1      41.037  32.354  35.194  1.00  0.00    -0.014 A 
ATOM     90  C   UNL A   1      41.507  33.649  34.902  1.00  0.00     0.010 A 
ATOM     91  C   UNL A   1      40.407  32.112  36.427  1.00  0.00     0.010 A 
ATOM     92  C   UNL A   1      41.424  34.662  35.859  1.00  0.00     0.020 A 
ATOM     93  C   UNL A   1      40.299  33.132  37.376  1.00  0.00     0.020 A 
ATOM     94  C   UNL A   1      40.843  34.389  37.100  1.00  0.00     0.054 A 
BRANCH  94  95
ATOM     95  S   UNL A   1      40.832  35.688  38.367  1.00  0.00     0.124 S 
ATOM     96  O   UNL A   1      42.259  35.859  38.629  1.00  0.00    -0.237 OA
ATOM     97  O   UNL A   1      40.180  36.802  37.682  1.00  0.00    -0.237 OA
ATOM     98  O   UNL A   1      40.061  35.094  39.455  1.00  0.00    -0.744 OA
ENDBRANCH  94  95
ENDBRANCH  66  89
BRANCH  78  99
ATOM     99  C   UNL A   1      46.210  27.669  34.636  1.00  0.00    -0.014 A 
ATOM    100  C   UNL A   1      47.445  28.280  34.358  1.00  0.00     0.010 A 
ATOM    101  C   UNL A   1      46.136  26.691  35.644  1.00  0.00     0.010 A 
ATOM    102  C   UNL A   1      48.593  27.902  35.058  1.00  0.00     0.020 A 
ATOM    103  C   UNL A   1      47.280  26.327  36.361  1.00  0.00     0.020 A 
ATOM    104  C   UNL A   1      48.505  26.921  36.048  1.00  0.00     0.054 A 
BRANCH 104 105
ATOM    105  S   UNL A   1      50.007  26.432  36.941  1.00  0.00     0.124 S 
ATOM    106  O   UNL A   1      51.059  27.017  36.115  1.00  0.00    -0.237 OA
ATOM    107  O   UNL A   1      49.819  27.049  38.252  1.00  0.00    -0.237 OA
ATOM    108  O   UNL A   1      49.946  24.972  36.936  1.00  0.00    -0.744 OA
ENDBRANCH 104 105
ENDBRANCH  78  99
ENDBRANCH  52  53
ENDBRANCH  44  47
ENDBRANCH  42  43
ENDBRANCH  41  42
ENDBRANCH  40  41
ENDBRANCH   1  40
TORSDOF 22
ENDMDL
MODEL 2
REMARK VINA RESULT:      -7.8      6.740     11.997
REMARK SMILES CC[C@@H](C)[C@H](NC(=O)[C@H](C)N1C(=O)N2CCC3=c4cc(OC)ccc4=N[C@@H]3[C@@]2(C)C1=O)C(=O)NCCCCCCNC(=O)c1ccc(-c2c3nc(c(-c4ccc(S(=O)(=O)[O-])cc4)c4ccc([nH]4)c(-c4ccc(S(=O)(=O)[O-])cc4)c4nc(c(-c5ccc(S(=O)(=O)[O-])cc5)c5ccc2[nH]5)C=C4)C=C3)cc1
REMARK SMILES IDX 37 1 36 2 35 3 34 4 32 5 33 6 5 8 3 9 4 10 2 11 1 12 6 13
REMARK SMILES IDX 7 14 8 16 9 17 10 18 11 19 12 20 30 21 14 22 13 23 28 24
REMARK SMILES IDX 31 25 15 26 27 27 29 28 16 29 17 30 26 31 18 32 25 33 19 34
REMARK SMILES IDX 24 35 20 36 23 37 21 38 22 39 38 40 39 41 40 42 41 43 42 44
REMARK SMILES IDX 43 46 44 47 45 48 103 49 46 50 102 51 47 52 48 53 49 54
REMARK SMILES IDX 96 55 50 56 101 57 95 58 97 59 51 60 100 61 94 62 93 63
REMARK SMILES IDX 52 65 82 66 63 67 81 68 64 69 67 70 80 71 98 72 65 73 66 74
REMARK SMILES IDX 79 76 99 77 68 78 53 79 54 80 62 81 55 82 61 83 56 84 57 85
REMARK SMILES IDX 58 86 59 87 60 88 83 89 84 90 92 91 85 92 91 93 86 94 87 95
REMARK SMILES IDX 88 96 89 97 90 98 69 99 70 100 78 101 71 102 77 103 72 104
REMARK SMILES IDX 73 105 74 106 75 107 76 108
REMARK H PARENT 34 7 6 15 41 45 97 64 67 75
REMARK Flexibility Score: inf
ROOT
ATOM      1  C   UNL A   1      40.390  27.568  27.136  1.00  0.00     0.002 C 
ENDROOT
BRANCH   1   2
ATOM      2  C   UNL A   1      39.226  27.871  28.087  1.00  0.00     0.021 C 
BRANCH   2   3
ATOM      3  C   UNL A   1      38.819  29.335  28.270  1.00  0.00     0.116 C 
BRANCH   3   4
ATOM      4  N   UNL A   1      37.920  29.588  29.381  1.00  0.00    -0.354 N 
ATOM      5  C   UNL A   1      36.565  29.768  29.442  1.00  0.00     0.242 C 
ATOM      6  O   UNL A   1      36.019  29.343  30.471  1.00  0.00    -0.273 OA
ATOM      7  H   UNL A   1      38.369  29.641  30.256  1.00  0.00     0.163 HD
BRANCH   5   8
ATOM      8  C   UNL A   1      35.686  30.275  28.261  1.00  0.00     0.174 C 
BRANCH   8   9
ATOM      9  C   UNL A   1      34.765  31.484  28.718  1.00  0.00     0.018 C 
ATOM     10  C   UNL A   1      34.501  32.566  27.662  1.00  0.00     0.010 C 
BRANCH   9  11
ATOM     11  C   UNL A   1      35.214  32.151  30.034  1.00  0.00     0.002 C 
ATOM     12  C   UNL A   1      34.682  33.559  30.270  1.00  0.00     0.004 C 
ENDBRANCH   9  11
ENDBRANCH   8   9
BRANCH   8  13
ATOM     13  N   UNL A   1      35.051  29.200  27.470  1.00  0.00    -0.342 N 
ATOM     14  C   UNL A   1      33.694  29.176  27.222  1.00  0.00     0.243 C 
ATOM     15  H   UNL A   1      35.615  28.477  27.109  1.00  0.00     0.164 HD
ATOM     16  O   UNL A   1      32.999  28.478  27.976  1.00  0.00    -0.273 OA
BRANCH  14  17
ATOM     17  C   UNL A   1      33.096  29.496  25.823  1.00  0.00     0.181 C 
ATOM     18  C   UNL A   1      31.837  30.330  26.174  1.00  0.00     0.042 C 
BRANCH  17  19
ATOM     19  N   UNL A   1      32.839  28.465  24.811  1.00  0.00    -0.250 N 
ATOM     20  C   UNL A   1      33.423  28.355  23.537  1.00  0.00     0.328 C 
ATOM     21  C   UNL A   1      31.875  27.518  24.963  1.00  0.00     0.259 C 
ATOM     22  N   UNL A   1      32.767  27.284  22.843  1.00  0.00    -0.307 N 
ATOM     23  O   UNL A   1      34.363  28.992  23.113  1.00  0.00    -0.248 OA
ATOM     24  C   UNL A   1      32.025  26.568  23.841  1.00  0.00     0.147 C 
ATOM     25  O   UNL A   1      31.026  27.384  25.834  1.00  0.00    -0.271 OA
ATOM     26  C   UNL A   1      33.296  26.384  21.732  1.00  0.00     0.127 C 
ATOM     27  C   UNL A   1      33.123  25.568  24.230  1.00  0.00     0.168 C 
ATOM     28  C   UNL A   1      30.633  26.236  23.265  1.00  0.00     0.048 C 
ATOM     29  C   UNL A   1      33.033  24.736  21.986  1.00  0.00     0.055 C 
ATOM     30  C   UNL A   1      32.818  24.367  23.461  1.00  0.00    -0.032 C 
ATOM     31  N   UNL A   1      33.471  25.201  25.581  1.00  0.00    -0.274 NA
ATOM     32  C   UNL A   1      32.616  23.329  24.308  1.00  0.00     0.005 A 
ATOM     33  C   UNL A   1      33.513  23.908  25.413  1.00  0.00     0.066 A 
ATOM     34  C   UNL A   1      31.331  23.180  25.125  1.00  0.00     0.056 A 
ATOM     35  C   UNL A   1      33.848  22.977  26.490  1.00  0.00     0.032 A 
ATOM     36  C   UNL A   1      31.440  23.005  26.475  1.00  0.00     0.119 A 
ATOM     37  C   UNL A   1      32.708  22.566  27.061  1.00  0.00     0.048 A 
BRANCH  36  38
ATOM     38  O   UNL A   1      30.517  23.517  27.369  1.00  0.00    -0.497 OA
ATOM     39  C   UNL A   1      29.281  22.756  27.372  1.00  0.00     0.278 C 
ENDBRANCH  36  38
ENDBRANCH  17  19
ENDBRANCH  14  17
ENDBRANCH   8  13
ENDBRANCH   5   8
ENDBRANCH   3   4
ENDBRANCH   2   3
ENDBRANCH   1   2
BRANCH   1  40
ATOM     40  C   UNL A   1      40.451  26.184  26.487  1.00  0.00     0.002 C 
BRANCH  40  41
ATOM     41  C   UNL A   1      39.773  25.037  27.233  1.00  0.00     0.021 C 
BRANCH  41  42
ATOM     42  C   UNL A   1      40.606  23.779  27.442  1.00  0.00     0.116 C 
BRANCH  42  43
ATOM     43  N   UNL A   1      41.106  23.169  26.220  1.00  0.00    -0.352 N 
ATOM     44  C   UNL A   1      42.424  23.121  25.807  1.00  0.00     0.251 C 
ATOM     45  H   UNL A   1      40.440  22.749  25.629  1.00  0.00     0.163 HD
ATOM     46  O   UNL A   1      42.743  22.621  24.735  1.00  0.00    -0.269 OA
BRANCH  44  47
ATOM     47  C   UNL A   1      43.439  23.737  26.687  1.00  0.00     0.039 A 
ATOM     48  C   UNL A   1      43.656  25.115  26.625  1.00  0.00     0.014 A 
ATOM     49  C   UNL A   1      44.277  22.916  27.447  1.00  0.00     0.014 A 
ATOM     50  C   UNL A   1      44.806  25.649  27.193  1.00  0.00     0.010 A 
ATOM     51  C   UNL A   1      45.391  23.470  28.082  1.00  0.00     0.010 A 
ATOM     52  C   UNL A   1      45.692  24.833  27.921  1.00  0.00    -0.014 A 
BRANCH  52  53
ATOM     53  C   UNL A   1      46.906  25.441  28.523  1.00  0.00     0.031 A 
ATOM     54  C   UNL A   1      48.088  25.838  27.681  1.00  0.00     0.074 A 
ATOM     55  C   UNL A   1      46.901  25.707  29.844  1.00  0.00     0.049 A 
ATOM     56  N   UNL A   1      49.190  26.442  28.051  1.00  0.00    -0.248 NA
ATOM     57  C   UNL A   1      48.034  25.522  26.245  1.00  0.00     0.031 C 
ATOM     58  C   UNL A   1      45.799  25.386  30.755  1.00  0.00     0.029 A 
ATOM     59  N   UNL A   1      47.818  26.343  30.639  1.00  0.00    -0.354 N 
ATOM     60  C   UNL A   1      49.963  26.566  26.903  1.00  0.00     0.074 A 
ATOM     61  C   UNL A   1      49.216  25.956  25.826  1.00  0.00     0.031 C 
ATOM     62  C   UNL A   1      46.067  25.899  31.962  1.00  0.00     0.029 A 
ATOM     63  C   UNL A   1      47.388  26.521  31.932  1.00  0.00     0.049 A 
ATOM     64  H   UNL A   1      48.699  26.642  30.316  1.00  0.00     0.167 HD
ATOM     65  C   UNL A   1      51.183  27.143  26.763  1.00  0.00     0.031 A 
ATOM     66  C   UNL A   1      47.982  27.117  32.985  1.00  0.00     0.031 A 
ATOM     67  C   UNL A   1      51.919  27.751  27.841  1.00  0.00     0.049 A 
ATOM     68  C   UNL A   1      49.347  27.709  32.816  1.00  0.00     0.074 A 
ATOM     69  C   UNL A   1      53.159  28.367  27.792  1.00  0.00     0.029 A 
ATOM     70  N   UNL A   1      51.492  27.824  29.158  1.00  0.00    -0.354 N 
ATOM     71  N   UNL A   1      50.068  27.799  31.725  1.00  0.00    -0.248 NA
ATOM     72  C   UNL A   1      49.985  28.264  34.016  1.00  0.00     0.031 C 
ATOM     73  C   UNL A   1      53.502  28.765  29.089  1.00  0.00     0.029 A 
ATOM     74  C   UNL A   1      52.453  28.448  29.937  1.00  0.00     0.049 A 
ATOM     75  H   UNL A   1      50.630  27.481  29.492  1.00  0.00     0.167 HD
ATOM     76  C   UNL A   1      51.256  28.408  32.109  1.00  0.00     0.074 A 
ATOM     77  C   UNL A   1      51.143  28.693  33.525  1.00  0.00     0.031 C 
ATOM     78  C   UNL A   1      52.344  28.693  31.353  1.00  0.00     0.031 A 
BRANCH  65  79
ATOM     79  C   UNL A   1      51.816  27.139  25.396  1.00  0.00    -0.014 A 
ATOM     80  C   UNL A   1      51.537  28.184  24.494  1.00  0.00     0.010 A 
ATOM     81  C   UNL A   1      52.608  26.060  24.967  1.00  0.00     0.010 A 
ATOM     82  C   UNL A   1      52.030  28.146  23.187  1.00  0.00     0.020 A 
ATOM     83  C   UNL A   1      53.123  26.029  23.666  1.00  0.00     0.020 A 
ATOM     84  C   UNL A   1      52.816  27.065  22.779  1.00  0.00     0.054 A 
BRANCH  84  85
ATOM     85  S   UNL A   1      53.467  27.036  21.085  1.00  0.00     0.124 S 
ATOM     86  O   UNL A   1      54.846  26.607  21.290  1.00  0.00    -0.237 OA
ATOM     87  O   UNL A   1      52.596  26.069  20.420  1.00  0.00    -0.237 OA
ATOM     88  O   UNL A   1      53.301  28.418  20.636  1.00  0.00    -0.744 OA
ENDBRANCH  84  85
ENDBRANCH  65  79
BRANCH  66  89
ATOM     89  C   UNL A   1      47.245  27.177  34.274  1.00  0.00    -0.014 A 
ATOM     90  C   UNL A   1      47.265  26.079  35.154  1.00  0.00     0.010 A 
ATOM     91  C   UNL A   1      46.405  28.268  34.555  1.00  0.00     0.010 A 
ATOM     92  C   UNL A   1      46.400  26.035  36.249  1.00  0.00     0.020 A 
ATOM     93  C   UNL A   1      45.558  28.239  35.666  1.00  0.00     0.020 A 
ATOM     94  C   UNL A   1      45.534  27.106  36.483  1.00  0.00     0.054 A 
BRANCH  94  95
ATOM     95  S   UNL A   1      44.349  26.991  37.852  1.00  0.00     0.124 S 
ATOM     96  O   UNL A   1      43.073  27.089  37.148  1.00  0.00    -0.237 OA
ATOM     97  O   UNL A   1      44.650  25.683  38.430  1.00  0.00    -0.237 OA
ATOM     98  O   UNL A   1      44.691  28.133  38.694  1.00  0.00    -0.744 OA
ENDBRANCH  94  95
ENDBRANCH  66  89
BRANCH  78  99
ATOM     99  C   UNL A   1      53.528  29.315  32.042  1.00  0.00    -0.014 A 
ATOM    100  C   UNL A   1      54.510  28.499  32.631  1.00  0.00     0.010 A 
ATOM    101  C   UNL A   1      53.612  30.711  32.190  1.00  0.00     0.010 A 
ATOM    102  C   UNL A   1      55.546  29.067  33.377  1.00  0.00     0.020 A 
ATOM    103  C   UNL A   1      54.660  31.283  32.917  1.00  0.00     0.020 A 
ATOM    104  C   UNL A   1      55.608  30.455  33.524  1.00  0.00     0.054 A 
BRANCH 104 105
ATOM    105  S   UNL A   1      56.952  31.178  34.505  1.00  0.00     0.124 S 
ATOM    106  O   UNL A   1      56.571  32.587  34.554  1.00  0.00    -0.237 OA
ATOM    107  O   UNL A   1      56.853  30.455  35.771  1.00  0.00    -0.237 OA
ATOM    108  O   UNL A   1      58.147  30.880  33.719  1.00  0.00    -0.744 OA
ENDBRANCH 104 105
ENDBRANCH  78  99
ENDBRANCH  52  53
ENDBRANCH  44  47
ENDBRANCH  42  43
ENDBRANCH  41  42
ENDBRANCH  40  41
ENDBRANCH   1  40
TORSDOF 22
ENDMDL
MODEL 3
REMARK VINA RESULT:      -7.8      2.263      3.417
REMARK SMILES CC[C@@H](C)[C@H](NC(=O)[C@H](C)N1C(=O)N2CCC3=c4cc(OC)ccc4=N[C@@H]3[C@@]2(C)C1=O)C(=O)NCCCCCCNC(=O)c1ccc(-c2c3nc(c(-c4ccc(S(=O)(=O)[O-])cc4)c4ccc([nH]4)c(-c4ccc(S(=O)(=O)[O-])cc4)c4nc(c(-c5ccc(S(=O)(=O)[O-])cc5)c5ccc2[nH]5)C=C4)C=C3)cc1
REMARK SMILES IDX 37 1 36 2 35 3 34 4 32 5 33 6 5 8 3 9 4 10 2 11 1 12 6 13
REMARK SMILES IDX 7 14 8 16 9 17 10 18 11 19 12 20 30 21 14 22 13 23 28 24
REMARK SMILES IDX 31 25 15 26 27 27 29 28 16 29 17 30 26 31 18 32 25 33 19 34
REMARK SMILES IDX 24 35 20 36 23 37 21 38 22 39 38 40 39 41 40 42 41 43 42 44
REMARK SMILES IDX 43 46 44 47 45 48 103 49 46 50 102 51 47 52 48 53 49 54
REMARK SMILES IDX 96 55 50 56 101 57 95 58 97 59 51 60 100 61 94 62 93 63
REMARK SMILES IDX 52 65 82 66 63 67 81 68 64 69 67 70 80 71 98 72 65 73 66 74
REMARK SMILES IDX 79 76 99 77 68 78 53 79 54 80 62 81 55 82 61 83 56 84 57 85
REMARK SMILES IDX 58 86 59 87 60 88 83 89 84 90 92 91 85 92 91 93 86 94 87 95
REMARK SMILES IDX 88 96 89 97 90 98 69 99 70 100 78 101 71 102 77 103 72 104
REMARK SMILES IDX 73 105 74 106 75 107 76 108
REMARK H PARENT 34 7 6 15 41 45 97 64 67 75
REMARK Flexibility Score: inf
ROOT
ATOM      1  C   UNL A   1      38.236  33.939  29.175  1.00  0.00     0.002 C 
ENDROOT
BRANCH   1   2
ATOM      2  C   UNL A   1      39.427  34.459  29.989  1.00  0.00     0.021 C 
BRANCH   2   3
ATOM      3  C   UNL A   1      40.707  33.621  29.993  1.00  0.00     0.116 C 
BRANCH   3   4
ATOM      4  N   UNL A   1      41.789  34.157  30.798  1.00  0.00    -0.354 N 
ATOM      5  C   UNL A   1      42.784  35.053  30.517  1.00  0.00     0.242 C 
ATOM      6  O   UNL A   1      43.134  35.773  31.464  1.00  0.00    -0.273 OA
ATOM      7  H   UNL A   1      41.813  33.810  31.719  1.00  0.00     0.163 HD
BRANCH   5   8
ATOM      8  C   UNL A   1      43.338  35.341  29.090  1.00  0.00     0.174 C 
BRANCH   8   9
ATOM      9  C   UNL A   1      43.984  34.037  28.459  1.00  0.00     0.018 C 
ATOM     10  C   UNL A   1      44.849  33.190  29.403  1.00  0.00     0.010 C 
BRANCH   9  11
ATOM     11  C   UNL A   1      44.754  34.289  27.147  1.00  0.00     0.002 C 
ATOM     12  C   UNL A   1      44.029  33.880  25.872  1.00  0.00     0.004 C 
ENDBRANCH   9  11
ENDBRANCH   8   9
BRANCH   8  13
ATOM     13  N   UNL A   1      44.104  36.600  28.978  1.00  0.00    -0.342 N 
ATOM     14  C   UNL A   1      43.675  37.653  28.195  1.00  0.00     0.243 C 
ATOM     15  H   UNL A   1      44.948  36.690  29.477  1.00  0.00     0.164 HD
ATOM     16  O   UNL A   1      44.152  37.734  27.054  1.00  0.00    -0.273 OA
BRANCH  14  17
ATOM     17  C   UNL A   1      43.100  38.963  28.804  1.00  0.00     0.181 C 
ATOM     18  C   UNL A   1      41.730  39.097  28.090  1.00  0.00     0.042 C 
BRANCH  17  19
ATOM     19  N   UNL A   1      43.853  40.222  28.842  1.00  0.00    -0.250 N 
ATOM     20  C   UNL A   1      43.995  41.164  27.809  1.00  0.00     0.328 C 
ATOM     21  C   UNL A   1      44.629  40.575  29.902  1.00  0.00     0.259 C 
ATOM     22  N   UNL A   1      44.934  42.159  28.245  1.00  0.00    -0.307 N 
ATOM     23  O   UNL A   1      43.385  41.190  26.762  1.00  0.00    -0.248 OA
ATOM     24  C   UNL A   1      45.085  41.959  29.658  1.00  0.00     0.147 C 
ATOM     25  O   UNL A   1      44.925  39.949  30.911  1.00  0.00    -0.271 OA
ATOM     26  C   UNL A   1      45.056  43.620  27.831  1.00  0.00     0.127 C 
ATOM     27  C   UNL A   1      43.962  42.900  30.116  1.00  0.00     0.168 C 
ATOM     28  C   UNL A   1      46.584  42.070  30.005  1.00  0.00     0.048 C 
ATOM     29  C   UNL A   1      45.189  44.701  29.122  1.00  0.00     0.055 C 
ATOM     30  C   UNL A   1      44.638  44.150  30.445  1.00  0.00    -0.032 C 
ATOM     31  N   UNL A   1      42.987  42.595  31.135  1.00  0.00    -0.274 NA
ATOM     32  C   UNL A   1      44.407  44.459  31.744  1.00  0.00     0.005 A 
ATOM     33  C   UNL A   1      43.063  43.716  31.799  1.00  0.00     0.066 A 
ATOM     34  C   UNL A   1      45.106  43.732  32.893  1.00  0.00     0.056 A 
ATOM     35  C   UNL A   1      42.250  43.995  32.982  1.00  0.00     0.032 A 
ATOM     36  C   UNL A   1      44.335  43.199  33.886  1.00  0.00     0.119 A 
ATOM     37  C   UNL A   1      42.955  43.650  34.068  1.00  0.00     0.048 A 
BRANCH  36  38
ATOM     38  O   UNL A   1      44.670  42.028  34.542  1.00  0.00    -0.497 OA
ATOM     39  C   UNL A   1      43.767  40.942  34.213  1.00  0.00     0.278 C 
ENDBRANCH  36  38
ENDBRANCH  17  19
ENDBRANCH  14  17
ENDBRANCH   8  13
ENDBRANCH   5   8
ENDBRANCH   3   4
ENDBRANCH   2   3
ENDBRANCH   1   2
BRANCH   1  40
ATOM     40  C   UNL A   1      36.907  33.717  29.899  1.00  0.00     0.002 C 
BRANCH  40  41
ATOM     41  C   UNL A   1      35.641  33.743  29.046  1.00  0.00     0.021 C 
BRANCH  41  42
ATOM     42  C   UNL A   1      34.557  32.738  29.413  1.00  0.00     0.116 C 
BRANCH  42  43
ATOM     43  N   UNL A   1      33.952  32.052  28.280  1.00  0.00    -0.352 N 
ATOM     44  C   UNL A   1      34.430  30.911  27.663  1.00  0.00     0.251 C 
ATOM     45  H   UNL A   1      33.122  32.439  27.919  1.00  0.00     0.163 HD
ATOM     46  O   UNL A   1      33.873  30.431  26.683  1.00  0.00    -0.269 OA
BRANCH  44  47
ATOM     47  C   UNL A   1      35.670  30.311  28.199  1.00  0.00     0.039 A 
ATOM     48  C   UNL A   1      35.620  29.583  29.389  1.00  0.00     0.014 A 
ATOM     49  C   UNL A   1      36.894  30.617  27.599  1.00  0.00     0.014 A 
ATOM     50  C   UNL A   1      36.803  29.300  30.063  1.00  0.00     0.010 A 
ATOM     51  C   UNL A   1      38.083  30.263  28.243  1.00  0.00     0.010 A 
ATOM     52  C   UNL A   1      38.047  29.644  29.503  1.00  0.00    -0.014 A 
BRANCH  52  53
ATOM     53  C   UNL A   1      39.290  29.315  30.247  1.00  0.00     0.031 A 
ATOM     54  C   UNL A   1      40.247  28.263  29.755  1.00  0.00     0.074 A 
ATOM     55  C   UNL A   1      39.589  30.036  31.344  1.00  0.00     0.049 A 
ATOM     56  N   UNL A   1      41.405  27.912  30.257  1.00  0.00    -0.248 NA
ATOM     57  C   UNL A   1      39.865  27.508  28.551  1.00  0.00     0.031 C 
ATOM     58  C   UNL A   1      38.745  31.096  31.901  1.00  0.00     0.029 A 
ATOM     59  N   UNL A   1      40.693  30.026  32.157  1.00  0.00    -0.354 N 
ATOM     60  C   UNL A   1      41.883  26.891  29.443  1.00  0.00     0.074 A 
ATOM     61  C   UNL A   1      40.881  26.663  28.425  1.00  0.00     0.031 C 
ATOM     62  C   UNL A   1      39.397  31.690  32.909  1.00  0.00     0.029 A 
ATOM     63  C   UNL A   1      40.670  31.008  33.119  1.00  0.00     0.049 A 
ATOM     64  H   UNL A   1      41.429  29.380  32.061  1.00  0.00     0.167 HD
ATOM     65  C   UNL A   1      43.053  26.213  29.536  1.00  0.00     0.031 A 
ATOM     66  C   UNL A   1      41.569  31.332  34.069  1.00  0.00     0.031 A 
ATOM     67  C   UNL A   1      44.047  26.449  30.551  1.00  0.00     0.049 A 
ATOM     68  C   UNL A   1      42.836  30.540  34.178  1.00  0.00     0.074 A 
ATOM     69  C   UNL A   1      45.268  25.816  30.719  1.00  0.00     0.029 A 
ATOM     70  N   UNL A   1      43.943  27.386  31.568  1.00  0.00    -0.354 N 
ATOM     71  N   UNL A   1      43.259  29.567  33.409  1.00  0.00    -0.248 NA
ATOM     72  C   UNL A   1      43.737  30.877  35.287  1.00  0.00     0.031 C 
ATOM     73  C   UNL A   1      45.876  26.335  31.867  1.00  0.00     0.029 A 
ATOM     74  C   UNL A   1      45.062  27.330  32.383  1.00  0.00     0.049 A 
ATOM     75  H   UNL A   1      43.183  28.002  31.692  1.00  0.00     0.167 HD
ATOM     76  C   UNL A   1      44.472  29.160  33.949  1.00  0.00     0.074 A 
ATOM     77  C   UNL A   1      44.729  30.015  35.091  1.00  0.00     0.031 C 
ATOM     78  C   UNL A   1      45.289  28.161  33.538  1.00  0.00     0.031 A 
BRANCH  65  79
ATOM     79  C   UNL A   1      43.330  25.136  28.519  1.00  0.00    -0.014 A 
ATOM     80  C   UNL A   1      43.966  25.466  27.307  1.00  0.00     0.010 A 
ATOM     81  C   UNL A   1      42.881  23.818  28.718  1.00  0.00     0.010 A 
ATOM     82  C   UNL A   1      44.138  24.503  26.309  1.00  0.00     0.020 A 
ATOM     83  C   UNL A   1      43.072  22.846  27.731  1.00  0.00     0.020 A 
ATOM     84  C   UNL A   1      43.685  23.199  26.526  1.00  0.00     0.054 A 
BRANCH  84  85
ATOM     85  S   UNL A   1      43.931  21.952  25.229  1.00  0.00     0.124 S 
ATOM     86  O   UNL A   1      43.737  22.730  24.011  1.00  0.00    -0.237 OA
ATOM     87  O   UNL A   1      45.296  21.493  25.476  1.00  0.00    -0.237 OA
ATOM     88  O   UNL A   1      42.894  20.961  25.513  1.00  0.00    -0.744 OA
ENDBRANCH  84  85
ENDBRANCH  65  79
BRANCH  66  89
ATOM     89  C   UNL A   1      41.271  32.481  34.964  1.00  0.00    -0.014 A 
ATOM     90  C   UNL A   1      41.551  33.795  34.546  1.00  0.00     0.010 A 
ATOM     91  C   UNL A   1      40.848  32.254  36.284  1.00  0.00     0.010 A 
ATOM     92  C   UNL A   1      41.489  34.853  35.455  1.00  0.00     0.020 A 
ATOM     93  C   UNL A   1      40.760  33.315  37.189  1.00  0.00     0.020 A 
ATOM     94  C   UNL A   1      41.118  34.601  36.778  1.00  0.00     0.054 A 
BRANCH  94  95
ATOM     95  S   UNL A   1      41.139  35.969  37.969  1.00  0.00     0.124 S 
ATOM     96  O   UNL A   1      40.223  36.920  37.346  1.00  0.00    -0.237 OA
ATOM     97  O   UNL A   1      40.654  35.338  39.194  1.00  0.00    -0.237 OA
ATOM     98  O   UNL A   1      42.541  36.374  37.996  1.00  0.00    -0.744 OA
ENDBRANCH  94  95
ENDBRANCH  66  89
BRANCH  78  99
ATOM     99  C   UNL A   1      46.531  27.899  34.347  1.00  0.00    -0.014 A 
ATOM    100  C   UNL A   1      47.735  28.548  34.022  1.00  0.00     0.010 A 
ATOM    101  C   UNL A   1      46.522  26.933  35.369  1.00  0.00     0.010 A 
ATOM    102  C   UNL A   1      48.917  28.218  34.688  1.00  0.00     0.020 A 
ATOM    103  C   UNL A   1      47.700  26.617  36.053  1.00  0.00     0.020 A 
ATOM    104  C   UNL A   1      48.894  27.247  35.693  1.00  0.00     0.054 A 
BRANCH 104 105
ATOM    105  S   UNL A   1      50.439  26.820  36.542  1.00  0.00     0.124 S 
ATOM    106  O   UNL A   1      50.887  28.120  37.035  1.00  0.00    -0.237 OA
ATOM    107  O   UNL A   1      49.996  25.877  37.566  1.00  0.00    -0.237 OA
ATOM    108  O   UNL A   1      51.260  26.236  35.484  1.00  0.00    -0.744 OA
ENDBRANCH 104 105
ENDBRANCH  78  99
ENDBRANCH  52  53
ENDBRANCH  44  47
ENDBRANCH  42  43
ENDBRANCH  41  42
ENDBRANCH  40  41
ENDBRANCH   1  40
TORSDOF 22
ENDMDL
