MODEL 1
REMARK VINA RESULT:     -10.7      0.000      0.000
REMARK SMILES CCCc1cc(O[C@@H]2CCOC3(CCC3)C2)c(C(=O)NCCCCCCNC(=O)c2ccc(-c3c4nc(c(-c5ccc(S(=O)(=O)[O-])cc5)c5ccc([nH]5)c(-c5ccc(S(=O)(=O)[O-])cc5)c5nc(c(-c6ccc(S(=O)(=O)[O-])cc6)c6ccc3[nH]6)C=C5)C=C4)cc2)s1
REMARK SMILES IDX 24 1 23 2 22 3 21 4 20 5 18 6 19 7 17 9 4 10 5 11 90 12 6 13
REMARK SMILES IDX 3 14 2 15 1 16 7 17 8 18 9 19 16 20 10 21 12 22 11 23 13 24
REMARK SMILES IDX 15 25 14 26 25 27 26 28 27 29 28 30 29 32 30 33 31 34 89 35
REMARK SMILES IDX 32 36 88 37 33 38 34 39 35 40 82 41 36 42 87 43 81 44 83 45
REMARK SMILES IDX 37 46 86 47 80 48 79 49 38 51 68 52 49 53 67 54 50 55 53 56
REMARK SMILES IDX 66 57 84 58 51 59 52 60 65 62 85 63 54 64 39 65 40 66 48 67
REMARK SMILES IDX 41 68 47 69 42 70 43 71 44 72 45 73 46 74 69 75 70 76 78 77
REMARK SMILES IDX 71 78 77 79 72 80 73 81 74 82 75 83 76 84 55 85 56 86 64 87
REMARK SMILES IDX 57 88 63 89 58 90 59 91 60 92 61 93 62 94
REMARK H PARENT 20 8 27 31 83 50 53 61
REMARK Flexibility Score: inf
ROOT
ATOM      1  C   UNL A   1      40.267  21.627  26.557  1.00  0.00     0.002 C 
ENDROOT
BRANCH   1   2
ATOM      2  C   UNL A   1      39.075  22.577  26.393  1.00  0.00     0.002 C 
BRANCH   2   3
ATOM      3  C   UNL A   1      37.924  22.007  25.562  1.00  0.00     0.021 C 
BRANCH   3   4
ATOM      4  C   UNL A   1      36.833  23.031  25.246  1.00  0.00     0.116 C 
BRANCH   4   5
ATOM      5  N   UNL A   1      35.803  23.007  26.252  1.00  0.00    -0.351 N 
ATOM      6  C   UNL A   1      34.549  22.454  26.263  1.00  0.00     0.265 C 
ATOM      7  O   UNL A   1      33.968  22.594  27.347  1.00  0.00    -0.268 OA
ATOM      8  H   UNL A   1      36.043  23.474  27.084  1.00  0.00     0.163 HD
BRANCH   6   9
ATOM      9  C   UNL A   1      33.938  21.764  25.127  1.00  0.00     0.134 A 
ATOM     10  C   UNL A   1      32.767  19.890  23.952  1.00  0.00     0.009 A 
ATOM     11  C   UNL A   1      32.623  21.114  23.338  1.00  0.00     0.062 A 
ATOM     12  S   UNL A   1      33.608  20.072  25.416  1.00  0.00    -0.131 S 
ATOM     13  C   UNL A   1      33.528  22.095  23.838  1.00  0.00     0.143 A 
BRANCH  10  14
ATOM     14  C   UNL A   1      32.361  18.563  23.369  1.00  0.00     0.046 C 
BRANCH  14  15
ATOM     15  C   UNL A   1      33.359  17.414  23.449  1.00  0.00     0.002 C 
ATOM     16  C   UNL A   1      33.044  16.422  24.556  1.00  0.00     0.004 C 
ENDBRANCH  14  15
ENDBRANCH  10  14
BRANCH  13  17
ATOM     17  O   UNL A   1      33.764  23.297  23.258  1.00  0.00    -0.488 OA
BRANCH  17  18
ATOM     18  C   UNL A   1      32.687  24.254  23.105  1.00  0.00     0.178 C 
ATOM     19  C   UNL A   1      32.755  25.117  21.852  1.00  0.00     0.074 C 
ATOM     20  C   UNL A   1      32.174  25.060  24.311  1.00  0.00     0.080 C 
ATOM     21  C   UNL A   1      33.171  26.557  22.139  1.00  0.00     0.165 C 
ATOM     22  C   UNL A   1      33.025  26.297  24.594  1.00  0.00     0.072 C 
ATOM     23  O   UNL A   1      33.773  26.712  23.421  1.00  0.00    -0.375 OA
ATOM     24  C   UNL A   1      32.364  27.508  25.344  1.00  0.00     0.036 C 
ATOM     25  C   UNL A   1      33.842  26.110  25.918  1.00  0.00     0.036 C 
ATOM     26  C   UNL A   1      33.659  27.604  26.181  1.00  0.00     0.006 C 
ENDBRANCH  17  18
ENDBRANCH  13  17
ENDBRANCH   6   9
ENDBRANCH   4   5
ENDBRANCH   3   4
ENDBRANCH   2   3
ENDBRANCH   1   2
BRANCH   1  27
ATOM     27  C   UNL A   1      40.892  21.616  27.955  1.00  0.00     0.021 C 
BRANCH  27  28
ATOM     28  C   UNL A   1      41.880  22.751  28.202  1.00  0.00     0.116 C 
BRANCH  28  29
ATOM     29  N   UNL A   1      42.327  23.346  26.949  1.00  0.00    -0.352 N 
ATOM     30  C   UNL A   1      42.211  24.642  26.518  1.00  0.00     0.251 C 
ATOM     31  H   UNL A   1      42.775  22.731  26.324  1.00  0.00     0.163 HD
ATOM     32  O   UNL A   1      42.376  24.916  25.328  1.00  0.00    -0.269 OA
BRANCH  30  33
ATOM     33  C   UNL A   1      41.886  25.705  27.488  1.00  0.00     0.039 A 
ATOM     34  C   UNL A   1      40.711  25.616  28.236  1.00  0.00     0.014 A 
ATOM     35  C   UNL A   1      42.753  26.788  27.654  1.00  0.00     0.014 A 
ATOM     36  C   UNL A   1      40.440  26.582  29.208  1.00  0.00     0.010 A 
ATOM     37  C   UNL A   1      42.517  27.709  28.669  1.00  0.00     0.010 A 
ATOM     38  C   UNL A   1      41.361  27.612  29.458  1.00  0.00    -0.014 A 
BRANCH  38  39
ATOM     39  C   UNL A   1      41.156  28.585  30.560  1.00  0.00     0.031 A 
ATOM     40  C   UNL A   1      41.972  28.486  31.819  1.00  0.00     0.074 A 
ATOM     41  C   UNL A   1      40.173  29.501  30.458  1.00  0.00     0.049 A 
ATOM     42  N   UNL A   1      41.871  29.181  32.922  1.00  0.00    -0.248 NA
ATOM     43  C   UNL A   1      43.024  27.455  31.851  1.00  0.00     0.031 C 
ATOM     44  C   UNL A   1      39.291  29.671  29.300  1.00  0.00     0.029 A 
ATOM     45  N   UNL A   1      39.738  30.452  31.347  1.00  0.00    -0.354 N 
ATOM     46  C   UNL A   1      42.833  28.665  33.783  1.00  0.00     0.074 A 
ATOM     47  C   UNL A   1      43.472  27.567  33.093  1.00  0.00     0.031 C 
ATOM     48  C   UNL A   1      38.438  30.680  29.541  1.00  0.00     0.029 A 
ATOM     49  C   UNL A   1      38.676  31.195  30.886  1.00  0.00     0.049 A 
ATOM     50  H   UNL A   1      40.150  30.592  32.230  1.00  0.00     0.167 HD
ATOM     51  C   UNL A   1      43.162  29.079  35.030  1.00  0.00     0.031 A 
ATOM     52  C   UNL A   1      37.961  32.167  31.484  1.00  0.00     0.031 A 
ATOM     53  C   UNL A   1      42.519  30.173  35.710  1.00  0.00     0.049 A 
ATOM     54  C   UNL A   1      38.321  32.584  32.883  1.00  0.00     0.074 A 
ATOM     55  C   UNL A   1      42.814  30.704  36.953  1.00  0.00     0.029 A 
ATOM     56  N   UNL A   1      41.446  30.897  35.210  1.00  0.00    -0.354 N 
ATOM     57  N   UNL A   1      39.278  32.129  33.657  1.00  0.00    -0.248 NA
ATOM     58  C   UNL A   1      37.509  33.649  33.488  1.00  0.00     0.031 C 
ATOM     59  C   UNL A   1      41.881  31.707  37.231  1.00  0.00     0.029 A 
ATOM     60  C   UNL A   1      41.046  31.848  36.134  1.00  0.00     0.049 A 
ATOM     61  H   UNL A   1      41.032  30.757  34.328  1.00  0.00     0.167 HD
ATOM     62  C   UNL A   1      39.199  32.869  34.830  1.00  0.00     0.074 A 
ATOM     63  C   UNL A   1      38.112  33.811  34.659  1.00  0.00     0.031 C 
ATOM     64  C   UNL A   1      39.959  32.777  35.950  1.00  0.00     0.031 A 
BRANCH  51  65
ATOM     65  C   UNL A   1      44.259  28.335  35.747  1.00  0.00    -0.014 A 
ATOM     66  C   UNL A   1      43.980  27.192  36.518  1.00  0.00     0.010 A 
ATOM     67  C   UNL A   1      45.594  28.758  35.611  1.00  0.00     0.010 A 
ATOM     68  C   UNL A   1      45.010  26.514  37.176  1.00  0.00     0.020 A 
ATOM     69  C   UNL A   1      46.630  28.064  36.242  1.00  0.00     0.020 A 
ATOM     70  C   UNL A   1      46.329  26.955  37.036  1.00  0.00     0.054 A 
BRANCH  70  71
ATOM     71  S   UNL A   1      47.645  26.042  37.884  1.00  0.00     0.124 S 
ATOM     72  O   UNL A   1      48.768  26.971  37.783  1.00  0.00    -0.237 OA
ATOM     73  O   UNL A   1      47.097  25.864  39.227  1.00  0.00    -0.237 OA
ATOM     74  O   UNL A   1      47.780  24.817  37.102  1.00  0.00    -0.744 OA
ENDBRANCH  70  71
ENDBRANCH  51  65
BRANCH  52  75
ATOM     75  C   UNL A   1      36.831  32.810  30.757  1.00  0.00    -0.014 A 
ATOM     76  C   UNL A   1      35.517  32.339  30.922  1.00  0.00     0.010 A 
ATOM     77  C   UNL A   1      37.062  33.909  29.910  1.00  0.00     0.010 A 
ATOM     78  C   UNL A   1      34.456  32.946  30.241  1.00  0.00     0.020 A 
ATOM     79  C   UNL A   1      36.002  34.537  29.252  1.00  0.00     0.020 A 
ATOM     80  C   UNL A   1      34.706  34.045  29.414  1.00  0.00     0.054 A 
BRANCH  80  81
ATOM     81  S   UNL A   1      33.309  34.850  28.584  1.00  0.00     0.124 S 
ATOM     82  O   UNL A   1      32.569  35.411  29.709  1.00  0.00    -0.237 OA
ATOM     83  O   UNL A   1      33.974  35.818  27.715  1.00  0.00    -0.237 OA
ATOM     84  O   UNL A   1      32.647  33.749  27.886  1.00  0.00    -0.744 OA
ENDBRANCH  80  81
ENDBRANCH  52  75
BRANCH  64  85
ATOM     85  C   UNL A   1      39.663  33.735  37.073  1.00  0.00    -0.014 A 
ATOM     86  C   UNL A   1      38.802  33.379  38.125  1.00  0.00     0.010 A 
ATOM     87  C   UNL A   1      40.316  34.981  37.111  1.00  0.00     0.010 A 
ATOM     88  C   UNL A   1      38.584  34.261  39.188  1.00  0.00     0.020 A 
ATOM     89  C   UNL A   1      40.124  35.853  38.186  1.00  0.00     0.020 A 
ATOM     90  C   UNL A   1      39.251  35.491  39.214  1.00  0.00     0.054 A 
BRANCH  90  91
ATOM     91  S   UNL A   1      39.000  36.587  40.636  1.00  0.00     0.124 S 
ATOM     92  O   UNL A   1      38.445  37.782  40.005  1.00  0.00    -0.237 OA
ATOM     93  O   UNL A   1      38.069  35.824  41.465  1.00  0.00    -0.237 OA
ATOM     94  O   UNL A   1      40.340  36.742  41.196  1.00  0.00    -0.744 OA
ENDBRANCH  90  91
ENDBRANCH  64  85
ENDBRANCH  38  39
ENDBRANCH  30  33
ENDBRANCH  28  29
ENDBRANCH  27  28
ENDBRANCH   1  27
TORSDOF 20
ENDMDL
MODEL 2
REMARK VINA RESULT:     -10.7      0.881      8.072
REMARK SMILES CCCc1cc(O[C@@H]2CCOC3(CCC3)C2)c(C(=O)NCCCCCCNC(=O)c2ccc(-c3c4nc(c(-c5ccc(S(=O)(=O)[O-])cc5)c5ccc([nH]5)c(-c5ccc(S(=O)(=O)[O-])cc5)c5nc(c(-c6ccc(S(=O)(=O)[O-])cc6)c6ccc3[nH]6)C=C5)C=C4)cc2)s1
REMARK SMILES IDX 24 1 23 2 22 3 21 4 20 5 18 6 19 7 17 9 4 10 5 11 90 12 6 13
REMARK SMILES IDX 3 14 2 15 1 16 7 17 8 18 9 19 16 20 10 21 12 22 11 23 13 24
REMARK SMILES IDX 15 25 14 26 25 27 26 28 27 29 28 30 29 32 30 33 31 34 89 35
REMARK SMILES IDX 32 36 88 37 33 38 34 39 35 40 82 41 36 42 87 43 81 44 83 45
REMARK SMILES IDX 37 46 86 47 80 48 79 49 38 51 68 52 49 53 67 54 50 55 53 56
REMARK SMILES IDX 66 57 84 58 51 59 52 60 65 62 85 63 54 64 39 65 40 66 48 67
REMARK SMILES IDX 41 68 47 69 42 70 43 71 44 72 45 73 46 74 69 75 70 76 78 77
REMARK SMILES IDX 71 78 77 79 72 80 73 81 74 82 75 83 76 84 55 85 56 86 64 87
REMARK SMILES IDX 57 88 63 89 58 90 59 91 60 92 61 93 62 94
REMARK H PARENT 20 8 27 31 83 50 53 61
REMARK Flexibility Score: inf
ROOT
ATOM      1  C   UNL A   1      40.491  21.955  26.174  1.00  0.00     0.002 C 
ENDROOT
BRANCH   1   2
ATOM      2  C   UNL A   1      38.990  22.259  26.244  1.00  0.00     0.002 C 
BRANCH   2   3
ATOM      3  C   UNL A   1      38.129  21.397  25.318  1.00  0.00     0.021 C 
BRANCH   3   4
ATOM      4  C   UNL A   1      36.802  22.054  24.934  1.00  0.00     0.116 C 
BRANCH   4   5
ATOM      5  N   UNL A   1      35.933  22.156  26.077  1.00  0.00    -0.351 N 
ATOM      6  C   UNL A   1      34.714  21.593  26.350  1.00  0.00     0.265 C 
ATOM      7  O   UNL A   1      34.293  21.874  27.480  1.00  0.00    -0.268 OA
ATOM      8  H   UNL A   1      36.276  22.737  26.793  1.00  0.00     0.163 HD
BRANCH   6   9
ATOM      9  C   UNL A   1      33.966  20.744  25.423  1.00  0.00     0.134 A 
ATOM     10  C   UNL A   1      33.457  18.658  24.136  1.00  0.00     0.009 A 
ATOM     11  C   UNL A   1      32.368  19.479  24.328  1.00  0.00     0.062 A 
ATOM     12  S   UNL A   1      34.803  19.279  24.965  1.00  0.00    -0.131 S 
ATOM     13  C   UNL A   1      32.728  20.779  24.786  1.00  0.00     0.143 A 
BRANCH  10  14
ATOM     14  C   UNL A   1      33.503  17.458  23.229  1.00  0.00     0.046 C 
BRANCH  14  15
ATOM     15  C   UNL A   1      34.078  16.163  23.787  1.00  0.00     0.002 C 
ATOM     16  C   UNL A   1      33.352  15.668  25.027  1.00  0.00     0.004 C 
ENDBRANCH  14  15
ENDBRANCH  10  14
BRANCH  13  17
ATOM     17  O   UNL A   1      31.890  21.845  24.826  1.00  0.00    -0.488 OA
BRANCH  17  18
ATOM     18  C   UNL A   1      31.930  22.840  23.775  1.00  0.00     0.178 C 
ATOM     19  C   UNL A   1      32.977  22.605  22.693  1.00  0.00     0.074 C 
ATOM     20  C   UNL A   1      31.793  24.337  24.103  1.00  0.00     0.080 C 
ATOM     21  C   UNL A   1      34.166  23.556  22.795  1.00  0.00     0.165 C 
ATOM     22  C   UNL A   1      33.116  24.966  24.535  1.00  0.00     0.072 C 
ATOM     23  O   UNL A   1      34.254  24.196  24.066  1.00  0.00    -0.375 OA
ATOM     24  C   UNL A   1      33.314  26.511  24.335  1.00  0.00     0.036 C 
ATOM     25  C   UNL A   1      33.085  25.314  26.062  1.00  0.00     0.036 C 
ATOM     26  C   UNL A   1      33.940  26.541  25.747  1.00  0.00     0.006 C 
ENDBRANCH  17  18
ENDBRANCH  13  17
ENDBRANCH   6   9
ENDBRANCH   4   5
ENDBRANCH   3   4
ENDBRANCH   2   3
ENDBRANCH   1   2
BRANCH   1  27
ATOM     27  C   UNL A   1      41.243  22.120  27.498  1.00  0.00     0.021 C 
BRANCH  27  28
ATOM     28  C   UNL A   1      42.228  23.284  27.512  1.00  0.00     0.116 C 
BRANCH  28  29
ATOM     29  N   UNL A   1      42.008  24.177  26.382  1.00  0.00    -0.352 N 
ATOM     30  C   UNL A   1      41.474  25.439  26.369  1.00  0.00     0.251 C 
ATOM     31  H   UNL A   1      42.282  23.824  25.504  1.00  0.00     0.163 HD
ATOM     32  O   UNL A   1      41.091  25.939  25.309  1.00  0.00    -0.269 OA
BRANCH  30  33
ATOM     33  C   UNL A   1      41.358  26.194  27.630  1.00  0.00     0.039 A 
ATOM     34  C   UNL A   1      42.343  27.125  27.967  1.00  0.00     0.014 A 
ATOM     35  C   UNL A   1      40.268  25.978  28.477  1.00  0.00     0.014 A 
ATOM     36  C   UNL A   1      42.195  27.895  29.123  1.00  0.00     0.010 A 
ATOM     37  C   UNL A   1      40.087  26.793  29.590  1.00  0.00     0.010 A 
ATOM     38  C   UNL A   1      41.046  27.762  29.920  1.00  0.00    -0.014 A 
BRANCH  38  39
ATOM     39  C   UNL A   1      40.807  28.645  31.088  1.00  0.00     0.031 A 
ATOM     40  C   UNL A   1      39.750  29.712  31.027  1.00  0.00     0.074 A 
ATOM     41  C   UNL A   1      41.605  28.540  32.169  1.00  0.00     0.049 A 
ATOM     42  N   UNL A   1      39.461  30.636  31.906  1.00  0.00    -0.248 NA
ATOM     43  C   UNL A   1      38.924  29.762  29.808  1.00  0.00     0.031 C 
ATOM     44  C   UNL A   1      42.688  27.567  32.331  1.00  0.00     0.029 A 
ATOM     45  N   UNL A   1      41.639  29.268  33.332  1.00  0.00    -0.354 N 
ATOM     46  C   UNL A   1      38.434  31.385  31.344  1.00  0.00     0.074 A 
ATOM     47  C   UNL A   1      38.184  30.838  30.029  1.00  0.00     0.031 C 
ATOM     48  C   UNL A   1      43.264  27.744  33.532  1.00  0.00     0.029 A 
ATOM     49  C   UNL A   1      42.627  28.873  34.203  1.00  0.00     0.049 A 
ATOM     50  H   UNL A   1      41.013  30.003  33.526  1.00  0.00     0.167 HD
ATOM     51  C   UNL A   1      37.752  32.424  31.882  1.00  0.00     0.031 A 
ATOM     52  C   UNL A   1      42.994  29.373  35.399  1.00  0.00     0.031 A 
ATOM     53  C   UNL A   1      38.008  32.962  33.192  1.00  0.00     0.049 A 
ATOM     54  C   UNL A   1      42.245  30.551  35.959  1.00  0.00     0.074 A 
ATOM     55  C   UNL A   1      37.338  33.978  33.849  1.00  0.00     0.029 A 
ATOM     56  N   UNL A   1      39.019  32.535  34.042  1.00  0.00    -0.354 N 
ATOM     57  N   UNL A   1      41.232  31.203  35.442  1.00  0.00    -0.248 NA
ATOM     58  C   UNL A   1      42.686  31.056  37.267  1.00  0.00     0.031 C 
ATOM     59  C   UNL A   1      37.982  34.208  35.069  1.00  0.00     0.029 A 
ATOM     60  C   UNL A   1      39.012  33.290  35.202  1.00  0.00     0.049 A 
ATOM     61  H   UNL A   1      39.647  31.802  33.848  1.00  0.00     0.167 HD
ATOM     62  C   UNL A   1      40.898  32.181  36.371  1.00  0.00     0.074 A 
ATOM     63  C   UNL A   1      41.806  32.024  37.489  1.00  0.00     0.031 C 
ATOM     64  C   UNL A   1      39.925  33.124  36.305  1.00  0.00     0.031 A 
BRANCH  51  65
ATOM     65  C   UNL A   1      36.670  33.057  31.046  1.00  0.00    -0.014 A 
ATOM     66  C   UNL A   1      36.983  33.929  29.988  1.00  0.00     0.010 A 
ATOM     67  C   UNL A   1      35.321  32.742  31.294  1.00  0.00     0.010 A 
ATOM     68  C   UNL A   1      35.968  34.508  29.221  1.00  0.00     0.020 A 
ATOM     69  C   UNL A   1      34.304  33.295  30.510  1.00  0.00     0.020 A 
ATOM     70  C   UNL A   1      34.634  34.188  29.488  1.00  0.00     0.054 A 
BRANCH  70  71
ATOM     71  S   UNL A   1      33.339  34.939  28.464  1.00  0.00     0.124 S 
ATOM     72  O   UNL A   1      34.123  35.760  27.544  1.00  0.00    -0.237 OA
ATOM     73  O   UNL A   1      32.689  33.774  27.868  1.00  0.00    -0.237 OA
ATOM     74  O   UNL A   1      32.525  35.682  29.421  1.00  0.00    -0.744 OA
ENDBRANCH  70  71
ENDBRANCH  51  65
BRANCH  52  75
ATOM     75  C   UNL A   1      44.128  28.758  36.143  1.00  0.00    -0.014 A 
ATOM     76  C   UNL A   1      43.902  27.708  37.048  1.00  0.00     0.010 A 
ATOM     77  C   UNL A   1      45.444  29.210  35.936  1.00  0.00     0.010 A 
ATOM     78  C   UNL A   1      44.968  27.129  37.744  1.00  0.00     0.020 A 
ATOM     79  C   UNL A   1      46.516  28.615  36.606  1.00  0.00     0.020 A 
ATOM     80  C   UNL A   1      46.270  27.585  37.514  1.00  0.00     0.054 A 
BRANCH  80  81
ATOM     81  S   UNL A   1      47.643  26.783  38.387  1.00  0.00     0.124 S 
ATOM     82  O   UNL A   1      46.971  26.202  39.544  1.00  0.00    -0.237 OA
ATOM     83  O   UNL A   1      48.133  25.830  37.394  1.00  0.00    -0.237 OA
ATOM     84  O   UNL A   1      48.552  27.889  38.680  1.00  0.00    -0.744 OA
ENDBRANCH  80  81
ENDBRANCH  52  75
BRANCH  64  85
ATOM     85  C   UNL A   1      39.771  34.048  37.483  1.00  0.00    -0.014 A 
ATOM     86  C   UNL A   1      39.009  33.677  38.605  1.00  0.00     0.010 A 
ATOM     87  C   UNL A   1      40.459  35.275  37.497  1.00  0.00     0.010 A 
ATOM     88  C   UNL A   1      38.923  34.526  39.712  1.00  0.00     0.020 A 
ATOM     89  C   UNL A   1      40.401  36.113  38.613  1.00  0.00     0.020 A 
ATOM     90  C   UNL A   1      39.625  35.737  39.711  1.00  0.00     0.054 A 
BRANCH  90  91
ATOM     91  S   UNL A   1      39.549  36.787  41.186  1.00  0.00     0.124 S 
ATOM     92  O   UNL A   1      39.064  38.051  40.636  1.00  0.00    -0.237 OA
ATOM     93  O   UNL A   1      38.604  36.070  42.040  1.00  0.00    -0.237 OA
ATOM     94  O   UNL A   1      40.927  36.807  41.671  1.00  0.00    -0.744 OA
ENDBRANCH  90  91
ENDBRANCH  64  85
ENDBRANCH  38  39
ENDBRANCH  30  33
ENDBRANCH  28  29
ENDBRANCH  27  28
ENDBRANCH   1  27
TORSDOF 20
ENDMDL
MODEL 3
REMARK VINA RESULT:     -10.5      5.988     11.678
REMARK SMILES CCCc1cc(O[C@@H]2CCOC3(CCC3)C2)c(C(=O)NCCCCCCNC(=O)c2ccc(-c3c4nc(c(-c5ccc(S(=O)(=O)[O-])cc5)c5ccc([nH]5)c(-c5ccc(S(=O)(=O)[O-])cc5)c5nc(c(-c6ccc(S(=O)(=O)[O-])cc6)c6ccc3[nH]6)C=C5)C=C4)cc2)s1
REMARK SMILES IDX 24 1 23 2 22 3 21 4 20 5 18 6 19 7 17 9 4 10 5 11 90 12 6 13
REMARK SMILES IDX 3 14 2 15 1 16 7 17 8 18 9 19 16 20 10 21 12 22 11 23 13 24
REMARK SMILES IDX 15 25 14 26 25 27 26 28 27 29 28 30 29 32 30 33 31 34 89 35
REMARK SMILES IDX 32 36 88 37 33 38 34 39 35 40 82 41 36 42 87 43 81 44 83 45
REMARK SMILES IDX 37 46 86 47 80 48 79 49 38 51 68 52 49 53 67 54 50 55 53 56
REMARK SMILES IDX 66 57 84 58 51 59 52 60 65 62 85 63 54 64 39 65 40 66 48 67
REMARK SMILES IDX 41 68 47 69 42 70 43 71 44 72 45 73 46 74 69 75 70 76 78 77
REMARK SMILES IDX 71 78 77 79 72 80 73 81 74 82 75 83 76 84 55 85 56 86 64 87
REMARK SMILES IDX 57 88 63 89 58 90 59 91 60 92 61 93 62 94
REMARK H PARENT 20 8 27 31 83 50 53 61
REMARK Flexibility Score: inf
ROOT
ATOM      1  C   UNL A   1      34.255  31.688  28.018  1.00  0.00     0.002 C 
ENDROOT
BRANCH   1   2
ATOM      2  C   UNL A   1      35.325  30.754  27.442  1.00  0.00     0.002 C 
BRANCH   2   3
ATOM      3  C   UNL A   1      34.963  29.268  27.502  1.00  0.00     0.021 C 
BRANCH   3   4
ATOM      4  C   UNL A   1      33.987  28.834  26.408  1.00  0.00     0.116 C 
BRANCH   4   5
ATOM      5  N   UNL A   1      32.878  28.108  26.971  1.00  0.00    -0.351 N 
ATOM      6  C   UNL A   1      31.742  27.591  26.405  1.00  0.00     0.265 C 
ATOM      7  O   UNL A   1      31.037  26.973  27.213  1.00  0.00    -0.268 OA
ATOM      8  H   UNL A   1      32.948  27.956  27.941  1.00  0.00     0.163 HD
BRANCH   6   9
ATOM      9  C   UNL A   1      31.377  27.739  24.996  1.00  0.00     0.134 A 
ATOM     10  C   UNL A   1      30.718  28.976  22.924  1.00  0.00     0.009 A 
ATOM     11  C   UNL A   1      31.312  27.757  22.684  1.00  0.00     0.062 A 
ATOM     12  S   UNL A   1      30.739  29.314  24.587  1.00  0.00    -0.131 S 
ATOM     13  C   UNL A   1      31.401  26.946  23.852  1.00  0.00     0.143 A 
BRANCH  10  14
ATOM     14  C   UNL A   1      30.032  29.835  21.895  1.00  0.00     0.046 C 
BRANCH  14  15
ATOM     15  C   UNL A   1      28.509  29.816  21.849  1.00  0.00     0.002 C 
ATOM     16  C   UNL A   1      27.865  30.631  22.958  1.00  0.00     0.004 C 
ENDBRANCH  14  15
ENDBRANCH  10  14
BRANCH  13  17
ATOM     17  O   UNL A   1      31.717  25.627  23.856  1.00  0.00    -0.488 OA
BRANCH  17  18
ATOM     18  C   UNL A   1      33.105  25.213  23.843  1.00  0.00     0.178 C 
ATOM     19  C   UNL A   1      33.474  24.205  22.762  1.00  0.00     0.074 C 
ATOM     20  C   UNL A   1      33.851  24.921  25.156  1.00  0.00     0.080 C 
ATOM     21  C   UNL A   1      33.697  22.797  23.307  1.00  0.00     0.165 C 
ATOM     22  C   UNL A   1      33.595  23.507  25.675  1.00  0.00     0.072 C 
ATOM     23  O   UNL A   1      33.155  22.619  24.614  1.00  0.00    -0.375 OA
ATOM     24  C   UNL A   1      34.670  22.842  26.606  1.00  0.00     0.036 C 
ATOM     25  C   UNL A   1      32.711  23.548  26.967  1.00  0.00     0.036 C 
ATOM     26  C   UNL A   1      33.500  22.344  27.483  1.00  0.00     0.006 C 
ENDBRANCH  17  18
ENDBRANCH  13  17
ENDBRANCH   6   9
ENDBRANCH   4   5
ENDBRANCH   3   4
ENDBRANCH   2   3
ENDBRANCH   1   2
BRANCH   1  27
ATOM     27  C   UNL A   1      34.768  32.687  29.061  1.00  0.00     0.021 C 
BRANCH  27  28
ATOM     28  C   UNL A   1      36.127  32.325  29.651  1.00  0.00     0.116 C 
BRANCH  28  29
ATOM     29  N   UNL A   1      35.985  31.444  30.804  1.00  0.00    -0.352 N 
ATOM     30  C   UNL A   1      36.774  30.392  31.189  1.00  0.00     0.251 C 
ATOM     31  H   UNL A   1      35.214  31.630  31.387  1.00  0.00     0.163 HD
ATOM     32  O   UNL A   1      36.359  29.576  32.014  1.00  0.00    -0.269 OA
BRANCH  30  33
ATOM     33  C   UNL A   1      38.122  30.242  30.609  1.00  0.00     0.039 A 
ATOM     34  C   UNL A   1      39.225  30.118  31.456  1.00  0.00     0.014 A 
ATOM     35  C   UNL A   1      38.288  30.221  29.222  1.00  0.00     0.014 A 
ATOM     36  C   UNL A   1      40.491  29.900  30.909  1.00  0.00     0.010 A 
ATOM     37  C   UNL A   1      39.537  29.935  28.682  1.00  0.00     0.010 A 
ATOM     38  C   UNL A   1      40.649  29.766  29.520  1.00  0.00    -0.014 A 
BRANCH  38  39
ATOM     39  C   UNL A   1      41.961  29.420  28.919  1.00  0.00     0.031 A 
ATOM     40  C   UNL A   1      42.228  28.020  28.440  1.00  0.00     0.074 A 
ATOM     41  C   UNL A   1      42.938  30.347  28.887  1.00  0.00     0.049 A 
ATOM     42  N   UNL A   1      43.338  27.506  27.977  1.00  0.00    -0.248 NA
ATOM     43  C   UNL A   1      41.108  27.066  28.513  1.00  0.00     0.031 C 
ATOM     44  C   UNL A   1      42.809  31.730  29.355  1.00  0.00     0.029 A 
ATOM     45  N   UNL A   1      44.238  30.265  28.456  1.00  0.00    -0.354 N 
ATOM     46  C   UNL A   1      43.057  26.170  27.717  1.00  0.00     0.074 A 
ATOM     47  C   UNL A   1      41.687  25.941  28.121  1.00  0.00     0.031 C 
ATOM     48  C   UNL A   1      43.974  32.370  29.164  1.00  0.00     0.029 A 
ATOM     49  C   UNL A   1      44.946  31.433  28.609  1.00  0.00     0.049 A 
ATOM     50  H   UNL A   1      44.627  29.446  28.070  1.00  0.00     0.167 HD
ATOM     51  C   UNL A   1      43.863  25.225  27.178  1.00  0.00     0.031 A 
ATOM     52  C   UNL A   1      46.238  31.717  28.351  1.00  0.00     0.031 A 
ATOM     53  C   UNL A   1      45.226  25.462  26.781  1.00  0.00     0.049 A 
ATOM     54  C   UNL A   1      47.124  30.640  27.787  1.00  0.00     0.074 A 
ATOM     55  C   UNL A   1      46.110  24.586  26.176  1.00  0.00     0.029 A 
ATOM     56  N   UNL A   1      45.907  26.659  26.954  1.00  0.00    -0.354 N 
ATOM     57  N   UNL A   1      46.821  29.400  27.486  1.00  0.00    -0.248 NA
ATOM     58  C   UNL A   1      48.523  31.003  27.524  1.00  0.00     0.031 C 
ATOM     59  C   UNL A   1      47.342  25.232  26.042  1.00  0.00     0.029 A 
ATOM     60  C   UNL A   1      47.209  26.533  26.501  1.00  0.00     0.049 A 
ATOM     61  H   UNL A   1      45.520  27.477  27.342  1.00  0.00     0.167 HD
ATOM     62  C   UNL A   1      47.985  28.840  26.974  1.00  0.00     0.074 A 
ATOM     63  C   UNL A   1      48.993  29.881  26.992  1.00  0.00     0.031 C 
ATOM     64  C   UNL A   1      48.201  27.578  26.528  1.00  0.00     0.031 A 
BRANCH  51  65
ATOM     65  C   UNL A   1      43.295  23.840  27.000  1.00  0.00    -0.014 A 
ATOM     66  C   UNL A   1      43.253  22.928  28.069  1.00  0.00     0.010 A 
ATOM     67  C   UNL A   1      42.755  23.461  25.757  1.00  0.00     0.010 A 
ATOM     68  C   UNL A   1      42.722  21.648  27.888  1.00  0.00     0.020 A 
ATOM     69  C   UNL A   1      42.195  22.193  25.580  1.00  0.00     0.020 A 
ATOM     70  C   UNL A   1      42.198  21.287  26.643  1.00  0.00     0.054 A 
BRANCH  70  71
ATOM     71  S   UNL A   1      41.497  19.627  26.443  1.00  0.00     0.124 S 
ATOM     72  O   UNL A   1      41.774  19.025  27.746  1.00  0.00    -0.237 OA
ATOM     73  O   UNL A   1      40.090  19.905  26.167  1.00  0.00    -0.237 OA
ATOM     74  O   UNL A   1      42.250  19.064  25.326  1.00  0.00    -0.744 OA
ENDBRANCH  70  71
ENDBRANCH  51  65
BRANCH  52  75
ATOM     75  C   UNL A   1      46.767  33.081  28.627  1.00  0.00    -0.014 A 
ATOM     76  C   UNL A   1      47.208  33.429  29.915  1.00  0.00     0.010 A 
ATOM     77  C   UNL A   1      46.850  34.035  27.595  1.00  0.00     0.010 A 
ATOM     78  C   UNL A   1      47.707  34.710  30.171  1.00  0.00     0.020 A 
ATOM     79  C   UNL A   1      47.377  35.306  27.840  1.00  0.00     0.020 A 
ATOM     80  C   UNL A   1      47.793  35.639  29.130  1.00  0.00     0.054 A 
BRANCH  80  81
ATOM     81  S   UNL A   1      48.495  37.275  29.473  1.00  0.00     0.124 S 
ATOM     82  O   UNL A   1      47.682  38.139  28.624  1.00  0.00    -0.237 OA
ATOM     83  O   UNL A   1      48.279  37.415  30.911  1.00  0.00    -0.237 OA
ATOM     84  O   UNL A   1      49.893  37.137  29.072  1.00  0.00    -0.744 OA
ENDBRANCH  80  81
ENDBRANCH  52  75
BRANCH  64  85
ATOM     85  C   UNL A   1      49.572  27.252  25.998  1.00  0.00    -0.014 A 
ATOM     86  C   UNL A   1      50.549  26.662  26.819  1.00  0.00     0.010 A 
ATOM     87  C   UNL A   1      49.859  27.471  24.638  1.00  0.00     0.010 A 
ATOM     88  C   UNL A   1      51.797  26.315  26.293  1.00  0.00     0.020 A 
ATOM     89  C   UNL A   1      51.094  27.098  24.102  1.00  0.00     0.020 A 
ATOM     90  C   UNL A   1      52.060  26.531  24.936  1.00  0.00     0.054 A 
BRANCH  90  91
ATOM     91  S   UNL A   1      53.662  26.011  24.267  1.00  0.00     0.124 S 
ATOM     92  O   UNL A   1      54.586  26.905  24.961  1.00  0.00    -0.237 OA
ATOM     93  O   UNL A   1      53.732  24.606  24.662  1.00  0.00    -0.237 OA
ATOM     94  O   UNL A   1      53.531  26.243  22.831  1.00  0.00    -0.744 OA
ENDBRANCH  90  91
ENDBRANCH  64  85
ENDBRANCH  38  39
ENDBRANCH  30  33
ENDBRANCH  28  29
ENDBRANCH  27  28
ENDBRANCH   1  27
TORSDOF 20
ENDMDL
