MODEL 1
REMARK VINA RESULT:     -11.0      0.000      0.000
REMARK SMILES Cc1cc(C(=O)N[C@H]2C=C[C@H](C(=O)NCCCCCCNC(=O)c3ccc(-c4c5nc(c(-c6ccc(S(=O)(=O)[O-])cc6)c6ccc([nH]6)c(-c6ccc(S(=O)(=O)[O-])cc6)c6nc(c(-c7ccc(S(=O)(=O)[O-])cc7)c7ccc4[nH]7)C=C6)C=C5)cc3)C2)ccc1F
REMARK SMILES IDX 18 1 17 2 16 3 15 4 14 5 12 6 13 7 11 9 8 10 9 11 84 12
REMARK SMILES IDX 10 13 7 14 5 15 6 16 4 18 1 19 2 20 3 21 87 22 86 23 88 24
REMARK SMILES IDX 85 25 19 26 20 27 21 28 22 29 23 31 24 32 25 33 83 34 26 35
REMARK SMILES IDX 82 36 27 37 28 38 29 39 76 40 30 41 81 42 75 43 77 44 31 45
REMARK SMILES IDX 80 46 74 47 73 48 32 50 62 51 43 52 61 53 44 54 47 55 60 56
REMARK SMILES IDX 78 57 45 58 46 59 59 61 79 62 48 63 33 64 34 65 42 66 35 67
REMARK SMILES IDX 41 68 36 69 37 70 38 71 39 72 40 73 63 74 64 75 72 76 65 77
REMARK SMILES IDX 71 78 66 79 67 80 68 81 69 82 70 83 49 84 50 85 58 86 51 87
REMARK SMILES IDX 57 88 52 89 53 90 54 91 55 92 56 93
REMARK H PARENT 14 8 7 17 21 30 77 49 47 60
REMARK Flexibility Score: inf
ROOT
ATOM      1  C   UNL A   1      32.530  29.475  25.047  1.00  0.00     0.002 C 
ENDROOT
BRANCH   1   2
ATOM      2  C   UNL A   1      31.057  29.199  24.729  1.00  0.00     0.002 C 
BRANCH   2   3
ATOM      3  C   UNL A   1      30.618  29.528  23.298  1.00  0.00     0.021 C 
BRANCH   3   4
ATOM      4  C   UNL A   1      30.348  28.315  22.415  1.00  0.00     0.116 C 
BRANCH   4   5
ATOM      5  N   UNL A   1      31.502  27.452  22.354  1.00  0.00    -0.356 N 
ATOM      6  C   UNL A   1      31.716  26.199  22.812  1.00  0.00     0.227 C 
ATOM      7  O   UNL A   1      32.875  25.783  22.692  1.00  0.00    -0.274 OA
ATOM      8  H   UNL A   1      32.277  27.851  21.893  1.00  0.00     0.163 HD
BRANCH   6   9
ATOM      9  C   UNL A   1      30.632  25.331  23.494  1.00  0.00     0.103 C 
ATOM     10  C   UNL A   1      31.893  24.131  25.154  1.00  0.00     0.106 C 
ATOM     11  C   UNL A   1      31.264  23.163  24.209  1.00  0.00    -0.006 C 
ATOM     12  C   UNL A   1      30.942  25.321  25.005  1.00  0.00     0.047 C 
ATOM     13  C   UNL A   1      30.594  23.839  23.264  1.00  0.00    -0.016 C 
BRANCH  10  14
ATOM     14  N   UNL A   1      31.992  23.616  26.490  1.00  0.00    -0.346 N 
ATOM     15  C   UNL A   1      33.012  22.905  27.082  1.00  0.00     0.251 C 
ATOM     16  O   UNL A   1      32.901  22.616  28.274  1.00  0.00    -0.269 OA
ATOM     17  H   UNL A   1      31.217  23.797  27.068  1.00  0.00     0.164 HD
BRANCH  15  18
ATOM     18  C   UNL A   1      34.276  22.538  26.368  1.00  0.00     0.040 A 
ATOM     19  C   UNL A   1      37.897  23.643  25.924  1.00  0.00     0.047 C 
ATOM     20  C   UNL A   1      36.628  22.857  25.778  1.00  0.00    -0.015 A 
ATOM     21  C   UNL A   1      35.429  23.333  26.328  1.00  0.00     0.020 A 
ATOM     22  C   UNL A   1      36.621  21.627  25.127  1.00  0.00     0.126 A 
ATOM     23  C   UNL A   1      35.462  20.863  25.056  1.00  0.00     0.040 A 
ATOM     24  F   UNL A   1      37.742  21.165  24.556  1.00  0.00    -0.207 F 
ATOM     25  C   UNL A   1      34.298  21.307  25.691  1.00  0.00     0.017 A 
ENDBRANCH  15  18
ENDBRANCH  10  14
ENDBRANCH   6   9
ENDBRANCH   4   5
ENDBRANCH   3   4
ENDBRANCH   2   3
ENDBRANCH   1   2
BRANCH   1  26
ATOM     26  C   UNL A   1      33.304  28.296  25.637  1.00  0.00     0.021 C 
BRANCH  26  27
ATOM     27  C   UNL A   1      33.778  28.495  27.071  1.00  0.00     0.116 C 
BRANCH  27  28
ATOM     28  N   UNL A   1      33.674  29.880  27.495  1.00  0.00    -0.352 N 
ATOM     29  C   UNL A   1      34.573  30.634  28.207  1.00  0.00     0.251 C 
ATOM     30  H   UNL A   1      32.845  30.343  27.234  1.00  0.00     0.163 HD
ATOM     31  O   UNL A   1      34.240  31.732  28.650  1.00  0.00    -0.269 OA
BRANCH  29  32
ATOM     32  C   UNL A   1      35.932  30.110  28.459  1.00  0.00     0.039 A 
ATOM     33  C   UNL A   1      36.879  30.164  27.434  1.00  0.00     0.014 A 
ATOM     34  C   UNL A   1      36.273  29.577  29.706  1.00  0.00     0.014 A 
ATOM     35  C   UNL A   1      38.184  29.732  27.679  1.00  0.00     0.010 A 
ATOM     36  C   UNL A   1      37.592  29.223  29.971  1.00  0.00     0.010 A 
ATOM     37  C   UNL A   1      38.561  29.290  28.957  1.00  0.00    -0.014 A 
BRANCH  37  38
ATOM     38  C   UNL A   1      39.962  28.895  29.255  1.00  0.00     0.031 A 
ATOM     39  C   UNL A   1      40.915  29.888  29.867  1.00  0.00     0.074 A 
ATOM     40  C   UNL A   1      40.394  27.664  28.918  1.00  0.00     0.049 A 
ATOM     41  N   UNL A   1      42.186  29.746  30.145  1.00  0.00    -0.248 NA
ATOM     42  C   UNL A   1      40.377  31.220  30.181  1.00  0.00     0.031 C 
ATOM     43  C   UNL A   1      39.580  26.627  28.279  1.00  0.00     0.029 A 
ATOM     44  N   UNL A   1      41.628  27.080  29.055  1.00  0.00    -0.354 N 
ATOM     45  C   UNL A   1      42.599  30.970  30.655  1.00  0.00     0.074 A 
ATOM     46  C   UNL A   1      41.461  31.861  30.589  1.00  0.00     0.031 C 
ATOM     47  C   UNL A   1      40.331  25.529  28.099  1.00  0.00     0.029 A 
ATOM     48  C   UNL A   1      41.687  25.795  28.565  1.00  0.00     0.049 A 
ATOM     49  H   UNL A   1      42.398  27.536  29.465  1.00  0.00     0.167 HD
ATOM     50  C   UNL A   1      43.811  31.319  31.152  1.00  0.00     0.031 A 
ATOM     51  C   UNL A   1      42.719  24.932  28.487  1.00  0.00     0.031 A 
ATOM     52  C   UNL A   1      44.942  30.431  31.209  1.00  0.00     0.049 A 
ATOM     53  C   UNL A   1      44.062  25.344  29.025  1.00  0.00     0.074 A 
ATOM     54  C   UNL A   1      46.198  30.671  31.737  1.00  0.00     0.029 A 
ATOM     55  N   UNL A   1      44.958  29.135  30.715  1.00  0.00    -0.354 N 
ATOM     56  N   UNL A   1      44.415  26.485  29.569  1.00  0.00    -0.248 NA
ATOM     57  C   UNL A   1      45.141  24.350  28.953  1.00  0.00     0.031 C 
ATOM     58  C   UNL A   1      46.992  29.543  31.505  1.00  0.00     0.029 A 
ATOM     59  C   UNL A   1      46.210  28.572  30.898  1.00  0.00     0.049 A 
ATOM     60  H   UNL A   1      44.191  28.681  30.296  1.00  0.00     0.167 HD
ATOM     61  C   UNL A   1      45.751  26.337  29.927  1.00  0.00     0.074 A 
ATOM     62  C   UNL A   1      46.136  24.990  29.552  1.00  0.00     0.031 C 
ATOM     63  C   UNL A   1      46.583  27.233  30.514  1.00  0.00     0.031 A 
BRANCH  50  64
ATOM     64  C   UNL A   1      43.973  32.730  31.659  1.00  0.00    -0.014 A 
ATOM     65  C   UNL A   1      43.803  33.040  33.022  1.00  0.00     0.010 A 
ATOM     66  C   UNL A   1      44.316  33.761  30.764  1.00  0.00     0.010 A 
ATOM     67  C   UNL A   1      43.914  34.360  33.469  1.00  0.00     0.020 A 
ATOM     68  C   UNL A   1      44.462  35.077  31.213  1.00  0.00     0.020 A 
ATOM     69  C   UNL A   1      44.237  35.371  32.560  1.00  0.00     0.054 A 
BRANCH  69  70
ATOM     70  S   UNL A   1      44.371  37.074  33.168  1.00  0.00     0.124 S 
ATOM     71  O   UNL A   1      45.065  36.885  34.440  1.00  0.00    -0.237 OA
ATOM     72  O   UNL A   1      45.148  37.728  32.119  1.00  0.00    -0.237 OA
ATOM     73  O   UNL A   1      42.982  37.514  33.278  1.00  0.00    -0.744 OA
ENDBRANCH  69  70
ENDBRANCH  50  64
BRANCH  51  74
ATOM     74  C   UNL A   1      42.513  23.592  27.870  1.00  0.00    -0.014 A 
ATOM     75  C   UNL A   1      42.534  23.432  26.473  1.00  0.00     0.010 A 
ATOM     76  C   UNL A   1      42.329  22.459  28.685  1.00  0.00     0.010 A 
ATOM     77  C   UNL A   1      42.363  22.166  25.904  1.00  0.00     0.020 A 
ATOM     78  C   UNL A   1      42.189  21.189  28.121  1.00  0.00     0.020 A 
ATOM     79  C   UNL A   1      42.199  21.052  26.731  1.00  0.00     0.054 A 
BRANCH  79  80
ATOM     80  S   UNL A   1      42.048  19.411  25.972  1.00  0.00     0.124 S 
ATOM     81  O   UNL A   1      42.963  19.514  24.840  1.00  0.00    -0.237 OA
ATOM     82  O   UNL A   1      42.472  18.525  27.053  1.00  0.00    -0.237 OA
ATOM     83  O   UNL A   1      40.630  19.324  25.626  1.00  0.00    -0.744 OA
ENDBRANCH  79  80
ENDBRANCH  51  74
BRANCH  63  84
ATOM     84  C   UNL A   1      47.987  26.782  30.820  1.00  0.00    -0.014 A 
ATOM     85  C   UNL A   1      49.041  26.999  29.914  1.00  0.00     0.010 A 
ATOM     86  C   UNL A   1      48.266  26.187  32.064  1.00  0.00     0.010 A 
ATOM     87  C   UNL A   1      50.341  26.602  30.236  1.00  0.00     0.020 A 
ATOM     88  C   UNL A   1      49.570  25.816  32.402  1.00  0.00     0.020 A 
ATOM     89  C   UNL A   1      50.598  26.015  31.479  1.00  0.00     0.054 A 
BRANCH  89  90
ATOM     90  S   UNL A   1      52.304  25.554  31.890  1.00  0.00     0.124 S 
ATOM     91  O   UNL A   1      52.561  26.365  33.077  1.00  0.00    -0.237 OA
ATOM     92  O   UNL A   1      52.199  24.116  32.120  1.00  0.00    -0.237 OA
ATOM     93  O   UNL A   1      53.063  25.936  30.700  1.00  0.00    -0.744 OA
ENDBRANCH  89  90
ENDBRANCH  63  84
ENDBRANCH  37  38
ENDBRANCH  29  32
ENDBRANCH  27  28
ENDBRANCH  26  27
ENDBRANCH   1  26
TORSDOF 18
ENDMDL
MODEL 2
REMARK VINA RESULT:     -10.6      3.062      4.143
REMARK SMILES Cc1cc(C(=O)N[C@H]2C=C[C@H](C(=O)NCCCCCCNC(=O)c3ccc(-c4c5nc(c(-c6ccc(S(=O)(=O)[O-])cc6)c6ccc([nH]6)c(-c6ccc(S(=O)(=O)[O-])cc6)c6nc(c(-c7ccc(S(=O)(=O)[O-])cc7)c7ccc4[nH]7)C=C6)C=C5)cc3)C2)ccc1F
REMARK SMILES IDX 18 1 17 2 16 3 15 4 14 5 12 6 13 7 11 9 8 10 9 11 84 12
REMARK SMILES IDX 10 13 7 14 5 15 6 16 4 18 1 19 2 20 3 21 87 22 86 23 88 24
REMARK SMILES IDX 85 25 19 26 20 27 21 28 22 29 23 31 24 32 25 33 83 34 26 35
REMARK SMILES IDX 82 36 27 37 28 38 29 39 76 40 30 41 81 42 75 43 77 44 31 45
REMARK SMILES IDX 80 46 74 47 73 48 32 50 62 51 43 52 61 53 44 54 47 55 60 56
REMARK SMILES IDX 78 57 45 58 46 59 59 61 79 62 48 63 33 64 34 65 42 66 35 67
REMARK SMILES IDX 41 68 36 69 37 70 38 71 39 72 40 73 63 74 64 75 72 76 65 77
REMARK SMILES IDX 71 78 66 79 67 80 68 81 69 82 70 83 49 84 50 85 58 86 51 87
REMARK SMILES IDX 57 88 52 89 53 90 54 91 55 92 56 93
REMARK H PARENT 14 8 7 17 21 30 77 49 47 60
REMARK Flexibility Score: inf
ROOT
ATOM      1  C   UNL A   1      36.676  33.381  28.458  1.00  0.00     0.002 C 
ENDROOT
BRANCH   1   2
ATOM      2  C   UNL A   1      35.379  32.858  27.834  1.00  0.00     0.002 C 
BRANCH   2   3
ATOM      3  C   UNL A   1      34.919  31.480  28.321  1.00  0.00     0.021 C 
BRANCH   3   4
ATOM      4  C   UNL A   1      33.683  30.931  27.618  1.00  0.00     0.116 C 
BRANCH   4   5
ATOM      5  N   UNL A   1      34.049  30.145  26.465  1.00  0.00    -0.356 N 
ATOM      6  C   UNL A   1      33.375  29.207  25.763  1.00  0.00     0.227 C 
ATOM      7  O   UNL A   1      34.029  28.635  24.883  1.00  0.00    -0.274 OA
ATOM      8  H   UNL A   1      34.957  30.325  26.129  1.00  0.00     0.163 HD
BRANCH   6   9
ATOM      9  C   UNL A   1      31.906  28.808  26.042  1.00  0.00     0.103 C 
ATOM     10  C   UNL A   1      32.030  26.409  26.154  1.00  0.00     0.106 C 
ATOM     11  C   UNL A   1      31.113  26.810  25.048  1.00  0.00    -0.006 C 
ATOM     12  C   UNL A   1      31.935  27.644  27.053  1.00  0.00     0.047 C 
ATOM     13  C   UNL A   1      31.078  28.148  24.965  1.00  0.00    -0.016 C 
BRANCH  10  14
ATOM     14  N   UNL A   1      31.631  25.184  26.787  1.00  0.00    -0.346 N 
ATOM     15  C   UNL A   1      32.158  23.918  26.658  1.00  0.00     0.251 C 
ATOM     16  O   UNL A   1      31.684  23.020  27.355  1.00  0.00    -0.269 OA
ATOM     17  H   UNL A   1      30.867  25.260  27.403  1.00  0.00     0.164 HD
BRANCH  15  18
ATOM     18  C   UNL A   1      33.325  23.603  25.774  1.00  0.00     0.040 A 
ATOM     19  C   UNL A   1      37.134  23.677  25.699  1.00  0.00     0.047 C 
ATOM     20  C   UNL A   1      35.713  23.474  25.266  1.00  0.00    -0.015 A 
ATOM     21  C   UNL A   1      34.654  23.940  26.059  1.00  0.00     0.020 A 
ATOM     22  C   UNL A   1      35.416  22.790  24.091  1.00  0.00     0.126 A 
ATOM     23  C   UNL A   1      34.099  22.535  23.726  1.00  0.00     0.040 A 
ATOM     24  F   UNL A   1      36.406  22.368  23.292  1.00  0.00    -0.207 F 
ATOM     25  C   UNL A   1      33.057  22.923  24.574  1.00  0.00     0.017 A 
ENDBRANCH  15  18
ENDBRANCH  10  14
ENDBRANCH   6   9
ENDBRANCH   4   5
ENDBRANCH   3   4
ENDBRANCH   2   3
ENDBRANCH   1   2
BRANCH   1  26
ATOM     26  C   UNL A   1      36.551  33.899  29.892  1.00  0.00     0.021 C 
BRANCH  26  27
ATOM     27  C   UNL A   1      37.349  33.116  30.927  1.00  0.00     0.116 C 
BRANCH  27  28
ATOM     28  N   UNL A   1      36.579  32.027  31.504  1.00  0.00    -0.352 N 
ATOM     29  C   UNL A   1      36.809  30.677  31.434  1.00  0.00     0.251 C 
ATOM     30  H   UNL A   1      35.782  32.296  32.017  1.00  0.00     0.163 HD
ATOM     31  O   UNL A   1      35.948  29.886  31.815  1.00  0.00    -0.269 OA
BRANCH  29  32
ATOM     32  C   UNL A   1      38.085  30.178  30.879  1.00  0.00     0.039 A 
ATOM     33  C   UNL A   1      38.278  30.205  29.496  1.00  0.00     0.014 A 
ATOM     34  C   UNL A   1      39.091  29.694  31.721  1.00  0.00     0.014 A 
ATOM     35  C   UNL A   1      39.503  29.798  28.963  1.00  0.00     0.010 A 
ATOM     36  C   UNL A   1      40.336  29.366  31.195  1.00  0.00     0.010 A 
ATOM     37  C   UNL A   1      40.553  29.407  29.809  1.00  0.00    -0.014 A 
BRANCH  37  38
ATOM     38  C   UNL A   1      41.886  29.040  29.263  1.00  0.00     0.031 A 
ATOM     39  C   UNL A   1      42.968  30.079  29.143  1.00  0.00     0.074 A 
ATOM     40  C   UNL A   1      42.102  27.786  28.819  1.00  0.00     0.049 A 
ATOM     41  N   UNL A   1      44.171  29.962  28.642  1.00  0.00    -0.248 NA
ATOM     42  C   UNL A   1      42.647  31.432  29.624  1.00  0.00     0.031 C 
ATOM     43  C   UNL A   1      41.119  26.700  28.840  1.00  0.00     0.029 A 
ATOM     44  N   UNL A   1      43.215  27.216  28.253  1.00  0.00    -0.354 N 
ATOM     45  C   UNL A   1      44.744  31.225  28.737  1.00  0.00     0.074 A 
ATOM     46  C   UNL A   1      43.736  32.105  29.286  1.00  0.00     0.031 C 
ATOM     47  C   UNL A   1      41.680  25.591  28.329  1.00  0.00     0.029 A 
ATOM     48  C   UNL A   1      43.042  25.896  27.904  1.00  0.00     0.049 A 
ATOM     49  H   UNL A   1      44.057  27.705  28.110  1.00  0.00     0.167 HD
ATOM     50  C   UNL A   1      46.002  31.614  28.416  1.00  0.00     0.031 A 
ATOM     51  C   UNL A   1      43.878  25.032  27.298  1.00  0.00     0.031 A 
ATOM     52  C   UNL A   1      46.999  30.735  27.863  1.00  0.00     0.049 A 
ATOM     53  C   UNL A   1      45.263  25.487  26.930  1.00  0.00     0.074 A 
ATOM     54  C   UNL A   1      48.316  31.019  27.548  1.00  0.00     0.029 A 
ATOM     55  N   UNL A   1      46.788  29.403  27.537  1.00  0.00    -0.354 N 
ATOM     56  N   UNL A   1      45.811  26.669  27.093  1.00  0.00    -0.248 NA
ATOM     57  C   UNL A   1      46.148  24.492  26.311  1.00  0.00     0.031 C 
ATOM     58  C   UNL A   1      48.883  29.877  26.973  1.00  0.00     0.029 A 
ATOM     59  C   UNL A   1      47.941  28.859  26.996  1.00  0.00     0.049 A 
ATOM     60  H   UNL A   1      45.943  28.916  27.671  1.00  0.00     0.167 HD
ATOM     61  C   UNL A   1      47.113  26.552  26.619  1.00  0.00     0.074 A 
ATOM     62  C   UNL A   1      47.274  25.180  26.178  1.00  0.00     0.031 C 
ATOM     63  C   UNL A   1      48.087  27.493  26.555  1.00  0.00     0.031 A 
BRANCH  50  64
ATOM     64  C   UNL A   1      46.358  33.062  28.641  1.00  0.00    -0.014 A 
ATOM     65  C   UNL A   1      46.911  33.495  29.862  1.00  0.00     0.010 A 
ATOM     66  C   UNL A   1      46.156  34.002  27.615  1.00  0.00     0.010 A 
ATOM     67  C   UNL A   1      47.196  34.847  30.072  1.00  0.00     0.020 A 
ATOM     68  C   UNL A   1      46.473  35.350  27.808  1.00  0.00     0.020 A 
ATOM     69  C   UNL A   1      46.969  35.767  29.045  1.00  0.00     0.054 A 
BRANCH  69  70
ATOM     70  S   UNL A   1      47.346  37.516  29.347  1.00  0.00     0.124 S 
ATOM     71  O   UNL A   1      46.988  37.660  30.756  1.00  0.00    -0.237 OA
ATOM     72  O   UNL A   1      48.773  37.591  29.050  1.00  0.00    -0.237 OA
ATOM     73  O   UNL A   1      46.478  38.225  28.410  1.00  0.00    -0.744 OA
ENDBRANCH  69  70
ENDBRANCH  50  64
BRANCH  51  74
ATOM     74  C   UNL A   1      43.418  23.646  27.003  1.00  0.00    -0.014 A 
ATOM     75  C   UNL A   1      42.946  23.301  25.725  1.00  0.00     0.010 A 
ATOM     76  C   UNL A   1      43.484  22.652  27.998  1.00  0.00     0.010 A 
ATOM     77  C   UNL A   1      42.538  21.992  25.451  1.00  0.00     0.020 A 
ATOM     78  C   UNL A   1      43.106  21.337  27.720  1.00  0.00     0.020 A 
ATOM     79  C   UNL A   1      42.627  21.016  26.448  1.00  0.00     0.054 A 
BRANCH  79  80
ATOM     80  S   UNL A   1      42.157  19.310  26.049  1.00  0.00     0.124 S 
ATOM     81  O   UNL A   1      40.728  19.441  25.787  1.00  0.00    -0.237 OA
ATOM     82  O   UNL A   1      42.992  19.018  24.887  1.00  0.00    -0.237 OA
ATOM     83  O   UNL A   1      42.507  18.568  27.259  1.00  0.00    -0.744 OA
ENDBRANCH  79  80
ENDBRANCH  51  74
BRANCH  63  84
ATOM     84  C   UNL A   1      49.430  27.071  26.019  1.00  0.00    -0.014 A 
ATOM     85  C   UNL A   1      50.440  26.587  26.869  1.00  0.00     0.010 A 
ATOM     86  C   UNL A   1      49.660  27.101  24.631  1.00  0.00     0.010 A 
ATOM     87  C   UNL A   1      51.666  26.170  26.343  1.00  0.00     0.020 A 
ATOM     88  C   UNL A   1      50.872  26.656  24.098  1.00  0.00     0.020 A 
ATOM     89  C   UNL A   1      51.873  26.204  24.960  1.00  0.00     0.054 A 
BRANCH  89  90
ATOM     90  S   UNL A   1      53.455  25.610  24.301  1.00  0.00     0.124 S 
ATOM     91  O   UNL A   1      53.333  25.931  22.882  1.00  0.00    -0.237 OA
ATOM     92  O   UNL A   1      54.429  26.404  25.045  1.00  0.00    -0.237 OA
ATOM     93  O   UNL A   1      53.449  24.183  24.619  1.00  0.00    -0.744 OA
ENDBRANCH  89  90
ENDBRANCH  63  84
ENDBRANCH  37  38
ENDBRANCH  29  32
ENDBRANCH  27  28
ENDBRANCH  26  27
ENDBRANCH   1  26
TORSDOF 18
ENDMDL
MODEL 3
REMARK VINA RESULT:     -10.4      4.543     10.496
REMARK SMILES Cc1cc(C(=O)N[C@H]2C=C[C@H](C(=O)NCCCCCCNC(=O)c3ccc(-c4c5nc(c(-c6ccc(S(=O)(=O)[O-])cc6)c6ccc([nH]6)c(-c6ccc(S(=O)(=O)[O-])cc6)c6nc(c(-c7ccc(S(=O)(=O)[O-])cc7)c7ccc4[nH]7)C=C6)C=C5)cc3)C2)ccc1F
REMARK SMILES IDX 18 1 17 2 16 3 15 4 14 5 12 6 13 7 11 9 8 10 9 11 84 12
REMARK SMILES IDX 10 13 7 14 5 15 6 16 4 18 1 19 2 20 3 21 87 22 86 23 88 24
REMARK SMILES IDX 85 25 19 26 20 27 21 28 22 29 23 31 24 32 25 33 83 34 26 35
REMARK SMILES IDX 82 36 27 37 28 38 29 39 76 40 30 41 81 42 75 43 77 44 31 45
REMARK SMILES IDX 80 46 74 47 73 48 32 50 62 51 43 52 61 53 44 54 47 55 60 56
REMARK SMILES IDX 78 57 45 58 46 59 59 61 79 62 48 63 33 64 34 65 42 66 35 67
REMARK SMILES IDX 41 68 36 69 37 70 38 71 39 72 40 73 63 74 64 75 72 76 65 77
REMARK SMILES IDX 71 78 66 79 67 80 68 81 69 82 70 83 49 84 50 85 58 86 51 87
REMARK SMILES IDX 57 88 52 89 53 90 54 91 55 92 56 93
REMARK H PARENT 14 8 7 17 21 30 77 49 47 60
REMARK Flexibility Score: inf
ROOT
ATOM      1  C   UNL A   1      41.641  21.426  26.339  1.00  0.00     0.002 C 
ENDROOT
BRANCH   1   2
ATOM      2  C   UNL A   1      40.260  21.503  26.997  1.00  0.00     0.002 C 
BRANCH   2   3
ATOM      3  C   UNL A   1      39.244  22.412  26.297  1.00  0.00     0.021 C 
BRANCH   3   4
ATOM      4  C   UNL A   1      38.096  21.682  25.612  1.00  0.00     0.116 C 
BRANCH   4   5
ATOM      5  N   UNL A   1      36.862  21.859  26.338  1.00  0.00    -0.356 N 
ATOM      6  C   UNL A   1      35.570  21.826  25.941  1.00  0.00     0.227 C 
ATOM      7  O   UNL A   1      34.744  22.136  26.808  1.00  0.00    -0.274 OA
ATOM      8  H   UNL A   1      36.984  22.037  27.299  1.00  0.00     0.163 HD
BRANCH   6   9
ATOM      9  C   UNL A   1      35.116  21.483  24.503  1.00  0.00     0.103 C 
ATOM     10  C   UNL A   1      34.286  23.593  23.701  1.00  0.00     0.106 C 
ATOM     11  C   UNL A   1      33.188  22.584  23.678  1.00  0.00    -0.006 C 
ATOM     12  C   UNL A   1      35.507  22.675  23.606  1.00  0.00     0.047 C 
ATOM     13  C   UNL A   1      33.646  21.420  24.162  1.00  0.00    -0.016 C 
BRANCH  10  14
ATOM     14  N   UNL A   1      34.181  24.551  22.637  1.00  0.00    -0.346 N 
ATOM     15  C   UNL A   1      33.546  25.773  22.616  1.00  0.00     0.251 C 
ATOM     16  O   UNL A   1      33.641  26.457  21.597  1.00  0.00    -0.269 OA
ATOM     17  H   UNL A   1      34.627  24.296  21.797  1.00  0.00     0.164 HD
BRANCH  15  18
ATOM     18  C   UNL A   1      32.818  26.337  23.797  1.00  0.00     0.040 A 
ATOM     19  C   UNL A   1      29.774  25.733  26.009  1.00  0.00     0.047 C 
ATOM     20  C   UNL A   1      31.016  26.360  25.449  1.00  0.00    -0.015 A 
ATOM     21  C   UNL A   1      31.566  25.898  24.244  1.00  0.00     0.020 A 
ATOM     22  C   UNL A   1      31.666  27.386  26.129  1.00  0.00     0.126 A 
ATOM     23  C   UNL A   1      32.858  27.917  25.650  1.00  0.00     0.040 A 
ATOM     24  F   UNL A   1      31.143  27.876  27.262  1.00  0.00    -0.207 F 
ATOM     25  C   UNL A   1      33.443  27.382  24.498  1.00  0.00     0.017 A 
ENDBRANCH  15  18
ENDBRANCH  10  14
ENDBRANCH   6   9
ENDBRANCH   4   5
ENDBRANCH   3   4
ENDBRANCH   2   3
ENDBRANCH   1   2
BRANCH   1  26
ATOM     26  C   UNL A   1      42.820  21.778  27.248  1.00  0.00     0.021 C 
BRANCH  26  27
ATOM     27  C   UNL A   1      43.129  23.267  27.345  1.00  0.00     0.116 C 
BRANCH  27  28
ATOM     28  N   UNL A   1      42.705  23.993  26.160  1.00  0.00    -0.352 N 
ATOM     29  C   UNL A   1      42.069  25.205  26.074  1.00  0.00     0.251 C 
ATOM     30  H   UNL A   1      42.903  23.555  25.300  1.00  0.00     0.163 HD
ATOM     31  O   UNL A   1      41.607  25.582  24.998  1.00  0.00    -0.269 OA
BRANCH  29  32
ATOM     32  C   UNL A   1      41.921  26.044  27.282  1.00  0.00     0.039 A 
ATOM     33  C   UNL A   1      42.825  27.086  27.497  1.00  0.00     0.014 A 
ATOM     34  C   UNL A   1      40.888  25.807  28.194  1.00  0.00     0.014 A 
ATOM     35  C   UNL A   1      42.659  27.927  28.600  1.00  0.00     0.010 A 
ATOM     36  C   UNL A   1      40.678  26.693  29.246  1.00  0.00     0.010 A 
ATOM     37  C   UNL A   1      41.565  27.759  29.464  1.00  0.00    -0.014 A 
BRANCH  37  38
ATOM     38  C   UNL A   1      41.331  28.687  30.601  1.00  0.00     0.031 A 
ATOM     39  C   UNL A   1      42.158  28.572  31.854  1.00  0.00     0.074 A 
ATOM     40  C   UNL A   1      40.335  29.591  30.531  1.00  0.00     0.049 A 
ATOM     41  N   UNL A   1      42.064  29.252  32.968  1.00  0.00    -0.248 NA
ATOM     42  C   UNL A   1      43.208  27.542  31.866  1.00  0.00     0.031 C 
ATOM     43  C   UNL A   1      39.435  29.771  29.388  1.00  0.00     0.029 A 
ATOM     44  N   UNL A   1      39.904  30.523  31.442  1.00  0.00    -0.354 N 
ATOM     45  C   UNL A   1      43.032  28.726  33.815  1.00  0.00     0.074 A 
ATOM     46  C   UNL A   1      43.660  27.630  33.108  1.00  0.00     0.031 C 
ATOM     47  C   UNL A   1      38.574  30.765  29.660  1.00  0.00     0.029 A 
ATOM     48  C   UNL A   1      38.828  31.262  31.008  1.00  0.00     0.049 A 
ATOM     49  H   UNL A   1      40.326  30.650  32.322  1.00  0.00     0.167 HD
ATOM     50  C   UNL A   1      43.383  29.129  35.060  1.00  0.00     0.031 A 
ATOM     51  C   UNL A   1      38.116  32.222  31.629  1.00  0.00     0.031 A 
ATOM     52  C   UNL A   1      42.750  30.215  35.761  1.00  0.00     0.049 A 
ATOM     53  C   UNL A   1      38.506  32.642  33.019  1.00  0.00     0.074 A 
ATOM     54  C   UNL A   1      43.063  30.733  37.006  1.00  0.00     0.029 A 
ATOM     55  N   UNL A   1      41.673  30.947  35.283  1.00  0.00    -0.354 N 
ATOM     56  N   UNL A   1      39.472  32.179  33.777  1.00  0.00    -0.248 NA
ATOM     57  C   UNL A   1      37.723  33.722  33.633  1.00  0.00     0.031 C 
ATOM     58  C   UNL A   1      42.135  31.735  37.307  1.00  0.00     0.029 A 
ATOM     59  C   UNL A   1      41.289  31.892  36.220  1.00  0.00     0.049 A 
ATOM     60  H   UNL A   1      41.246  30.814  34.406  1.00  0.00     0.167 HD
ATOM     61  C   UNL A   1      39.428  32.928  34.948  1.00  0.00     0.074 A 
ATOM     62  C   UNL A   1      38.351  33.885  34.789  1.00  0.00     0.031 C 
ATOM     63  C   UNL A   1      40.210  32.835  36.052  1.00  0.00     0.031 A 
BRANCH  50  64
ATOM     64  C   UNL A   1      44.494  28.374  35.746  1.00  0.00    -0.014 A 
ATOM     65  C   UNL A   1      44.253  27.141  36.383  1.00  0.00     0.010 A 
ATOM     66  C   UNL A   1      45.801  28.892  35.741  1.00  0.00     0.010 A 
ATOM     67  C   UNL A   1      45.284  26.474  37.051  1.00  0.00     0.020 A 
ATOM     68  C   UNL A   1      46.843  28.211  36.378  1.00  0.00     0.020 A 
ATOM     69  C   UNL A   1      46.571  27.017  37.049  1.00  0.00     0.054 A 
BRANCH  69  70
ATOM     70  S   UNL A   1      47.888  26.131  37.928  1.00  0.00     0.124 S 
ATOM     71  O   UNL A   1      48.023  24.920  37.122  1.00  0.00    -0.237 OA
ATOM     72  O   UNL A   1      49.008  27.065  37.851  1.00  0.00    -0.237 OA
ATOM     73  O   UNL A   1      47.338  25.929  39.266  1.00  0.00    -0.744 OA
ENDBRANCH  69  70
ENDBRANCH  50  64
BRANCH  51  74
ATOM     74  C   UNL A   1      36.957  32.847  30.932  1.00  0.00    -0.014 A 
ATOM     75  C   UNL A   1      35.639  32.565  31.330  1.00  0.00     0.010 A 
ATOM     76  C   UNL A   1      37.173  33.759  29.881  1.00  0.00     0.010 A 
ATOM     77  C   UNL A   1      34.559  33.174  30.684  1.00  0.00     0.020 A 
ATOM     78  C   UNL A   1      36.098  34.393  29.254  1.00  0.00     0.020 A 
ATOM     79  C   UNL A   1      34.795  34.090  29.655  1.00  0.00     0.054 A 
BRANCH  79  80
ATOM     80  S   UNL A   1      33.381  34.920  28.878  1.00  0.00     0.124 S 
ATOM     81  O   UNL A   1      32.466  35.079  30.004  1.00  0.00    -0.237 OA
ATOM     82  O   UNL A   1      33.981  36.150  28.368  1.00  0.00    -0.237 OA
ATOM     83  O   UNL A   1      32.952  33.973  27.851  1.00  0.00    -0.744 OA
ENDBRANCH  79  80
ENDBRANCH  51  74
BRANCH  63  84
ATOM     84  C   UNL A   1      39.954  33.812  37.171  1.00  0.00    -0.014 A 
ATOM     85  C   UNL A   1      40.551  35.085  37.182  1.00  0.00     0.010 A 
ATOM     86  C   UNL A   1      39.052  33.469  38.195  1.00  0.00     0.010 A 
ATOM     87  C   UNL A   1      40.271  35.986  38.214  1.00  0.00     0.020 A 
ATOM     88  C   UNL A   1      38.747  34.377  39.211  1.00  0.00     0.020 A 
ATOM     89  C   UNL A   1      39.369  35.627  39.220  1.00  0.00     0.054 A 
BRANCH  89  90
ATOM     90  S   UNL A   1      38.988  36.834  40.519  1.00  0.00     0.124 S 
ATOM     91  O   UNL A   1      38.024  36.105  41.339  1.00  0.00    -0.237 OA
ATOM     92  O   UNL A   1      40.292  37.063  41.135  1.00  0.00    -0.237 OA
ATOM     93  O   UNL A   1      38.443  37.975  39.784  1.00  0.00    -0.744 OA
ENDBRANCH  89  90
ENDBRANCH  63  84
ENDBRANCH  37  38
ENDBRANCH  29  32
ENDBRANCH  27  28
ENDBRANCH  26  27
ENDBRANCH   1  26
TORSDOF 18
ENDMDL
