MODEL 1
REMARK VINA RESULT:     -10.8      0.000      0.000
REMARK SMILES O=C(NCCCCCCNC(=O)c1ccc(Cl)nc1NC[C@@H]1C[N@H+]2CCC[C@@H]2CO1)c1ccc(-c2c3nc(c(-c4ccc(S(=O)(=O)[O-])cc4)c4ccc([nH]4)c(-c4ccc(S(=O)(=O)[O-])cc4)c4nc(c(-c5ccc(S(=O)(=O)[O-])cc5)c5ccc2[nH]5)C=C4)C=C3)cc1
REMARK SMILES IDX 6 1 5 2 4 3 3 4 1 5 2 6 31 8 32 9 90 10 33 11 89 12 34 13
REMARK SMILES IDX 35 14 36 15 83 16 37 17 88 18 82 19 84 20 38 21 87 22 81 23
REMARK SMILES IDX 80 24 39 26 69 27 50 28 68 29 51 30 54 31 67 32 85 33 52 34
REMARK SMILES IDX 53 35 66 37 86 38 55 39 40 40 41 41 49 42 42 43 48 44 43 45
REMARK SMILES IDX 44 46 45 47 46 48 47 49 70 50 71 51 79 52 72 53 78 54 73 55
REMARK SMILES IDX 74 56 75 57 76 58 77 59 56 60 57 61 65 62 58 63 64 64 59 65
REMARK SMILES IDX 60 66 61 67 62 68 63 69 7 70 8 71 9 72 10 73 11 74 12 76
REMARK SMILES IDX 13 77 14 78 19 79 15 80 18 81 16 82 17 83 20 84 21 86 22 87
REMARK SMILES IDX 23 88 30 89 24 90 29 91 25 92 28 93 26 95 27 96
REMARK H PARENT 3 7 84 25 54 36 10 75 20 85 24 94
REMARK Flexibility Score: inf
ROOT
ATOM      1  C   UNL A   1      36.987  21.364  24.646  1.00  0.00     0.002 C 
ENDROOT
BRANCH   1   2
ATOM      2  C   UNL A   1      37.938  20.231  25.031  1.00  0.00     0.021 C 
BRANCH   2   3
ATOM      3  C   UNL A   1      39.138  20.650  25.869  1.00  0.00     0.116 C 
BRANCH   3   4
ATOM      4  N   UNL A   1      40.147  19.609  25.955  1.00  0.00    -0.352 N 
ATOM      5  O   UNL A   1      42.235  18.758  26.035  1.00  0.00    -0.269 OA
ATOM      6  C   UNL A   1      41.501  19.740  26.145  1.00  0.00     0.251 C 
ATOM      7  H   UNL A   1      39.817  18.686  25.867  1.00  0.00     0.163 HD
BRANCH   6   8
ATOM      8  C   UNL A   1      42.075  21.067  26.456  1.00  0.00     0.039 A 
ATOM      9  C   UNL A   1      42.379  21.424  27.773  1.00  0.00     0.014 A 
ATOM     10  C   UNL A   1      42.321  21.965  25.413  1.00  0.00     0.014 A 
ATOM     11  C   UNL A   1      42.813  22.715  28.058  1.00  0.00     0.010 A 
ATOM     12  C   UNL A   1      42.828  23.236  25.693  1.00  0.00     0.010 A 
ATOM     13  C   UNL A   1      43.058  23.629  27.021  1.00  0.00    -0.014 A 
BRANCH  13  14
ATOM     14  C   UNL A   1      43.626  24.963  27.343  1.00  0.00     0.031 A 
ATOM     15  C   UNL A   1      45.077  25.274  27.103  1.00  0.00     0.074 A 
ATOM     16  C   UNL A   1      42.804  25.909  27.838  1.00  0.00     0.049 A 
ATOM     17  N   UNL A   1      45.722  26.394  27.312  1.00  0.00    -0.248 NA
ATOM     18  C   UNL A   1      45.916  24.192  26.560  1.00  0.00     0.031 C 
ATOM     19  C   UNL A   1      41.377  25.723  28.116  1.00  0.00     0.029 A 
ATOM     20  N   UNL A   1      43.040  27.216  28.177  1.00  0.00    -0.354 N 
ATOM     21  C   UNL A   1      47.040  26.152  26.945  1.00  0.00     0.074 A 
ATOM     22  C   UNL A   1      47.110  24.770  26.519  1.00  0.00     0.031 C 
ATOM     23  C   UNL A   1      40.855  26.885  28.533  1.00  0.00     0.029 A 
ATOM     24  C   UNL A   1      41.918  27.880  28.612  1.00  0.00     0.049 A 
ATOM     25  H   UNL A   1      43.927  27.638  28.115  1.00  0.00     0.167 HD
ATOM     26  C   UNL A   1      48.094  27.005  26.959  1.00  0.00     0.031 A 
ATOM     27  C   UNL A   1      41.758  29.146  29.040  1.00  0.00     0.031 A 
ATOM     28  C   UNL A   1      48.020  28.378  27.390  1.00  0.00     0.049 A 
ATOM     29  C   UNL A   1      42.948  30.059  29.077  1.00  0.00     0.074 A 
ATOM     30  C   UNL A   1      49.030  29.324  27.426  1.00  0.00     0.029 A 
ATOM     31  N   UNL A   1      46.874  29.000  27.863  1.00  0.00    -0.354 N 
ATOM     32  N   UNL A   1      44.183  29.813  28.710  1.00  0.00    -0.248 NA
ATOM     33  C   UNL A   1      42.724  31.417  29.586  1.00  0.00     0.031 C 
ATOM     34  C   UNL A   1      48.504  30.506  27.959  1.00  0.00     0.029 A 
ATOM     35  C   UNL A   1      47.156  30.312  28.210  1.00  0.00     0.049 A 
ATOM     36  H   UNL A   1      45.991  28.573  27.941  1.00  0.00     0.167 HD
ATOM     37  C   UNL A   1      44.883  30.992  28.933  1.00  0.00     0.074 A 
ATOM     38  C   UNL A   1      43.930  31.954  29.449  1.00  0.00     0.031 C 
ATOM     39  C   UNL A   1      46.198  31.252  28.732  1.00  0.00     0.031 A 
BRANCH  26  40
ATOM     40  C   UNL A   1      49.429  26.471  26.513  1.00  0.00    -0.014 A 
ATOM     41  C   UNL A   1      49.877  26.647  25.192  1.00  0.00     0.010 A 
ATOM     42  C   UNL A   1      50.269  25.825  27.440  1.00  0.00     0.010 A 
ATOM     43  C   UNL A   1      51.125  26.156  24.796  1.00  0.00     0.020 A 
ATOM     44  C   UNL A   1      51.527  25.353  27.054  1.00  0.00     0.020 A 
ATOM     45  C   UNL A   1      51.940  25.506  25.728  1.00  0.00     0.054 A 
BRANCH  45  46
ATOM     46  S   UNL A   1      53.561  24.892  25.192  1.00  0.00     0.124 S 
ATOM     47  O   UNL A   1      53.302  23.463  25.034  1.00  0.00    -0.237 OA
ATOM     48  O   UNL A   1      53.790  25.628  23.951  1.00  0.00    -0.237 OA
ATOM     49  O   UNL A   1      54.449  25.247  26.296  1.00  0.00    -0.744 OA
ENDBRANCH  45  46
ENDBRANCH  26  40
BRANCH  27  50
ATOM     50  C   UNL A   1      40.415  29.612  29.472  1.00  0.00    -0.014 A 
ATOM     51  C   UNL A   1      40.108  29.742  30.837  1.00  0.00     0.010 A 
ATOM     52  C   UNL A   1      39.448  29.970  28.513  1.00  0.00     0.010 A 
ATOM     53  C   UNL A   1      38.855  30.215  31.237  1.00  0.00     0.020 A 
ATOM     54  C   UNL A   1      38.205  30.468  28.910  1.00  0.00     0.020 A 
ATOM     55  C   UNL A   1      37.913  30.578  30.270  1.00  0.00     0.054 A 
BRANCH  55  56
ATOM     56  S   UNL A   1      36.319  31.256  30.808  1.00  0.00     0.124 S 
ATOM     57  O   UNL A   1      35.930  30.318  31.858  1.00  0.00    -0.237 OA
ATOM     58  O   UNL A   1      36.679  32.597  31.260  1.00  0.00    -0.237 OA
ATOM     59  O   UNL A   1      35.504  31.214  29.596  1.00  0.00    -0.744 OA
ENDBRANCH  55  56
ENDBRANCH  27  50
BRANCH  39  60
ATOM     60  C   UNL A   1      46.676  32.641  29.053  1.00  0.00    -0.014 A 
ATOM     61  C   UNL A   1      46.556  33.683  28.117  1.00  0.00     0.010 A 
ATOM     62  C   UNL A   1      47.221  32.913  30.321  1.00  0.00     0.010 A 
ATOM     63  C   UNL A   1      47.001  34.970  28.433  1.00  0.00     0.020 A 
ATOM     64  C   UNL A   1      47.645  34.202  30.648  1.00  0.00     0.020 A 
ATOM     65  C   UNL A   1      47.546  35.220  29.697  1.00  0.00     0.054 A 
BRANCH  65  66
ATOM     66  S   UNL A   1      48.082  36.905  30.100  1.00  0.00     0.124 S 
ATOM     67  O   UNL A   1      49.214  37.088  29.197  1.00  0.00    -0.237 OA
ATOM     68  O   UNL A   1      46.898  37.703  29.792  1.00  0.00    -0.237 OA
ATOM     69  O   UNL A   1      48.422  36.829  31.519  1.00  0.00    -0.744 OA
ENDBRANCH  65  66
ENDBRANCH  39  60
ENDBRANCH  13  14
ENDBRANCH   6   8
ENDBRANCH   3   4
ENDBRANCH   2   3
ENDBRANCH   1   2
BRANCH   1  70
ATOM     70  C   UNL A   1      37.421  22.770  25.072  1.00  0.00     0.002 C 
BRANCH  70  71
ATOM     71  C   UNL A   1      36.493  23.491  26.056  1.00  0.00     0.021 C 
BRANCH  71  72
ATOM     72  C   UNL A   1      35.148  23.936  25.484  1.00  0.00     0.116 C 
BRANCH  72  73
ATOM     73  N   UNL A   1      34.096  23.875  26.480  1.00  0.00    -0.352 N 
ATOM     74  C   UNL A   1      32.991  23.067  26.528  1.00  0.00     0.255 C 
ATOM     75  H   UNL A   1      34.189  24.506  27.231  1.00  0.00     0.163 HD
ATOM     76  O   UNL A   1      32.103  23.316  27.342  1.00  0.00    -0.269 OA
BRANCH  74  77
ATOM     77  C   UNL A   1      32.882  21.894  25.636  1.00  0.00     0.082 A 
ATOM     78  C   UNL A   1      33.515  20.699  25.998  1.00  0.00     0.021 A 
ATOM     79  C   UNL A   1      32.084  21.936  24.481  1.00  0.00     0.140 A 
ATOM     80  C   UNL A   1      33.406  19.595  25.165  1.00  0.00     0.042 A 
ATOM     81  N   UNL A   1      32.016  20.870  23.650  1.00  0.00    -0.219 NA
ATOM     82  C   UNL A   1      32.664  19.743  24.009  1.00  0.00     0.131 A 
ATOM     83  Cl  UNL A   1      32.473  18.433  22.918  1.00  0.00    -0.062 Cl
BRANCH  79  84
ATOM     84  N   UNL A   1      31.378  23.084  24.156  1.00  0.00    -0.367 N 
ATOM     85  H   UNL A   1      30.443  23.165  24.455  1.00  0.00     0.162 HD
BRANCH  84  86
ATOM     86  C   UNL A   1      31.963  24.179  23.388  1.00  0.00     0.152 C 
BRANCH  86  87
ATOM     87  C   UNL A   1      30.976  25.329  23.036  1.00  0.00     0.192 C 
ATOM     88  C   UNL A   1      31.635  26.666  22.589  1.00  0.00     0.296 C 
ATOM     89  O   UNL A   1      29.972  25.541  24.063  1.00  0.00    -0.364 OA
ATOM     90  N   UNL A   1      32.150  27.378  23.756  1.00  0.00    -0.328 N 
ATOM     91  C   UNL A   1      30.469  26.288  25.187  1.00  0.00     0.225 C 
ATOM     92  C   UNL A   1      32.781  28.668  23.535  1.00  0.00     0.262 C 
ATOM     93  C   UNL A   1      31.066  27.610  24.717  1.00  0.00     0.210 C 
ATOM     94  H   UNL A   1      32.884  26.753  24.086  1.00  0.00     0.348 HD
ATOM     95  C   UNL A   1      32.667  29.356  24.902  1.00  0.00     0.068 C 
ATOM     96  C   UNL A   1      31.794  28.434  25.758  1.00  0.00     0.073 C 
ENDBRANCH  86  87
ENDBRANCH  84  86
ENDBRANCH  79  84
ENDBRANCH  74  77
ENDBRANCH  72  73
ENDBRANCH  71  72
ENDBRANCH  70  71
ENDBRANCH   1  70
TORSDOF 19
ENDMDL
MODEL 2
REMARK VINA RESULT:     -10.7      5.060     10.221
REMARK SMILES O=C(NCCCCCCNC(=O)c1ccc(Cl)nc1NC[C@@H]1C[N@H+]2CCC[C@@H]2CO1)c1ccc(-c2c3nc(c(-c4ccc(S(=O)(=O)[O-])cc4)c4ccc([nH]4)c(-c4ccc(S(=O)(=O)[O-])cc4)c4nc(c(-c5ccc(S(=O)(=O)[O-])cc5)c5ccc2[nH]5)C=C4)C=C3)cc1
REMARK SMILES IDX 6 1 5 2 4 3 3 4 1 5 2 6 31 8 32 9 90 10 33 11 89 12 34 13
REMARK SMILES IDX 35 14 36 15 83 16 37 17 88 18 82 19 84 20 38 21 87 22 81 23
REMARK SMILES IDX 80 24 39 26 69 27 50 28 68 29 51 30 54 31 67 32 85 33 52 34
REMARK SMILES IDX 53 35 66 37 86 38 55 39 40 40 41 41 49 42 42 43 48 44 43 45
REMARK SMILES IDX 44 46 45 47 46 48 47 49 70 50 71 51 79 52 72 53 78 54 73 55
REMARK SMILES IDX 74 56 75 57 76 58 77 59 56 60 57 61 65 62 58 63 64 64 59 65
REMARK SMILES IDX 60 66 61 67 62 68 63 69 7 70 8 71 9 72 10 73 11 74 12 76
REMARK SMILES IDX 13 77 14 78 19 79 15 80 18 81 16 82 17 83 20 84 21 86 22 87
REMARK SMILES IDX 23 88 30 89 24 90 29 91 25 92 28 93 26 95 27 96
REMARK H PARENT 3 7 84 25 54 36 10 75 20 85 24 94
REMARK Flexibility Score: inf
ROOT
ATOM      1  C   UNL A   1      31.759  28.448  25.874  1.00  0.00     0.002 C 
ENDROOT
BRANCH   1   2
ATOM      2  C   UNL A   1      33.197  28.376  25.361  1.00  0.00     0.021 C 
BRANCH   2   3
ATOM      3  C   UNL A   1      34.232  29.069  26.237  1.00  0.00     0.116 C 
BRANCH   3   4
ATOM      4  N   UNL A   1      33.798  30.383  26.679  1.00  0.00    -0.352 N 
ATOM      5  O   UNL A   1      33.749  32.201  28.014  1.00  0.00    -0.269 OA
ATOM      6  C   UNL A   1      34.338  31.182  27.657  1.00  0.00     0.251 C 
ATOM      7  H   UNL A   1      33.011  30.751  26.215  1.00  0.00     0.163 HD
BRANCH   6   8
ATOM      8  C   UNL A   1      35.616  30.798  28.296  1.00  0.00     0.039 A 
ATOM      9  C   UNL A   1      35.681  29.701  29.159  1.00  0.00     0.014 A 
ATOM     10  C   UNL A   1      36.766  31.544  28.021  1.00  0.00     0.014 A 
ATOM     11  C   UNL A   1      36.865  29.424  29.837  1.00  0.00     0.010 A 
ATOM     12  C   UNL A   1      37.973  31.217  28.646  1.00  0.00     0.010 A 
ATOM     13  C   UNL A   1      38.027  30.167  29.576  1.00  0.00    -0.014 A 
BRANCH  13  14
ATOM     14  C   UNL A   1      39.303  29.781  30.229  1.00  0.00     0.031 A 
ATOM     15  C   UNL A   1      39.787  30.475  31.472  1.00  0.00     0.074 A 
ATOM     16  C   UNL A   1      40.018  28.771  29.697  1.00  0.00     0.049 A 
ATOM     17  N   UNL A   1      40.868  30.244  32.173  1.00  0.00    -0.248 NA
ATOM     18  C   UNL A   1      38.955  31.571  31.997  1.00  0.00     0.031 C 
ATOM     19  C   UNL A   1      39.650  28.023  28.491  1.00  0.00     0.029 A 
ATOM     20  N   UNL A   1      41.187  28.184  30.106  1.00  0.00    -0.354 N 
ATOM     21  C   UNL A   1      40.859  31.170  33.209  1.00  0.00     0.074 A 
ATOM     22  C   UNL A   1      39.673  31.982  33.035  1.00  0.00     0.031 C 
ATOM     23  C   UNL A   1      40.546  27.047  28.288  1.00  0.00     0.029 A 
ATOM     24  C   UNL A   1      41.583  27.137  29.309  1.00  0.00     0.049 A 
ATOM     25  H   UNL A   1      41.694  28.484  30.894  1.00  0.00     0.167 HD
ATOM     26  C   UNL A   1      41.754  31.325  34.215  1.00  0.00     0.031 A 
ATOM     27  C   UNL A   1      42.666  26.340  29.380  1.00  0.00     0.031 A 
ATOM     28  C   UNL A   1      42.935  30.517  34.381  1.00  0.00     0.049 A 
ATOM     29  C   UNL A   1      43.658  26.555  30.485  1.00  0.00     0.074 A 
ATOM     30  C   UNL A   1      43.894  30.588  35.377  1.00  0.00     0.029 A 
ATOM     31  N   UNL A   1      43.322  29.494  33.528  1.00  0.00    -0.354 N 
ATOM     32  N   UNL A   1      43.620  27.427  31.464  1.00  0.00    -0.248 NA
ATOM     33  C   UNL A   1      44.837  25.682  30.493  1.00  0.00     0.031 C 
ATOM     34  C   UNL A   1      44.882  29.635  35.104  1.00  0.00     0.029 A 
ATOM     35  C   UNL A   1      44.514  28.938  33.965  1.00  0.00     0.049 A 
ATOM     36  H   UNL A   1      42.823  29.204  32.731  1.00  0.00     0.167 HD
ATOM     37  C   UNL A   1      44.767  27.199  32.214  1.00  0.00     0.074 A 
ATOM     38  C   UNL A   1      45.466  26.096  31.586  1.00  0.00     0.031 C 
ATOM     39  C   UNL A   1      45.202  27.848  33.322  1.00  0.00     0.031 A 
BRANCH  26  40
ATOM     40  C   UNL A   1      41.502  32.428  35.210  1.00  0.00    -0.014 A 
ATOM     41  C   UNL A   1      41.998  33.726  34.996  1.00  0.00     0.010 A 
ATOM     42  C   UNL A   1      40.718  32.174  36.351  1.00  0.00     0.010 A 
ATOM     43  C   UNL A   1      41.745  34.742  35.922  1.00  0.00     0.020 A 
ATOM     44  C   UNL A   1      40.444  33.193  37.269  1.00  0.00     0.020 A 
ATOM     45  C   UNL A   1      40.975  34.467  37.056  1.00  0.00     0.054 A 
BRANCH  45  46
ATOM     46  S   UNL A   1      40.649  35.807  38.235  1.00  0.00     0.124 S 
ATOM     47  O   UNL A   1      41.973  36.406  38.380  1.00  0.00    -0.237 OA
ATOM     48  O   UNL A   1      39.665  36.625  37.530  1.00  0.00    -0.237 OA
ATOM     49  O   UNL A   1      40.144  35.114  39.418  1.00  0.00    -0.744 OA
ENDBRANCH  45  46
ENDBRANCH  26  40
BRANCH  27  50
ATOM     50  C   UNL A   1      42.860  25.272  28.366  1.00  0.00    -0.014 A 
ATOM     51  C   UNL A   1      43.586  25.528  27.190  1.00  0.00     0.010 A 
ATOM     52  C   UNL A   1      42.354  23.979  28.594  1.00  0.00     0.010 A 
ATOM     53  C   UNL A   1      43.797  24.510  26.256  1.00  0.00     0.020 A 
ATOM     54  C   UNL A   1      42.586  22.953  27.675  1.00  0.00     0.020 A 
ATOM     55  C   UNL A   1      43.298  23.228  26.507  1.00  0.00     0.054 A 
BRANCH  55  56
ATOM     56  S   UNL A   1      43.642  21.903  25.315  1.00  0.00     0.124 S 
ATOM     57  O   UNL A   1      43.562  22.613  24.042  1.00  0.00    -0.237 OA
ATOM     58  O   UNL A   1      44.977  21.460  25.709  1.00  0.00    -0.237 OA
ATOM     59  O   UNL A   1      42.575  20.936  25.564  1.00  0.00    -0.744 OA
ENDBRANCH  55  56
ENDBRANCH  27  50
BRANCH  39  60
ATOM     60  C   UNL A   1      46.487  27.365  33.935  1.00  0.00    -0.014 A 
ATOM     61  C   UNL A   1      46.490  26.341  34.899  1.00  0.00     0.010 A 
ATOM     62  C   UNL A   1      47.709  27.920  33.515  1.00  0.00     0.010 A 
ATOM     63  C   UNL A   1      47.694  25.901  35.455  1.00  0.00     0.020 A 
ATOM     64  C   UNL A   1      48.915  27.466  34.053  1.00  0.00     0.020 A 
ATOM     65  C   UNL A   1      48.899  26.469  35.030  1.00  0.00     0.054 A 
BRANCH  65  66
ATOM     66  S   UNL A   1      50.453  25.856  35.738  1.00  0.00     0.124 S 
ATOM     67  O   UNL A   1      50.359  24.422  35.482  1.00  0.00    -0.237 OA
ATOM     68  O   UNL A   1      51.465  26.567  34.960  1.00  0.00    -0.237 OA
ATOM     69  O   UNL A   1      50.370  26.246  37.143  1.00  0.00    -0.744 OA
ENDBRANCH  65  66
ENDBRANCH  39  60
ENDBRANCH  13  14
ENDBRANCH   6   8
ENDBRANCH   3   4
ENDBRANCH   2   3
ENDBRANCH   1   2
BRANCH   1  70
ATOM     70  C   UNL A   1      31.358  27.364  26.880  1.00  0.00     0.002 C 
BRANCH  70  71
ATOM     71  C   UNL A   1      31.678  25.920  26.476  1.00  0.00     0.021 C 
BRANCH  71  72
ATOM     72  C   UNL A   1      30.471  24.992  26.347  1.00  0.00     0.116 C 
BRANCH  72  73
ATOM     73  N   UNL A   1      30.604  24.094  25.215  1.00  0.00    -0.352 N 
ATOM     74  C   UNL A   1      30.438  24.350  23.880  1.00  0.00     0.255 C 
ATOM     75  H   UNL A   1      30.848  23.167  25.440  1.00  0.00     0.163 HD
ATOM     76  O   UNL A   1      30.382  23.406  23.093  1.00  0.00    -0.269 OA
BRANCH  74  77
ATOM     77  C   UNL A   1      30.360  25.741  23.389  1.00  0.00     0.082 A 
ATOM     78  C   UNL A   1      29.230  26.510  23.691  1.00  0.00     0.021 A 
ATOM     79  C   UNL A   1      31.436  26.327  22.702  1.00  0.00     0.140 A 
ATOM     80  C   UNL A   1      29.160  27.819  23.237  1.00  0.00     0.042 A 
ATOM     81  N   UNL A   1      31.345  27.590  22.225  1.00  0.00    -0.219 NA
ATOM     82  C   UNL A   1      30.230  28.295  22.504  1.00  0.00     0.131 A 
ATOM     83  Cl  UNL A   1      30.234  29.901  21.902  1.00  0.00    -0.062 Cl
BRANCH  79  84
ATOM     84  N   UNL A   1      32.599  25.607  22.474  1.00  0.00    -0.367 N 
ATOM     85  H   UNL A   1      32.736  25.199  21.588  1.00  0.00     0.162 HD
BRANCH  84  86
ATOM     86  C   UNL A   1      33.628  25.426  23.493  1.00  0.00     0.152 C 
BRANCH  86  87
ATOM     87  C   UNL A   1      34.574  24.214  23.258  1.00  0.00     0.192 C 
ATOM     88  C   UNL A   1      33.879  22.900  22.797  1.00  0.00     0.296 C 
ATOM     89  O   UNL A   1      35.476  23.983  24.372  1.00  0.00    -0.364 OA
ATOM     90  N   UNL A   1      33.230  22.256  23.937  1.00  0.00    -0.328 N 
ATOM     91  C   UNL A   1      34.847  23.302  25.472  1.00  0.00     0.225 C 
ATOM     92  C   UNL A   1      32.548  20.996  23.702  1.00  0.00     0.262 C 
ATOM     93  C   UNL A   1      34.217  21.999  24.992  1.00  0.00     0.210 C 
ATOM     94  H   UNL A   1      32.508  22.931  24.187  1.00  0.00     0.348 HD
ATOM     95  C   UNL A   1      32.510  20.349  25.093  1.00  0.00     0.068 C 
ATOM     96  C   UNL A   1      33.362  21.251  25.992  1.00  0.00     0.073 C 
ENDBRANCH  86  87
ENDBRANCH  84  86
ENDBRANCH  79  84
ENDBRANCH  74  77
ENDBRANCH  72  73
ENDBRANCH  71  72
ENDBRANCH  70  71
ENDBRANCH   1  70
TORSDOF 19
ENDMDL
MODEL 3
REMARK VINA RESULT:     -10.6      5.178      8.278
REMARK SMILES O=C(NCCCCCCNC(=O)c1ccc(Cl)nc1NC[C@@H]1C[N@H+]2CCC[C@@H]2CO1)c1ccc(-c2c3nc(c(-c4ccc(S(=O)(=O)[O-])cc4)c4ccc([nH]4)c(-c4ccc(S(=O)(=O)[O-])cc4)c4nc(c(-c5ccc(S(=O)(=O)[O-])cc5)c5ccc2[nH]5)C=C4)C=C3)cc1
REMARK SMILES IDX 6 1 5 2 4 3 3 4 1 5 2 6 31 8 32 9 90 10 33 11 89 12 34 13
REMARK SMILES IDX 35 14 36 15 83 16 37 17 88 18 82 19 84 20 38 21 87 22 81 23
REMARK SMILES IDX 80 24 39 26 69 27 50 28 68 29 51 30 54 31 67 32 85 33 52 34
REMARK SMILES IDX 53 35 66 37 86 38 55 39 40 40 41 41 49 42 42 43 48 44 43 45
REMARK SMILES IDX 44 46 45 47 46 48 47 49 70 50 71 51 79 52 72 53 78 54 73 55
REMARK SMILES IDX 74 56 75 57 76 58 77 59 56 60 57 61 65 62 58 63 64 64 59 65
REMARK SMILES IDX 60 66 61 67 62 68 63 69 7 70 8 71 9 72 10 73 11 74 12 76
REMARK SMILES IDX 13 77 14 78 19 79 15 80 18 81 16 82 17 83 20 84 21 86 22 87
REMARK SMILES IDX 23 88 30 89 24 90 29 91 25 92 28 93 26 95 27 96
REMARK H PARENT 3 7 84 25 54 36 10 75 20 85 24 94
REMARK Flexibility Score: inf
ROOT
ATOM      1  C   UNL A   1      31.683  28.457  26.159  1.00  0.00     0.002 C 
ENDROOT
BRANCH   1   2
ATOM      2  C   UNL A   1      33.071  28.240  25.556  1.00  0.00     0.021 C 
BRANCH   2   3
ATOM      3  C   UNL A   1      34.193  29.029  26.217  1.00  0.00     0.116 C 
BRANCH   3   4
ATOM      4  N   UNL A   1      33.785  30.372  26.591  1.00  0.00    -0.352 N 
ATOM      5  O   UNL A   1      33.746  32.243  27.851  1.00  0.00    -0.269 OA
ATOM      6  C   UNL A   1      34.315  31.193  27.556  1.00  0.00     0.251 C 
ATOM      7  H   UNL A   1      33.027  30.744  26.084  1.00  0.00     0.163 HD
BRANCH   6   8
ATOM      8  C   UNL A   1      35.556  30.797  28.257  1.00  0.00     0.039 A 
ATOM      9  C   UNL A   1      35.576  29.684  29.101  1.00  0.00     0.014 A 
ATOM     10  C   UNL A   1      36.719  31.548  28.059  1.00  0.00     0.014 A 
ATOM     11  C   UNL A   1      36.722  29.394  29.837  1.00  0.00     0.010 A 
ATOM     12  C   UNL A   1      37.891  31.210  28.743  1.00  0.00     0.010 A 
ATOM     13  C   UNL A   1      37.895  30.142  29.654  1.00  0.00    -0.014 A 
BRANCH  13  14
ATOM     14  C   UNL A   1      39.134  29.744  30.368  1.00  0.00     0.031 A 
ATOM     15  C   UNL A   1      40.025  28.654  29.841  1.00  0.00     0.074 A 
ATOM     16  C   UNL A   1      39.463  30.400  31.499  1.00  0.00     0.049 A 
ATOM     17  N   UNL A   1      41.149  28.202  30.337  1.00  0.00    -0.248 NA
ATOM     18  C   UNL A   1      39.602  27.980  28.602  1.00  0.00     0.031 C 
ATOM     19  C   UNL A   1      38.675  31.475  32.108  1.00  0.00     0.029 A 
ATOM     20  N   UNL A   1      40.550  30.277  32.324  1.00  0.00    -0.354 N 
ATOM     21  C   UNL A   1      41.562  27.184  29.485  1.00  0.00     0.074 A 
ATOM     22  C   UNL A   1      40.556  27.070  28.450  1.00  0.00     0.031 C 
ATOM     23  C   UNL A   1      39.328  31.946  33.180  1.00  0.00     0.029 A 
ATOM     24  C   UNL A   1      40.548  31.169  33.370  1.00  0.00     0.049 A 
ATOM     25  H   UNL A   1      41.263  29.614  32.183  1.00  0.00     0.167 HD
ATOM     26  C   UNL A   1      42.679  26.419  29.557  1.00  0.00     0.031 A 
ATOM     27  C   UNL A   1      41.421  31.340  34.380  1.00  0.00     0.031 A 
ATOM     28  C   UNL A   1      43.675  26.534  30.592  1.00  0.00     0.049 A 
ATOM     29  C   UNL A   1      42.632  30.458  34.454  1.00  0.00     0.074 A 
ATOM     30  C   UNL A   1      44.848  25.814  30.741  1.00  0.00     0.029 A 
ATOM     31  N   UNL A   1      43.614  27.422  31.656  1.00  0.00    -0.354 N 
ATOM     32  N   UNL A   1      43.011  29.512  33.628  1.00  0.00    -0.248 NA
ATOM     33  C   UNL A   1      43.531  30.664  35.595  1.00  0.00     0.031 C 
ATOM     34  C   UNL A   1      45.476  26.239  31.918  1.00  0.00     0.029 A 
ATOM     35  C   UNL A   1      44.719  27.256  32.475  1.00  0.00     0.049 A 
ATOM     36  H   UNL A   1      42.893  28.075  31.807  1.00  0.00     0.167 HD
ATOM     37  C   UNL A   1      44.201  29.017  34.144  1.00  0.00     0.074 A 
ATOM     38  C   UNL A   1      44.488  29.780  35.343  1.00  0.00     0.031 C 
ATOM     39  C   UNL A   1      44.984  28.017  33.669  1.00  0.00     0.031 A 
BRANCH  26  40
ATOM     40  C   UNL A   1      42.876  25.371  28.494  1.00  0.00    -0.014 A 
ATOM     41  C   UNL A   1      43.526  25.675  27.285  1.00  0.00     0.010 A 
ATOM     42  C   UNL A   1      42.448  24.050  28.728  1.00  0.00     0.010 A 
ATOM     43  C   UNL A   1      43.712  24.688  26.313  1.00  0.00     0.020 A 
ATOM     44  C   UNL A   1      42.653  23.054  27.768  1.00  0.00     0.020 A 
ATOM     45  C   UNL A   1      43.268  23.384  26.558  1.00  0.00     0.054 A 
BRANCH  45  46
ATOM     46  S   UNL A   1      43.536  22.118  25.287  1.00  0.00     0.124 S 
ATOM     47  O   UNL A   1      42.405  21.222  25.515  1.00  0.00    -0.237 OA
ATOM     48  O   UNL A   1      43.484  22.890  24.047  1.00  0.00    -0.237 OA
ATOM     49  O   UNL A   1      44.847  21.566  25.617  1.00  0.00    -0.744 OA
ENDBRANCH  45  46
ENDBRANCH  26  40
BRANCH  27  50
ATOM     50  C   UNL A   1      41.168  32.390  35.400  1.00  0.00    -0.014 A 
ATOM     51  C   UNL A   1      41.659  33.694  35.220  1.00  0.00     0.010 A 
ATOM     52  C   UNL A   1      40.394  32.098  36.539  1.00  0.00     0.010 A 
ATOM     53  C   UNL A   1      41.387  34.687  36.165  1.00  0.00     0.020 A 
ATOM     54  C   UNL A   1      40.099  33.095  37.472  1.00  0.00     0.020 A 
ATOM     55  C   UNL A   1      40.606  34.382  37.283  1.00  0.00     0.054 A 
BRANCH  55  56
ATOM     56  S   UNL A   1      40.206  35.702  38.462  1.00  0.00     0.124 S 
ATOM     57  O   UNL A   1      41.453  35.826  39.211  1.00  0.00    -0.237 OA
ATOM     58  O   UNL A   1      39.880  36.824  37.586  1.00  0.00    -0.237 OA
ATOM     59  O   UNL A   1      39.075  35.158  39.211  1.00  0.00    -0.744 OA
ENDBRANCH  55  56
ENDBRANCH  27  50
BRANCH  39  60
ATOM     60  C   UNL A   1      46.237  27.706  34.440  1.00  0.00    -0.014 A 
ATOM     61  C   UNL A   1      46.250  26.708  35.430  1.00  0.00     0.010 A 
ATOM     62  C   UNL A   1      47.425  28.399  34.144  1.00  0.00     0.010 A 
ATOM     63  C   UNL A   1      47.425  26.429  36.134  1.00  0.00     0.020 A 
ATOM     64  C   UNL A   1      48.606  28.106  34.829  1.00  0.00     0.020 A 
ATOM     65  C   UNL A   1      48.595  27.133  35.830  1.00  0.00     0.054 A 
BRANCH  65  66
ATOM     66  S   UNL A   1      50.117  26.728  36.729  1.00  0.00     0.124 S 
ATOM     67  O   UNL A   1      50.564  25.520  36.043  1.00  0.00    -0.237 OA
ATOM     68  O   UNL A   1      50.944  27.914  36.516  1.00  0.00    -0.237 OA
ATOM     69  O   UNL A   1      49.664  26.533  38.105  1.00  0.00    -0.744 OA
ENDBRANCH  65  66
ENDBRANCH  39  60
ENDBRANCH  13  14
ENDBRANCH   6   8
ENDBRANCH   3   4
ENDBRANCH   2   3
ENDBRANCH   1   2
BRANCH   1  70
ATOM     70  C   UNL A   1      31.097  27.265  26.922  1.00  0.00     0.002 C 
BRANCH  70  71
ATOM     71  C   UNL A   1      31.564  25.878  26.464  1.00  0.00     0.021 C 
BRANCH  71  72
ATOM     72  C   UNL A   1      30.473  24.810  26.387  1.00  0.00     0.116 C 
BRANCH  72  73
ATOM     73  N   UNL A   1      30.659  23.937  25.243  1.00  0.00    -0.352 N 
ATOM     74  C   UNL A   1      30.523  24.214  23.909  1.00  0.00     0.255 C 
ATOM     75  H   UNL A   1      30.919  23.012  25.458  1.00  0.00     0.163 HD
ATOM     76  O   UNL A   1      30.511  23.284  23.104  1.00  0.00    -0.269 OA
BRANCH  74  77
ATOM     77  C   UNL A   1      30.424  25.612  23.441  1.00  0.00     0.082 A 
ATOM     78  C   UNL A   1      29.273  26.352  23.737  1.00  0.00     0.021 A 
ATOM     79  C   UNL A   1      31.499  26.232  22.783  1.00  0.00     0.140 A 
ATOM     80  C   UNL A   1      29.184  27.668  23.305  1.00  0.00     0.042 A 
ATOM     81  N   UNL A   1      31.390  27.501  22.326  1.00  0.00    -0.219 NA
ATOM     82  C   UNL A   1      30.256  28.178  22.599  1.00  0.00     0.131 A 
ATOM     83  Cl  UNL A   1      30.236  29.794  22.025  1.00  0.00    -0.062 Cl
BRANCH  79  84
ATOM     84  N   UNL A   1      32.680  25.540  22.562  1.00  0.00    -0.367 N 
ATOM     85  H   UNL A   1      32.857  25.183  21.661  1.00  0.00     0.162 HD
BRANCH  84  86
ATOM     86  C   UNL A   1      33.672  25.317  23.609  1.00  0.00     0.152 C 
BRANCH  86  87
ATOM     87  C   UNL A   1      34.640  24.127  23.349  1.00  0.00     0.192 C 
ATOM     88  C   UNL A   1      33.962  22.788  22.938  1.00  0.00     0.296 C 
ATOM     89  O   UNL A   1      35.596  23.937  24.424  1.00  0.00    -0.364 OA
ATOM     90  N   UNL A   1      33.382  22.144  24.114  1.00  0.00    -0.328 N 
ATOM     91  C   UNL A   1      35.035  23.257  25.560  1.00  0.00     0.225 C 
ATOM     92  C   UNL A   1      32.725  20.862  23.927  1.00  0.00     0.262 C 
ATOM     93  C   UNL A   1      34.421  21.929  25.128  1.00  0.00     0.210 C 
ATOM     94  H   UNL A   1      32.653  22.803  24.386  1.00  0.00     0.348 HD
ATOM     95  C   UNL A   1      32.766  20.236  25.327  1.00  0.00     0.068 C 
ATOM     96  C   UNL A   1      33.631  21.173  26.175  1.00  0.00     0.073 C 
ENDBRANCH  86  87
ENDBRANCH  84  86
ENDBRANCH  79  84
ENDBRANCH  74  77
ENDBRANCH  72  73
ENDBRANCH  71  72
ENDBRANCH  70  71
ENDBRANCH   1  70
TORSDOF 19
ENDMDL
