MODEL 1
REMARK VINA RESULT:      -8.2      0.000      0.000
REMARK SMILES Cc1c(CC(=O)N[C@H](CO)C(=O)NCCCCCCNC(=O)c2ccc(-c3c4nc(c(-c5ccc(S(=O)(=O)[O-])cc5)c5ccc([nH]5)c(-c5ccc(S(=O)(=O)[O-])cc5)c5nc(c(-c6ccc(S(=O)(=O)[O-])cc6)c6ccc3[nH]6)C=C5)C=C4)cc2)cc(-c2ccc(S(C)(=O)=O)cc2)n1-c1ccc(F)cc1
REMARK SMILES IDX 15 1 14 2 13 3 11 4 12 5 8 7 7 8 5 9 6 10 4 12 3 13 1 14
REMARK SMILES IDX 2 15 95 16 83 17 84 18 96 19 97 20 102 21 98 22 101 23 99 24
REMARK SMILES IDX 100 25 85 26 86 27 94 28 87 29 93 30 88 31 89 32 90 33 91 34
REMARK SMILES IDX 92 35 9 36 10 37 16 39 17 40 18 41 19 42 20 43 21 44 22 46
REMARK SMILES IDX 23 47 24 48 82 49 25 50 81 51 26 52 27 53 28 54 75 55 29 56
REMARK SMILES IDX 80 57 74 58 76 59 30 60 79 61 73 62 72 63 31 65 61 66 42 67
REMARK SMILES IDX 60 68 43 69 46 70 59 71 77 72 44 73 45 74 58 76 78 77 47 78
REMARK SMILES IDX 32 79 33 80 41 81 34 82 40 83 35 84 36 85 37 86 38 87 39 88
REMARK SMILES IDX 62 89 63 90 71 91 64 92 70 93 65 94 66 95 67 96 68 97 69 98
REMARK SMILES IDX 48 99 49 100 57 101 50 102 56 103 51 104 52 105 53 106
REMARK SMILES IDX 54 107 55 108
REMARK H PARENT 13 6 7 11 10 38 20 45 76 64 46 75
REMARK Flexibility Score: inf
ROOT
ATOM      1  C   UNL A   1      49.038  23.669  35.491  1.00  0.00     0.021 C 
ENDROOT
BRANCH   1   2
ATOM      2  C   UNL A   1      49.983  22.732  36.237  1.00  0.00     0.116 C 
BRANCH   2   3
ATOM      3  N   UNL A   1      50.393  21.682  35.341  1.00  0.00    -0.354 N 
ATOM      4  C   UNL A   1      49.702  20.499  35.231  1.00  0.00     0.244 C 
ATOM      5  O   UNL A   1      50.244  19.464  35.622  1.00  0.00    -0.273 OA
ATOM      6  H   UNL A   1      51.195  21.818  34.786  1.00  0.00     0.163 HD
BRANCH   4   7
ATOM      7  C   UNL A   1      48.238  20.538  34.761  1.00  0.00     0.197 C 
BRANCH   7   8
ATOM      8  N   UNL A   1      47.367  19.909  35.761  1.00  0.00    -0.342 N 
ATOM      9  C   UNL A   1      46.067  20.163  36.068  1.00  0.00     0.225 C 
ATOM     10  O   UNL A   1      45.627  19.699  37.126  1.00  0.00    -0.275 OA
ATOM     11  H   UNL A   1      47.789  19.194  36.291  1.00  0.00     0.164 HD
BRANCH   9  12
ATOM     12  C   UNL A   1      45.132  20.871  35.097  1.00  0.00     0.137 C 
BRANCH  12  13
ATOM     13  C   UNL A   1      44.932  22.346  35.283  1.00  0.00    -0.017 A 
ATOM     14  C   UNL A   1      43.800  23.030  33.053  1.00  0.00     0.065 C 
ATOM     15  C   UNL A   1      44.315  23.263  34.436  1.00  0.00     0.024 A 
ATOM     16  N   UNL A   1      44.287  24.504  35.079  1.00  0.00    -0.314 N 
ATOM     17  C   UNL A   1      45.403  23.082  36.402  1.00  0.00     0.033 A 
ATOM     18  C   UNL A   1      44.965  24.389  36.296  1.00  0.00     0.053 A 
BRANCH  16  19
ATOM     19  C   UNL A   1      43.640  25.687  34.616  1.00  0.00     0.046 A 
ATOM     20  C   UNL A   1      42.346  25.998  35.050  1.00  0.00     0.029 A 
ATOM     21  C   UNL A   1      44.243  26.461  33.615  1.00  0.00     0.029 A 
ATOM     22  C   UNL A   1      41.678  27.094  34.496  1.00  0.00     0.041 A 
ATOM     23  C   UNL A   1      43.569  27.546  33.056  1.00  0.00     0.041 A 
ATOM     24  C   UNL A   1      42.294  27.854  33.506  1.00  0.00     0.123 A 
ATOM     25  F   UNL A   1      41.637  28.888  32.963  1.00  0.00    -0.207 F 
ENDBRANCH  16  19
BRANCH  18  26
ATOM     26  C   UNL A   1      45.048  25.437  37.322  1.00  0.00    -0.001 A 
ATOM     27  C   UNL A   1      45.592  26.696  37.021  1.00  0.00     0.011 A 
ATOM     28  C   UNL A   1      44.581  25.189  38.617  1.00  0.00     0.011 A 
ATOM     29  C   UNL A   1      45.757  27.659  38.017  1.00  0.00     0.021 A 
ATOM     30  C   UNL A   1      44.734  26.150  39.620  1.00  0.00     0.021 A 
ATOM     31  C   UNL A   1      45.354  27.366  39.320  1.00  0.00     0.067 A 
BRANCH  31  32
ATOM     32  S   UNL A   1      45.654  28.546  40.611  1.00  0.00     0.175 S 
ATOM     33  C   UNL A   1      44.831  27.848  42.022  1.00  0.00     0.163 C 
ATOM     34  O   UNL A   1      47.088  28.543  40.871  1.00  0.00    -0.224 OA
ATOM     35  O   UNL A   1      44.963  29.767  40.268  1.00  0.00    -0.224 OA
ENDBRANCH  31  32
ENDBRANCH  18  26
ENDBRANCH  12  13
ENDBRANCH   9  12
ENDBRANCH   7   8
BRANCH   7  36
ATOM     36  C   UNL A   1      48.145  19.871  33.378  1.00  0.00     0.191 C 
BRANCH  36  37
ATOM     37  O   UNL A   1      47.936  18.460  33.499  1.00  0.00    -0.394 OA
ATOM     38  H   UNL A   1      48.783  17.998  33.398  1.00  0.00     0.210 HD
ENDBRANCH  36  37
ENDBRANCH   7  36
ENDBRANCH   4   7
ENDBRANCH   2   3
ENDBRANCH   1   2
BRANCH   1  39
ATOM     39  C   UNL A   1      48.963  25.090  36.075  1.00  0.00     0.002 C 
BRANCH  39  40
ATOM     40  C   UNL A   1      50.249  25.599  36.734  1.00  0.00     0.002 C 
BRANCH  40  41
ATOM     41  C   UNL A   1      50.073  26.278  38.101  1.00  0.00     0.021 C 
BRANCH  41  42
ATOM     42  C   UNL A   1      49.338  27.634  38.125  1.00  0.00     0.116 C 
BRANCH  42  43
ATOM     43  N   UNL A   1      50.100  28.746  37.654  1.00  0.00    -0.352 N 
ATOM     44  C   UNL A   1      50.092  29.290  36.385  1.00  0.00     0.251 C 
ATOM     45  H   UNL A   1      50.699  29.174  38.308  1.00  0.00     0.163 HD
ATOM     46  O   UNL A   1      50.996  30.097  36.155  1.00  0.00    -0.269 OA
BRANCH  44  47
ATOM     47  C   UNL A   1      49.190  28.812  35.253  1.00  0.00     0.039 A 
ATOM     48  C   UNL A   1      49.864  28.177  34.247  1.00  0.00     0.014 A 
ATOM     49  C   UNL A   1      47.813  28.991  34.983  1.00  0.00     0.014 A 
ATOM     50  C   UNL A   1      49.181  27.712  33.088  1.00  0.00     0.010 A 
ATOM     51  C   UNL A   1      47.131  28.537  33.710  1.00  0.00     0.010 A 
ATOM     52  C   UNL A   1      47.797  27.854  32.675  1.00  0.00    -0.014 A 
BRANCH  52  53
ATOM     53  C   UNL A   1      47.368  27.275  31.108  1.00  0.00     0.031 A 
ATOM     54  C   UNL A   1      47.687  28.443  30.251  1.00  0.00     0.074 A 
ATOM     55  C   UNL A   1      46.651  26.357  30.288  1.00  0.00     0.049 A 
ATOM     56  N   UNL A   1      46.866  29.429  30.412  1.00  0.00    -0.248 NA
ATOM     57  C   UNL A   1      48.984  28.814  29.680  1.00  0.00     0.031 C 
ATOM     58  C   UNL A   1      45.729  25.268  30.669  1.00  0.00     0.029 A 
ATOM     59  N   UNL A   1      46.514  26.227  28.830  1.00  0.00    -0.354 N 
ATOM     60  C   UNL A   1      47.485  30.577  30.005  1.00  0.00     0.074 A 
ATOM     61  C   UNL A   1      48.810  30.143  29.550  1.00  0.00     0.031 C 
ATOM     62  C   UNL A   1      45.303  24.524  29.593  1.00  0.00     0.029 A 
ATOM     63  C   UNL A   1      45.820  25.036  28.315  1.00  0.00     0.049 A 
ATOM     64  H   UNL A   1      46.872  26.912  28.221  1.00  0.00     0.167 HD
ATOM     65  C   UNL A   1      46.642  31.549  29.571  1.00  0.00     0.031 A 
ATOM     66  C   UNL A   1      45.569  24.580  26.994  1.00  0.00     0.031 A 
ATOM     67  C   UNL A   1      46.384  31.281  28.174  1.00  0.00     0.049 A 
ATOM     68  C   UNL A   1      45.327  25.823  26.254  1.00  0.00     0.074 A 
ATOM     69  C   UNL A   1      47.257  30.917  27.160  1.00  0.00     0.029 A 
ATOM     70  N   UNL A   1      45.152  30.739  27.859  1.00  0.00    -0.354 N 
ATOM     71  N   UNL A   1      44.208  26.470  26.362  1.00  0.00    -0.248 NA
ATOM     72  C   UNL A   1      46.270  26.340  25.272  1.00  0.00     0.031 C 
ATOM     73  C   UNL A   1      46.692  29.731  26.646  1.00  0.00     0.029 A 
ATOM     74  C   UNL A   1      45.340  29.703  26.963  1.00  0.00     0.049 A 
ATOM     75  H   UNL A   1      44.285  31.040  28.213  1.00  0.00     0.167 HD
ATOM     76  C   UNL A   1      44.549  27.713  25.926  1.00  0.00     0.074 A 
ATOM     77  C   UNL A   1      45.685  27.516  25.041  1.00  0.00     0.031 C 
ATOM     78  C   UNL A   1      44.277  28.754  26.752  1.00  0.00     0.031 A 
BRANCH  65  79
ATOM     79  C   UNL A   1      45.553  31.876  30.599  1.00  0.00    -0.014 A 
ATOM     80  C   UNL A   1      44.402  31.078  30.655  1.00  0.00     0.010 A 
ATOM     81  C   UNL A   1      45.572  33.038  31.415  1.00  0.00     0.010 A 
ATOM     82  C   UNL A   1      43.304  31.455  31.453  1.00  0.00     0.020 A 
ATOM     83  C   UNL A   1      44.467  33.446  32.172  1.00  0.00     0.020 A 
ATOM     84  C   UNL A   1      43.335  32.645  32.189  1.00  0.00     0.054 A 
BRANCH  84  85
ATOM     85  S   UNL A   1      41.866  33.151  33.128  1.00  0.00     0.124 S 
ATOM     86  O   UNL A   1      42.253  34.463  33.646  1.00  0.00    -0.237 OA
ATOM     87  O   UNL A   1      40.834  33.177  32.095  1.00  0.00    -0.237 OA
ATOM     88  O   UNL A   1      41.719  32.118  34.149  1.00  0.00    -0.744 OA
ENDBRANCH  84  85
ENDBRANCH  65  79
BRANCH  66  89
ATOM     89  C   UNL A   1      45.143  23.392  25.979  1.00  0.00    -0.014 A 
ATOM     90  C   UNL A   1      46.126  22.744  25.129  1.00  0.00     0.010 A 
ATOM     91  C   UNL A   1      43.995  22.597  26.166  1.00  0.00     0.010 A 
ATOM     92  C   UNL A   1      46.042  21.400  24.645  1.00  0.00     0.020 A 
ATOM     93  C   UNL A   1      43.886  21.248  25.656  1.00  0.00     0.020 A 
ATOM     94  C   UNL A   1      44.926  20.635  24.944  1.00  0.00     0.054 A 
BRANCH  94  95
ATOM     95  S   UNL A   1      44.915  18.831  24.548  1.00  0.00     0.124 S 
ATOM     96  O   UNL A   1      44.820  18.804  23.092  1.00  0.00    -0.237 OA
ATOM     97  O   UNL A   1      46.188  18.366  25.100  1.00  0.00    -0.237 OA
ATOM     98  O   UNL A   1      43.734  18.331  25.253  1.00  0.00    -0.744 OA
ENDBRANCH  94  95
ENDBRANCH  66  89
BRANCH  78  99
ATOM     99  C   UNL A   1      42.969  28.734  27.520  1.00  0.00    -0.014 A 
ATOM    100  C   UNL A   1      42.834  28.425  28.893  1.00  0.00     0.010 A 
ATOM    101  C   UNL A   1      41.792  28.985  26.796  1.00  0.00     0.010 A 
ATOM    102  C   UNL A   1      41.573  28.298  29.495  1.00  0.00     0.020 A 
ATOM    103  C   UNL A   1      40.532  28.902  27.399  1.00  0.00     0.020 A 
ATOM    104  C   UNL A   1      40.427  28.522  28.735  1.00  0.00     0.054 A 
BRANCH 104 105
ATOM    105  S   UNL A   1      38.795  28.280  29.494  1.00  0.00     0.124 S 
ATOM    106  O   UNL A   1      38.824  26.859  29.835  1.00  0.00    -0.237 OA
ATOM    107  O   UNL A   1      38.822  29.193  30.633  1.00  0.00    -0.237 OA
ATOM    108  O   UNL A   1      37.864  28.632  28.426  1.00  0.00    -0.744 OA
ENDBRANCH 104 105
ENDBRANCH  78  99
ENDBRANCH  52  53
ENDBRANCH  44  47
ENDBRANCH  42  43
ENDBRANCH  41  42
ENDBRANCH  40  41
ENDBRANCH  39  40
ENDBRANCH   1  39
TORSDOF 24
ENDMDL
MODEL 2
REMARK VINA RESULT:      -7.1      6.395     12.812
REMARK SMILES Cc1c(CC(=O)N[C@H](CO)C(=O)NCCCCCCNC(=O)c2ccc(-c3c4nc(c(-c5ccc(S(=O)(=O)[O-])cc5)c5ccc([nH]5)c(-c5ccc(S(=O)(=O)[O-])cc5)c5nc(c(-c6ccc(S(=O)(=O)[O-])cc6)c6ccc3[nH]6)C=C5)C=C4)cc2)cc(-c2ccc(S(C)(=O)=O)cc2)n1-c1ccc(F)cc1
REMARK SMILES IDX 15 1 14 2 13 3 11 4 12 5 8 7 7 8 5 9 6 10 4 12 3 13 1 14
REMARK SMILES IDX 2 15 95 16 83 17 84 18 96 19 97 20 102 21 98 22 101 23 99 24
REMARK SMILES IDX 100 25 85 26 86 27 94 28 87 29 93 30 88 31 89 32 90 33 91 34
REMARK SMILES IDX 92 35 9 36 10 37 16 39 17 40 18 41 19 42 20 43 21 44 22 46
REMARK SMILES IDX 23 47 24 48 82 49 25 50 81 51 26 52 27 53 28 54 75 55 29 56
REMARK SMILES IDX 80 57 74 58 76 59 30 60 79 61 73 62 72 63 31 65 61 66 42 67
REMARK SMILES IDX 60 68 43 69 46 70 59 71 77 72 44 73 45 74 58 76 78 77 47 78
REMARK SMILES IDX 32 79 33 80 41 81 34 82 40 83 35 84 36 85 37 86 38 87 39 88
REMARK SMILES IDX 62 89 63 90 71 91 64 92 70 93 65 94 66 95 67 96 68 97 69 98
REMARK SMILES IDX 48 99 49 100 57 101 50 102 56 103 51 104 52 105 53 106
REMARK SMILES IDX 54 107 55 108
REMARK H PARENT 13 6 7 11 10 38 20 45 76 64 46 75
REMARK Flexibility Score: inf
ROOT
ATOM      1  C   UNL A   1      50.524  41.275  31.489  1.00  0.00     0.021 C 
ENDROOT
BRANCH   1   2
ATOM      2  C   UNL A   1      50.957  41.116  32.943  1.00  0.00     0.116 C 
BRANCH   2   3
ATOM      3  N   UNL A   1      52.285  40.560  32.969  1.00  0.00    -0.354 N 
ATOM      4  C   UNL A   1      52.609  39.467  33.737  1.00  0.00     0.244 C 
ATOM      5  O   UNL A   1      53.376  39.623  34.689  1.00  0.00    -0.273 OA
ATOM      6  H   UNL A   1      52.986  40.977  32.417  1.00  0.00     0.163 HD
BRANCH   4   7
ATOM      7  C   UNL A   1      51.891  38.134  33.466  1.00  0.00     0.197 C 
BRANCH   7   8
ATOM      8  N   UNL A   1      51.103  37.734  34.638  1.00  0.00    -0.342 N 
ATOM      9  C   UNL A   1      49.787  37.935  34.913  1.00  0.00     0.225 C 
ATOM     10  O   UNL A   1      49.411  37.752  36.077  1.00  0.00    -0.275 OA
ATOM     11  H   UNL A   1      51.605  37.246  35.331  1.00  0.00     0.164 HD
BRANCH   9  12
ATOM     12  C   UNL A   1      48.771  38.239  33.821  1.00  0.00     0.137 C 
BRANCH  12  13
ATOM     13  C   UNL A   1      47.370  38.560  34.252  1.00  0.00    -0.017 A 
ATOM     14  C   UNL A   1      47.334  41.149  34.107  1.00  0.00     0.065 C 
ATOM     15  C   UNL A   1      46.735  39.797  34.324  1.00  0.00     0.024 A 
ATOM     16  N   UNL A   1      45.403  39.584  34.691  1.00  0.00    -0.314 N 
ATOM     17  C   UNL A   1      46.435  37.597  34.715  1.00  0.00     0.033 A 
ATOM     18  C   UNL A   1      45.222  38.221  34.937  1.00  0.00     0.053 A 
BRANCH  16  19
ATOM     19  C   UNL A   1      44.373  40.569  34.763  1.00  0.00     0.046 A 
ATOM     20  C   UNL A   1      43.614  40.877  33.628  1.00  0.00     0.029 A 
ATOM     21  C   UNL A   1      44.219  41.329  35.929  1.00  0.00     0.029 A 
ATOM     22  C   UNL A   1      42.693  41.927  33.679  1.00  0.00     0.041 A 
ATOM     23  C   UNL A   1      43.309  42.383  35.974  1.00  0.00     0.041 A 
ATOM     24  C   UNL A   1      42.550  42.668  34.848  1.00  0.00     0.123 A 
ATOM     25  F   UNL A   1      41.682  43.689  34.881  1.00  0.00    -0.207 F 
ENDBRANCH  16  19
BRANCH  18  26
ATOM     26  C   UNL A   1      43.934  37.575  35.224  1.00  0.00    -0.001 A 
ATOM     27  C   UNL A   1      43.530  37.335  36.547  1.00  0.00     0.011 A 
ATOM     28  C   UNL A   1      43.092  37.193  34.174  1.00  0.00     0.011 A 
ATOM     29  C   UNL A   1      42.351  36.639  36.818  1.00  0.00     0.021 A 
ATOM     30  C   UNL A   1      41.905  36.502  34.436  1.00  0.00     0.021 A 
ATOM     31  C   UNL A   1      41.562  36.199  35.756  1.00  0.00     0.067 A 
BRANCH  31  32
ATOM     32  S   UNL A   1      40.115  35.225  36.091  1.00  0.00     0.175 S 
ATOM     33  C   UNL A   1      39.687  35.663  37.758  1.00  0.00     0.163 C 
ATOM     34  O   UNL A   1      39.061  35.706  35.207  1.00  0.00    -0.224 OA
ATOM     35  O   UNL A   1      40.505  33.835  36.094  1.00  0.00    -0.224 OA
ENDBRANCH  31  32
ENDBRANCH  18  26
ENDBRANCH  12  13
ENDBRANCH   9  12
ENDBRANCH   7   8
BRANCH   7  36
ATOM     36  C   UNL A   1      52.937  37.083  33.058  1.00  0.00     0.191 C 
BRANCH  36  37
ATOM     37  O   UNL A   1      52.532  36.382  31.878  1.00  0.00    -0.394 OA
ATOM     38  H   UNL A   1      52.082  36.996  31.275  1.00  0.00     0.210 HD
ENDBRANCH  36  37
ENDBRANCH   7  36
ENDBRANCH   4   7
ENDBRANCH   2   3
ENDBRANCH   1   2
BRANCH   1  39
ATOM     39  C   UNL A   1      49.402  40.318  31.053  1.00  0.00     0.002 C 
BRANCH  39  40
ATOM     40  C   UNL A   1      49.860  39.069  30.294  1.00  0.00     0.002 C 
BRANCH  40  41
ATOM     41  C   UNL A   1      48.741  38.129  29.818  1.00  0.00     0.021 C 
BRANCH  41  42
ATOM     42  C   UNL A   1      49.129  36.667  29.517  1.00  0.00     0.116 C 
BRANCH  42  43
ATOM     43  N   UNL A   1      49.745  35.967  30.599  1.00  0.00    -0.352 N 
ATOM     44  C   UNL A   1      49.145  35.089  31.480  1.00  0.00     0.251 C 
ATOM     45  H   UNL A   1      50.707  36.129  30.733  1.00  0.00     0.163 HD
ATOM     46  O   UNL A   1      49.825  34.787  32.464  1.00  0.00    -0.269 OA
BRANCH  44  47
ATOM     47  C   UNL A   1      47.684  34.661  31.401  1.00  0.00     0.039 A 
ATOM     48  C   UNL A   1      46.898  35.218  32.372  1.00  0.00     0.014 A 
ATOM     49  C   UNL A   1      47.003  33.720  30.596  1.00  0.00     0.014 A 
ATOM     50  C   UNL A   1      45.518  34.885  32.476  1.00  0.00     0.010 A 
ATOM     51  C   UNL A   1      45.547  33.344  30.774  1.00  0.00     0.010 A 
ATOM     52  C   UNL A   1      44.710  33.926  31.744  1.00  0.00    -0.014 A 
BRANCH  52  53
ATOM     53  C   UNL A   1      43.081  33.694  32.263  1.00  0.00     0.031 A 
ATOM     54  C   UNL A   1      43.255  32.790  33.425  1.00  0.00     0.074 A 
ATOM     55  C   UNL A   1      41.684  33.735  31.989  1.00  0.00     0.049 A 
ATOM     56  N   UNL A   1      43.607  31.592  33.088  1.00  0.00    -0.248 NA
ATOM     57  C   UNL A   1      43.569  33.151  34.810  1.00  0.00     0.031 C 
ATOM     58  C   UNL A   1      40.974  34.091  30.743  1.00  0.00     0.029 A 
ATOM     59  N   UNL A   1      40.505  33.372  32.788  1.00  0.00    -0.354 N 
ATOM     60  C   UNL A   1      44.212  31.000  34.160  1.00  0.00     0.074 A 
ATOM     61  C   UNL A   1      44.162  32.013  35.220  1.00  0.00     0.031 C 
ATOM     62  C   UNL A   1      39.606  34.112  30.893  1.00  0.00     0.029 A 
ATOM     63  C   UNL A   1      39.182  33.712  32.243  1.00  0.00     0.049 A 
ATOM     64  H   UNL A   1      40.598  32.918  33.656  1.00  0.00     0.167 HD
ATOM     65  C   UNL A   1      44.119  29.646  34.185  1.00  0.00     0.031 A 
ATOM     66  C   UNL A   1      37.870  33.559  32.767  1.00  0.00     0.031 A 
ATOM     67  C   UNL A   1      42.857  29.328  34.816  1.00  0.00     0.049 A 
ATOM     68  C   UNL A   1      37.948  32.287  33.493  1.00  0.00     0.074 A 
ATOM     69  C   UNL A   1      42.265  29.870  35.947  1.00  0.00     0.029 A 
ATOM     70  N   UNL A   1      41.834  28.906  33.989  1.00  0.00    -0.354 N 
ATOM     71  N   UNL A   1      37.952  31.149  32.870  1.00  0.00    -0.248 NA
ATOM     72  C   UNL A   1      37.909  32.218  34.947  1.00  0.00     0.031 C 
ATOM     73  C   UNL A   1      40.996  30.284  35.491  1.00  0.00     0.029 A 
ATOM     74  C   UNL A   1      40.673  29.565  34.347  1.00  0.00     0.049 A 
ATOM     75  H   UNL A   1      41.917  28.245  33.265  1.00  0.00     0.167 HD
ATOM     76  C   UNL A   1      38.480  30.310  33.802  1.00  0.00     0.074 A 
ATOM     77  C   UNL A   1      38.180  30.920  35.088  1.00  0.00     0.031 C 
ATOM     78  C   UNL A   1      39.560  29.578  33.433  1.00  0.00     0.031 A 
BRANCH  65  79
ATOM     79  C   UNL A   1      44.615  29.005  32.884  1.00  0.00    -0.014 A 
ATOM     80  C   UNL A   1      43.697  28.351  32.050  1.00  0.00     0.010 A 
ATOM     81  C   UNL A   1      45.988  28.908  32.534  1.00  0.00     0.010 A 
ATOM     82  C   UNL A   1      44.141  27.594  30.948  1.00  0.00     0.020 A 
ATOM     83  C   UNL A   1      46.440  28.118  31.471  1.00  0.00     0.020 A 
ATOM     84  C   UNL A   1      45.508  27.465  30.678  1.00  0.00     0.054 A 
BRANCH  84  85
ATOM     85  S   UNL A   1      46.050  26.402  29.309  1.00  0.00     0.124 S 
ATOM     86  O   UNL A   1      46.225  27.355  28.214  1.00  0.00    -0.237 OA
ATOM     87  O   UNL A   1      47.287  25.832  29.833  1.00  0.00    -0.237 OA
ATOM     88  O   UNL A   1      44.945  25.465  29.123  1.00  0.00    -0.744 OA
ENDBRANCH  84  85
ENDBRANCH  65  79
BRANCH  66  89
ATOM     89  C   UNL A   1      36.295  33.929  32.728  1.00  0.00    -0.014 A 
ATOM     90  C   UNL A   1      35.705  34.801  33.729  1.00  0.00     0.010 A 
ATOM     91  C   UNL A   1      35.520  33.868  31.553  1.00  0.00     0.010 A 
ATOM     92  C   UNL A   1      34.557  35.632  33.527  1.00  0.00     0.020 A 
ATOM     93  C   UNL A   1      34.341  34.680  31.349  1.00  0.00     0.020 A 
ATOM     94  C   UNL A   1      33.893  35.596  32.311  1.00  0.00     0.054 A 
BRANCH  94  95
ATOM     95  S   UNL A   1      32.576  36.839  31.945  1.00  0.00     0.124 S 
ATOM     96  O   UNL A   1      32.335  36.665  30.516  1.00  0.00    -0.237 OA
ATOM     97  O   UNL A   1      31.480  36.421  32.819  1.00  0.00    -0.237 OA
ATOM     98  O   UNL A   1      33.193  38.112  32.317  1.00  0.00    -0.744 OA
ENDBRANCH  94  95
ENDBRANCH  66  89
BRANCH  78  99
ATOM     99  C   UNL A   1      39.584  28.997  32.032  1.00  0.00    -0.014 A 
ATOM    100  C   UNL A   1      38.882  27.842  31.615  1.00  0.00     0.010 A 
ATOM    101  C   UNL A   1      40.415  29.622  31.088  1.00  0.00     0.010 A 
ATOM    102  C   UNL A   1      39.064  27.296  30.336  1.00  0.00     0.020 A 
ATOM    103  C   UNL A   1      40.570  29.108  29.796  1.00  0.00     0.020 A 
ATOM    104  C   UNL A   1      39.923  27.926  29.439  1.00  0.00     0.054 A 
BRANCH 104 105
ATOM    105  S   UNL A   1      40.220  27.175  27.813  1.00  0.00     0.124 S 
ATOM    106  O   UNL A   1      40.041  28.312  26.913  1.00  0.00    -0.237 OA
ATOM    107  O   UNL A   1      41.589  26.679  27.924  1.00  0.00    -0.237 OA
ATOM    108  O   UNL A   1      39.185  26.149  27.714  1.00  0.00    -0.744 OA
ENDBRANCH 104 105
ENDBRANCH  78  99
ENDBRANCH  52  53
ENDBRANCH  44  47
ENDBRANCH  42  43
ENDBRANCH  41  42
ENDBRANCH  40  41
ENDBRANCH  39  40
ENDBRANCH   1  39
TORSDOF 24
ENDMDL
MODEL 3
REMARK VINA RESULT:      -6.9      3.147      6.174
REMARK SMILES Cc1c(CC(=O)N[C@H](CO)C(=O)NCCCCCCNC(=O)c2ccc(-c3c4nc(c(-c5ccc(S(=O)(=O)[O-])cc5)c5ccc([nH]5)c(-c5ccc(S(=O)(=O)[O-])cc5)c5nc(c(-c6ccc(S(=O)(=O)[O-])cc6)c6ccc3[nH]6)C=C5)C=C4)cc2)cc(-c2ccc(S(C)(=O)=O)cc2)n1-c1ccc(F)cc1
REMARK SMILES IDX 15 1 14 2 13 3 11 4 12 5 8 7 7 8 5 9 6 10 4 12 3 13 1 14
REMARK SMILES IDX 2 15 95 16 83 17 84 18 96 19 97 20 102 21 98 22 101 23 99 24
REMARK SMILES IDX 100 25 85 26 86 27 94 28 87 29 93 30 88 31 89 32 90 33 91 34
REMARK SMILES IDX 92 35 9 36 10 37 16 39 17 40 18 41 19 42 20 43 21 44 22 46
REMARK SMILES IDX 23 47 24 48 82 49 25 50 81 51 26 52 27 53 28 54 75 55 29 56
REMARK SMILES IDX 80 57 74 58 76 59 30 60 79 61 73 62 72 63 31 65 61 66 42 67
REMARK SMILES IDX 60 68 43 69 46 70 59 71 77 72 44 73 45 74 58 76 78 77 47 78
REMARK SMILES IDX 32 79 33 80 41 81 34 82 40 83 35 84 36 85 37 86 38 87 39 88
REMARK SMILES IDX 62 89 63 90 71 91 64 92 70 93 65 94 66 95 67 96 68 97 69 98
REMARK SMILES IDX 48 99 49 100 57 101 50 102 56 103 51 104 52 105 53 106
REMARK SMILES IDX 54 107 55 108
REMARK H PARENT 13 6 7 11 10 38 20 45 76 64 46 75
REMARK Flexibility Score: inf
ROOT
ATOM      1  C   UNL A   1      48.580  25.621  36.464  1.00  0.00     0.021 C 
ENDROOT
BRANCH   1   2
ATOM      2  C   UNL A   1      49.944  25.140  36.951  1.00  0.00     0.116 C 
BRANCH   2   3
ATOM      3  N   UNL A   1      49.867  23.724  37.206  1.00  0.00    -0.354 N 
ATOM      4  C   UNL A   1      50.210  22.788  36.261  1.00  0.00     0.244 C 
ATOM      5  O   UNL A   1      49.322  22.075  35.790  1.00  0.00    -0.273 OA
ATOM      6  H   UNL A   1      49.559  23.417  38.090  1.00  0.00     0.163 HD
BRANCH   4   7
ATOM      7  C   UNL A   1      51.653  22.770  35.727  1.00  0.00     0.197 C 
BRANCH   7   8
ATOM      8  N   UNL A   1      51.699  22.124  34.411  1.00  0.00    -0.342 N 
ATOM      9  C   UNL A   1      51.859  22.671  33.176  1.00  0.00     0.225 C 
ATOM     10  O   UNL A   1      51.591  21.965  32.197  1.00  0.00    -0.275 OA
ATOM     11  H   UNL A   1      51.599  21.144  34.423  1.00  0.00     0.164 HD
BRANCH   9  12
ATOM     12  C   UNL A   1      52.473  24.051  32.978  1.00  0.00     0.137 C 
BRANCH  12  13
ATOM     13  C   UNL A   1      51.842  24.946  31.953  1.00  0.00    -0.017 A 
ATOM     14  C   UNL A   1      52.926  27.240  32.490  1.00  0.00     0.065 C 
ATOM     15  C   UNL A   1      52.072  26.296  31.706  1.00  0.00     0.024 A 
ATOM     16  N   UNL A   1      51.317  26.672  30.591  1.00  0.00    -0.314 N 
ATOM     17  C   UNL A   1      50.825  24.536  31.050  1.00  0.00     0.033 A 
ATOM     18  C   UNL A   1      50.543  25.580  30.190  1.00  0.00     0.053 A 
BRANCH  16  19
ATOM     19  C   UNL A   1      51.350  27.935  29.928  1.00  0.00     0.046 A 
ATOM     20  C   UNL A   1      52.258  28.159  28.886  1.00  0.00     0.029 A 
ATOM     21  C   UNL A   1      50.576  28.996  30.415  1.00  0.00     0.029 A 
ATOM     22  C   UNL A   1      52.364  29.435  28.327  1.00  0.00     0.041 A 
ATOM     23  C   UNL A   1      50.693  30.270  29.864  1.00  0.00     0.041 A 
ATOM     24  C   UNL A   1      51.584  30.476  28.821  1.00  0.00     0.123 A 
ATOM     25  F   UNL A   1      51.709  31.703  28.296  1.00  0.00    -0.207 F 
ENDBRANCH  16  19
BRANCH  18  26
ATOM     26  C   UNL A   1      49.709  25.531  28.982  1.00  0.00    -0.001 A 
ATOM     27  C   UNL A   1      50.275  25.245  27.728  1.00  0.00     0.011 A 
ATOM     28  C   UNL A   1      48.333  25.766  29.070  1.00  0.00     0.011 A 
ATOM     29  C   UNL A   1      49.500  25.290  26.568  1.00  0.00     0.021 A 
ATOM     30  C   UNL A   1      47.547  25.806  27.914  1.00  0.00     0.021 A 
ATOM     31  C   UNL A   1      48.145  25.602  26.668  1.00  0.00     0.067 A 
BRANCH  31  32
ATOM     32  S   UNL A   1      47.177  25.760  25.188  1.00  0.00     0.175 S 
ATOM     33  C   UNL A   1      46.758  27.485  25.140  1.00  0.00     0.163 C 
ATOM     34  O   UNL A   1      48.059  25.472  24.065  1.00  0.00    -0.224 OA
ATOM     35  O   UNL A   1      45.950  25.022  25.377  1.00  0.00    -0.224 OA
ENDBRANCH  31  32
ENDBRANCH  18  26
ENDBRANCH  12  13
ENDBRANCH   9  12
ENDBRANCH   7   8
BRANCH   7  36
ATOM     36  C   UNL A   1      52.554  22.082  36.766  1.00  0.00     0.191 C 
BRANCH  36  37
ATOM     37  O   UNL A   1      51.775  21.401  37.756  1.00  0.00    -0.394 OA
ATOM     38  H   UNL A   1      52.277  21.352  38.585  1.00  0.00     0.210 HD
ENDBRANCH  36  37
ENDBRANCH   7  36
ENDBRANCH   4   7
ENDBRANCH   2   3
ENDBRANCH   1   2
BRANCH   1  39
ATOM     39  C   UNL A   1      48.129  26.963  37.065  1.00  0.00     0.002 C 
BRANCH  39  40
ATOM     40  C   UNL A   1      49.150  27.651  37.977  1.00  0.00     0.002 C 
BRANCH  40  41
ATOM     41  C   UNL A   1      48.777  29.065  38.449  1.00  0.00     0.021 C 
BRANCH  41  42
ATOM     42  C   UNL A   1      49.208  30.244  37.552  1.00  0.00     0.116 C 
BRANCH  42  43
ATOM     43  N   UNL A   1      50.391  30.022  36.784  1.00  0.00    -0.352 N 
ATOM     44  C   UNL A   1      50.472  29.621  35.466  1.00  0.00     0.251 C 
ATOM     45  H   UNL A   1      51.247  30.172  37.247  1.00  0.00     0.163 HD
ATOM     46  O   UNL A   1      51.596  29.279  35.090  1.00  0.00    -0.269 OA
BRANCH  44  47
ATOM     47  C   UNL A   1      49.264  29.399  34.562  1.00  0.00     0.039 A 
ATOM     48  C   UNL A   1      49.346  28.260  33.809  1.00  0.00     0.014 A 
ATOM     49  C   UNL A   1      48.131  30.191  34.265  1.00  0.00     0.014 A 
ATOM     50  C   UNL A   1      48.328  27.927  32.873  1.00  0.00     0.010 A 
ATOM     51  C   UNL A   1      47.098  29.835  33.217  1.00  0.00     0.010 A 
ATOM     52  C   UNL A   1      47.143  28.654  32.453  1.00  0.00    -0.014 A 
BRANCH  52  53
ATOM     53  C   UNL A   1      46.211  27.985  31.164  1.00  0.00     0.031 A 
ATOM     54  C   UNL A   1      46.158  29.115  30.205  1.00  0.00     0.074 A 
ATOM     55  C   UNL A   1      45.289  27.009  30.689  1.00  0.00     0.049 A 
ATOM     56  N   UNL A   1      45.407  30.087  30.608  1.00  0.00    -0.248 NA
ATOM     57  C   UNL A   1      47.153  29.489  29.196  1.00  0.00     0.031 C 
ATOM     58  C   UNL A   1      44.607  25.918  31.416  1.00  0.00     0.029 A 
ATOM     59  N   UNL A   1      44.650  26.801  29.382  1.00  0.00    -0.354 N 
ATOM     60  C   UNL A   1      45.794  31.228  29.964  1.00  0.00     0.074 A 
ATOM     61  C   UNL A   1      46.888  30.805  29.085  1.00  0.00     0.031 C 
ATOM     62  C   UNL A   1      43.859  25.110  30.591  1.00  0.00     0.029 A 
ATOM     63  C   UNL A   1      43.869  25.568  29.194  1.00  0.00     0.049 A 
ATOM     64  H   UNL A   1      44.741  27.463  28.659  1.00  0.00     0.167 HD
ATOM     65  C   UNL A   1      44.813  32.156  29.820  1.00  0.00     0.031 A 
ATOM     66  C   UNL A   1      43.186  25.039  28.067  1.00  0.00     0.031 A 
ATOM     67  C   UNL A   1      44.087  31.811  28.618  1.00  0.00     0.049 A 
ATOM     68  C   UNL A   1      42.646  26.236  27.413  1.00  0.00     0.074 A 
ATOM     69  C   UNL A   1      44.559  31.417  27.375  1.00  0.00     0.029 A 
ATOM     70  N   UNL A   1      42.848  31.223  28.783  1.00  0.00    -0.354 N 
ATOM     71  N   UNL A   1      41.612  26.861  27.887  1.00  0.00    -0.248 NA
ATOM     72  C   UNL A   1      43.158  26.726  26.142  1.00  0.00     0.031 C 
ATOM     73  C   UNL A   1      43.899  30.192  27.142  1.00  0.00     0.029 A 
ATOM     74  C   UNL A   1      42.749  30.148  27.920  1.00  0.00     0.049 A 
ATOM     75  H   UNL A   1      42.151  31.520  29.411  1.00  0.00     0.167 HD
ATOM     76  C   UNL A   1      41.725  28.088  27.311  1.00  0.00     0.074 A 
ATOM     77  C   UNL A   1      42.481  27.874  26.087  1.00  0.00     0.031 C 
ATOM     78  C   UNL A   1      41.721  29.163  28.138  1.00  0.00     0.031 A 
BRANCH  65  79
ATOM     79  C   UNL A   1      44.146  32.508  31.155  1.00  0.00    -0.014 A 
ATOM     80  C   UNL A   1      44.041  31.525  32.149  1.00  0.00     0.010 A 
ATOM     81  C   UNL A   1      43.491  33.744  31.400  1.00  0.00     0.010 A 
ATOM     82  C   UNL A   1      43.275  31.754  33.309  1.00  0.00     0.020 A 
ATOM     83  C   UNL A   1      42.688  33.962  32.525  1.00  0.00     0.020 A 
ATOM     84  C   UNL A   1      42.587  32.961  33.480  1.00  0.00     0.054 A 
BRANCH  84  85
ATOM     85  S   UNL A   1      41.530  33.185  34.939  1.00  0.00     0.124 S 
ATOM     86  O   UNL A   1      40.253  33.586  34.350  1.00  0.00    -0.237 OA
ATOM     87  O   UNL A   1      41.541  31.852  35.535  1.00  0.00    -0.237 OA
ATOM     88  O   UNL A   1      42.196  34.232  35.708  1.00  0.00    -0.744 OA
ENDBRANCH  84  85
ENDBRANCH  65  79
BRANCH  66  89
ATOM     89  C   UNL A   1      42.478  23.792  27.317  1.00  0.00    -0.014 A 
ATOM     90  C   UNL A   1      43.036  23.236  26.097  1.00  0.00     0.010 A 
ATOM     91  C   UNL A   1      41.628  22.880  27.976  1.00  0.00     0.010 A 
ATOM     92  C   UNL A   1      42.885  21.880  25.662  1.00  0.00     0.020 A 
ATOM     93  C   UNL A   1      41.445  21.517  27.530  1.00  0.00     0.020 A 
ATOM     94  C   UNL A   1      42.112  21.006  26.408  1.00  0.00     0.054 A 
BRANCH  94  95
ATOM     95  S   UNL A   1      42.116  19.203  26.006  1.00  0.00     0.124 S 
ATOM     96  O   UNL A   1      43.050  19.107  24.889  1.00  0.00    -0.237 OA
ATOM     97  O   UNL A   1      42.571  18.590  27.254  1.00  0.00    -0.237 OA
ATOM     98  O   UNL A   1      40.720  18.922  25.670  1.00  0.00    -0.744 OA
ENDBRANCH  94  95
ENDBRANCH  66  89
BRANCH  78  99
ATOM     99  C   UNL A   1      40.771  29.149  29.321  1.00  0.00    -0.014 A 
ATOM    100  C   UNL A   1      39.362  29.238  29.238  1.00  0.00     0.010 A 
ATOM    101  C   UNL A   1      41.340  29.102  30.604  1.00  0.00     0.010 A 
ATOM    102  C   UNL A   1      38.566  29.353  30.387  1.00  0.00     0.020 A 
ATOM    103  C   UNL A   1      40.550  29.174  31.757  1.00  0.00     0.020 A 
ATOM    104  C   UNL A   1      39.171  29.337  31.642  1.00  0.00     0.054 A 
BRANCH 104 105
ATOM    105  S   UNL A   1      38.148  29.566  33.125  1.00  0.00     0.124 S 
ATOM    106  O   UNL A   1      37.300  30.692  32.741  1.00  0.00    -0.237 OA
ATOM    107  O   UNL A   1      37.461  28.285  33.252  1.00  0.00    -0.237 OA
ATOM    108  O   UNL A   1      39.122  29.865  34.172  1.00  0.00    -0.744 OA
ENDBRANCH 104 105
ENDBRANCH  78  99
ENDBRANCH  52  53
ENDBRANCH  44  47
ENDBRANCH  42  43
ENDBRANCH  41  42
ENDBRANCH  40  41
ENDBRANCH  39  40
ENDBRANCH   1  39
TORSDOF 24
ENDMDL
