MODEL 1
REMARK VINA RESULT:      -9.6      0.000      0.000
REMARK SMILES CCS(=O)(=O)N[C@H]1C=C[C@@H](C(=O)NCCCCCCNC(=O)c2ccc(-c3c4nc(c(-c5ccc(S(=O)(=O)[O-])cc5)c5ccc([nH]5)c(-c5ccc(S(=O)(=O)[O-])cc5)c5nc(c(-c6ccc(S(=O)(=O)[O-])cc6)c6ccc3[nH]6)C=C5)C=C4)cc2)C1
REMARK SMILES IDX 16 1 15 2 14 3 13 4 11 5 12 6 10 8 7 9 8 10 83 11 9 12 6 13
REMARK SMILES IDX 3 15 4 16 5 17 2 18 1 19 17 20 18 21 19 22 20 23 21 24 22 26
REMARK SMILES IDX 23 27 24 28 82 29 25 30 81 31 26 32 27 33 28 34 75 35 29 36
REMARK SMILES IDX 80 37 74 38 76 39 30 40 79 41 73 42 72 43 31 45 61 46 42 47
REMARK SMILES IDX 60 48 43 49 46 50 59 51 77 52 44 53 45 54 58 56 78 57 47 58
REMARK SMILES IDX 32 59 33 60 41 61 34 62 40 63 35 64 36 65 37 66 38 67 39 68
REMARK SMILES IDX 62 69 63 70 71 71 64 72 70 73 65 74 66 75 67 76 68 77 69 78
REMARK SMILES IDX 48 79 49 80 57 81 50 82 56 83 51 84 52 85 53 86 54 87 55 88
REMARK H PARENT 13 7 6 14 20 25 76 44 46 55
REMARK Flexibility Score: inf
ROOT
ATOM      1  C   UNL A   1      33.345  29.116  26.979  1.00  0.00     0.002 C 
ENDROOT
BRANCH   1   2
ATOM      2  C   UNL A   1      33.797  28.400  25.705  1.00  0.00     0.021 C 
BRANCH   2   3
ATOM      3  C   UNL A   1      33.291  28.986  24.385  1.00  0.00     0.116 C 
BRANCH   3   4
ATOM      4  N   UNL A   1      33.700  28.155  23.269  1.00  0.00    -0.356 N 
ATOM      5  C   UNL A   1      33.068  27.170  22.583  1.00  0.00     0.226 C 
ATOM      6  O   UNL A   1      33.761  26.561  21.757  1.00  0.00    -0.274 OA
ATOM      7  H   UNL A   1      34.611  28.343  22.947  1.00  0.00     0.163 HD
BRANCH   5   8
ATOM      8  C   UNL A   1      31.599  26.756  22.771  1.00  0.00     0.103 C 
ATOM      9  C   UNL A   1      30.596  25.231  24.446  1.00  0.00     0.093 C 
ATOM     10  C   UNL A   1      30.193  26.663  24.644  1.00  0.00    -0.011 C 
ATOM     11  C   UNL A   1      31.359  25.280  23.117  1.00  0.00     0.042 C 
ATOM     12  C   UNL A   1      30.772  27.494  23.769  1.00  0.00    -0.016 C 
BRANCH   9  13
ATOM     13  N   UNL A   1      31.441  24.889  25.598  1.00  0.00    -0.208 NA
ATOM     14  H   UNL A   1      32.410  25.029  25.313  1.00  0.00     0.141 HD
BRANCH  13  15
ATOM     15  S   UNL A   1      31.332  23.337  26.242  1.00  0.00     0.211 S 
ATOM     16  O   UNL A   1      31.128  22.389  25.168  1.00  0.00    -0.212 OA
ATOM     17  O   UNL A   1      30.388  23.466  27.327  1.00  0.00    -0.212 OA
BRANCH  15  18
ATOM     18  C   UNL A   1      32.953  23.114  26.966  1.00  0.00     0.150 C 
ATOM     19  C   UNL A   1      34.075  23.785  26.206  1.00  0.00     0.022 C 
ENDBRANCH  15  18
ENDBRANCH  13  15
ENDBRANCH   9  13
ENDBRANCH   5   8
ENDBRANCH   3   4
ENDBRANCH   2   3
ENDBRANCH   1   2
BRANCH   1  20
ATOM     20  C   UNL A   1      31.954  29.749  26.920  1.00  0.00     0.002 C 
BRANCH  20  21
ATOM     21  C   UNL A   1      31.923  31.275  26.794  1.00  0.00     0.021 C 
BRANCH  21  22
ATOM     22  C   UNL A   1      33.149  32.006  27.340  1.00  0.00     0.116 C 
BRANCH  22  23
ATOM     23  N   UNL A   1      32.870  33.396  27.651  1.00  0.00    -0.352 N 
ATOM     24  C   UNL A   1      33.404  34.190  28.637  1.00  0.00     0.251 C 
ATOM     25  H   UNL A   1      32.203  33.832  27.073  1.00  0.00     0.163 HD
ATOM     26  O   UNL A   1      32.897  35.279  28.889  1.00  0.00    -0.269 OA
BRANCH  24  27
ATOM     27  C   UNL A   1      34.578  33.721  29.404  1.00  0.00     0.039 A 
ATOM     28  C   UNL A   1      34.388  32.815  30.449  1.00  0.00     0.014 A 
ATOM     29  C   UNL A   1      35.863  34.183  29.099  1.00  0.00     0.014 A 
ATOM     30  C   UNL A   1      35.493  32.328  31.153  1.00  0.00     0.010 A 
ATOM     31  C   UNL A   1      36.967  33.642  29.753  1.00  0.00     0.010 A 
ATOM     32  C   UNL A   1      36.794  32.713  30.791  1.00  0.00    -0.014 A 
BRANCH  32  33
ATOM     33  C   UNL A   1      37.986  32.162  31.489  1.00  0.00     0.031 A 
ATOM     34  C   UNL A   1      38.412  32.730  32.817  1.00  0.00     0.074 A 
ATOM     35  C   UNL A   1      38.718  31.195  30.902  1.00  0.00     0.049 A 
ATOM     36  N   UNL A   1      39.459  32.432  33.544  1.00  0.00    -0.248 NA
ATOM     37  C   UNL A   1      37.564  33.785  33.393  1.00  0.00     0.031 C 
ATOM     38  C   UNL A   1      38.426  30.579  29.606  1.00  0.00     0.029 A 
ATOM     39  N   UNL A   1      39.866  30.565  31.315  1.00  0.00    -0.354 N 
ATOM     40  C   UNL A   1      39.404  33.272  34.650  1.00  0.00     0.074 A 
ATOM     41  C   UNL A   1      38.250  34.124  34.475  1.00  0.00     0.031 C 
ATOM     42  C   UNL A   1      39.354  29.645  29.342  1.00  0.00     0.029 A 
ATOM     43  C   UNL A   1      40.336  29.628  30.423  1.00  0.00     0.049 A 
ATOM     44  H   UNL A   1      40.312  30.764  32.171  1.00  0.00     0.167 HD
ATOM     45  C   UNL A   1      40.229  33.317  35.724  1.00  0.00     0.031 A 
ATOM     46  C   UNL A   1      41.438  28.854  30.461  1.00  0.00     0.031 A 
ATOM     47  C   UNL A   1      41.377  32.465  35.893  1.00  0.00     0.049 A 
ATOM     48  C   UNL A   1      42.359  28.947  31.647  1.00  0.00     0.074 A 
ATOM     49  C   UNL A   1      42.249  32.402  36.966  1.00  0.00     0.029 A 
ATOM     50  N   UNL A   1      41.818  31.533  34.966  1.00  0.00    -0.354 N 
ATOM     51  N   UNL A   1      42.257  29.706  32.712  1.00  0.00    -0.248 NA
ATOM     52  C   UNL A   1      43.538  28.071  31.643  1.00  0.00     0.031 C 
ATOM     53  C   UNL A   1      43.253  31.479  36.660  1.00  0.00     0.029 A 
ATOM     54  C   UNL A   1      42.966  30.910  35.429  1.00  0.00     0.049 A 
ATOM     55  H   UNL A   1      41.380  31.342  34.105  1.00  0.00     0.167 HD
ATOM     56  C   UNL A   1      43.339  29.373  33.521  1.00  0.00     0.074 A 
ATOM     57  C   UNL A   1      44.075  28.336  32.826  1.00  0.00     0.031 C 
ATOM     58  C   UNL A   1      43.688  29.876  34.730  1.00  0.00     0.031 A 
BRANCH  45  59
ATOM     59  C   UNL A   1      39.928  34.335  36.795  1.00  0.00    -0.014 A 
ATOM     60  C   UNL A   1      39.094  34.023  37.885  1.00  0.00     0.010 A 
ATOM     61  C   UNL A   1      40.527  35.607  36.737  1.00  0.00     0.010 A 
ATOM     62  C   UNL A   1      38.828  34.978  38.870  1.00  0.00     0.020 A 
ATOM     63  C   UNL A   1      40.292  36.554  37.738  1.00  0.00     0.020 A 
ATOM     64  C   UNL A   1      39.430  36.238  38.790  1.00  0.00     0.054 A 
BRANCH  64  65
ATOM     65  S   UNL A   1      39.086  37.447  40.098  1.00  0.00     0.124 S 
ATOM     66  O   UNL A   1      40.414  38.003  40.349  1.00  0.00    -0.237 OA
ATOM     67  O   UNL A   1      38.139  38.352  39.454  1.00  0.00    -0.237 OA
ATOM     68  O   UNL A   1      38.535  36.639  41.183  1.00  0.00    -0.744 OA
ENDBRANCH  64  65
ENDBRANCH  45  59
BRANCH  46  69
ATOM     69  C   UNL A   1      41.730  27.919  29.337  1.00  0.00    -0.014 A 
ATOM     70  C   UNL A   1      41.239  26.602  29.355  1.00  0.00     0.010 A 
ATOM     71  C   UNL A   1      42.497  28.345  28.238  1.00  0.00     0.010 A 
ATOM     72  C   UNL A   1      41.525  25.723  28.306  1.00  0.00     0.020 A 
ATOM     73  C   UNL A   1      42.758  27.481  27.171  1.00  0.00     0.020 A 
ATOM     74  C   UNL A   1      42.280  26.170  27.217  1.00  0.00     0.054 A 
BRANCH  74  75
ATOM     75  S   UNL A   1      42.597  25.027  25.845  1.00  0.00     0.124 S 
ATOM     76  O   UNL A   1      41.536  24.041  26.017  1.00  0.00    -0.237 OA
ATOM     77  O   UNL A   1      42.471  25.897  24.677  1.00  0.00    -0.237 OA
ATOM     78  O   UNL A   1      43.951  24.544  26.109  1.00  0.00    -0.744 OA
ENDBRANCH  74  75
ENDBRANCH  46  69
BRANCH  58  79
ATOM     79  C   UNL A   1      44.892  29.282  35.414  1.00  0.00    -0.014 A 
ATOM     80  C   UNL A   1      44.786  28.151  36.242  1.00  0.00     0.010 A 
ATOM     81  C   UNL A   1      46.163  29.833  35.169  1.00  0.00     0.010 A 
ATOM     82  C   UNL A   1      45.926  27.602  36.838  1.00  0.00     0.020 A 
ATOM     83  C   UNL A   1      47.309  29.267  35.735  1.00  0.00     0.020 A 
ATOM     84  C   UNL A   1      47.180  28.162  36.577  1.00  0.00     0.054 A 
BRANCH  84  85
ATOM     85  S   UNL A   1      48.648  27.400  37.322  1.00  0.00     0.124 S 
ATOM     86  O   UNL A   1      48.894  26.273  36.428  1.00  0.00    -0.237 OA
ATOM     87  O   UNL A   1      49.632  28.479  37.262  1.00  0.00    -0.237 OA
ATOM     88  O   UNL A   1      48.208  27.042  38.669  1.00  0.00    -0.744 OA
ENDBRANCH  84  85
ENDBRANCH  58  79
ENDBRANCH  32  33
ENDBRANCH  24  27
ENDBRANCH  22  23
ENDBRANCH  21  22
ENDBRANCH  20  21
ENDBRANCH   1  20
TORSDOF 19
ENDMDL
MODEL 2
REMARK VINA RESULT:      -9.3      6.602     10.244
REMARK SMILES CCS(=O)(=O)N[C@H]1C=C[C@@H](C(=O)NCCCCCCNC(=O)c2ccc(-c3c4nc(c(-c5ccc(S(=O)(=O)[O-])cc5)c5ccc([nH]5)c(-c5ccc(S(=O)(=O)[O-])cc5)c5nc(c(-c6ccc(S(=O)(=O)[O-])cc6)c6ccc3[nH]6)C=C5)C=C4)cc2)C1
REMARK SMILES IDX 16 1 15 2 14 3 13 4 11 5 12 6 10 8 7 9 8 10 83 11 9 12 6 13
REMARK SMILES IDX 3 15 4 16 5 17 2 18 1 19 17 20 18 21 19 22 20 23 21 24 22 26
REMARK SMILES IDX 23 27 24 28 82 29 25 30 81 31 26 32 27 33 28 34 75 35 29 36
REMARK SMILES IDX 80 37 74 38 76 39 30 40 79 41 73 42 72 43 31 45 61 46 42 47
REMARK SMILES IDX 60 48 43 49 46 50 59 51 77 52 44 53 45 54 58 56 78 57 47 58
REMARK SMILES IDX 32 59 33 60 41 61 34 62 40 63 35 64 36 65 37 66 38 67 39 68
REMARK SMILES IDX 62 69 63 70 71 71 64 72 70 73 65 74 66 75 67 76 68 77 69 78
REMARK SMILES IDX 48 79 49 80 57 81 50 82 56 83 51 84 52 85 53 86 54 87 55 88
REMARK H PARENT 13 7 6 14 20 25 76 44 46 55
REMARK Flexibility Score: inf
ROOT
ATOM      1  C   UNL A   1      38.522  23.780  26.665  1.00  0.00     0.002 C 
ENDROOT
BRANCH   1   2
ATOM      2  C   UNL A   1      38.001  23.770  25.226  1.00  0.00     0.021 C 
BRANCH   2   3
ATOM      3  C   UNL A   1      36.663  23.064  24.997  1.00  0.00     0.116 C 
BRANCH   3   4
ATOM      4  N   UNL A   1      35.963  22.877  26.253  1.00  0.00    -0.356 N 
ATOM      5  C   UNL A   1      34.647  22.757  26.558  1.00  0.00     0.226 C 
ATOM      6  O   UNL A   1      34.374  22.743  27.766  1.00  0.00    -0.274 OA
ATOM      7  H   UNL A   1      36.559  22.827  27.036  1.00  0.00     0.163 HD
BRANCH   5   8
ATOM      8  C   UNL A   1      33.502  22.662  25.536  1.00  0.00     0.103 C 
ATOM      9  C   UNL A   1      32.866  20.780  24.056  1.00  0.00     0.093 C 
ATOM     10  C   UNL A   1      31.853  21.048  25.130  1.00  0.00    -0.011 C 
ATOM     11  C   UNL A   1      33.840  21.954  24.216  1.00  0.00     0.042 C 
ATOM     12  C   UNL A   1      32.218  22.032  25.959  1.00  0.00    -0.016 C 
BRANCH   9  13
ATOM     13  N   UNL A   1      33.458  19.475  24.377  1.00  0.00    -0.208 NA
ATOM     14  H   UNL A   1      34.406  19.472  24.000  1.00  0.00     0.141 HD
BRANCH  13  15
ATOM     15  S   UNL A   1      32.695  18.084  23.813  1.00  0.00     0.211 S 
ATOM     16  O   UNL A   1      32.049  18.375  22.551  1.00  0.00    -0.212 OA
ATOM     17  O   UNL A   1      31.950  17.598  24.950  1.00  0.00    -0.212 OA
BRANCH  15  18
ATOM     18  C   UNL A   1      34.074  16.972  23.562  1.00  0.00     0.150 C 
ATOM     19  C   UNL A   1      34.787  16.563  24.832  1.00  0.00     0.022 C 
ENDBRANCH  15  18
ENDBRANCH  13  15
ENDBRANCH   9  13
ENDBRANCH   5   8
ENDBRANCH   3   4
ENDBRANCH   2   3
ENDBRANCH   1   2
BRANCH   1  20
ATOM     20  C   UNL A   1      39.743  22.897  26.928  1.00  0.00     0.002 C 
BRANCH  20  21
ATOM     21  C   UNL A   1      39.739  21.533  26.231  1.00  0.00     0.021 C 
BRANCH  21  22
ATOM     22  C   UNL A   1      40.289  20.370  27.055  1.00  0.00     0.116 C 
BRANCH  22  23
ATOM     23  N   UNL A   1      41.232  19.560  26.305  1.00  0.00    -0.352 N 
ATOM     24  C   UNL A   1      42.425  19.922  25.731  1.00  0.00     0.251 C 
ATOM     25  H   UNL A   1      40.979  18.615  26.193  1.00  0.00     0.163 HD
ATOM     26  O   UNL A   1      42.990  19.158  24.954  1.00  0.00    -0.269 OA
BRANCH  24  27
ATOM     27  C   UNL A   1      43.018  21.243  26.037  1.00  0.00     0.039 A 
ATOM     28  C   UNL A   1      43.176  22.170  25.005  1.00  0.00     0.014 A 
ATOM     29  C   UNL A   1      43.427  21.559  27.337  1.00  0.00     0.014 A 
ATOM     30  C   UNL A   1      43.692  23.438  25.288  1.00  0.00     0.010 A 
ATOM     31  C   UNL A   1      43.872  22.846  27.628  1.00  0.00     0.010 A 
ATOM     32  C   UNL A   1      44.016  23.798  26.607  1.00  0.00    -0.014 A 
BRANCH  32  33
ATOM     33  C   UNL A   1      44.511  25.161  26.937  1.00  0.00     0.031 A 
ATOM     34  C   UNL A   1      43.560  26.203  27.461  1.00  0.00     0.074 A 
ATOM     35  C   UNL A   1      45.801  25.478  26.708  1.00  0.00     0.049 A 
ATOM     36  N   UNL A   1      43.787  27.462  27.739  1.00  0.00    -0.248 NA
ATOM     37  C   UNL A   1      42.167  25.782  27.684  1.00  0.00     0.031 C 
ATOM     38  C   UNL A   1      46.817  24.566  26.178  1.00  0.00     0.029 A 
ATOM     39  N   UNL A   1      46.478  26.659  26.884  1.00  0.00    -0.354 N 
ATOM     40  C   UNL A   1      42.566  27.985  28.151  1.00  0.00     0.074 A 
ATOM     41  C   UNL A   1      41.593  26.922  28.039  1.00  0.00     0.031 C 
ATOM     42  C   UNL A   1      47.991  25.214  26.095  1.00  0.00     0.029 A 
ATOM     43  C   UNL A   1      47.803  26.599  26.517  1.00  0.00     0.049 A 
ATOM     44  H   UNL A   1      46.055  27.475  27.241  1.00  0.00     0.167 HD
ATOM     45  C   UNL A   1      42.285  29.232  28.598  1.00  0.00     0.031 A 
ATOM     46  C   UNL A   1      48.755  27.551  26.506  1.00  0.00     0.031 A 
ATOM     47  C   UNL A   1      43.258  30.287  28.707  1.00  0.00     0.049 A 
ATOM     48  C   UNL A   1      48.410  28.940  26.974  1.00  0.00     0.074 A 
ATOM     49  C   UNL A   1      43.082  31.571  29.192  1.00  0.00     0.029 A 
ATOM     50  N   UNL A   1      44.587  30.185  28.323  1.00  0.00    -0.354 N 
ATOM     51  N   UNL A   1      47.264  29.399  27.415  1.00  0.00    -0.248 NA
ATOM     52  C   UNL A   1      49.490  29.935  26.953  1.00  0.00     0.031 C 
ATOM     53  C   UNL A   1      44.286  32.265  29.041  1.00  0.00     0.029 A 
ATOM     54  C   UNL A   1      45.234  31.391  28.533  1.00  0.00     0.049 A 
ATOM     55  H   UNL A   1      45.007  29.374  27.955  1.00  0.00     0.167 HD
ATOM     56  C   UNL A   1      47.494  30.728  27.758  1.00  0.00     0.074 A 
ATOM     57  C   UNL A   1      48.892  30.993  27.484  1.00  0.00     0.031 C 
ATOM     58  C   UNL A   1      46.628  31.642  28.260  1.00  0.00     0.031 A 
BRANCH  45  59
ATOM     59  C   UNL A   1      40.859  29.531  28.988  1.00  0.00    -0.014 A 
ATOM     60  C   UNL A   1      39.848  29.662  28.018  1.00  0.00     0.010 A 
ATOM     61  C   UNL A   1      40.515  29.634  30.349  1.00  0.00     0.010 A 
ATOM     62  C   UNL A   1      38.531  29.936  28.399  1.00  0.00     0.020 A 
ATOM     63  C   UNL A   1      39.193  29.873  30.736  1.00  0.00     0.020 A 
ATOM     64  C   UNL A   1      38.212  30.040  29.756  1.00  0.00     0.054 A 
BRANCH  64  65
ATOM     65  S   UNL A   1      36.490  30.370  30.220  1.00  0.00     0.124 S 
ATOM     66  O   UNL A   1      36.311  29.479  31.365  1.00  0.00    -0.237 OA
ATOM     67  O   UNL A   1      36.511  31.796  30.531  1.00  0.00    -0.237 OA
ATOM     68  O   UNL A   1      35.732  30.005  29.025  1.00  0.00    -0.744 OA
ENDBRANCH  64  65
ENDBRANCH  45  59
BRANCH  46  69
ATOM     69  C   UNL A   1      50.132  27.223  26.037  1.00  0.00    -0.014 A 
ATOM     70  C   UNL A   1      51.120  26.811  26.947  1.00  0.00     0.010 A 
ATOM     71  C   UNL A   1      50.459  27.314  24.672  1.00  0.00     0.010 A 
ATOM     72  C   UNL A   1      52.414  26.516  26.506  1.00  0.00     0.020 A 
ATOM     73  C   UNL A   1      51.741  26.988  24.220  1.00  0.00     0.020 A 
ATOM     74  C   UNL A   1      52.714  26.602  25.143  1.00  0.00     0.054 A 
BRANCH  74  75
ATOM     75  S   UNL A   1      54.386  26.166  24.587  1.00  0.00     0.124 S 
ATOM     76  O   UNL A   1      55.217  27.041  25.406  1.00  0.00    -0.237 OA
ATOM     77  O   UNL A   1      54.460  24.742  24.904  1.00  0.00    -0.237 OA
ATOM     78  O   UNL A   1      54.362  26.479  23.159  1.00  0.00    -0.744 OA
ENDBRANCH  74  75
ENDBRANCH  46  69
BRANCH  58  79
ATOM     79  C   UNL A   1      47.170  33.008  28.596  1.00  0.00    -0.014 A 
ATOM     80  C   UNL A   1      47.133  34.063  27.669  1.00  0.00     0.010 A 
ATOM     81  C   UNL A   1      47.669  33.250  29.889  1.00  0.00     0.010 A 
ATOM     82  C   UNL A   1      47.614  35.329  28.020  1.00  0.00     0.020 A 
ATOM     83  C   UNL A   1      48.119  34.521  30.255  1.00  0.00     0.020 A 
ATOM     84  C   UNL A   1      48.101  35.550  29.313  1.00  0.00     0.054 A 
BRANCH  84  85
ATOM     85  S   UNL A   1      48.673  37.212  29.758  1.00  0.00     0.124 S 
ATOM     86  O   UNL A   1      49.376  36.967  31.013  1.00  0.00    -0.237 OA
ATOM     87  O   UNL A   1      49.519  37.572  28.622  1.00  0.00    -0.237 OA
ATOM     88  O   UNL A   1      47.439  37.985  29.876  1.00  0.00    -0.744 OA
ENDBRANCH  84  85
ENDBRANCH  58  79
ENDBRANCH  32  33
ENDBRANCH  24  27
ENDBRANCH  22  23
ENDBRANCH  21  22
ENDBRANCH  20  21
ENDBRANCH   1  20
TORSDOF 19
ENDMDL
MODEL 3
REMARK VINA RESULT:      -9.2      4.418     11.174
REMARK SMILES CCS(=O)(=O)N[C@H]1C=C[C@@H](C(=O)NCCCCCCNC(=O)c2ccc(-c3c4nc(c(-c5ccc(S(=O)(=O)[O-])cc5)c5ccc([nH]5)c(-c5ccc(S(=O)(=O)[O-])cc5)c5nc(c(-c6ccc(S(=O)(=O)[O-])cc6)c6ccc3[nH]6)C=C5)C=C4)cc2)C1
REMARK SMILES IDX 16 1 15 2 14 3 13 4 11 5 12 6 10 8 7 9 8 10 83 11 9 12 6 13
REMARK SMILES IDX 3 15 4 16 5 17 2 18 1 19 17 20 18 21 19 22 20 23 21 24 22 26
REMARK SMILES IDX 23 27 24 28 82 29 25 30 81 31 26 32 27 33 28 34 75 35 29 36
REMARK SMILES IDX 80 37 74 38 76 39 30 40 79 41 73 42 72 43 31 45 61 46 42 47
REMARK SMILES IDX 60 48 43 49 46 50 59 51 77 52 44 53 45 54 58 56 78 57 47 58
REMARK SMILES IDX 32 59 33 60 41 61 34 62 40 63 35 64 36 65 37 66 38 67 39 68
REMARK SMILES IDX 62 69 63 70 71 71 64 72 70 73 65 74 66 75 67 76 68 77 69 78
REMARK SMILES IDX 48 79 49 80 57 81 50 82 56 83 51 84 52 85 53 86 54 87 55 88
REMARK H PARENT 13 7 6 14 20 25 76 44 46 55
REMARK Flexibility Score: inf
ROOT
ATOM      1  C   UNL A   1      37.114  33.143  30.033  1.00  0.00     0.002 C 
ENDROOT
BRANCH   1   2
ATOM      2  C   UNL A   1      36.243  33.057  31.288  1.00  0.00     0.021 C 
BRANCH   2   3
ATOM      3  C   UNL A   1      36.134  34.335  32.124  1.00  0.00     0.116 C 
BRANCH   3   4
ATOM      4  N   UNL A   1      35.812  34.018  33.501  1.00  0.00    -0.356 N 
ATOM      5  C   UNL A   1      36.578  33.890  34.613  1.00  0.00     0.226 C 
ATOM      6  O   UNL A   1      35.995  33.471  35.623  1.00  0.00    -0.274 OA
ATOM      7  H   UNL A   1      34.853  33.866  33.659  1.00  0.00     0.163 HD
BRANCH   5   8
ATOM      8  C   UNL A   1      38.082  34.199  34.698  1.00  0.00     0.103 C 
ATOM      9  C   UNL A   1      39.988  32.660  35.060  1.00  0.00     0.093 C 
ATOM     10  C   UNL A   1      39.968  33.250  33.681  1.00  0.00    -0.011 C 
ATOM     11  C   UNL A   1      38.866  33.427  35.768  1.00  0.00     0.042 C 
ATOM     12  C   UNL A   1      38.913  34.045  33.469  1.00  0.00    -0.016 C 
BRANCH   9  13
ATOM     13  N   UNL A   1      39.706  31.228  34.888  1.00  0.00    -0.208 NA
ATOM     14  H   UNL A   1      38.903  31.006  35.476  1.00  0.00     0.141 HD
BRANCH  13  15
ATOM     15  S   UNL A   1      40.917  30.119  35.262  1.00  0.00     0.211 S 
ATOM     16  O   UNL A   1      40.425  29.195  36.261  1.00  0.00    -0.212 OA
ATOM     17  O   UNL A   1      42.087  30.932  35.494  1.00  0.00    -0.212 OA
BRANCH  15  18
ATOM     18  C   UNL A   1      41.151  29.276  33.701  1.00  0.00     0.150 C 
ATOM     19  C   UNL A   1      39.872  28.997  32.943  1.00  0.00     0.022 C 
ENDBRANCH  15  18
ENDBRANCH  13  15
ENDBRANCH   9  13
ENDBRANCH   5   8
ENDBRANCH   3   4
ENDBRANCH   2   3
ENDBRANCH   1   2
BRANCH   1  20
ATOM     20  C   UNL A   1      36.459  33.811  28.823  1.00  0.00     0.002 C 
BRANCH  20  21
ATOM     21  C   UNL A   1      35.405  32.976  28.092  1.00  0.00     0.021 C 
BRANCH  21  22
ATOM     22  C   UNL A   1      34.404  32.248  28.988  1.00  0.00     0.116 C 
BRANCH  22  23
ATOM     23  N   UNL A   1      33.881  31.044  28.367  1.00  0.00    -0.352 N 
ATOM     24  C   UNL A   1      34.557  29.945  27.896  1.00  0.00     0.251 C 
ATOM     25  H   UNL A   1      32.902  31.010  28.271  1.00  0.00     0.163 HD
ATOM     26  O   UNL A   1      33.973  29.112  27.210  1.00  0.00    -0.269 OA
BRANCH  24  27
ATOM     27  C   UNL A   1      35.995  29.778  28.202  1.00  0.00     0.039 A 
ATOM     28  C   UNL A   1      36.373  29.380  29.486  1.00  0.00     0.014 A 
ATOM     29  C   UNL A   1      36.967  30.025  27.227  1.00  0.00     0.014 A 
ATOM     30  C   UNL A   1      37.725  29.174  29.777  1.00  0.00     0.010 A 
ATOM     31  C   UNL A   1      38.305  29.749  27.498  1.00  0.00     0.010 A 
ATOM     32  C   UNL A   1      38.700  29.327  28.777  1.00  0.00    -0.014 A 
BRANCH  32  33
ATOM     33  C   UNL A   1      40.136  29.057  29.050  1.00  0.00     0.031 A 
ATOM     34  C   UNL A   1      40.731  27.717  28.705  1.00  0.00     0.074 A 
ATOM     35  C   UNL A   1      40.889  29.992  29.663  1.00  0.00     0.049 A 
ATOM     36  N   UNL A   1      41.940  27.269  28.929  1.00  0.00    -0.248 NA
ATOM     37  C   UNL A   1      39.847  26.747  28.039  1.00  0.00     0.031 C 
ATOM     38  C   UNL A   1      40.425  31.319  30.073  1.00  0.00     0.029 A 
ATOM     39  N   UNL A   1      42.204  29.966  30.058  1.00  0.00    -0.354 N 
ATOM     40  C   UNL A   1      41.956  25.964  28.450  1.00  0.00     0.074 A 
ATOM     41  C   UNL A   1      40.623  25.676  27.968  1.00  0.00     0.031 C 
ATOM     42  C   UNL A   1      41.443  31.987  30.638  1.00  0.00     0.029 A 
ATOM     43  C   UNL A   1      42.619  31.122  30.678  1.00  0.00     0.049 A 
ATOM     44  H   UNL A   1      42.796  29.193  29.911  1.00  0.00     0.167 HD
ATOM     45  C   UNL A   1      42.990  25.091  28.399  1.00  0.00     0.031 A 
ATOM     46  C   UNL A   1      43.804  31.447  31.229  1.00  0.00     0.031 A 
ATOM     47  C   UNL A   1      44.315  25.383  28.880  1.00  0.00     0.049 A 
ATOM     48  C   UNL A   1      44.929  30.447  31.192  1.00  0.00     0.074 A 
ATOM     49  C   UNL A   1      45.442  24.582  28.831  1.00  0.00     0.029 A 
ATOM     50  N   UNL A   1      44.692  26.564  29.501  1.00  0.00    -0.354 N 
ATOM     51  N   UNL A   1      44.940  29.239  30.681  1.00  0.00    -0.248 NA
ATOM     52  C   UNL A   1      46.203  30.857  31.796  1.00  0.00     0.031 C 
ATOM     53  C   UNL A   1      46.483  25.252  29.480  1.00  0.00     0.029 A 
ATOM     54  C   UNL A   1      46.026  26.502  29.867  1.00  0.00     0.049 A 
ATOM     55  H   UNL A   1      44.098  27.333  29.660  1.00  0.00     0.167 HD
ATOM     56  C   UNL A   1      46.232  28.759  30.870  1.00  0.00     0.074 A 
ATOM     57  C   UNL A   1      46.975  29.813  31.532  1.00  0.00     0.031 C 
ATOM     58  C   UNL A   1      46.757  27.558  30.522  1.00  0.00     0.031 A 
BRANCH  45  59
ATOM     59  C   UNL A   1      42.725  23.726  27.815  1.00  0.00    -0.014 A 
ATOM     60  C   UNL A   1      42.938  23.462  26.449  1.00  0.00     0.010 A 
ATOM     61  C   UNL A   1      42.302  22.678  28.653  1.00  0.00     0.010 A 
ATOM     62  C   UNL A   1      42.690  22.190  25.925  1.00  0.00     0.020 A 
ATOM     63  C   UNL A   1      42.085  21.395  28.141  1.00  0.00     0.020 A 
ATOM     64  C   UNL A   1      42.265  21.164  26.775  1.00  0.00     0.054 A 
BRANCH  64  65
ATOM     65  S   UNL A   1      41.976  19.518  26.071  1.00  0.00     0.124 S 
ATOM     66  O   UNL A   1      42.895  19.512  24.934  1.00  0.00    -0.237 OA
ATOM     67  O   UNL A   1      42.337  18.632  27.174  1.00  0.00    -0.237 OA
ATOM     68  O   UNL A   1      40.557  19.532  25.724  1.00  0.00    -0.744 OA
ENDBRANCH  64  65
ENDBRANCH  45  59
BRANCH  46  69
ATOM     69  C   UNL A   1      43.990  32.783  31.864  1.00  0.00    -0.014 A 
ATOM     70  C   UNL A   1      43.767  32.960  33.240  1.00  0.00     0.010 A 
ATOM     71  C   UNL A   1      44.401  33.886  31.093  1.00  0.00     0.010 A 
ATOM     72  C   UNL A   1      43.930  34.217  33.830  1.00  0.00     0.020 A 
ATOM     73  C   UNL A   1      44.598  35.137  31.684  1.00  0.00     0.020 A 
ATOM     74  C   UNL A   1      44.350  35.297  33.048  1.00  0.00     0.054 A 
BRANCH  74  75
ATOM     75  S   UNL A   1      44.603  36.907  33.845  1.00  0.00     0.124 S 
ATOM     76  O   UNL A   1      46.045  37.089  33.714  1.00  0.00    -0.237 OA
ATOM     77  O   UNL A   1      43.775  37.794  33.031  1.00  0.00    -0.237 OA
ATOM     78  O   UNL A   1      44.120  36.693  35.208  1.00  0.00    -0.744 OA
ENDBRANCH  74  75
ENDBRANCH  46  69
BRANCH  58  79
ATOM     79  C   UNL A   1      48.220  27.327  30.801  1.00  0.00    -0.014 A 
ATOM     80  C   UNL A   1      49.213  27.704  29.881  1.00  0.00     0.010 A 
ATOM     81  C   UNL A   1      48.605  26.777  32.037  1.00  0.00     0.010 A 
ATOM     82  C   UNL A   1      50.565  27.507  30.181  1.00  0.00     0.020 A 
ATOM     83  C   UNL A   1      49.956  26.610  32.355  1.00  0.00     0.020 A 
ATOM     84  C   UNL A   1      50.927  26.963  31.418  1.00  0.00     0.054 A 
BRANCH  84  85
ATOM     85  S   UNL A   1      52.689  26.764  31.801  1.00  0.00     0.124 S 
ATOM     86  O   UNL A   1      52.918  27.847  32.753  1.00  0.00    -0.237 OA
ATOM     87  O   UNL A   1      52.742  25.414  32.359  1.00  0.00    -0.237 OA
ATOM     88  O   UNL A   1      53.346  26.922  30.506  1.00  0.00    -0.744 OA
ENDBRANCH  84  85
ENDBRANCH  58  79
ENDBRANCH  32  33
ENDBRANCH  24  27
ENDBRANCH  22  23
ENDBRANCH  21  22
ENDBRANCH  20  21
ENDBRANCH   1  20
TORSDOF 19
ENDMDL
