MODEL 1
REMARK VINA RESULT:      -9.8      0.000      0.000
REMARK SMILES CC(C)(C[C@@H](O)C(F)(F)F)C(=O)NCCCCCCNC(=O)c1ccc(-c2c3nc(c(-c4ccc(S(=O)(=O)[O-])cc4)c4ccc([nH]4)c(-c4ccc(S(=O)(=O)[O-])cc4)c4nc(c(-c5ccc(S(=O)(=O)[O-])cc5)c5ccc2[nH]5)C=C4)C=C3)cc1
REMARK SMILES IDX 16 1 15 2 14 3 13 4 11 5 12 6 2 8 1 9 3 10 4 11 5 12 6 13
REMARK SMILES IDX 7 15 8 16 9 17 10 18 17 19 18 20 19 21 20 22 21 23 22 25
REMARK SMILES IDX 23 26 24 27 82 28 25 29 81 30 26 31 27 32 28 33 75 34 29 35
REMARK SMILES IDX 80 36 74 37 76 38 30 39 79 40 73 41 72 42 31 44 61 45 42 46
REMARK SMILES IDX 60 47 43 48 46 49 59 50 77 51 44 52 45 53 58 55 78 56 47 57
REMARK SMILES IDX 32 58 33 59 41 60 34 61 40 62 35 63 36 64 37 65 38 66 39 67
REMARK SMILES IDX 62 68 63 69 71 70 64 71 70 72 65 73 66 74 67 75 68 76 69 77
REMARK SMILES IDX 48 78 49 79 57 80 50 81 56 82 51 83 52 84 53 85 54 86 55 87
REMARK H PARENT 13 7 6 14 20 24 76 43 46 54
REMARK Flexibility Score: inf
ROOT
ATOM      1  C   UNL A   1      32.755  25.679  26.073  1.00  0.00     0.002 C 
ENDROOT
BRANCH   1   2
ATOM      2  C   UNL A   1      33.496  25.488  24.744  1.00  0.00     0.021 C 
BRANCH   2   3
ATOM      3  C   UNL A   1      33.426  24.069  24.180  1.00  0.00     0.116 C 
BRANCH   3   4
ATOM      4  N   UNL A   1      34.702  23.651  23.629  1.00  0.00    -0.356 N 
ATOM      5  C   UNL A   1      35.531  22.619  23.925  1.00  0.00     0.225 C 
ATOM      6  O   UNL A   1      36.660  22.661  23.422  1.00  0.00    -0.275 OA
ATOM      7  H   UNL A   1      35.028  24.228  22.901  1.00  0.00     0.163 HD
BRANCH   5   8
ATOM      8  C   UNL A   1      35.146  21.473  24.880  1.00  0.00     0.046 C 
ATOM      9  C   UNL A   1      34.880  22.070  26.284  1.00  0.00     0.021 C 
ATOM     10  C   UNL A   1      36.344  20.516  25.055  1.00  0.00     0.021 C 
BRANCH   8  11
ATOM     11  C   UNL A   1      33.880  20.707  24.414  1.00  0.00     0.057 C 
BRANCH  11  12
ATOM     12  C   UNL A   1      33.041  20.005  25.506  1.00  0.00     0.220 C 
BRANCH  12  13
ATOM     13  O   UNL A   1      31.764  20.639  25.662  1.00  0.00    -0.384 OA
ATOM     14  H   UNL A   1      31.259  20.182  26.353  1.00  0.00     0.211 HD
ENDBRANCH  12  13
BRANCH  12  15
ATOM     15  C   UNL A   1      32.879  18.511  25.157  1.00  0.00     0.414 C 
ATOM     16  F   UNL A   1      34.066  17.982  24.770  1.00  0.00    -0.168 F 
ATOM     17  F   UNL A   1      32.455  17.797  26.224  1.00  0.00    -0.168 F 
ATOM     18  F   UNL A   1      32.001  18.318  24.148  1.00  0.00    -0.168 F 
ENDBRANCH  12  15
ENDBRANCH  11  12
ENDBRANCH   8  11
ENDBRANCH   5   8
ENDBRANCH   3   4
ENDBRANCH   2   3
ENDBRANCH   1   2
BRANCH   1  19
ATOM     19  C   UNL A   1      31.840  26.906  26.138  1.00  0.00     0.002 C 
BRANCH  19  20
ATOM     20  C   UNL A   1      32.146  27.891  27.270  1.00  0.00     0.021 C 
BRANCH  20  21
ATOM     21  C   UNL A   1      33.538  28.512  27.220  1.00  0.00     0.116 C 
BRANCH  21  22
ATOM     22  N   UNL A   1      33.505  29.945  27.465  1.00  0.00    -0.352 N 
ATOM     23  C   UNL A   1      34.444  30.749  28.057  1.00  0.00     0.251 C 
ATOM     24  H   UNL A   1      32.689  30.405  27.161  1.00  0.00     0.163 HD
ATOM     25  O   UNL A   1      34.152  31.906  28.361  1.00  0.00    -0.269 OA
BRANCH  23  26
ATOM     26  C   UNL A   1      35.796  30.228  28.348  1.00  0.00     0.039 A 
ATOM     27  C   UNL A   1      36.762  30.257  27.340  1.00  0.00     0.014 A 
ATOM     28  C   UNL A   1      36.112  29.701  29.605  1.00  0.00     0.014 A 
ATOM     29  C   UNL A   1      38.059  29.813  27.609  1.00  0.00     0.010 A 
ATOM     30  C   UNL A   1      37.423  29.325  29.893  1.00  0.00     0.010 A 
ATOM     31  C   UNL A   1      38.410  29.376  28.897  1.00  0.00    -0.014 A 
BRANCH  31  32
ATOM     32  C   UNL A   1      39.809  28.992  29.219  1.00  0.00     0.031 A 
ATOM     33  C   UNL A   1      40.739  29.969  29.885  1.00  0.00     0.074 A 
ATOM     34  C   UNL A   1      40.256  27.770  28.864  1.00  0.00     0.049 A 
ATOM     35  N   UNL A   1      41.993  29.812  30.224  1.00  0.00    -0.248 NA
ATOM     36  C   UNL A   1      40.198  31.303  30.193  1.00  0.00     0.031 C 
ATOM     37  C   UNL A   1      39.467  26.747  28.172  1.00  0.00     0.029 A 
ATOM     38  N   UNL A   1      41.483  27.180  29.035  1.00  0.00    -0.354 N 
ATOM     39  C   UNL A   1      42.394  31.024  30.773  1.00  0.00     0.074 A 
ATOM     40  C   UNL A   1      41.264  31.924  30.676  1.00  0.00     0.031 C 
ATOM     41  C   UNL A   1      40.218  25.648  28.009  1.00  0.00     0.029 A 
ATOM     42  C   UNL A   1      41.553  25.898  28.543  1.00  0.00     0.049 A 
ATOM     43  H   UNL A   1      42.243  27.633  29.469  1.00  0.00     0.167 HD
ATOM     44  C   UNL A   1      43.586  31.354  31.326  1.00  0.00     0.031 A 
ATOM     45  C   UNL A   1      42.574  25.020  28.522  1.00  0.00     0.031 A 
ATOM     46  C   UNL A   1      44.708  30.456  31.423  1.00  0.00     0.049 A 
ATOM     47  C   UNL A   1      43.891  25.414  29.130  1.00  0.00     0.074 A 
ATOM     48  C   UNL A   1      45.940  30.679  32.013  1.00  0.00     0.029 A 
ATOM     49  N   UNL A   1      44.739  29.168  30.911  1.00  0.00    -0.354 N 
ATOM     50  N   UNL A   1      44.228  26.542  29.708  1.00  0.00    -0.248 NA
ATOM     51  C   UNL A   1      44.965  24.411  29.092  1.00  0.00     0.031 C 
ATOM     52  C   UNL A   1      46.735  29.546  31.810  1.00  0.00     0.029 A 
ATOM     53  C   UNL A   1      45.977  28.593  31.148  1.00  0.00     0.049 A 
ATOM     54  H   UNL A   1      43.990  28.725  30.449  1.00  0.00     0.167 HD
ATOM     55  C   UNL A   1      45.545  26.377  30.123  1.00  0.00     0.074 A 
ATOM     56  C   UNL A   1      45.934  25.032  29.749  1.00  0.00     0.031 C 
ATOM     57  C   UNL A   1      46.357  27.258  30.758  1.00  0.00     0.031 A 
BRANCH  44  58
ATOM     58  C   UNL A   1      43.742  32.753  31.865  1.00  0.00    -0.014 A 
ATOM     59  C   UNL A   1      43.424  33.057  33.202  1.00  0.00     0.010 A 
ATOM     60  C   UNL A   1      44.252  33.770  31.038  1.00  0.00     0.010 A 
ATOM     61  C   UNL A   1      43.573  34.359  33.688  1.00  0.00     0.020 A 
ATOM     62  C   UNL A   1      44.432  35.068  31.529  1.00  0.00     0.020 A 
ATOM     63  C   UNL A   1      44.075  35.356  32.847  1.00  0.00     0.054 A 
BRANCH  63  64
ATOM     64  S   UNL A   1      44.281  37.032  33.514  1.00  0.00     0.124 S 
ATOM     65  O   UNL A   1      43.499  36.962  34.746  1.00  0.00    -0.237 OA
ATOM     66  O   UNL A   1      45.726  37.130  33.693  1.00  0.00    -0.237 OA
ATOM     67  O   UNL A   1      43.724  37.891  32.471  1.00  0.00    -0.744 OA
ENDBRANCH  63  64
ENDBRANCH  44  58
BRANCH  45  68
ATOM     68  C   UNL A   1      42.385  23.674  27.913  1.00  0.00    -0.014 A 
ATOM     69  C   UNL A   1      42.699  23.448  26.563  1.00  0.00     0.010 A 
ATOM     70  C   UNL A   1      41.900  22.605  28.689  1.00  0.00     0.010 A 
ATOM     71  C   UNL A   1      42.516  22.185  25.994  1.00  0.00     0.020 A 
ATOM     72  C   UNL A   1      41.744  21.333  28.133  1.00  0.00     0.020 A 
ATOM     73  C   UNL A   1      42.042  21.134  26.784  1.00  0.00     0.054 A 
BRANCH  73  74
ATOM     74  S   UNL A   1      41.863  19.489  26.038  1.00  0.00     0.124 S 
ATOM     75  O   UNL A   1      42.776  19.569  24.903  1.00  0.00    -0.237 OA
ATOM     76  O   UNL A   1      42.277  18.605  27.125  1.00  0.00    -0.237 OA
ATOM     77  O   UNL A   1      40.444  19.422  25.698  1.00  0.00    -0.744 OA
ENDBRANCH  73  74
ENDBRANCH  45  68
BRANCH  57  78
ATOM     78  C   UNL A   1      47.745  26.788  31.105  1.00  0.00    -0.014 A 
ATOM     79  C   UNL A   1      48.810  26.925  30.197  1.00  0.00     0.010 A 
ATOM     80  C   UNL A   1      47.994  26.231  32.373  1.00  0.00     0.010 A 
ATOM     81  C   UNL A   1      50.089  26.474  30.534  1.00  0.00     0.020 A 
ATOM     82  C   UNL A   1      49.278  25.809  32.726  1.00  0.00     0.020 A 
ATOM     83  C   UNL A   1      50.315  25.916  31.797  1.00  0.00     0.054 A 
BRANCH  83  84
ATOM     84  S   UNL A   1      51.989  25.364  32.220  1.00  0.00     0.124 S 
ATOM     85  O   UNL A   1      52.157  25.909  33.565  1.00  0.00    -0.237 OA
ATOM     86  O   UNL A   1      51.878  23.910  32.141  1.00  0.00    -0.237 OA
ATOM     87  O   UNL A   1      52.826  25.976  31.191  1.00  0.00    -0.744 OA
ENDBRANCH  83  84
ENDBRANCH  57  78
ENDBRANCH  31  32
ENDBRANCH  23  26
ENDBRANCH  21  22
ENDBRANCH  20  21
ENDBRANCH  19  20
ENDBRANCH   1  19
TORSDOF 20
ENDMDL
MODEL 2
REMARK VINA RESULT:      -9.5      2.766      3.601
REMARK SMILES CC(C)(C[C@@H](O)C(F)(F)F)C(=O)NCCCCCCNC(=O)c1ccc(-c2c3nc(c(-c4ccc(S(=O)(=O)[O-])cc4)c4ccc([nH]4)c(-c4ccc(S(=O)(=O)[O-])cc4)c4nc(c(-c5ccc(S(=O)(=O)[O-])cc5)c5ccc2[nH]5)C=C4)C=C3)cc1
REMARK SMILES IDX 16 1 15 2 14 3 13 4 11 5 12 6 2 8 1 9 3 10 4 11 5 12 6 13
REMARK SMILES IDX 7 15 8 16 9 17 10 18 17 19 18 20 19 21 20 22 21 23 22 25
REMARK SMILES IDX 23 26 24 27 82 28 25 29 81 30 26 31 27 32 28 33 75 34 29 35
REMARK SMILES IDX 80 36 74 37 76 38 30 39 79 40 73 41 72 42 31 44 61 45 42 46
REMARK SMILES IDX 60 47 43 48 46 49 59 50 77 51 44 52 45 53 58 55 78 56 47 57
REMARK SMILES IDX 32 58 33 59 41 60 34 61 40 62 35 63 36 64 37 65 38 66 39 67
REMARK SMILES IDX 62 68 63 69 71 70 64 71 70 72 65 73 66 74 67 75 68 76 69 77
REMARK SMILES IDX 48 78 49 79 57 80 50 81 56 82 51 83 52 84 53 85 54 86 55 87
REMARK H PARENT 13 7 6 14 20 24 76 43 46 54
REMARK Flexibility Score: inf
ROOT
ATOM      1  C   UNL A   1      30.794  27.040  24.982  1.00  0.00     0.002 C 
ENDROOT
BRANCH   1   2
ATOM      2  C   UNL A   1      31.061  26.125  23.781  1.00  0.00     0.021 C 
BRANCH   2   3
ATOM      3  C   UNL A   1      30.701  24.658  24.013  1.00  0.00     0.116 C 
BRANCH   3   4
ATOM      4  N   UNL A   1      30.303  24.417  25.388  1.00  0.00    -0.356 N 
ATOM      5  C   UNL A   1      30.848  23.671  26.380  1.00  0.00     0.225 C 
ATOM      6  O   UNL A   1      30.146  23.492  27.382  1.00  0.00    -0.275 OA
ATOM      7  H   UNL A   1      29.478  24.886  25.651  1.00  0.00     0.163 HD
BRANCH   5   8
ATOM      8  C   UNL A   1      32.238  23.012  26.275  1.00  0.00     0.046 C 
ATOM      9  C   UNL A   1      32.675  22.557  27.689  1.00  0.00     0.021 C 
ATOM     10  C   UNL A   1      33.280  24.062  25.835  1.00  0.00     0.021 C 
BRANCH   8  11
ATOM     11  C   UNL A   1      32.245  21.782  25.328  1.00  0.00     0.057 C 
BRANCH  11  12
ATOM     12  C   UNL A   1      33.079  20.560  25.773  1.00  0.00     0.220 C 
BRANCH  12  13
ATOM     13  O   UNL A   1      32.317  19.350  25.668  1.00  0.00    -0.384 OA
ATOM     14  H   UNL A   1      32.915  18.604  25.502  1.00  0.00     0.211 HD
ENDBRANCH  12  13
BRANCH  12  15
ATOM     15  C   UNL A   1      34.369  20.476  24.929  1.00  0.00     0.414 C 
ATOM     16  F   UNL A   1      34.436  19.287  24.282  1.00  0.00    -0.168 F 
ATOM     17  F   UNL A   1      34.407  21.444  23.986  1.00  0.00    -0.168 F 
ATOM     18  F   UNL A   1      35.480  20.588  25.689  1.00  0.00    -0.168 F 
ENDBRANCH  12  15
ENDBRANCH  11  12
ENDBRANCH   8  11
ENDBRANCH   5   8
ENDBRANCH   3   4
ENDBRANCH   2   3
ENDBRANCH   1   2
BRANCH   1  19
ATOM     19  C   UNL A   1      32.026  27.382  25.826  1.00  0.00     0.002 C 
BRANCH  19  20
ATOM     20  C   UNL A   1      32.930  28.476  25.251  1.00  0.00     0.021 C 
BRANCH  20  21
ATOM     21  C   UNL A   1      34.015  28.976  26.199  1.00  0.00     0.116 C 
BRANCH  21  22
ATOM     22  N   UNL A   1      33.794  30.356  26.602  1.00  0.00    -0.352 N 
ATOM     23  C   UNL A   1      34.441  31.099  27.554  1.00  0.00     0.251 C 
ATOM     24  H   UNL A   1      33.076  30.825  26.119  1.00  0.00     0.163 HD
ATOM     25  O   UNL A   1      33.978  32.188  27.896  1.00  0.00    -0.269 OA
BRANCH  23  26
ATOM     26  C   UNL A   1      35.677  30.591  28.185  1.00  0.00     0.039 A 
ATOM     27  C   UNL A   1      36.911  31.044  27.714  1.00  0.00     0.014 A 
ATOM     28  C   UNL A   1      35.626  29.662  29.230  1.00  0.00     0.014 A 
ATOM     29  C   UNL A   1      38.089  30.613  28.327  1.00  0.00     0.010 A 
ATOM     30  C   UNL A   1      36.796  29.287  29.887  1.00  0.00     0.010 A 
ATOM     31  C   UNL A   1      38.041  29.758  29.442  1.00  0.00    -0.014 A 
BRANCH  31  32
ATOM     32  C   UNL A   1      39.282  29.369  30.160  1.00  0.00     0.031 A 
ATOM     33  C   UNL A   1      39.705  30.094  31.409  1.00  0.00     0.074 A 
ATOM     34  C   UNL A   1      40.057  28.387  29.655  1.00  0.00     0.049 A 
ATOM     35  N   UNL A   1      40.763  29.901  32.155  1.00  0.00    -0.248 NA
ATOM     36  C   UNL A   1      38.838  31.191  31.870  1.00  0.00     0.031 C 
ATOM     37  C   UNL A   1      39.781  27.638  28.427  1.00  0.00     0.029 A 
ATOM     38  N   UNL A   1      41.235  27.851  30.111  1.00  0.00    -0.354 N 
ATOM     39  C   UNL A   1      40.697  30.855  33.164  1.00  0.00     0.074 A 
ATOM     40  C   UNL A   1      39.521  31.659  32.906  1.00  0.00     0.031 C 
ATOM     41  C   UNL A   1      40.742  26.719  28.246  1.00  0.00     0.029 A 
ATOM     42  C   UNL A   1      41.724  26.839  29.319  1.00  0.00     0.049 A 
ATOM     43  H   UNL A   1      41.687  28.161  30.930  1.00  0.00     0.167 HD
ATOM     44  C   UNL A   1      41.526  31.034  34.220  1.00  0.00     0.031 A 
ATOM     45  C   UNL A   1      42.839  26.092  29.438  1.00  0.00     0.031 A 
ATOM     46  C   UNL A   1      42.694  30.232  34.474  1.00  0.00     0.049 A 
ATOM     47  C   UNL A   1      43.751  26.319  30.611  1.00  0.00     0.074 A 
ATOM     48  C   UNL A   1      43.568  30.300  35.546  1.00  0.00     0.029 A 
ATOM     49  N   UNL A   1      43.157  29.219  33.647  1.00  0.00    -0.354 N 
ATOM     50  N   UNL A   1      43.632  27.180  31.593  1.00  0.00    -0.248 NA
ATOM     51  C   UNL A   1      44.943  25.464  30.698  1.00  0.00     0.031 C 
ATOM     52  C   UNL A   1      44.590  29.367  35.338  1.00  0.00     0.029 A 
ATOM     53  C   UNL A   1      44.319  28.674  34.170  1.00  0.00     0.049 A 
ATOM     54  H   UNL A   1      42.724  28.930  32.812  1.00  0.00     0.167 HD
ATOM     55  C   UNL A   1      44.722  26.956  32.428  1.00  0.00     0.074 A 
ATOM     56  C   UNL A   1      45.475  25.863  31.845  1.00  0.00     0.031 C 
ATOM     57  C   UNL A   1      45.067  27.596  33.573  1.00  0.00     0.031 A 
BRANCH  44  58
ATOM     58  C   UNL A   1      41.203  32.151  35.179  1.00  0.00    -0.014 A 
ATOM     59  C   UNL A   1      41.690  33.454  34.969  1.00  0.00     0.010 A 
ATOM     60  C   UNL A   1      40.366  31.905  36.283  1.00  0.00     0.010 A 
ATOM     61  C   UNL A   1      41.382  34.480  35.867  1.00  0.00     0.020 A 
ATOM     62  C   UNL A   1      40.030  32.936  37.169  1.00  0.00     0.020 A 
ATOM     63  C   UNL A   1      40.555  34.213  36.962  1.00  0.00     0.054 A 
BRANCH  63  64
ATOM     64  S   UNL A   1      40.153  35.570  38.098  1.00  0.00     0.124 S 
ATOM     65  O   UNL A   1      38.952  35.062  38.759  1.00  0.00    -0.237 OA
ATOM     66  O   UNL A   1      41.344  35.649  38.937  1.00  0.00    -0.237 OA
ATOM     67  O   UNL A   1      39.939  36.712  37.212  1.00  0.00    -0.744 OA
ENDBRANCH  63  64
ENDBRANCH  44  58
BRANCH  45  68
ATOM     68  C   UNL A   1      43.145  25.048  28.421  1.00  0.00    -0.014 A 
ATOM     69  C   UNL A   1      42.638  23.745  28.558  1.00  0.00     0.010 A 
ATOM     70  C   UNL A   1      43.938  25.358  27.300  1.00  0.00     0.010 A 
ATOM     71  C   UNL A   1      42.930  22.766  27.604  1.00  0.00     0.020 A 
ATOM     72  C   UNL A   1      44.208  24.391  26.329  1.00  0.00     0.020 A 
ATOM     73  C   UNL A   1      43.712  23.097  26.493  1.00  0.00     0.054 A 
BRANCH  73  74
ATOM     74  S   UNL A   1      44.035  21.825  25.240  1.00  0.00     0.124 S 
ATOM     75  O   UNL A   1      43.001  20.839  25.534  1.00  0.00    -0.237 OA
ATOM     76  O   UNL A   1      43.870  22.565  23.991  1.00  0.00    -0.237 OA
ATOM     77  O   UNL A   1      45.404  21.402  25.528  1.00  0.00    -0.744 OA
ENDBRANCH  73  74
ENDBRANCH  45  68
BRANCH  57  78
ATOM     78  C   UNL A   1      46.306  27.117  34.282  1.00  0.00    -0.014 A 
ATOM     79  C   UNL A   1      46.255  26.055  35.204  1.00  0.00     0.010 A 
ATOM     80  C   UNL A   1      47.546  27.717  33.998  1.00  0.00     0.010 A 
ATOM     81  C   UNL A   1      47.413  25.632  35.859  1.00  0.00     0.020 A 
ATOM     82  C   UNL A   1      48.712  27.275  34.628  1.00  0.00     0.020 A 
ATOM     83  C   UNL A   1      48.636  26.246  35.569  1.00  0.00     0.054 A 
BRANCH  83  84
ATOM     84  S   UNL A   1      50.130  25.660  36.412  1.00  0.00     0.124 S 
ATOM     85  O   UNL A   1      51.171  26.465  35.780  1.00  0.00    -0.237 OA
ATOM     86  O   UNL A   1      49.854  25.975  37.812  1.00  0.00    -0.237 OA
ATOM     87  O   UNL A   1      50.168  24.234  36.097  1.00  0.00    -0.744 OA
ENDBRANCH  83  84
ENDBRANCH  57  78
ENDBRANCH  31  32
ENDBRANCH  23  26
ENDBRANCH  21  22
ENDBRANCH  20  21
ENDBRANCH  19  20
ENDBRANCH   1  19
TORSDOF 20
ENDMDL
MODEL 3
REMARK VINA RESULT:      -9.3      4.392      6.552
REMARK SMILES CC(C)(C[C@@H](O)C(F)(F)F)C(=O)NCCCCCCNC(=O)c1ccc(-c2c3nc(c(-c4ccc(S(=O)(=O)[O-])cc4)c4ccc([nH]4)c(-c4ccc(S(=O)(=O)[O-])cc4)c4nc(c(-c5ccc(S(=O)(=O)[O-])cc5)c5ccc2[nH]5)C=C4)C=C3)cc1
REMARK SMILES IDX 16 1 15 2 14 3 13 4 11 5 12 6 2 8 1 9 3 10 4 11 5 12 6 13
REMARK SMILES IDX 7 15 8 16 9 17 10 18 17 19 18 20 19 21 20 22 21 23 22 25
REMARK SMILES IDX 23 26 24 27 82 28 25 29 81 30 26 31 27 32 28 33 75 34 29 35
REMARK SMILES IDX 80 36 74 37 76 38 30 39 79 40 73 41 72 42 31 44 61 45 42 46
REMARK SMILES IDX 60 47 43 48 46 49 59 50 77 51 44 52 45 53 58 55 78 56 47 57
REMARK SMILES IDX 32 58 33 59 41 60 34 61 40 62 35 63 36 64 37 65 38 66 39 67
REMARK SMILES IDX 62 68 63 69 71 70 64 71 70 72 65 73 66 74 67 75 68 76 69 77
REMARK SMILES IDX 48 78 49 79 57 80 50 81 56 82 51 83 52 84 53 85 54 86 55 87
REMARK H PARENT 13 7 6 14 20 24 76 43 46 54
REMARK Flexibility Score: inf
ROOT
ATOM      1  C   UNL A   1      36.123  32.696  32.621  1.00  0.00     0.002 C 
ENDROOT
BRANCH   1   2
ATOM      2  C   UNL A   1      37.572  32.525  32.152  1.00  0.00     0.021 C 
BRANCH   2   3
ATOM      3  C   UNL A   1      38.616  32.676  33.259  1.00  0.00     0.116 C 
BRANCH   3   4
ATOM      4  N   UNL A   1      38.288  31.863  34.416  1.00  0.00    -0.356 N 
ATOM      5  C   UNL A   1      38.981  30.915  35.094  1.00  0.00     0.225 C 
ATOM      6  O   UNL A   1      38.339  30.242  35.908  1.00  0.00    -0.275 OA
ATOM      7  H   UNL A   1      37.388  32.033  34.778  1.00  0.00     0.163 HD
BRANCH   5   8
ATOM      8  C   UNL A   1      40.474  30.621  34.845  1.00  0.00     0.046 C 
ATOM      9  C   UNL A   1      40.965  29.624  35.923  1.00  0.00     0.021 C 
ATOM     10  C   UNL A   1      41.301  31.906  35.059  1.00  0.00     0.021 C 
BRANCH   8  11
ATOM     11  C   UNL A   1      40.736  30.012  33.443  1.00  0.00     0.057 C 
BRANCH  11  12
ATOM     12  C   UNL A   1      40.865  28.474  33.358  1.00  0.00     0.220 C 
BRANCH  12  13
ATOM     13  O   UNL A   1      39.992  27.937  32.355  1.00  0.00    -0.384 OA
ATOM     14  H   UNL A   1      40.509  27.705  31.568  1.00  0.00     0.211 HD
ENDBRANCH  12  13
BRANCH  12  15
ATOM     15  C   UNL A   1      42.334  28.090  33.077  1.00  0.00     0.414 C 
ATOM     16  F   UNL A   1      42.460  27.580  31.827  1.00  0.00    -0.168 F 
ATOM     17  F   UNL A   1      43.149  29.167  33.150  1.00  0.00    -0.168 F 
ATOM     18  F   UNL A   1      42.790  27.160  33.944  1.00  0.00    -0.168 F 
ENDBRANCH  12  15
ENDBRANCH  11  12
ENDBRANCH   8  11
ENDBRANCH   5   8
ENDBRANCH   3   4
ENDBRANCH   2   3
ENDBRANCH   1   2
BRANCH   1  19
ATOM     19  C   UNL A   1      35.059  32.162  31.656  1.00  0.00     0.002 C 
BRANCH  19  20
ATOM     20  C   UNL A   1      34.578  33.159  30.598  1.00  0.00     0.021 C 
BRANCH  20  21
ATOM     21  C   UNL A   1      34.975  32.815  29.166  1.00  0.00     0.116 C 
BRANCH  21  22
ATOM     22  N   UNL A   1      34.184  31.719  28.628  1.00  0.00    -0.352 N 
ATOM     23  C   UNL A   1      34.591  30.492  28.175  1.00  0.00     0.251 C 
ATOM     24  H   UNL A   1      33.214  31.884  28.584  1.00  0.00     0.163 HD
ATOM     25  O   UNL A   1      33.798  29.774  27.564  1.00  0.00    -0.269 OA
BRANCH  23  26
ATOM     26  C   UNL A   1      35.980  30.037  28.396  1.00  0.00     0.039 A 
ATOM     27  C   UNL A   1      36.898  30.137  27.349  1.00  0.00     0.014 A 
ATOM     28  C   UNL A   1      36.377  29.501  29.626  1.00  0.00     0.014 A 
ATOM     29  C   UNL A   1      38.226  29.756  27.553  1.00  0.00     0.010 A 
ATOM     30  C   UNL A   1      37.716  29.188  29.849  1.00  0.00     0.010 A 
ATOM     31  C   UNL A   1      38.655  29.311  28.815  1.00  0.00    -0.014 A 
BRANCH  31  32
ATOM     32  C   UNL A   1      40.085  28.994  29.068  1.00  0.00     0.031 A 
ATOM     33  C   UNL A   1      41.004  30.023  29.669  1.00  0.00     0.074 A 
ATOM     34  C   UNL A   1      40.567  27.787  28.708  1.00  0.00     0.049 A 
ATOM     35  N   UNL A   1      42.280  29.927  29.944  1.00  0.00    -0.248 NA
ATOM     36  C   UNL A   1      40.420  31.337  29.985  1.00  0.00     0.031 C 
ATOM     37  C   UNL A   1      39.789  26.719  28.074  1.00  0.00     0.029 A 
ATOM     38  N   UNL A   1      41.826  27.255  28.823  1.00  0.00    -0.354 N 
ATOM     39  C   UNL A   1      42.654  31.165  30.453  1.00  0.00     0.074 A 
ATOM     40  C   UNL A   1      41.482  32.012  30.402  1.00  0.00     0.031 C 
ATOM     41  C   UNL A   1      40.579  25.651  27.888  1.00  0.00     0.029 A 
ATOM     42  C   UNL A   1      41.927  25.968  28.347  1.00  0.00     0.049 A 
ATOM     43  H   UNL A   1      42.587  27.748  29.209  1.00  0.00     0.167 HD
ATOM     44  C   UNL A   1      43.858  31.556  30.937  1.00  0.00     0.031 A 
ATOM     45  C   UNL A   1      42.984  25.136  28.285  1.00  0.00     0.031 A 
ATOM     46  C   UNL A   1      45.022  30.710  30.988  1.00  0.00     0.049 A 
ATOM     47  C   UNL A   1      44.313  25.597  28.817  1.00  0.00     0.074 A 
ATOM     48  C   UNL A   1      46.272  30.996  31.509  1.00  0.00     0.029 A 
ATOM     49  N   UNL A   1      45.083  29.415  30.495  1.00  0.00    -0.354 N 
ATOM     50  N   UNL A   1      44.628  26.749  29.360  1.00  0.00    -0.248 NA
ATOM     51  C   UNL A   1      45.426  24.642  28.737  1.00  0.00     0.031 C 
ATOM     52  C   UNL A   1      47.104  29.895  31.281  1.00  0.00     0.029 A 
ATOM     53  C   UNL A   1      46.357  28.900  30.675  1.00  0.00     0.049 A 
ATOM     54  H   UNL A   1      44.332  28.932  30.079  1.00  0.00     0.167 HD
ATOM     55  C   UNL A   1      45.971  26.649  29.707  1.00  0.00     0.074 A 
ATOM     56  C   UNL A   1      46.400  25.316  29.333  1.00  0.00     0.031 C 
ATOM     57  C   UNL A   1      46.775  27.576  30.285  1.00  0.00     0.031 A 
BRANCH  44  58
ATOM     58  C   UNL A   1      43.979  32.969  31.446  1.00  0.00    -0.014 A 
ATOM     59  C   UNL A   1      44.285  34.032  30.576  1.00  0.00     0.010 A 
ATOM     60  C   UNL A   1      43.742  33.248  32.805  1.00  0.00     0.010 A 
ATOM     61  C   UNL A   1      44.393  35.338  31.061  1.00  0.00     0.020 A 
ATOM     62  C   UNL A   1      43.820  34.558  33.290  1.00  0.00     0.020 A 
ATOM     63  C   UNL A   1      44.162  35.591  32.416  1.00  0.00     0.054 A 
BRANCH  63  64
ATOM     64  S   UNL A   1      44.287  37.301  33.014  1.00  0.00     0.124 S 
ATOM     65  O   UNL A   1      45.633  37.322  33.583  1.00  0.00    -0.237 OA
ATOM     66  O   UNL A   1      44.111  38.080  31.792  1.00  0.00    -0.237 OA
ATOM     67  O   UNL A   1      43.199  37.410  33.983  1.00  0.00    -0.744 OA
ENDBRANCH  63  64
ENDBRANCH  44  58
BRANCH  45  68
ATOM     68  C   UNL A   1      42.823  23.772  27.708  1.00  0.00    -0.014 A 
ATOM     69  C   UNL A   1      42.974  23.557  26.327  1.00  0.00     0.010 A 
ATOM     70  C   UNL A   1      42.532  22.677  28.542  1.00  0.00     0.010 A 
ATOM     71  C   UNL A   1      42.819  22.278  25.788  1.00  0.00     0.020 A 
ATOM     72  C   UNL A   1      42.405  21.391  28.011  1.00  0.00     0.020 A 
ATOM     73  C   UNL A   1      42.538  21.201  26.635  1.00  0.00     0.054 A 
BRANCH  73  74
ATOM     74  S   UNL A   1      42.393  19.539  25.920  1.00  0.00     0.124 S 
ATOM     75  O   UNL A   1      41.012  19.530  25.450  1.00  0.00    -0.237 OA
ATOM     76  O   UNL A   1      43.418  19.554  24.880  1.00  0.00    -0.237 OA
ATOM     77  O   UNL A   1      42.676  18.657  27.050  1.00  0.00    -0.744 OA
ENDBRANCH  73  74
ENDBRANCH  45  68
BRANCH  57  78
ATOM     78  C   UNL A   1      48.199  27.173  30.566  1.00  0.00    -0.014 A 
ATOM     79  C   UNL A   1      49.201  27.308  29.588  1.00  0.00     0.010 A 
ATOM     80  C   UNL A   1      48.545  26.683  31.838  1.00  0.00     0.010 A 
ATOM     81  C   UNL A   1      50.514  26.920  29.864  1.00  0.00     0.020 A 
ATOM     82  C   UNL A   1      49.863  26.324  32.128  1.00  0.00     0.020 A 
ATOM     83  C   UNL A   1      50.838  26.427  31.133  1.00  0.00     0.054 A 
BRANCH  83  84
ATOM     84  S   UNL A   1      52.555  25.956  31.476  1.00  0.00     0.124 S 
ATOM     85  O   UNL A   1      52.980  27.008  32.396  1.00  0.00    -0.237 OA
ATOM     86  O   UNL A   1      52.413  24.627  32.063  1.00  0.00    -0.237 OA
ATOM     87  O   UNL A   1      53.190  25.986  30.161  1.00  0.00    -0.744 OA
ENDBRANCH  83  84
ENDBRANCH  57  78
ENDBRANCH  31  32
ENDBRANCH  23  26
ENDBRANCH  21  22
ENDBRANCH  20  21
ENDBRANCH  19  20
ENDBRANCH   1  19
TORSDOF 20
ENDMDL
