MODEL 1
REMARK VINA RESULT:     -11.4      0.000      0.000
REMARK SMILES COc1ncccc1Cn1ccc(C(=O)NCCCCCCNC(=O)c2ccc(-c3c4nc(c(-c5ccc(S(=O)(=O)[O-])cc5)c5ccc([nH]5)c(-c5ccc(S(=O)(=O)[O-])cc5)c5nc(c(-c6ccc(S(=O)(=O)[O-])cc6)c6ccc3[nH]6)C=C5)C=C4)cc2)n1
REMARK SMILES IDX 19 1 18 2 17 3 16 4 14 5 15 6 13 8 10 9 11 10 86 11 12 12
REMARK SMILES IDX 9 13 8 14 3 15 4 16 5 17 7 18 6 19 2 20 1 21 20 22 21 23
REMARK SMILES IDX 22 24 23 25 24 26 25 28 26 29 27 30 85 31 28 32 84 33 29 34
REMARK SMILES IDX 30 35 31 36 78 37 32 38 83 39 77 40 79 41 33 42 82 43 76 44
REMARK SMILES IDX 75 45 34 47 64 48 45 49 63 50 46 51 49 52 62 53 80 54 47 55
REMARK SMILES IDX 48 56 61 58 81 59 50 60 35 61 36 62 44 63 37 64 43 65 38 66
REMARK SMILES IDX 39 67 40 68 41 69 42 70 65 71 66 72 74 73 67 74 73 75 68 76
REMARK SMILES IDX 69 77 70 78 71 79 72 80 51 81 52 82 60 83 53 84 59 85 54 86
REMARK SMILES IDX 55 87 56 88 57 89 58 90
REMARK H PARENT 16 7 23 27 79 46 49 57
REMARK Flexibility Score: inf
ROOT
ATOM      1  C   UNL A   1      33.944  27.738  24.943  1.00  0.00     0.002 C 
ENDROOT
BRANCH   1   2
ATOM      2  C   UNL A   1      33.583  29.061  24.267  1.00  0.00     0.021 C 
BRANCH   2   3
ATOM      3  C   UNL A   1      33.248  28.957  22.781  1.00  0.00     0.116 C 
BRANCH   3   4
ATOM      4  N   UNL A   1      31.826  29.079  22.515  1.00  0.00    -0.351 N 
ATOM      5  C   UNL A   1      30.882  28.083  22.385  1.00  0.00     0.271 C 
ATOM      6  O   UNL A   1      29.736  28.389  22.054  1.00  0.00    -0.267 OA
ATOM      7  H   UNL A   1      31.489  29.999  22.413  1.00  0.00     0.163 HD
BRANCH   5   8
ATOM      8  C   UNL A   1      31.301  26.691  22.570  1.00  0.00     0.150 A 
ATOM      9  N   UNL A   1      31.744  24.854  23.557  1.00  0.00    -0.267 N 
ATOM     10  C   UNL A   1      32.439  24.805  22.380  1.00  0.00     0.110 A 
ATOM     11  N   UNL A   1      30.974  25.956  23.649  1.00  0.00    -0.167 NA
ATOM     12  C   UNL A   1      32.103  25.938  21.681  1.00  0.00     0.056 A 
BRANCH   9  13
ATOM     13  C   UNL A   1      31.711  23.911  24.678  1.00  0.00     0.185 C 
BRANCH  13  14
ATOM     14  C   UNL A   1      33.031  23.274  24.975  1.00  0.00     0.036 A 
ATOM     15  C   UNL A   1      33.251  21.909  24.794  1.00  0.00     0.218 A 
ATOM     16  N   UNL A   1      34.449  21.315  24.967  1.00  0.00    -0.222 NA
ATOM     17  C   UNL A   1      35.473  22.108  25.365  1.00  0.00     0.115 A 
ATOM     18  C   UNL A   1      34.109  24.052  25.421  1.00  0.00     0.013 A 
ATOM     19  C   UNL A   1      35.347  23.460  25.632  1.00  0.00     0.021 A 
BRANCH  15  20
ATOM     20  O   UNL A   1      32.190  21.047  24.660  1.00  0.00    -0.481 OA
ATOM     21  C   UNL A   1      32.429  20.013  23.712  1.00  0.00     0.280 C 
ENDBRANCH  15  20
ENDBRANCH  13  14
ENDBRANCH   9  13
ENDBRANCH   5   8
ENDBRANCH   3   4
ENDBRANCH   2   3
ENDBRANCH   1   2
BRANCH   1  22
ATOM     22  C   UNL A   1      33.032  27.307  26.099  1.00  0.00     0.002 C 
BRANCH  22  23
ATOM     23  C   UNL A   1      32.442  28.429  26.965  1.00  0.00     0.021 C 
BRANCH  23  24
ATOM     24  C   UNL A   1      33.479  29.228  27.739  1.00  0.00     0.116 C 
BRANCH  24  25
ATOM     25  N   UNL A   1      33.315  30.668  27.560  1.00  0.00    -0.352 N 
ATOM     26  C   UNL A   1      34.211  31.662  27.889  1.00  0.00     0.251 C 
ATOM     27  H   UNL A   1      32.465  30.963  27.159  1.00  0.00     0.163 HD
ATOM     28  O   UNL A   1      33.833  32.820  28.057  1.00  0.00    -0.269 OA
BRANCH  26  29
ATOM     29  C   UNL A   1      35.631  31.307  28.028  1.00  0.00     0.039 A 
ATOM     30  C   UNL A   1      36.525  32.130  28.718  1.00  0.00     0.014 A 
ATOM     31  C   UNL A   1      36.050  30.096  27.479  1.00  0.00     0.014 A 
ATOM     32  C   UNL A   1      37.827  31.680  28.924  1.00  0.00     0.010 A 
ATOM     33  C   UNL A   1      37.286  29.595  27.798  1.00  0.00     0.010 A 
ATOM     34  C   UNL A   1      38.195  30.399  28.479  1.00  0.00    -0.014 A 
BRANCH  34  35
ATOM     35  C   UNL A   1      39.496  29.834  28.813  1.00  0.00     0.031 A 
ATOM     36  C   UNL A   1      39.755  29.679  30.269  1.00  0.00     0.074 A 
ATOM     37  C   UNL A   1      40.316  29.280  27.896  1.00  0.00     0.049 A 
ATOM     38  N   UNL A   1      40.567  30.370  30.997  1.00  0.00    -0.248 NA
ATOM     39  C   UNL A   1      38.919  28.742  31.037  1.00  0.00     0.031 C 
ATOM     40  C   UNL A   1      40.068  29.055  26.465  1.00  0.00     0.029 A 
ATOM     41  N   UNL A   1      41.520  28.678  28.084  1.00  0.00    -0.354 N 
ATOM     42  C   UNL A   1      40.520  29.807  32.268  1.00  0.00     0.074 A 
ATOM     43  C   UNL A   1      39.361  28.950  32.281  1.00  0.00     0.031 C 
ATOM     44  C   UNL A   1      40.963  28.162  25.986  1.00  0.00     0.029 A 
ATOM     45  C   UNL A   1      41.949  27.897  27.016  1.00  0.00     0.049 A 
ATOM     46  H   UNL A   1      42.046  28.786  28.909  1.00  0.00     0.167 HD
ATOM     47  C   UNL A   1      41.574  29.901  33.128  1.00  0.00     0.031 A 
ATOM     48  C   UNL A   1      43.024  27.070  26.996  1.00  0.00     0.031 A 
ATOM     49  C   UNL A   1      42.561  30.838  32.654  1.00  0.00     0.049 A 
ATOM     50  C   UNL A   1      43.931  27.513  28.083  1.00  0.00     0.074 A 
ATOM     51  C   UNL A   1      42.557  32.183  32.341  1.00  0.00     0.029 A 
ATOM     52  N   UNL A   1      43.670  30.307  32.034  1.00  0.00    -0.354 N 
ATOM     53  N   UNL A   1      44.542  28.665  28.075  1.00  0.00    -0.248 NA
ATOM     54  C   UNL A   1      43.797  26.891  29.391  1.00  0.00     0.031 C 
ATOM     55  C   UNL A   1      43.361  32.285  31.168  1.00  0.00     0.029 A 
ATOM     56  C   UNL A   1      43.880  31.020  30.882  1.00  0.00     0.049 A 
ATOM     57  H   UNL A   1      44.212  29.552  32.359  1.00  0.00     0.167 HD
ATOM     58  C   UNL A   1      44.461  29.117  29.383  1.00  0.00     0.074 A 
ATOM     59  C   UNL A   1      44.087  27.939  30.166  1.00  0.00     0.031 C 
ATOM     60  C   UNL A   1      44.429  30.454  29.667  1.00  0.00     0.031 A 
BRANCH  47  61
ATOM     61  C   UNL A   1      41.915  28.870  34.176  1.00  0.00    -0.014 A 
ATOM     62  C   UNL A   1      42.346  27.594  33.756  1.00  0.00     0.010 A 
ATOM     63  C   UNL A   1      41.570  29.012  35.536  1.00  0.00     0.010 A 
ATOM     64  C   UNL A   1      42.359  26.503  34.634  1.00  0.00     0.020 A 
ATOM     65  C   UNL A   1      41.622  27.941  36.430  1.00  0.00     0.020 A 
ATOM     66  C   UNL A   1      41.985  26.685  35.965  1.00  0.00     0.054 A 
BRANCH  66  67
ATOM     67  S   UNL A   1      41.912  25.252  37.068  1.00  0.00     0.124 S 
ATOM     68  O   UNL A   1      43.228  25.289  37.695  1.00  0.00    -0.237 OA
ATOM     69  O   UNL A   1      40.785  25.586  37.934  1.00  0.00    -0.237 OA
ATOM     70  O   UNL A   1      41.681  24.132  36.157  1.00  0.00    -0.744 OA
ENDBRANCH  66  67
ENDBRANCH  47  61
BRANCH  48  71
ATOM     71  C   UNL A   1      43.171  25.759  26.315  1.00  0.00    -0.014 A 
ATOM     72  C   UNL A   1      44.096  25.590  25.267  1.00  0.00     0.010 A 
ATOM     73  C   UNL A   1      42.622  24.599  26.898  1.00  0.00     0.010 A 
ATOM     74  C   UNL A   1      44.517  24.308  24.873  1.00  0.00     0.020 A 
ATOM     75  C   UNL A   1      43.033  23.319  26.507  1.00  0.00     0.020 A 
ATOM     76  C   UNL A   1      44.002  23.179  25.516  1.00  0.00     0.054 A 
BRANCH  76  77
ATOM     77  S   UNL A   1      44.707  21.542  25.157  1.00  0.00     0.124 S 
ATOM     78  O   UNL A   1      46.015  21.618  25.798  1.00  0.00    -0.237 OA
ATOM     79  O   UNL A   1      43.746  20.638  25.781  1.00  0.00    -0.237 OA
ATOM     80  O   UNL A   1      44.733  21.494  23.695  1.00  0.00    -0.744 OA
ENDBRANCH  76  77
ENDBRANCH  48  71
BRANCH  60  81
ATOM     81  C   UNL A   1      44.796  31.432  28.573  1.00  0.00    -0.014 A 
ATOM     82  C   UNL A   1      43.971  31.745  27.474  1.00  0.00     0.010 A 
ATOM     83  C   UNL A   1      45.991  32.154  28.736  1.00  0.00     0.010 A 
ATOM     84  C   UNL A   1      44.362  32.717  26.537  1.00  0.00     0.020 A 
ATOM     85  C   UNL A   1      46.375  33.136  27.821  1.00  0.00     0.020 A 
ATOM     86  C   UNL A   1      45.568  33.399  26.715  1.00  0.00     0.054 A 
BRANCH  86  87
ATOM     87  S   UNL A   1      46.080  34.647  25.501  1.00  0.00     0.124 S 
ATOM     88  O   UNL A   1      45.795  35.900  26.195  1.00  0.00    -0.237 OA
ATOM     89  O   UNL A   1      47.495  34.345  25.300  1.00  0.00    -0.237 OA
ATOM     90  O   UNL A   1      45.227  34.377  24.343  1.00  0.00    -0.744 OA
ENDBRANCH  86  87
ENDBRANCH  60  81
ENDBRANCH  34  35
ENDBRANCH  26  29
ENDBRANCH  24  25
ENDBRANCH  23  24
ENDBRANCH  22  23
ENDBRANCH   1  22
TORSDOF 19
ENDMDL
MODEL 2
REMARK VINA RESULT:     -11.3      3.245      9.568
REMARK SMILES COc1ncccc1Cn1ccc(C(=O)NCCCCCCNC(=O)c2ccc(-c3c4nc(c(-c5ccc(S(=O)(=O)[O-])cc5)c5ccc([nH]5)c(-c5ccc(S(=O)(=O)[O-])cc5)c5nc(c(-c6ccc(S(=O)(=O)[O-])cc6)c6ccc3[nH]6)C=C5)C=C4)cc2)n1
REMARK SMILES IDX 19 1 18 2 17 3 16 4 14 5 15 6 13 8 10 9 11 10 86 11 12 12
REMARK SMILES IDX 9 13 8 14 3 15 4 16 5 17 7 18 6 19 2 20 1 21 20 22 21 23
REMARK SMILES IDX 22 24 23 25 24 26 25 28 26 29 27 30 85 31 28 32 84 33 29 34
REMARK SMILES IDX 30 35 31 36 78 37 32 38 83 39 77 40 79 41 33 42 82 43 76 44
REMARK SMILES IDX 75 45 34 47 64 48 45 49 63 50 46 51 49 52 62 53 80 54 47 55
REMARK SMILES IDX 48 56 61 58 81 59 50 60 35 61 36 62 44 63 37 64 43 65 38 66
REMARK SMILES IDX 39 67 40 68 41 69 42 70 65 71 66 72 74 73 67 74 73 75 68 76
REMARK SMILES IDX 69 77 70 78 71 79 72 80 51 81 52 82 60 83 53 84 59 85 54 86
REMARK SMILES IDX 55 87 56 88 57 89 58 90
REMARK H PARENT 16 7 23 27 79 46 49 57
REMARK Flexibility Score: inf
ROOT
ATOM      1  C   UNL A   1      40.492  21.936  26.532  1.00  0.00     0.002 C 
ENDROOT
BRANCH   1   2
ATOM      2  C   UNL A   1      39.118  21.383  26.155  1.00  0.00     0.021 C 
BRANCH   2   3
ATOM      3  C   UNL A   1      38.020  22.432  26.002  1.00  0.00     0.116 C 
BRANCH   3   4
ATOM      4  N   UNL A   1      37.833  22.853  24.624  1.00  0.00    -0.351 N 
ATOM      5  C   UNL A   1      36.663  22.954  23.902  1.00  0.00     0.271 C 
ATOM      6  O   UNL A   1      36.726  23.234  22.704  1.00  0.00    -0.267 OA
ATOM      7  H   UNL A   1      38.654  23.102  24.141  1.00  0.00     0.163 HD
BRANCH   5   8
ATOM      8  C   UNL A   1      35.396  22.645  24.571  1.00  0.00     0.150 A 
ATOM      9  N   UNL A   1      33.696  21.527  25.206  1.00  0.00    -0.267 N 
ATOM     10  C   UNL A   1      33.332  22.839  25.337  1.00  0.00     0.110 A 
ATOM     11  N   UNL A   1      34.981  21.391  24.826  1.00  0.00    -0.167 NA
ATOM     12  C   UNL A   1      34.440  23.585  25.019  1.00  0.00     0.056 A 
BRANCH   9  13
ATOM     13  C   UNL A   1      32.921  20.303  25.423  1.00  0.00     0.185 C 
BRANCH  13  14
ATOM     14  C   UNL A   1      32.758  19.462  24.196  1.00  0.00     0.036 A 
ATOM     15  C   UNL A   1      33.015  18.091  24.199  1.00  0.00     0.218 A 
ATOM     16  N   UNL A   1      32.796  17.287  23.139  1.00  0.00    -0.222 NA
ATOM     17  C   UNL A   1      32.325  17.875  22.013  1.00  0.00     0.115 A 
ATOM     18  C   UNL A   1      32.304  20.036  23.000  1.00  0.00     0.013 A 
ATOM     19  C   UNL A   1      32.095  19.233  21.886  1.00  0.00     0.021 A 
BRANCH  15  20
ATOM     20  O   UNL A   1      33.739  17.524  25.218  1.00  0.00    -0.481 OA
ATOM     21  C   UNL A   1      34.058  16.158  24.981  1.00  0.00     0.280 C 
ENDBRANCH  15  20
ENDBRANCH  13  14
ENDBRANCH   9  13
ENDBRANCH   5   8
ENDBRANCH   3   4
ENDBRANCH   2   3
ENDBRANCH   1   2
BRANCH   1  22
ATOM     22  C   UNL A   1      41.232  21.189  27.649  1.00  0.00     0.002 C 
BRANCH  22  23
ATOM     23  C   UNL A   1      42.179  20.062  27.212  1.00  0.00     0.021 C 
BRANCH  23  24
ATOM     24  C   UNL A   1      42.182  19.797  25.716  1.00  0.00     0.116 C 
BRANCH  24  25
ATOM     25  N   UNL A   1      43.520  19.504  25.207  1.00  0.00    -0.352 N 
ATOM     26  C   UNL A   1      44.470  20.404  24.777  1.00  0.00     0.251 C 
ATOM     27  H   UNL A   1      43.771  18.553  25.167  1.00  0.00     0.163 HD
ATOM     28  O   UNL A   1      45.379  20.050  24.028  1.00  0.00    -0.269 OA
BRANCH  26  29
ATOM     29  C   UNL A   1      44.377  21.797  25.241  1.00  0.00     0.039 A 
ATOM     30  C   UNL A   1      43.472  22.697  24.672  1.00  0.00     0.014 A 
ATOM     31  C   UNL A   1      45.198  22.180  26.299  1.00  0.00     0.014 A 
ATOM     32  C   UNL A   1      43.342  23.963  25.236  1.00  0.00     0.010 A 
ATOM     33  C   UNL A   1      44.973  23.373  26.938  1.00  0.00     0.010 A 
ATOM     34  C   UNL A   1      44.082  24.287  26.385  1.00  0.00    -0.014 A 
BRANCH  34  35
ATOM     35  C   UNL A   1      43.856  25.541  27.093  1.00  0.00     0.031 A 
ATOM     36  C   UNL A   1      44.832  26.619  26.781  1.00  0.00     0.074 A 
ATOM     37  C   UNL A   1      42.735  25.798  27.798  1.00  0.00     0.049 A 
ATOM     38  N   UNL A   1      45.762  27.079  27.548  1.00  0.00    -0.248 NA
ATOM     39  C   UNL A   1      44.871  27.158  25.412  1.00  0.00     0.031 C 
ATOM     40  C   UNL A   1      41.530  24.967  27.933  1.00  0.00     0.029 A 
ATOM     41  N   UNL A   1      42.383  26.935  28.453  1.00  0.00    -0.354 N 
ATOM     42  C   UNL A   1      46.358  28.124  26.850  1.00  0.00     0.074 A 
ATOM     43  C   UNL A   1      45.907  27.999  25.486  1.00  0.00     0.031 C 
ATOM     44  C   UNL A   1      40.512  25.721  28.405  1.00  0.00     0.029 A 
ATOM     45  C   UNL A   1      41.033  27.024  28.776  1.00  0.00     0.049 A 
ATOM     46  H   UNL A   1      43.032  27.640  28.681  1.00  0.00     0.167 HD
ATOM     47  C   UNL A   1      46.980  29.150  27.497  1.00  0.00     0.031 A 
ATOM     48  C   UNL A   1      40.389  28.104  29.285  1.00  0.00     0.031 A 
ATOM     49  C   UNL A   1      47.149  28.864  28.900  1.00  0.00     0.049 A 
ATOM     50  C   UNL A   1      41.422  28.971  29.903  1.00  0.00     0.074 A 
ATOM     51  C   UNL A   1      47.789  27.878  29.623  1.00  0.00     0.029 A 
ATOM     52  N   UNL A   1      46.243  29.440  29.762  1.00  0.00    -0.354 N 
ATOM     53  N   UNL A   1      42.114  28.618  30.950  1.00  0.00    -0.248 NA
ATOM     54  C   UNL A   1      42.013  30.024  29.093  1.00  0.00     0.031 C 
ATOM     55  C   UNL A   1      46.904  27.585  30.702  1.00  0.00     0.029 A 
ATOM     56  C   UNL A   1      45.821  28.465  30.629  1.00  0.00     0.049 A 
ATOM     57  H   UNL A   1      45.951  30.380  29.756  1.00  0.00     0.167 HD
ATOM     58  C   UNL A   1      43.402  29.058  30.686  1.00  0.00     0.074 A 
ATOM     59  C   UNL A   1      43.257  30.007  29.582  1.00  0.00     0.031 C 
ATOM     60  C   UNL A   1      44.490  28.406  31.196  1.00  0.00     0.031 A 
BRANCH  47  61
ATOM     61  C   UNL A   1      47.070  30.562  26.971  1.00  0.00    -0.014 A 
ATOM     62  C   UNL A   1      48.289  31.259  27.108  1.00  0.00     0.010 A 
ATOM     63  C   UNL A   1      45.939  31.318  26.602  1.00  0.00     0.010 A 
ATOM     64  C   UNL A   1      48.354  32.650  26.954  1.00  0.00     0.020 A 
ATOM     65  C   UNL A   1      46.003  32.698  26.402  1.00  0.00     0.020 A 
ATOM     66  C   UNL A   1      47.204  33.361  26.613  1.00  0.00     0.054 A 
BRANCH  66  67
ATOM     67  S   UNL A   1      47.276  35.166  26.511  1.00  0.00     0.124 S 
ATOM     68  O   UNL A   1      48.609  35.383  25.961  1.00  0.00    -0.237 OA
ATOM     69  O   UNL A   1      46.162  35.469  25.618  1.00  0.00    -0.237 OA
ATOM     70  O   UNL A   1      47.091  35.593  27.897  1.00  0.00    -0.744 OA
ENDBRANCH  66  67
ENDBRANCH  47  61
BRANCH  48  71
ATOM     71  C   UNL A   1      39.010  28.575  29.006  1.00  0.00    -0.014 A 
ATOM     72  C   UNL A   1      38.081  28.748  30.050  1.00  0.00     0.010 A 
ATOM     73  C   UNL A   1      38.702  29.144  27.753  1.00  0.00     0.010 A 
ATOM     74  C   UNL A   1      36.927  29.531  29.870  1.00  0.00     0.020 A 
ATOM     75  C   UNL A   1      37.551  29.921  27.566  1.00  0.00     0.020 A 
ATOM     76  C   UNL A   1      36.684  30.136  28.634  1.00  0.00     0.054 A 
BRANCH  76  77
ATOM     77  S   UNL A   1      35.314  31.321  28.470  1.00  0.00     0.124 S 
ATOM     78  O   UNL A   1      35.872  32.321  27.566  1.00  0.00    -0.237 OA
ATOM     79  O   UNL A   1      34.244  30.494  27.918  1.00  0.00    -0.237 OA
ATOM     80  O   UNL A   1      35.090  31.777  29.841  1.00  0.00    -0.744 OA
ENDBRANCH  76  77
ENDBRANCH  48  71
BRANCH  60  81
ATOM     81  C   UNL A   1      44.271  27.393  32.298  1.00  0.00    -0.014 A 
ATOM     82  C   UNL A   1      44.180  26.001  32.095  1.00  0.00     0.010 A 
ATOM     83  C   UNL A   1      44.275  27.874  33.619  1.00  0.00     0.010 A 
ATOM     84  C   UNL A   1      44.042  25.125  33.185  1.00  0.00     0.020 A 
ATOM     85  C   UNL A   1      44.161  27.008  34.707  1.00  0.00     0.020 A 
ATOM     86  C   UNL A   1      44.024  25.638  34.485  1.00  0.00     0.054 A 
BRANCH  86  87
ATOM     87  S   UNL A   1      43.837  24.509  35.893  1.00  0.00     0.124 S 
ATOM     88  O   UNL A   1      45.198  24.017  36.088  1.00  0.00    -0.237 OA
ATOM     89  O   UNL A   1      43.325  25.383  36.945  1.00  0.00    -0.237 OA
ATOM     90  O   UNL A   1      42.883  23.509  35.412  1.00  0.00    -0.744 OA
ENDBRANCH  86  87
ENDBRANCH  60  81
ENDBRANCH  34  35
ENDBRANCH  26  29
ENDBRANCH  24  25
ENDBRANCH  23  24
ENDBRANCH  22  23
ENDBRANCH   1  22
TORSDOF 19
ENDMDL
MODEL 3
REMARK VINA RESULT:     -11.3      2.776      9.498
REMARK SMILES COc1ncccc1Cn1ccc(C(=O)NCCCCCCNC(=O)c2ccc(-c3c4nc(c(-c5ccc(S(=O)(=O)[O-])cc5)c5ccc([nH]5)c(-c5ccc(S(=O)(=O)[O-])cc5)c5nc(c(-c6ccc(S(=O)(=O)[O-])cc6)c6ccc3[nH]6)C=C5)C=C4)cc2)n1
REMARK SMILES IDX 19 1 18 2 17 3 16 4 14 5 15 6 13 8 10 9 11 10 86 11 12 12
REMARK SMILES IDX 9 13 8 14 3 15 4 16 5 17 7 18 6 19 2 20 1 21 20 22 21 23
REMARK SMILES IDX 22 24 23 25 24 26 25 28 26 29 27 30 85 31 28 32 84 33 29 34
REMARK SMILES IDX 30 35 31 36 78 37 32 38 83 39 77 40 79 41 33 42 82 43 76 44
REMARK SMILES IDX 75 45 34 47 64 48 45 49 63 50 46 51 49 52 62 53 80 54 47 55
REMARK SMILES IDX 48 56 61 58 81 59 50 60 35 61 36 62 44 63 37 64 43 65 38 66
REMARK SMILES IDX 39 67 40 68 41 69 42 70 65 71 66 72 74 73 67 74 73 75 68 76
REMARK SMILES IDX 69 77 70 78 71 79 72 80 51 81 52 82 60 83 53 84 59 85 54 86
REMARK SMILES IDX 55 87 56 88 57 89 58 90
REMARK H PARENT 16 7 23 27 79 46 49 57
REMARK Flexibility Score: inf
ROOT
ATOM      1  C   UNL A   1      40.116  22.128  26.844  1.00  0.00     0.002 C 
ENDROOT
BRANCH   1   2
ATOM      2  C   UNL A   1      39.121  21.503  25.866  1.00  0.00     0.021 C 
BRANCH   2   3
ATOM      3  C   UNL A   1      37.766  22.202  25.788  1.00  0.00     0.116 C 
BRANCH   3   4
ATOM      4  N   UNL A   1      37.508  22.785  24.483  1.00  0.00    -0.351 N 
ATOM      5  C   UNL A   1      36.401  22.637  23.674  1.00  0.00     0.271 C 
ATOM      6  O   UNL A   1      36.418  23.135  22.547  1.00  0.00    -0.267 OA
ATOM      7  H   UNL A   1      38.220  23.364  24.127  1.00  0.00     0.163 HD
BRANCH   5   8
ATOM      8  C   UNL A   1      35.281  21.825  24.158  1.00  0.00     0.150 A 
ATOM      9  N   UNL A   1      33.307  21.319  24.782  1.00  0.00    -0.267 N 
ATOM     10  C   UNL A   1      34.112  20.355  25.323  1.00  0.00     0.110 A 
ATOM     11  N   UNL A   1      33.991  22.172  23.995  1.00  0.00    -0.167 NA
ATOM     12  C   UNL A   1      35.382  20.605  24.864  1.00  0.00     0.056 A 
BRANCH   9  13
ATOM     13  C   UNL A   1      31.865  21.539  24.923  1.00  0.00     0.185 C 
BRANCH  13  14
ATOM     14  C   UNL A   1      31.494  22.952  25.243  1.00  0.00     0.036 A 
ATOM     15  C   UNL A   1      31.658  23.489  26.520  1.00  0.00     0.218 A 
ATOM     16  N   UNL A   1      31.418  24.781  26.824  1.00  0.00    -0.222 NA
ATOM     17  C   UNL A   1      30.967  25.572  25.821  1.00  0.00     0.115 A 
ATOM     18  C   UNL A   1      30.993  23.796  24.242  1.00  0.00     0.013 A 
ATOM     19  C   UNL A   1      30.712  25.124  24.537  1.00  0.00     0.021 A 
BRANCH  15  20
ATOM     20  O   UNL A   1      31.847  22.663  27.600  1.00  0.00    -0.481 OA
ATOM     21  C   UNL A   1      33.216  22.523  27.961  1.00  0.00     0.280 C 
ENDBRANCH  15  20
ENDBRANCH  13  14
ENDBRANCH   9  13
ENDBRANCH   5   8
ENDBRANCH   3   4
ENDBRANCH   2   3
ENDBRANCH   1   2
BRANCH   1  22
ATOM     22  C   UNL A   1      40.809  21.154  27.806  1.00  0.00     0.002 C 
BRANCH  22  23
ATOM     23  C   UNL A   1      42.119  20.520  27.317  1.00  0.00     0.021 C 
BRANCH  23  24
ATOM     24  C   UNL A   1      42.042  19.941  25.913  1.00  0.00     0.116 C 
BRANCH  24  25
ATOM     25  N   UNL A   1      43.364  19.667  25.354  1.00  0.00    -0.352 N 
ATOM     26  C   UNL A   1      44.281  20.580  24.883  1.00  0.00     0.251 C 
ATOM     27  H   UNL A   1      43.629  18.720  25.308  1.00  0.00     0.163 HD
ATOM     28  O   UNL A   1      45.166  20.238  24.100  1.00  0.00    -0.269 OA
BRANCH  26  29
ATOM     29  C   UNL A   1      44.183  21.974  25.343  1.00  0.00     0.039 A 
ATOM     30  C   UNL A   1      43.264  22.865  24.783  1.00  0.00     0.014 A 
ATOM     31  C   UNL A   1      45.015  22.366  26.390  1.00  0.00     0.014 A 
ATOM     32  C   UNL A   1      43.132  24.132  25.346  1.00  0.00     0.010 A 
ATOM     33  C   UNL A   1      44.789  23.560  27.028  1.00  0.00     0.010 A 
ATOM     34  C   UNL A   1      43.884  24.465  26.484  1.00  0.00    -0.014 A 
BRANCH  34  35
ATOM     35  C   UNL A   1      43.658  25.719  27.191  1.00  0.00     0.031 A 
ATOM     36  C   UNL A   1      44.637  26.796  26.883  1.00  0.00     0.074 A 
ATOM     37  C   UNL A   1      42.534  25.978  27.892  1.00  0.00     0.049 A 
ATOM     38  N   UNL A   1      45.565  27.253  27.654  1.00  0.00    -0.248 NA
ATOM     39  C   UNL A   1      44.683  27.335  25.514  1.00  0.00     0.031 C 
ATOM     40  C   UNL A   1      41.328  25.150  28.022  1.00  0.00     0.029 A 
ATOM     41  N   UNL A   1      42.182  27.116  28.546  1.00  0.00    -0.354 N 
ATOM     42  C   UNL A   1      46.166  28.297  26.958  1.00  0.00     0.074 A 
ATOM     43  C   UNL A   1      45.720  28.174  25.593  1.00  0.00     0.031 C 
ATOM     44  C   UNL A   1      40.309  25.906  28.490  1.00  0.00     0.029 A 
ATOM     45  C   UNL A   1      40.831  27.207  28.863  1.00  0.00     0.049 A 
ATOM     46  H   UNL A   1      42.831  27.820  28.776  1.00  0.00     0.167 HD
ATOM     47  C   UNL A   1      46.787  29.322  27.609  1.00  0.00     0.031 A 
ATOM     48  C   UNL A   1      40.187  28.288  29.369  1.00  0.00     0.031 A 
ATOM     49  C   UNL A   1      46.950  29.036  29.011  1.00  0.00     0.049 A 
ATOM     50  C   UNL A   1      41.219  29.154  29.992  1.00  0.00     0.074 A 
ATOM     51  C   UNL A   1      47.585  28.049  29.737  1.00  0.00     0.029 A 
ATOM     52  N   UNL A   1      46.041  29.614  29.870  1.00  0.00    -0.354 N 
ATOM     53  N   UNL A   1      41.906  28.799  31.041  1.00  0.00    -0.248 NA
ATOM     54  C   UNL A   1      41.816  30.206  29.184  1.00  0.00     0.031 C 
ATOM     55  C   UNL A   1      46.695  27.758  30.812  1.00  0.00     0.029 A 
ATOM     56  C   UNL A   1      45.614  28.639  30.735  1.00  0.00     0.049 A 
ATOM     57  H   UNL A   1      45.751  30.554  29.863  1.00  0.00     0.167 HD
ATOM     58  C   UNL A   1      43.197  29.237  30.783  1.00  0.00     0.074 A 
ATOM     59  C   UNL A   1      43.057  30.186  29.678  1.00  0.00     0.031 C 
ATOM     60  C   UNL A   1      44.281  28.583  31.297  1.00  0.00     0.031 A 
BRANCH  47  61
ATOM     61  C   UNL A   1      46.882  30.734  27.082  1.00  0.00    -0.014 A 
ATOM     62  C   UNL A   1      48.091  31.441  27.253  1.00  0.00     0.010 A 
ATOM     63  C   UNL A   1      45.756  31.482  26.680  1.00  0.00     0.010 A 
ATOM     64  C   UNL A   1      48.151  32.832  27.099  1.00  0.00     0.020 A 
ATOM     65  C   UNL A   1      45.816  32.862  26.480  1.00  0.00     0.020 A 
ATOM     66  C   UNL A   1      47.006  33.534  26.724  1.00  0.00     0.054 A 
BRANCH  66  67
ATOM     67  S   UNL A   1      47.068  35.339  26.621  1.00  0.00     0.124 S 
ATOM     68  O   UNL A   1      47.883  35.545  25.429  1.00  0.00    -0.237 OA
ATOM     69  O   UNL A   1      45.656  35.690  26.495  1.00  0.00    -0.237 OA
ATOM     70  O   UNL A   1      47.691  35.731  27.884  1.00  0.00    -0.744 OA
ENDBRANCH  66  67
ENDBRANCH  47  61
BRANCH  48  71
ATOM     71  C   UNL A   1      38.810  28.762  29.084  1.00  0.00    -0.014 A 
ATOM     72  C   UNL A   1      37.897  28.997  30.130  1.00  0.00     0.010 A 
ATOM     73  C   UNL A   1      38.492  29.273  27.810  1.00  0.00     0.010 A 
ATOM     74  C   UNL A   1      36.750  29.785  29.927  1.00  0.00     0.020 A 
ATOM     75  C   UNL A   1      37.349  30.054  27.599  1.00  0.00     0.020 A 
ATOM     76  C   UNL A   1      36.498  30.332  28.666  1.00  0.00     0.054 A 
BRANCH  76  77
ATOM     77  S   UNL A   1      35.139  31.524  28.461  1.00  0.00     0.124 S 
ATOM     78  O   UNL A   1      34.096  30.706  27.851  1.00  0.00    -0.237 OA
ATOM     79  O   UNL A   1      34.886  31.956  29.832  1.00  0.00    -0.237 OA
ATOM     80  O   UNL A   1      35.713  32.550  27.591  1.00  0.00    -0.744 OA
ENDBRANCH  76  77
ENDBRANCH  48  71
BRANCH  60  81
ATOM     81  C   UNL A   1      44.056  27.570  32.398  1.00  0.00    -0.014 A 
ATOM     82  C   UNL A   1      43.570  27.885  33.684  1.00  0.00     0.010 A 
ATOM     83  C   UNL A   1      44.237  26.216  32.069  1.00  0.00     0.010 A 
ATOM     84  C   UNL A   1      43.327  26.872  34.627  1.00  0.00     0.020 A 
ATOM     85  C   UNL A   1      43.977  25.204  32.992  1.00  0.00     0.020 A 
ATOM     86  C   UNL A   1      43.542  25.537  34.275  1.00  0.00     0.054 A 
BRANCH  86  87
ATOM     87  S   UNL A   1      43.238  24.227  35.494  1.00  0.00     0.124 S 
ATOM     88  O   UNL A   1      41.906  24.561  35.991  1.00  0.00    -0.237 OA
ATOM     89  O   UNL A   1      43.325  23.009  34.692  1.00  0.00    -0.237 OA
ATOM     90  O   UNL A   1      44.319  24.398  36.465  1.00  0.00    -0.744 OA
ENDBRANCH  86  87
ENDBRANCH  60  81
ENDBRANCH  34  35
ENDBRANCH  26  29
ENDBRANCH  24  25
ENDBRANCH  23  24
ENDBRANCH  22  23
ENDBRANCH   1  22
TORSDOF 19
ENDMDL
