MODEL 1
REMARK VINA RESULT:     -13.0      0.000      0.000
REMARK SMILES COC(=O)c1sc(SCC(=O)NCCCCCCNC(=O)c2ccc(-c3c4nc(c(-c5ccc(S(=O)(=O)[O-])cc5)c5ccc([nH]5)c(-c5ccc(S(=O)(=O)[O-])cc5)c5nc(c(-c6ccc(S(=O)(=O)[O-])cc6)c6ccc3[nH]6)C=C5)C=C4)cc2)c(NC(=O)c2ccccc2)c1O
REMARK SMILES IDX 15 1 14 2 13 3 12 4 10 5 11 6 9 8 8 9 7 10 5 11 6 12 92 13
REMARK SMILES IDX 82 14 3 15 4 16 2 17 1 18 93 19 83 21 84 22 85 24 86 25
REMARK SMILES IDX 87 26 91 27 88 28 90 29 89 30 16 31 17 32 18 33 19 34 20 35
REMARK SMILES IDX 21 37 22 38 23 39 81 40 24 41 80 42 25 43 26 44 27 45 74 46
REMARK SMILES IDX 28 47 79 48 73 49 75 50 29 51 78 52 72 53 71 54 30 56 60 57
REMARK SMILES IDX 41 58 59 59 42 60 45 61 58 62 76 63 43 64 44 65 57 67 77 68
REMARK SMILES IDX 46 69 31 70 32 71 40 72 33 73 39 74 34 75 35 76 36 77 37 78
REMARK SMILES IDX 38 79 61 80 62 81 70 82 63 83 69 84 64 85 65 86 66 87 67 88
REMARK SMILES IDX 68 89 47 90 48 91 56 92 49 93 55 94 50 95 51 96 52 97 53 98
REMARK SMILES IDX 54 99
REMARK H PARENT 12 7 93 20 83 23 19 36 75 55 45 66
REMARK Flexibility Score: inf
ROOT
ATOM      1  C   UNL A   1      31.262  27.835  25.071  1.00  0.00     0.002 C 
ENDROOT
BRANCH   1   2
ATOM      2  C   UNL A   1      30.538  28.532  23.920  1.00  0.00     0.021 C 
BRANCH   2   3
ATOM      3  C   UNL A   1      30.877  27.990  22.532  1.00  0.00     0.116 C 
BRANCH   3   4
ATOM      4  N   UNL A   1      32.294  27.799  22.343  1.00  0.00    -0.355 N 
ATOM      5  C   UNL A   1      32.997  26.671  22.009  1.00  0.00     0.230 C 
ATOM      6  O   UNL A   1      34.173  26.862  21.676  1.00  0.00    -0.274 OA
ATOM      7  H   UNL A   1      32.843  28.605  22.476  1.00  0.00     0.163 HD
BRANCH   5   8
ATOM      8  C   UNL A   1      32.211  25.114  21.932  1.00  0.00     0.175 C 
BRANCH   8   9
ATOM      9  S   UNL A   1      31.133  23.725  23.799  1.00  0.00    -0.103 SA
BRANCH   9  10
ATOM     10  C   UNL A   1      31.712  21.986  24.094  1.00  0.00     0.089 A 
ATOM     11  C   UNL A   1      32.353  19.600  23.691  1.00  0.00     0.157 A 
ATOM     12  S   UNL A   1      31.948  20.957  22.722  1.00  0.00    -0.116 S 
ATOM     13  C   UNL A   1      32.379  19.952  25.022  1.00  0.00     0.166 A 
ATOM     14  C   UNL A   1      32.044  21.312  25.270  1.00  0.00     0.109 A 
BRANCH  11  15
ATOM     15  C   UNL A   1      32.606  18.314  23.075  1.00  0.00     0.352 C 
ATOM     16  O   UNL A   1      32.627  18.056  21.885  1.00  0.00    -0.245 OA
BRANCH  15  17
ATOM     17  O   UNL A   1      32.819  17.382  24.063  1.00  0.00    -0.465 OA
ATOM     18  C   UNL A   1      33.904  16.482  23.814  1.00  0.00     0.282 C 
ENDBRANCH  15  17
ENDBRANCH  11  15
BRANCH  13  19
ATOM     19  O   UNL A   1      32.647  19.086  26.029  1.00  0.00    -0.504 OA
ATOM     20  H   UNL A   1      33.065  18.269  25.845  1.00  0.00     0.293 HD
ENDBRANCH  13  19
BRANCH  14  21
ATOM     21  N   UNL A   1      32.023  21.776  26.582  1.00  0.00    -0.317 N 
ATOM     22  C   UNL A   1      33.083  22.279  27.273  1.00  0.00     0.255 C 
ATOM     23  H   UNL A   1      31.161  21.738  27.055  1.00  0.00     0.170 HD
ATOM     24  O   UNL A   1      33.109  22.411  28.487  1.00  0.00    -0.269 OA
BRANCH  22  25
ATOM     25  C   UNL A   1      34.231  22.627  26.438  1.00  0.00     0.040 A 
ATOM     26  C   UNL A   1      35.358  21.302  26.011  1.00  0.00     0.014 A 
ATOM     27  C   UNL A   1      34.227  24.189  25.470  1.00  0.00     0.014 A 
ATOM     28  C   UNL A   1      36.478  21.520  24.624  1.00  0.00     0.001 A 
ATOM     29  C   UNL A   1      35.341  24.355  24.066  1.00  0.00     0.001 A 
ATOM     30  C   UNL A   1      36.456  23.014  23.646  1.00  0.00     0.000 A 
ENDBRANCH  22  25
ENDBRANCH  14  21
ENDBRANCH   9  10
ENDBRANCH   8   9
ENDBRANCH   5   8
ENDBRANCH   3   4
ENDBRANCH   2   3
ENDBRANCH   1   2
BRANCH   1  31
ATOM     31  C   UNL A   1      31.679  28.744  26.235  1.00  0.00     0.002 C 
BRANCH  31  32
ATOM     32  C   UNL A   1      33.081  29.373  26.150  1.00  0.00     0.021 C 
BRANCH  32  33
ATOM     33  C   UNL A   1      33.589  29.889  27.478  1.00  0.00     0.116 C 
BRANCH  33  34
ATOM     34  N   UNL A   1      33.842  31.328  27.437  1.00  0.00    -0.352 N 
ATOM     35  C   UNL A   1      34.934  32.018  27.922  1.00  0.00     0.251 C 
ATOM     36  H   UNL A   1      33.144  31.874  27.009  1.00  0.00     0.163 HD
ATOM     37  O   UNL A   1      34.856  33.214  28.173  1.00  0.00    -0.269 OA
BRANCH  35  38
ATOM     38  C   UNL A   1      36.194  31.283  28.110  1.00  0.00     0.039 A 
ATOM     39  C   UNL A   1      36.456  30.063  27.481  1.00  0.00     0.014 A 
ATOM     40  C   UNL A   1      37.135  31.861  28.955  1.00  0.00     0.014 A 
ATOM     41  C   UNL A   1      37.685  29.453  27.713  1.00  0.00     0.010 A 
ATOM     42  C   UNL A   1      38.417  31.412  28.956  1.00  0.00     0.010 A 
ATOM     43  C   UNL A   1      38.648  30.142  28.465  1.00  0.00    -0.014 A 
BRANCH  43  44
ATOM     44  C   UNL A   1      39.954  29.600  28.769  1.00  0.00     0.031 A 
ATOM     45  C   UNL A   1      40.220  29.456  30.214  1.00  0.00     0.074 A 
ATOM     46  C   UNL A   1      40.729  29.041  27.813  1.00  0.00     0.049 A 
ATOM     47  N   UNL A   1      40.949  30.234  30.937  1.00  0.00    -0.248 NA
ATOM     48  C   UNL A   1      39.446  28.472  30.986  1.00  0.00     0.031 C 
ATOM     49  C   UNL A   1      40.434  28.814  26.391  1.00  0.00     0.029 A 
ATOM     50  N   UNL A   1      41.928  28.432  27.961  1.00  0.00    -0.354 N 
ATOM     51  C   UNL A   1      40.927  29.693  32.214  1.00  0.00     0.074 A 
ATOM     52  C   UNL A   1      39.819  28.771  32.234  1.00  0.00     0.031 C 
ATOM     53  C   UNL A   1      41.315  27.918  25.884  1.00  0.00     0.029 A 
ATOM     54  C   UNL A   1      42.323  27.639  26.890  1.00  0.00     0.049 A 
ATOM     55  H   UNL A   1      42.481  28.544  28.767  1.00  0.00     0.167 HD
ATOM     56  C   UNL A   1      41.982  29.852  33.060  1.00  0.00     0.031 A 
ATOM     57  C   UNL A   1      43.386  26.793  26.867  1.00  0.00     0.031 A 
ATOM     58  C   UNL A   1      42.956  30.762  32.506  1.00  0.00     0.049 A 
ATOM     59  C   UNL A   1      44.303  27.246  27.952  1.00  0.00     0.074 A 
ATOM     60  C   UNL A   1      42.930  32.087  32.120  1.00  0.00     0.029 A 
ATOM     61  N   UNL A   1      44.032  30.191  31.858  1.00  0.00    -0.354 N 
ATOM     62  N   UNL A   1      44.909  28.404  27.925  1.00  0.00    -0.248 NA
ATOM     63  C   UNL A   1      44.134  26.670  29.281  1.00  0.00     0.031 C 
ATOM     64  C   UNL A   1      43.673  32.123  30.904  1.00  0.00     0.029 A 
ATOM     65  C   UNL A   1      44.198  30.850  30.666  1.00  0.00     0.049 A 
ATOM     66  H   UNL A   1      44.581  29.444  32.190  1.00  0.00     0.167 HD
ATOM     67  C   UNL A   1      44.793  28.899  29.218  1.00  0.00     0.074 A 
ATOM     68  C   UNL A   1      44.394  27.749  30.030  1.00  0.00     0.031 C 
ATOM     69  C   UNL A   1      44.732  30.244  29.461  1.00  0.00     0.031 A 
BRANCH  56  70
ATOM     70  C   UNL A   1      42.348  28.905  34.170  1.00  0.00    -0.014 A 
ATOM     71  C   UNL A   1      42.979  27.692  33.825  1.00  0.00     0.010 A 
ATOM     72  C   UNL A   1      41.869  29.030  35.488  1.00  0.00     0.010 A 
ATOM     73  C   UNL A   1      43.046  26.627  34.729  1.00  0.00     0.020 A 
ATOM     74  C   UNL A   1      41.969  27.987  36.411  1.00  0.00     0.020 A 
ATOM     75  C   UNL A   1      42.524  26.779  36.012  1.00  0.00     0.054 A 
BRANCH  75  76
ATOM     76  S   UNL A   1      42.510  25.358  37.130  1.00  0.00     0.124 S 
ATOM     77  O   UNL A   1      43.505  24.485  36.515  1.00  0.00    -0.237 OA
ATOM     78  O   UNL A   1      42.895  25.963  38.402  1.00  0.00    -0.237 OA
ATOM     79  O   UNL A   1      41.130  24.884  37.061  1.00  0.00    -0.744 OA
ENDBRANCH  75  76
ENDBRANCH  56  70
BRANCH  57  80
ATOM     80  C   UNL A   1      43.500  25.474  26.189  1.00  0.00    -0.014 A 
ATOM     81  C   UNL A   1      44.501  25.226  25.230  1.00  0.00     0.010 A 
ATOM     82  C   UNL A   1      42.792  24.358  26.688  1.00  0.00     0.010 A 
ATOM     83  C   UNL A   1      44.830  23.911  24.844  1.00  0.00     0.020 A 
ATOM     84  C   UNL A   1      43.110  23.046  26.304  1.00  0.00     0.020 A 
ATOM     85  C   UNL A   1      44.149  22.827  25.404  1.00  0.00     0.054 A 
BRANCH  85  86
ATOM     86  S   UNL A   1      44.735  21.133  25.079  1.00  0.00     0.124 S 
ATOM     87  O   UNL A   1      46.102  21.171  25.593  1.00  0.00    -0.237 OA
ATOM     88  O   UNL A   1      43.799  20.318  25.850  1.00  0.00    -0.237 OA
ATOM     89  O   UNL A   1      44.607  20.993  23.630  1.00  0.00    -0.744 OA
ENDBRANCH  85  86
ENDBRANCH  57  80
BRANCH  69  90
ATOM     90  C   UNL A   1      45.023  31.202  28.326  1.00  0.00    -0.014 A 
ATOM     91  C   UNL A   1      44.071  31.589  27.361  1.00  0.00     0.010 A 
ATOM     92  C   UNL A   1      46.248  31.891  28.368  1.00  0.00     0.010 A 
ATOM     93  C   UNL A   1      44.347  32.628  26.456  1.00  0.00     0.020 A 
ATOM     94  C   UNL A   1      46.521  32.936  27.485  1.00  0.00     0.020 A 
ATOM     95  C   UNL A   1      45.573  33.297  26.526  1.00  0.00     0.054 A 
BRANCH  95  96
ATOM     96  S   UNL A   1      45.907  34.679  25.399  1.00  0.00     0.124 S 
ATOM     97  O   UNL A   1      45.009  34.399  24.281  1.00  0.00    -0.237 OA
ATOM     98  O   UNL A   1      45.564  35.848  26.203  1.00  0.00    -0.237 OA
ATOM     99  O   UNL A   1      47.332  34.543  25.095  1.00  0.00    -0.744 OA
ENDBRANCH  95  96
ENDBRANCH  69  90
ENDBRANCH  43  44
ENDBRANCH  35  38
ENDBRANCH  33  34
ENDBRANCH  32  33
ENDBRANCH  31  32
ENDBRANCH   1  31
TORSDOF 23
ENDMDL
MODEL 2
REMARK VINA RESULT:     -12.9      3.089      7.799
REMARK SMILES COC(=O)c1sc(SCC(=O)NCCCCCCNC(=O)c2ccc(-c3c4nc(c(-c5ccc(S(=O)(=O)[O-])cc5)c5ccc([nH]5)c(-c5ccc(S(=O)(=O)[O-])cc5)c5nc(c(-c6ccc(S(=O)(=O)[O-])cc6)c6ccc3[nH]6)C=C5)C=C4)cc2)c(NC(=O)c2ccccc2)c1O
REMARK SMILES IDX 15 1 14 2 13 3 12 4 10 5 11 6 9 8 8 9 7 10 5 11 6 12 92 13
REMARK SMILES IDX 82 14 3 15 4 16 2 17 1 18 93 19 83 21 84 22 85 24 86 25
REMARK SMILES IDX 87 26 91 27 88 28 90 29 89 30 16 31 17 32 18 33 19 34 20 35
REMARK SMILES IDX 21 37 22 38 23 39 81 40 24 41 80 42 25 43 26 44 27 45 74 46
REMARK SMILES IDX 28 47 79 48 73 49 75 50 29 51 78 52 72 53 71 54 30 56 60 57
REMARK SMILES IDX 41 58 59 59 42 60 45 61 58 62 76 63 43 64 44 65 57 67 77 68
REMARK SMILES IDX 46 69 31 70 32 71 40 72 33 73 39 74 34 75 35 76 36 77 37 78
REMARK SMILES IDX 38 79 61 80 62 81 70 82 63 83 69 84 64 85 65 86 66 87 67 88
REMARK SMILES IDX 68 89 47 90 48 91 56 92 49 93 55 94 50 95 51 96 52 97 53 98
REMARK SMILES IDX 54 99
REMARK H PARENT 12 7 93 20 83 23 19 36 75 55 45 66
REMARK Flexibility Score: inf
ROOT
ATOM      1  C   UNL A   1      30.975  27.220  24.893  1.00  0.00     0.002 C 
ENDROOT
BRANCH   1   2
ATOM      2  C   UNL A   1      30.176  27.904  23.786  1.00  0.00     0.021 C 
BRANCH   2   3
ATOM      3  C   UNL A   1      30.627  27.560  22.367  1.00  0.00     0.116 C 
BRANCH   3   4
ATOM      4  N   UNL A   1      32.063  27.564  22.227  1.00  0.00    -0.355 N 
ATOM      5  C   UNL A   1      32.924  26.544  21.915  1.00  0.00     0.230 C 
ATOM      6  O   UNL A   1      34.073  26.895  21.623  1.00  0.00    -0.274 OA
ATOM      7  H   UNL A   1      32.492  28.437  22.379  1.00  0.00     0.163 HD
BRANCH   5   8
ATOM      8  C   UNL A   1      32.359  24.895  21.810  1.00  0.00     0.175 C 
BRANCH   8   9
ATOM      9  S   UNL A   1      31.142  23.462  23.554  1.00  0.00    -0.103 SA
BRANCH   9  10
ATOM     10  C   UNL A   1      31.820  21.792  23.996  1.00  0.00     0.089 A 
ATOM     11  C   UNL A   1      32.650  19.439  23.790  1.00  0.00     0.157 A 
ATOM     12  S   UNL A   1      32.214  20.700  22.711  1.00  0.00    -0.116 S 
ATOM     13  C   UNL A   1      32.567  19.872  25.094  1.00  0.00     0.166 A 
ATOM     14  C   UNL A   1      32.124  21.217  25.231  1.00  0.00     0.109 A 
BRANCH  11  15
ATOM     15  C   UNL A   1      33.029  18.138  23.277  1.00  0.00     0.352 C 
ATOM     16  O   UNL A   1      32.504  17.521  22.367  1.00  0.00    -0.245 OA
BRANCH  15  17
ATOM     17  O   UNL A   1      34.105  17.673  23.995  1.00  0.00    -0.465 OA
ATOM     18  C   UNL A   1      34.018  16.296  24.377  1.00  0.00     0.282 C 
ENDBRANCH  15  17
ENDBRANCH  11  15
BRANCH  13  19
ATOM     19  O   UNL A   1      32.831  19.093  26.170  1.00  0.00    -0.504 OA
ATOM     20  H   UNL A   1      32.621  19.396  27.031  1.00  0.00     0.293 HD
ENDBRANCH  13  19
BRANCH  14  21
ATOM     21  N   UNL A   1      31.988  21.759  26.506  1.00  0.00    -0.317 N 
ATOM     22  C   UNL A   1      32.968  22.368  27.229  1.00  0.00     0.255 C 
ATOM     23  H   UNL A   1      31.100  21.695  26.926  1.00  0.00     0.170 HD
ATOM     24  O   UNL A   1      32.906  22.576  28.431  1.00  0.00    -0.269 OA
BRANCH  22  25
ATOM     25  C   UNL A   1      34.147  22.736  26.446  1.00  0.00     0.040 A 
ATOM     26  C   UNL A   1      35.390  21.469  26.203  1.00  0.00     0.014 A 
ATOM     27  C   UNL A   1      34.107  24.217  25.359  1.00  0.00     0.014 A 
ATOM     28  C   UNL A   1      36.588  21.664  24.880  1.00  0.00     0.001 A 
ATOM     29  C   UNL A   1      35.305  24.358  24.023  1.00  0.00     0.001 A 
ATOM     30  C   UNL A   1      36.535  23.074  23.786  1.00  0.00     0.000 A 
ENDBRANCH  22  25
ENDBRANCH  14  21
ENDBRANCH   9  10
ENDBRANCH   8   9
ENDBRANCH   5   8
ENDBRANCH   3   4
ENDBRANCH   2   3
ENDBRANCH   1   2
BRANCH   1  31
ATOM     31  C   UNL A   1      32.090  28.067  25.523  1.00  0.00     0.002 C 
BRANCH  31  32
ATOM     32  C   UNL A   1      31.940  29.594  25.414  1.00  0.00     0.021 C 
BRANCH  32  33
ATOM     33  C   UNL A   1      31.643  30.264  26.737  1.00  0.00     0.116 C 
BRANCH  33  34
ATOM     34  N   UNL A   1      31.550  31.716  26.599  1.00  0.00    -0.352 N 
ATOM     35  C   UNL A   1      32.308  32.685  27.223  1.00  0.00     0.251 C 
ATOM     36  H   UNL A   1      30.858  32.044  25.980  1.00  0.00     0.163 HD
ATOM     37  O   UNL A   1      31.894  33.833  27.325  1.00  0.00    -0.269 OA
BRANCH  35  38
ATOM     38  C   UNL A   1      33.631  32.305  27.743  1.00  0.00     0.039 A 
ATOM     39  C   UNL A   1      33.991  30.978  27.991  1.00  0.00     0.014 A 
ATOM     40  C   UNL A   1      34.528  33.340  27.983  1.00  0.00     0.014 A 
ATOM     41  C   UNL A   1      35.272  30.722  28.470  1.00  0.00     0.010 A 
ATOM     42  C   UNL A   1      35.845  33.068  28.178  1.00  0.00     0.010 A 
ATOM     43  C   UNL A   1      36.180  31.785  28.567  1.00  0.00    -0.014 A 
BRANCH  43  44
ATOM     44  C   UNL A   1      37.533  31.632  29.055  1.00  0.00     0.031 A 
ATOM     45  C   UNL A   1      38.117  30.302  28.792  1.00  0.00     0.074 A 
ATOM     46  C   UNL A   1      38.263  32.694  29.464  1.00  0.00     0.049 A 
ATOM     47  N   UNL A   1      38.256  29.348  29.646  1.00  0.00    -0.248 NA
ATOM     48  C   UNL A   1      38.392  29.907  27.402  1.00  0.00     0.031 C 
ATOM     49  C   UNL A   1      37.915  34.122  29.454  1.00  0.00     0.029 A 
ATOM     50  N   UNL A   1      39.553  32.714  29.869  1.00  0.00    -0.354 N 
ATOM     51  C   UNL A   1      38.869  28.311  28.958  1.00  0.00     0.074 A 
ATOM     52  C   UNL A   1      38.711  28.618  27.558  1.00  0.00     0.031 C 
ATOM     53  C   UNL A   1      39.039  34.863  29.605  1.00  0.00     0.029 A 
ATOM     54  C   UNL A   1      40.148  33.969  29.883  1.00  0.00     0.049 A 
ATOM     55  H   UNL A   1      40.035  31.899  30.136  1.00  0.00     0.167 HD
ATOM     56  C   UNL A   1      39.684  27.428  29.601  1.00  0.00     0.031 A 
ATOM     57  C   UNL A   1      41.467  34.230  30.077  1.00  0.00     0.031 A 
ATOM     58  C   UNL A   1      39.643  27.635  31.029  1.00  0.00     0.049 A 
ATOM     59  C   UNL A   1      42.034  33.032  30.759  1.00  0.00     0.074 A 
ATOM     60  C   UNL A   1      38.650  27.579  31.986  1.00  0.00     0.029 A 
ATOM     61  N   UNL A   1      40.657  28.401  31.567  1.00  0.00    -0.354 N 
ATOM     62  N   UNL A   1      41.675  32.671  31.963  1.00  0.00    -0.248 NA
ATOM     63  C   UNL A   1      42.577  31.962  29.932  1.00  0.00     0.031 C 
ATOM     64  C   UNL A   1      38.901  28.698  32.832  1.00  0.00     0.029 A 
ATOM     65  C   UNL A   1      40.084  29.315  32.415  1.00  0.00     0.049 A 
ATOM     66  H   UNL A   1      41.619  28.309  31.377  1.00  0.00     0.167 HD
ATOM     67  C   UNL A   1      41.525  31.291  31.893  1.00  0.00     0.074 A 
ATOM     68  C   UNL A   1      42.187  30.901  30.648  1.00  0.00     0.031 C 
ATOM     69  C   UNL A   1      40.624  30.634  32.684  1.00  0.00     0.031 A 
BRANCH  56  70
ATOM     70  C   UNL A   1      40.810  26.668  28.957  1.00  0.00    -0.014 A 
ATOM     71  C   UNL A   1      42.001  27.367  28.669  1.00  0.00     0.010 A 
ATOM     72  C   UNL A   1      40.661  25.389  28.390  1.00  0.00     0.010 A 
ATOM     73  C   UNL A   1      42.951  26.846  27.786  1.00  0.00     0.020 A 
ATOM     74  C   UNL A   1      41.625  24.842  27.541  1.00  0.00     0.020 A 
ATOM     75  C   UNL A   1      42.746  25.592  27.215  1.00  0.00     0.054 A 
BRANCH  75  76
ATOM     76  S   UNL A   1      43.923  24.982  25.985  1.00  0.00     0.124 S 
ATOM     77  O   UNL A   1      43.032  24.439  24.963  1.00  0.00    -0.237 OA
ATOM     78  O   UNL A   1      44.644  26.197  25.619  1.00  0.00    -0.237 OA
ATOM     79  O   UNL A   1      44.705  23.994  26.723  1.00  0.00    -0.744 OA
ENDBRANCH  75  76
ENDBRANCH  56  70
BRANCH  57  80
ATOM     80  C   UNL A   1      42.300  35.291  29.447  1.00  0.00    -0.014 A 
ATOM     81  C   UNL A   1      42.039  35.749  28.141  1.00  0.00     0.010 A 
ATOM     82  C   UNL A   1      43.188  36.056  30.235  1.00  0.00     0.010 A 
ATOM     83  C   UNL A   1      42.584  36.961  27.672  1.00  0.00     0.020 A 
ATOM     84  C   UNL A   1      43.739  37.261  29.773  1.00  0.00     0.020 A 
ATOM     85  C   UNL A   1      43.411  37.723  28.502  1.00  0.00     0.054 A 
BRANCH  85  86
ATOM     86  S   UNL A   1      43.917  39.392  27.977  1.00  0.00     0.124 S 
ATOM     87  O   UNL A   1      45.347  39.395  28.277  1.00  0.00    -0.237 OA
ATOM     88  O   UNL A   1      43.577  39.397  26.556  1.00  0.00    -0.237 OA
ATOM     89  O   UNL A   1      43.096  40.278  28.798  1.00  0.00    -0.744 OA
ENDBRANCH  85  86
ENDBRANCH  57  80
BRANCH  69  90
ATOM     90  C   UNL A   1      39.949  31.395  33.806  1.00  0.00    -0.014 A 
ATOM     91  C   UNL A   1      39.150  32.540  33.608  1.00  0.00     0.010 A 
ATOM     92  C   UNL A   1      39.958  30.801  35.080  1.00  0.00     0.010 A 
ATOM     93  C   UNL A   1      38.395  33.080  34.662  1.00  0.00     0.020 A 
ATOM     94  C   UNL A   1      39.196  31.321  36.127  1.00  0.00     0.020 A 
ATOM     95  C   UNL A   1      38.423  32.464  35.917  1.00  0.00     0.054 A 
BRANCH  95  96
ATOM     96  S   UNL A   1      37.401  33.124  37.264  1.00  0.00     0.124 S 
ATOM     97  O   UNL A   1      37.296  31.982  38.169  1.00  0.00    -0.237 OA
ATOM     98  O   UNL A   1      38.196  34.246  37.757  1.00  0.00    -0.237 OA
ATOM     99  O   UNL A   1      36.153  33.503  36.601  1.00  0.00    -0.744 OA
ENDBRANCH  95  96
ENDBRANCH  69  90
ENDBRANCH  43  44
ENDBRANCH  35  38
ENDBRANCH  33  34
ENDBRANCH  32  33
ENDBRANCH  31  32
ENDBRANCH   1  31
TORSDOF 23
ENDMDL
MODEL 3
REMARK VINA RESULT:     -11.5      1.449      2.580
REMARK SMILES COC(=O)c1sc(SCC(=O)NCCCCCCNC(=O)c2ccc(-c3c4nc(c(-c5ccc(S(=O)(=O)[O-])cc5)c5ccc([nH]5)c(-c5ccc(S(=O)(=O)[O-])cc5)c5nc(c(-c6ccc(S(=O)(=O)[O-])cc6)c6ccc3[nH]6)C=C5)C=C4)cc2)c(NC(=O)c2ccccc2)c1O
REMARK SMILES IDX 15 1 14 2 13 3 12 4 10 5 11 6 9 8 8 9 7 10 5 11 6 12 92 13
REMARK SMILES IDX 82 14 3 15 4 16 2 17 1 18 93 19 83 21 84 22 85 24 86 25
REMARK SMILES IDX 87 26 91 27 88 28 90 29 89 30 16 31 17 32 18 33 19 34 20 35
REMARK SMILES IDX 21 37 22 38 23 39 81 40 24 41 80 42 25 43 26 44 27 45 74 46
REMARK SMILES IDX 28 47 79 48 73 49 75 50 29 51 78 52 72 53 71 54 30 56 60 57
REMARK SMILES IDX 41 58 59 59 42 60 45 61 58 62 76 63 43 64 44 65 57 67 77 68
REMARK SMILES IDX 46 69 31 70 32 71 40 72 33 73 39 74 34 75 35 76 36 77 37 78
REMARK SMILES IDX 38 79 61 80 62 81 70 82 63 83 69 84 64 85 65 86 66 87 67 88
REMARK SMILES IDX 68 89 47 90 48 91 56 92 49 93 55 94 50 95 51 96 52 97 53 98
REMARK SMILES IDX 54 99
REMARK H PARENT 12 7 93 20 83 23 19 36 75 55 45 66
REMARK Flexibility Score: inf
ROOT
ATOM      1  C   UNL A   1      31.756  27.967  25.320  1.00  0.00     0.002 C 
ENDROOT
BRANCH   1   2
ATOM      2  C   UNL A   1      30.976  28.873  24.369  1.00  0.00     0.021 C 
BRANCH   2   3
ATOM      3  C   UNL A   1      30.914  28.379  22.924  1.00  0.00     0.116 C 
BRANCH   3   4
ATOM      4  N   UNL A   1      32.222  28.215  22.338  1.00  0.00    -0.355 N 
ATOM      5  C   UNL A   1      32.988  27.088  22.186  1.00  0.00     0.230 C 
ATOM      6  O   UNL A   1      33.957  27.208  21.428  1.00  0.00    -0.274 OA
ATOM      7  H   UNL A   1      32.629  29.042  21.994  1.00  0.00     0.163 HD
BRANCH   5   8
ATOM      8  C   UNL A   1      32.511  25.575  22.916  1.00  0.00     0.175 C 
BRANCH   8   9
ATOM      9  S   UNL A   1      33.326  23.192  22.436  1.00  0.00    -0.103 SA
BRANCH   9  10
ATOM     10  C   UNL A   1      34.583  22.414  23.558  1.00  0.00     0.089 A 
ATOM     11  C   UNL A   1      36.658  22.067  24.916  1.00  0.00     0.157 A 
ATOM     12  S   UNL A   1      35.944  23.365  24.050  1.00  0.00    -0.116 S 
ATOM     13  C   UNL A   1      35.836  20.963  24.889  1.00  0.00     0.166 A 
ATOM     14  C   UNL A   1      34.638  21.149  24.145  1.00  0.00     0.109 A 
BRANCH  11  15
ATOM     15  C   UNL A   1      37.954  22.232  25.541  1.00  0.00     0.352 C 
ATOM     16  O   UNL A   1      38.827  21.391  25.666  1.00  0.00    -0.245 OA
BRANCH  15  17
ATOM     17  O   UNL A   1      38.064  23.522  26.003  1.00  0.00    -0.465 OA
ATOM     18  C   UNL A   1      39.293  23.813  26.678  1.00  0.00     0.282 C 
ENDBRANCH  15  17
ENDBRANCH  11  15
BRANCH  13  19
ATOM     19  O   UNL A   1      36.140  19.777  25.470  1.00  0.00    -0.504 OA
ATOM     20  H   UNL A   1      36.756  19.745  26.174  1.00  0.00     0.293 HD
ENDBRANCH  13  19
BRANCH  14  21
ATOM     21  N   UNL A   1      33.737  20.093  24.037  1.00  0.00    -0.317 N 
ATOM     22  C   UNL A   1      32.654  19.877  24.835  1.00  0.00     0.255 C 
ATOM     23  H   UNL A   1      33.896  19.442  23.317  1.00  0.00     0.170 HD
ATOM     24  O   UNL A   1      32.055  18.814  24.903  1.00  0.00    -0.269 OA
BRANCH  22  25
ATOM     25  C   UNL A   1      32.272  21.028  25.650  1.00  0.00     0.040 A 
ATOM     26  C   UNL A   1      33.342  21.442  27.025  1.00  0.00     0.014 A 
ATOM     27  C   UNL A   1      31.078  22.264  24.998  1.00  0.00     0.014 A 
ATOM     28  C   UNL A   1      33.236  23.081  27.752  1.00  0.00     0.001 A 
ATOM     29  C   UNL A   1      31.027  23.907  25.732  1.00  0.00     0.001 A 
ATOM     30  C   UNL A   1      32.114  24.308  27.101  1.00  0.00     0.000 A 
ENDBRANCH  22  25
ENDBRANCH  14  21
ENDBRANCH   9  10
ENDBRANCH   8   9
ENDBRANCH   5   8
ENDBRANCH   3   4
ENDBRANCH   2   3
ENDBRANCH   1   2
BRANCH   1  31
ATOM     31  C   UNL A   1      32.179  28.612  26.647  1.00  0.00     0.002 C 
BRANCH  31  32
ATOM     32  C   UNL A   1      33.602  29.196  26.707  1.00  0.00     0.021 C 
BRANCH  32  33
ATOM     33  C   UNL A   1      33.912  29.887  28.015  1.00  0.00     0.116 C 
BRANCH  33  34
ATOM     34  N   UNL A   1      34.207  31.305  27.821  1.00  0.00    -0.352 N 
ATOM     35  C   UNL A   1      35.360  31.991  28.145  1.00  0.00     0.251 C 
ATOM     36  H   UNL A   1      33.492  31.839  27.406  1.00  0.00     0.163 HD
ATOM     37  O   UNL A   1      35.344  33.207  28.289  1.00  0.00    -0.269 OA
BRANCH  35  38
ATOM     38  C   UNL A   1      36.608  31.225  28.289  1.00  0.00     0.039 A 
ATOM     39  C   UNL A   1      36.856  30.047  27.579  1.00  0.00     0.014 A 
ATOM     40  C   UNL A   1      37.551  31.729  29.178  1.00  0.00     0.014 A 
ATOM     41  C   UNL A   1      38.074  29.404  27.776  1.00  0.00     0.010 A 
ATOM     42  C   UNL A   1      38.826  31.260  29.157  1.00  0.00     0.010 A 
ATOM     43  C   UNL A   1      39.041  30.024  28.580  1.00  0.00    -0.014 A 
BRANCH  43  44
ATOM     44  C   UNL A   1      40.337  29.442  28.855  1.00  0.00     0.031 A 
ATOM     45  C   UNL A   1      40.599  29.217  30.290  1.00  0.00     0.074 A 
ATOM     46  C   UNL A   1      41.101  28.919  27.871  1.00  0.00     0.049 A 
ATOM     47  N   UNL A   1      41.342  29.942  31.053  1.00  0.00    -0.248 NA
ATOM     48  C   UNL A   1      39.806  28.209  31.010  1.00  0.00     0.031 C 
ATOM     49  C   UNL A   1      40.803  28.773  26.439  1.00  0.00     0.029 A 
ATOM     50  N   UNL A   1      42.288  28.281  27.986  1.00  0.00    -0.354 N 
ATOM     51  C   UNL A   1      41.309  29.335  32.300  1.00  0.00     0.074 A 
ATOM     52  C   UNL A   1      40.184  28.435  32.272  1.00  0.00     0.031 C 
ATOM     53  C   UNL A   1      41.667  27.889  25.885  1.00  0.00     0.029 A 
ATOM     54  C   UNL A   1      42.668  27.538  26.875  1.00  0.00     0.049 A 
ATOM     55  H   UNL A   1      42.843  28.339  28.796  1.00  0.00     0.167 HD
ATOM     56  C   UNL A   1      42.367  29.429  33.153  1.00  0.00     0.031 A 
ATOM     57  C   UNL A   1      43.715  26.674  26.807  1.00  0.00     0.031 A 
ATOM     58  C   UNL A   1      43.358  30.349  32.647  1.00  0.00     0.049 A 
ATOM     59  C   UNL A   1      44.640  27.052  27.913  1.00  0.00     0.074 A 
ATOM     60  C   UNL A   1      43.357  31.692  32.331  1.00  0.00     0.029 A 
ATOM     61  N   UNL A   1      44.423  29.791  31.969  1.00  0.00    -0.354 N 
ATOM     62  N   UNL A   1      45.268  28.197  27.947  1.00  0.00    -0.248 NA
ATOM     63  C   UNL A   1      44.460  26.410  29.210  1.00  0.00     0.031 C 
ATOM     64  C   UNL A   1      44.102  31.778  31.118  1.00  0.00     0.029 A 
ATOM     65  C   UNL A   1      44.602  30.509  30.813  1.00  0.00     0.049 A 
ATOM     66  H   UNL A   1      44.958  29.018  32.261  1.00  0.00     0.167 HD
ATOM     67  C   UNL A   1      45.161  28.627  29.265  1.00  0.00     0.074 A 
ATOM     68  C   UNL A   1      44.740  27.442  30.015  1.00  0.00     0.031 C 
ATOM     69  C   UNL A   1      45.125  29.957  29.578  1.00  0.00     0.031 A 
BRANCH  56  70
ATOM     70  C   UNL A   1      42.714  28.419  34.211  1.00  0.00    -0.014 A 
ATOM     71  C   UNL A   1      42.295  28.675  35.534  1.00  0.00     0.010 A 
ATOM     72  C   UNL A   1      43.644  27.380  34.020  1.00  0.00     0.010 A 
ATOM     73  C   UNL A   1      42.849  27.985  36.616  1.00  0.00     0.020 A 
ATOM     74  C   UNL A   1      44.171  26.655  35.091  1.00  0.00     0.020 A 
ATOM     75  C   UNL A   1      43.797  26.990  36.386  1.00  0.00     0.054 A 
BRANCH  75  76
ATOM     76  S   UNL A   1      44.592  26.187  37.798  1.00  0.00     0.124 S 
ATOM     77  O   UNL A   1      43.633  26.448  38.868  1.00  0.00    -0.237 OA
ATOM     78  O   UNL A   1      44.685  24.801  37.352  1.00  0.00    -0.237 OA
ATOM     79  O   UNL A   1      45.868  26.889  37.914  1.00  0.00    -0.744 OA
ENDBRANCH  75  76
ENDBRANCH  56  70
BRANCH  57  80
ATOM     80  C   UNL A   1      43.804  25.390  26.060  1.00  0.00    -0.014 A 
ATOM     81  C   UNL A   1      44.917  25.088  25.252  1.00  0.00     0.010 A 
ATOM     82  C   UNL A   1      42.918  24.333  26.361  1.00  0.00     0.010 A 
ATOM     83  C   UNL A   1      45.171  23.768  24.827  1.00  0.00     0.020 A 
ATOM     84  C   UNL A   1      43.160  23.018  25.936  1.00  0.00     0.020 A 
ATOM     85  C   UNL A   1      44.303  22.736  25.194  1.00  0.00     0.054 A 
BRANCH  85  86
ATOM     86  S   UNL A   1      44.762  21.009  24.841  1.00  0.00     0.124 S 
ATOM     87  O   UNL A   1      46.133  20.941  25.339  1.00  0.00    -0.237 OA
ATOM     88  O   UNL A   1      43.778  20.254  25.613  1.00  0.00    -0.237 OA
ATOM     89  O   UNL A   1      44.608  20.898  23.392  1.00  0.00    -0.744 OA
ENDBRANCH  85  86
ENDBRANCH  57  80
BRANCH  69  90
ATOM     90  C   UNL A   1      45.436  30.968  28.495  1.00  0.00    -0.014 A 
ATOM     91  C   UNL A   1      44.507  31.382  27.517  1.00  0.00     0.010 A 
ATOM     92  C   UNL A   1      46.647  31.674  28.605  1.00  0.00     0.010 A 
ATOM     93  C   UNL A   1      44.793  32.463  26.667  1.00  0.00     0.020 A 
ATOM     94  C   UNL A   1      46.929  32.761  27.776  1.00  0.00     0.020 A 
ATOM     95  C   UNL A   1      46.005  33.147  26.805  1.00  0.00     0.054 A 
BRANCH  95  96
ATOM     96  S   UNL A   1      46.351  34.582  25.748  1.00  0.00     0.124 S 
ATOM     97  O   UNL A   1      45.389  34.413  24.662  1.00  0.00    -0.237 OA
ATOM     98  O   UNL A   1      46.102  35.712  26.639  1.00  0.00    -0.237 OA
ATOM     99  O   UNL A   1      47.752  34.402  25.365  1.00  0.00    -0.744 OA
ENDBRANCH  95  96
ENDBRANCH  69  90
ENDBRANCH  43  44
ENDBRANCH  35  38
ENDBRANCH  33  34
ENDBRANCH  32  33
ENDBRANCH  31  32
ENDBRANCH   1  31
TORSDOF 23
ENDMDL
