MODEL 1
REMARK VINA RESULT:     -13.0      0.000      0.000
REMARK SMILES Cc1cc(C(=O)NCCCCCCNC(=O)c2ccc(-c3c4nc(c(-c5ccc(S(=O)(=O)[O-])cc5)c5ccc([nH]5)c(-c5ccc(S(=O)(=O)[O-])cc5)c5nc(c(-c6ccc(S(=O)(=O)[O-])cc6)c6ccc3[nH]6)C=C5)C=C4)cc2)ccc1NS(=O)(=O)c1c(F)cccc1F
REMARK SMILES IDX 10 1 9 2 8 3 7 4 5 5 6 6 4 8 1 9 2 10 3 11 79 12 78 13 77 14
REMARK SMILES IDX 80 15 81 17 82 18 83 19 84 20 85 21 90 22 86 23 87 24 89 25
REMARK SMILES IDX 91 26 88 27 11 28 12 29 13 30 14 31 15 32 16 34 17 35 18 36
REMARK SMILES IDX 76 37 19 38 75 39 20 40 21 41 22 42 69 43 23 44 74 45 68 46
REMARK SMILES IDX 70 47 24 48 73 49 67 50 66 51 25 53 55 54 36 55 54 56 37 57
REMARK SMILES IDX 40 58 53 59 71 60 38 61 39 62 52 64 72 65 41 66 26 67 27 68
REMARK SMILES IDX 35 69 28 70 34 71 29 72 30 73 31 74 32 75 33 76 56 77 57 78
REMARK SMILES IDX 65 79 58 80 64 81 59 82 60 83 61 84 62 85 63 86 42 87 43 88
REMARK SMILES IDX 51 89 44 90 50 91 45 92 46 93 47 94 48 95 49 96
REMARK H PARENT 7 7 80 16 14 33 70 52 40 63
REMARK Flexibility Score: inf
ROOT
ATOM      1  C   UNL A   1      32.030  29.599  24.906  1.00  0.00     0.002 C 
ENDROOT
BRANCH   1   2
ATOM      2  C   UNL A   1      30.680  29.765  24.198  1.00  0.00     0.021 C 
BRANCH   2   3
ATOM      3  C   UNL A   1      29.962  28.497  23.734  1.00  0.00     0.116 C 
BRANCH   3   4
ATOM      4  N   UNL A   1      30.596  27.812  22.619  1.00  0.00    -0.352 N 
ATOM      5  C   UNL A   1      31.525  26.795  22.595  1.00  0.00     0.251 C 
ATOM      6  O   UNL A   1      31.924  26.372  21.511  1.00  0.00    -0.269 OA
ATOM      7  H   UNL A   1      30.313  28.130  21.732  1.00  0.00     0.163 HD
BRANCH   5   8
ATOM      8  C   UNL A   1      32.124  26.241  23.841  1.00  0.00     0.040 A 
ATOM      9  C   UNL A   1      31.077  23.661  26.425  1.00  0.00     0.046 C 
ATOM     10  C   UNL A   1      31.961  24.583  25.627  1.00  0.00    -0.026 A 
ATOM     11  C   UNL A   1      31.386  25.287  24.554  1.00  0.00     0.019 A 
ATOM     12  C   UNL A   1      33.318  24.791  25.919  1.00  0.00     0.052 A 
ATOM     13  C   UNL A   1      33.952  25.919  25.395  1.00  0.00     0.028 A 
ATOM     14  C   UNL A   1      33.357  26.642  24.352  1.00  0.00     0.016 A 
BRANCH  12  15
ATOM     15  N   UNL A   1      34.007  23.762  26.631  1.00  0.00    -0.279 N 
ATOM     16  H   UNL A   1      34.006  23.831  27.613  1.00  0.00     0.180 HD
BRANCH  15  17
ATOM     17  S   UNL A   1      34.819  22.452  25.978  1.00  0.00     0.267 S 
ATOM     18  O   UNL A   1      36.058  22.977  25.442  1.00  0.00    -0.201 OA
ATOM     19  O   UNL A   1      34.821  21.445  27.020  1.00  0.00    -0.201 OA
BRANCH  17  20
ATOM     20  C   UNL A   1      33.892  21.798  24.643  1.00  0.00     0.158 A 
ATOM     21  C   UNL A   1      33.835  22.544  23.472  1.00  0.00     0.146 A 
ATOM     22  C   UNL A   1      33.123  20.648  24.749  1.00  0.00     0.146 A 
ATOM     23  F   UNL A   1      34.622  23.614  23.292  1.00  0.00    -0.205 F 
ATOM     24  C   UNL A   1      32.956  22.201  22.447  1.00  0.00     0.041 A 
ATOM     25  C   UNL A   1      32.216  20.309  23.741  1.00  0.00     0.041 A 
ATOM     26  F   UNL A   1      33.196  19.850  25.821  1.00  0.00    -0.205 F 
ATOM     27  C   UNL A   1      32.119  21.097  22.593  1.00  0.00     0.006 A 
ENDBRANCH  17  20
ENDBRANCH  15  17
ENDBRANCH  12  15
ENDBRANCH   5   8
ENDBRANCH   3   4
ENDBRANCH   2   3
ENDBRANCH   1   2
BRANCH   1  28
ATOM     28  C   UNL A   1      32.153  30.116  26.348  1.00  0.00     0.002 C 
BRANCH  28  29
ATOM     29  C   UNL A   1      33.033  29.311  27.305  1.00  0.00     0.021 C 
BRANCH  29  30
ATOM     30  C   UNL A   1      34.522  29.347  26.985  1.00  0.00     0.116 C 
BRANCH  30  31
ATOM     31  N   UNL A   1      35.153  30.614  27.318  1.00  0.00    -0.352 N 
ATOM     32  C   UNL A   1      36.206  30.791  28.210  1.00  0.00     0.251 C 
ATOM     33  H   UNL A   1      34.804  31.420  26.873  1.00  0.00     0.163 HD
ATOM     34  O   UNL A   1      36.402  31.808  28.833  1.00  0.00    -0.269 OA
BRANCH  32  35
ATOM     35  C   UNL A   1      37.190  29.686  28.238  1.00  0.00     0.039 A 
ATOM     36  C   UNL A   1      37.319  28.970  29.435  1.00  0.00     0.014 A 
ATOM     37  C   UNL A   1      38.131  29.572  27.220  1.00  0.00     0.014 A 
ATOM     38  C   UNL A   1      38.489  28.258  29.680  1.00  0.00     0.010 A 
ATOM     39  C   UNL A   1      39.325  28.937  27.501  1.00  0.00     0.010 A 
ATOM     40  C   UNL A   1      39.523  28.321  28.745  1.00  0.00    -0.014 A 
BRANCH  40  41
ATOM     41  C   UNL A   1      40.865  27.799  28.983  1.00  0.00     0.031 A 
ATOM     42  C   UNL A   1      41.191  26.417  28.551  1.00  0.00     0.074 A 
ATOM     43  C   UNL A   1      41.831  28.591  29.501  1.00  0.00     0.049 A 
ATOM     44  N   UNL A   1      42.208  25.740  28.966  1.00  0.00    -0.248 NA
ATOM     45  C   UNL A   1      40.346  25.666  27.625  1.00  0.00     0.031 C 
ATOM     46  C   UNL A   1      43.267  28.315  29.522  1.00  0.00     0.029 A 
ATOM     47  N   UNL A   1      41.708  29.722  30.313  1.00  0.00    -0.354 N 
ATOM     48  C   UNL A   1      42.321  24.624  28.170  1.00  0.00     0.074 A 
ATOM     49  C   UNL A   1      41.098  24.584  27.404  1.00  0.00     0.031 C 
ATOM     50  C   UNL A   1      43.823  29.014  30.523  1.00  0.00     0.029 A 
ATOM     51  C   UNL A   1      42.732  29.609  31.274  1.00  0.00     0.049 A 
ATOM     52  H   UNL A   1      41.045  30.446  30.232  1.00  0.00     0.167 HD
ATOM     53  C   UNL A   1      43.490  23.920  28.156  1.00  0.00     0.031 A 
ATOM     54  C   UNL A   1      42.502  29.413  32.609  1.00  0.00     0.031 A 
ATOM     55  C   UNL A   1      44.437  24.410  29.156  1.00  0.00     0.049 A 
ATOM     56  C   UNL A   1      43.133  28.141  33.168  1.00  0.00     0.074 A 
ATOM     57  C   UNL A   1      45.592  25.174  29.117  1.00  0.00     0.029 A 
ATOM     58  N   UNL A   1      44.078  24.331  30.492  1.00  0.00    -0.354 N 
ATOM     59  N   UNL A   1      43.789  27.268  32.455  1.00  0.00    -0.248 NA
ATOM     60  C   UNL A   1      42.982  27.706  34.560  1.00  0.00     0.031 C 
ATOM     61  C   UNL A   1      45.909  25.566  30.452  1.00  0.00     0.029 A 
ATOM     62  C   UNL A   1      44.957  25.027  31.296  1.00  0.00     0.049 A 
ATOM     63  H   UNL A   1      43.293  23.840  30.825  1.00  0.00     0.167 HD
ATOM     64  C   UNL A   1      44.098  26.178  33.224  1.00  0.00     0.074 A 
ATOM     65  C   UNL A   1      43.586  26.504  34.542  1.00  0.00     0.031 C 
ATOM     66  C   UNL A   1      44.705  25.064  32.726  1.00  0.00     0.031 A 
BRANCH  53  67
ATOM     67  C   UNL A   1      43.852  22.921  27.079  1.00  0.00    -0.014 A 
ATOM     68  C   UNL A   1      42.949  21.889  26.751  1.00  0.00     0.010 A 
ATOM     69  C   UNL A   1      45.080  22.909  26.390  1.00  0.00     0.010 A 
ATOM     70  C   UNL A   1      43.292  20.849  25.872  1.00  0.00     0.020 A 
ATOM     71  C   UNL A   1      45.454  21.856  25.540  1.00  0.00     0.020 A 
ATOM     72  C   UNL A   1      44.559  20.822  25.297  1.00  0.00     0.054 A 
BRANCH  72  73
ATOM     73  S   UNL A   1      45.027  19.423  24.244  1.00  0.00     0.124 S 
ATOM     74  O   UNL A   1      46.486  19.488  24.264  1.00  0.00    -0.237 OA
ATOM     75  O   UNL A   1      44.435  18.290  24.948  1.00  0.00    -0.237 OA
ATOM     76  O   UNL A   1      44.415  19.741  22.955  1.00  0.00    -0.744 OA
ENDBRANCH  72  73
ENDBRANCH  53  67
BRANCH  54  77
ATOM     77  C   UNL A   1      41.230  30.019  33.100  1.00  0.00    -0.014 A 
ATOM     78  C   UNL A   1      41.208  31.418  33.296  1.00  0.00     0.010 A 
ATOM     79  C   UNL A   1      40.013  29.332  32.967  1.00  0.00     0.010 A 
ATOM     80  C   UNL A   1      40.017  32.134  33.159  1.00  0.00     0.020 A 
ATOM     81  C   UNL A   1      38.813  30.049  32.850  1.00  0.00     0.020 A 
ATOM     82  C   UNL A   1      38.839  31.448  32.867  1.00  0.00     0.054 A 
BRANCH  82  83
ATOM     83  S   UNL A   1      37.396  32.413  32.323  1.00  0.00     0.124 S 
ATOM     84  O   UNL A   1      37.940  33.196  31.220  1.00  0.00    -0.237 OA
ATOM     85  O   UNL A   1      36.449  31.363  31.944  1.00  0.00    -0.237 OA
ATOM     86  O   UNL A   1      37.031  33.170  33.516  1.00  0.00    -0.744 OA
ENDBRANCH  82  83
ENDBRANCH  54  77
BRANCH  66  87
ATOM     87  C   UNL A   1      45.074  23.875  33.566  1.00  0.00    -0.014 A 
ATOM     88  C   UNL A   1      44.202  22.788  33.746  1.00  0.00     0.010 A 
ATOM     89  C   UNL A   1      46.276  23.877  34.309  1.00  0.00     0.010 A 
ATOM     90  C   UNL A   1      44.545  21.720  34.585  1.00  0.00     0.020 A 
ATOM     91  C   UNL A   1      46.617  22.825  35.162  1.00  0.00     0.020 A 
ATOM     92  C   UNL A   1      45.757  21.739  35.279  1.00  0.00     0.054 A 
BRANCH  92  93
ATOM     93  S   UNL A   1      46.175  20.360  36.377  1.00  0.00     0.124 S 
ATOM     94  O   UNL A   1      47.597  20.156  36.110  1.00  0.00    -0.237 OA
ATOM     95  O   UNL A   1      45.857  20.916  37.689  1.00  0.00    -0.237 OA
ATOM     96  O   UNL A   1      45.301  19.280  35.927  1.00  0.00    -0.744 OA
ENDBRANCH  92  93
ENDBRANCH  66  87
ENDBRANCH  40  41
ENDBRANCH  32  35
ENDBRANCH  30  31
ENDBRANCH  29  30
ENDBRANCH  28  29
ENDBRANCH   1  28
TORSDOF 19
ENDMDL
MODEL 2
REMARK VINA RESULT:     -12.9      1.337      2.008
REMARK SMILES Cc1cc(C(=O)NCCCCCCNC(=O)c2ccc(-c3c4nc(c(-c5ccc(S(=O)(=O)[O-])cc5)c5ccc([nH]5)c(-c5ccc(S(=O)(=O)[O-])cc5)c5nc(c(-c6ccc(S(=O)(=O)[O-])cc6)c6ccc3[nH]6)C=C5)C=C4)cc2)ccc1NS(=O)(=O)c1c(F)cccc1F
REMARK SMILES IDX 10 1 9 2 8 3 7 4 5 5 6 6 4 8 1 9 2 10 3 11 79 12 78 13 77 14
REMARK SMILES IDX 80 15 81 17 82 18 83 19 84 20 85 21 90 22 86 23 87 24 89 25
REMARK SMILES IDX 91 26 88 27 11 28 12 29 13 30 14 31 15 32 16 34 17 35 18 36
REMARK SMILES IDX 76 37 19 38 75 39 20 40 21 41 22 42 69 43 23 44 74 45 68 46
REMARK SMILES IDX 70 47 24 48 73 49 67 50 66 51 25 53 55 54 36 55 54 56 37 57
REMARK SMILES IDX 40 58 53 59 71 60 38 61 39 62 52 64 72 65 41 66 26 67 27 68
REMARK SMILES IDX 35 69 28 70 34 71 29 72 30 73 31 74 32 75 33 76 56 77 57 78
REMARK SMILES IDX 65 79 58 80 64 81 59 82 60 83 61 84 62 85 63 86 42 87 43 88
REMARK SMILES IDX 51 89 44 90 50 91 45 92 46 93 47 94 48 95 49 96
REMARK H PARENT 7 7 80 16 14 33 70 52 40 63
REMARK Flexibility Score: inf
ROOT
ATOM      1  C   UNL A   1      32.149  29.627  25.457  1.00  0.00     0.002 C 
ENDROOT
BRANCH   1   2
ATOM      2  C   UNL A   1      31.240  29.634  24.221  1.00  0.00     0.021 C 
BRANCH   2   3
ATOM      3  C   UNL A   1      31.055  28.315  23.470  1.00  0.00     0.116 C 
BRANCH   3   4
ATOM      4  N   UNL A   1      29.713  27.761  23.536  1.00  0.00    -0.352 N 
ATOM      5  C   UNL A   1      29.264  26.531  23.967  1.00  0.00     0.251 C 
ATOM      6  O   UNL A   1      28.060  26.283  23.925  1.00  0.00    -0.269 OA
ATOM      7  H   UNL A   1      29.005  28.367  23.220  1.00  0.00     0.163 HD
BRANCH   5   8
ATOM      8  C   UNL A   1      30.198  25.459  24.408  1.00  0.00     0.040 A 
ATOM      9  C   UNL A   1      31.694  22.354  22.812  1.00  0.00     0.046 C 
ATOM     10  C   UNL A   1      31.508  23.498  23.772  1.00  0.00    -0.026 A 
ATOM     11  C   UNL A   1      30.495  24.434  23.500  1.00  0.00     0.019 A 
ATOM     12  C   UNL A   1      32.278  23.658  24.935  1.00  0.00     0.052 A 
ATOM     13  C   UNL A   1      31.803  24.498  25.945  1.00  0.00     0.028 A 
ATOM     14  C   UNL A   1      30.766  25.401  25.680  1.00  0.00     0.016 A 
BRANCH  12  15
ATOM     15  N   UNL A   1      33.572  23.053  24.961  1.00  0.00    -0.279 N 
ATOM     16  H   UNL A   1      33.736  22.339  24.303  1.00  0.00     0.180 HD
BRANCH  15  17
ATOM     17  S   UNL A   1      34.841  23.423  25.988  1.00  0.00     0.267 S 
ATOM     18  O   UNL A   1      35.181  24.806  25.720  1.00  0.00    -0.201 OA
ATOM     19  O   UNL A   1      34.405  23.001  27.303  1.00  0.00    -0.201 OA
BRANCH  17  20
ATOM     20  C   UNL A   1      36.231  22.440  25.574  1.00  0.00     0.158 A 
ATOM     21  C   UNL A   1      35.995  21.144  25.131  1.00  0.00     0.146 A 
ATOM     22  C   UNL A   1      37.538  22.852  25.789  1.00  0.00     0.146 A 
ATOM     23  F   UNL A   1      34.756  20.729  24.830  1.00  0.00    -0.205 F 
ATOM     24  C   UNL A   1      37.041  20.236  24.985  1.00  0.00     0.041 A 
ATOM     25  C   UNL A   1      38.594  21.943  25.675  1.00  0.00     0.041 A 
ATOM     26  F   UNL A   1      37.830  24.110  26.142  1.00  0.00    -0.205 F 
ATOM     27  C   UNL A   1      38.344  20.626  25.287  1.00  0.00     0.006 A 
ENDBRANCH  17  20
ENDBRANCH  15  17
ENDBRANCH  12  15
ENDBRANCH   5   8
ENDBRANCH   3   4
ENDBRANCH   2   3
ENDBRANCH   1   2
BRANCH   1  28
ATOM     28  C   UNL A   1      33.029  28.391  25.695  1.00  0.00     0.002 C 
BRANCH  28  29
ATOM     29  C   UNL A   1      34.399  28.623  26.335  1.00  0.00     0.021 C 
BRANCH  29  30
ATOM     30  C   UNL A   1      34.361  29.346  27.676  1.00  0.00     0.116 C 
BRANCH  30  31
ATOM     31  N   UNL A   1      35.076  30.613  27.668  1.00  0.00    -0.352 N 
ATOM     32  C   UNL A   1      36.283  30.872  28.309  1.00  0.00     0.251 C 
ATOM     33  H   UNL A   1      34.669  31.354  27.163  1.00  0.00     0.163 HD
ATOM     34  O   UNL A   1      36.618  31.964  28.705  1.00  0.00    -0.269 OA
BRANCH  32  35
ATOM     35  C   UNL A   1      37.226  29.732  28.346  1.00  0.00     0.039 A 
ATOM     36  C   UNL A   1      37.388  29.070  29.568  1.00  0.00     0.014 A 
ATOM     37  C   UNL A   1      38.110  29.533  27.291  1.00  0.00     0.014 A 
ATOM     38  C   UNL A   1      38.543  28.326  29.792  1.00  0.00     0.010 A 
ATOM     39  C   UNL A   1      39.293  28.867  27.545  1.00  0.00     0.010 A 
ATOM     40  C   UNL A   1      39.530  28.304  28.807  1.00  0.00    -0.014 A 
BRANCH  40  41
ATOM     41  C   UNL A   1      40.862  27.742  29.006  1.00  0.00     0.031 A 
ATOM     42  C   UNL A   1      41.125  26.340  28.596  1.00  0.00     0.074 A 
ATOM     43  C   UNL A   1      41.874  28.513  29.466  1.00  0.00     0.049 A 
ATOM     44  N   UNL A   1      42.135  25.639  28.989  1.00  0.00    -0.248 NA
ATOM     45  C   UNL A   1      40.220  25.596  27.723  1.00  0.00     0.031 C 
ATOM     46  C   UNL A   1      43.299  28.188  29.438  1.00  0.00     0.029 A 
ATOM     47  N   UNL A   1      41.821  29.667  30.254  1.00  0.00    -0.354 N 
ATOM     48  C   UNL A   1      42.179  24.501  28.217  1.00  0.00     0.074 A 
ATOM     49  C   UNL A   1      40.926  24.484  27.500  1.00  0.00     0.031 C 
ATOM     50  C   UNL A   1      43.918  28.892  30.399  1.00  0.00     0.029 A 
ATOM     51  C   UNL A   1      42.877  29.542  31.177  1.00  0.00     0.049 A 
ATOM     52  H   UNL A   1      41.179  30.410  30.180  1.00  0.00     0.167 HD
ATOM     53  C   UNL A   1      43.322  23.758  28.175  1.00  0.00     0.031 A 
ATOM     54  C   UNL A   1      42.694  29.386  32.524  1.00  0.00     0.031 A 
ATOM     55  C   UNL A   1      44.325  24.238  29.125  1.00  0.00     0.049 A 
ATOM     56  C   UNL A   1      43.304  28.107  33.090  1.00  0.00     0.074 A 
ATOM     57  C   UNL A   1      45.501  24.962  29.023  1.00  0.00     0.029 A 
ATOM     58  N   UNL A   1      44.016  24.204  30.475  1.00  0.00    -0.354 N 
ATOM     59  N   UNL A   1      43.902  27.195  32.374  1.00  0.00    -0.248 NA
ATOM     60  C   UNL A   1      43.194  27.710  34.497  1.00  0.00     0.031 C 
ATOM     61  C   UNL A   1      45.884  25.374  30.334  1.00  0.00     0.029 A 
ATOM     62  C   UNL A   1      44.949  24.888  31.228  1.00  0.00     0.049 A 
ATOM     63  H   UNL A   1      43.229  23.747  30.851  1.00  0.00     0.167 HD
ATOM     64  C   UNL A   1      44.205  26.114  33.158  1.00  0.00     0.074 A 
ATOM     65  C   UNL A   1      43.757  26.488  34.486  1.00  0.00     0.031 C 
ATOM     66  C   UNL A   1      44.755  24.968  32.665  1.00  0.00     0.031 A 
BRANCH  53  67
ATOM     67  C   UNL A   1      43.609  22.722  27.111  1.00  0.00    -0.014 A 
ATOM     68  C   UNL A   1      42.742  21.620  26.956  1.00  0.00     0.010 A 
ATOM     69  C   UNL A   1      44.736  22.743  26.267  1.00  0.00     0.010 A 
ATOM     70  C   UNL A   1      43.037  20.553  26.092  1.00  0.00     0.020 A 
ATOM     71  C   UNL A   1      45.066  21.667  25.428  1.00  0.00     0.020 A 
ATOM     72  C   UNL A   1      44.218  20.569  25.356  1.00  0.00     0.054 A 
BRANCH  72  73
ATOM     73  S   UNL A   1      44.639  19.142  24.321  1.00  0.00     0.124 S 
ATOM     74  O   UNL A   1      44.407  19.653  22.972  1.00  0.00    -0.237 OA
ATOM     75  O   UNL A   1      46.034  18.900  24.674  1.00  0.00    -0.237 OA
ATOM     76  O   UNL A   1      43.700  18.110  24.757  1.00  0.00    -0.744 OA
ENDBRANCH  72  73
ENDBRANCH  53  67
BRANCH  54  77
ATOM     77  C   UNL A   1      41.464  30.046  33.048  1.00  0.00    -0.014 A 
ATOM     78  C   UNL A   1      41.459  31.457  33.115  1.00  0.00     0.010 A 
ATOM     79  C   UNL A   1      40.238  29.361  33.070  1.00  0.00     0.010 A 
ATOM     80  C   UNL A   1      40.263  32.168  33.000  1.00  0.00     0.020 A 
ATOM     81  C   UNL A   1      39.035  30.075  32.975  1.00  0.00     0.020 A 
ATOM     82  C   UNL A   1      39.064  31.468  32.860  1.00  0.00     0.054 A 
BRANCH  82  83
ATOM     83  S   UNL A   1      37.588  32.392  32.336  1.00  0.00     0.124 S 
ATOM     84  O   UNL A   1      37.199  33.083  33.561  1.00  0.00    -0.237 OA
ATOM     85  O   UNL A   1      38.119  33.246  31.273  1.00  0.00    -0.237 OA
ATOM     86  O   UNL A   1      36.679  31.343  31.887  1.00  0.00    -0.744 OA
ENDBRANCH  82  83
ENDBRANCH  54  77
BRANCH  66  87
ATOM     87  C   UNL A   1      45.117  23.787  33.520  1.00  0.00    -0.014 A 
ATOM     88  C   UNL A   1      44.196  22.770  33.817  1.00  0.00     0.010 A 
ATOM     89  C   UNL A   1      46.376  23.733  34.158  1.00  0.00     0.010 A 
ATOM     90  C   UNL A   1      44.540  21.712  34.668  1.00  0.00     0.020 A 
ATOM     91  C   UNL A   1      46.722  22.692  35.022  1.00  0.00     0.020 A 
ATOM     92  C   UNL A   1      45.806  21.672  35.256  1.00  0.00     0.054 A 
BRANCH  92  93
ATOM     93  S   UNL A   1      46.227  20.309  36.371  1.00  0.00     0.124 S 
ATOM     94  O   UNL A   1      45.811  20.819  37.676  1.00  0.00    -0.237 OA
ATOM     95  O   UNL A   1      45.412  19.221  35.835  1.00  0.00    -0.237 OA
ATOM     96  O   UNL A   1      47.669  20.152  36.201  1.00  0.00    -0.744 OA
ENDBRANCH  92  93
ENDBRANCH  66  87
ENDBRANCH  40  41
ENDBRANCH  32  35
ENDBRANCH  30  31
ENDBRANCH  29  30
ENDBRANCH  28  29
ENDBRANCH   1  28
TORSDOF 19
ENDMDL
MODEL 3
REMARK VINA RESULT:     -12.4      2.010      3.034
REMARK SMILES Cc1cc(C(=O)NCCCCCCNC(=O)c2ccc(-c3c4nc(c(-c5ccc(S(=O)(=O)[O-])cc5)c5ccc([nH]5)c(-c5ccc(S(=O)(=O)[O-])cc5)c5nc(c(-c6ccc(S(=O)(=O)[O-])cc6)c6ccc3[nH]6)C=C5)C=C4)cc2)ccc1NS(=O)(=O)c1c(F)cccc1F
REMARK SMILES IDX 10 1 9 2 8 3 7 4 5 5 6 6 4 8 1 9 2 10 3 11 79 12 78 13 77 14
REMARK SMILES IDX 80 15 81 17 82 18 83 19 84 20 85 21 90 22 86 23 87 24 89 25
REMARK SMILES IDX 91 26 88 27 11 28 12 29 13 30 14 31 15 32 16 34 17 35 18 36
REMARK SMILES IDX 76 37 19 38 75 39 20 40 21 41 22 42 69 43 23 44 74 45 68 46
REMARK SMILES IDX 70 47 24 48 73 49 67 50 66 51 25 53 55 54 36 55 54 56 37 57
REMARK SMILES IDX 40 58 53 59 71 60 38 61 39 62 52 64 72 65 41 66 26 67 27 68
REMARK SMILES IDX 35 69 28 70 34 71 29 72 30 73 31 74 32 75 33 76 56 77 57 78
REMARK SMILES IDX 65 79 58 80 64 81 59 82 60 83 61 84 62 85 63 86 42 87 43 88
REMARK SMILES IDX 51 89 44 90 50 91 45 92 46 93 47 94 48 95 49 96
REMARK H PARENT 7 7 80 16 14 33 70 52 40 63
REMARK Flexibility Score: inf
ROOT
ATOM      1  C   UNL A   1      31.446  28.709  24.566  1.00  0.00     0.002 C 
ENDROOT
BRANCH   1   2
ATOM      2  C   UNL A   1      32.014  28.443  23.166  1.00  0.00     0.021 C 
BRANCH   2   3
ATOM      3  C   UNL A   1      33.185  27.467  23.049  1.00  0.00     0.116 C 
BRANCH   3   4
ATOM      4  N   UNL A   1      33.261  26.756  21.783  1.00  0.00    -0.352 N 
ATOM      5  C   UNL A   1      32.837  25.493  21.430  1.00  0.00     0.251 C 
ATOM      6  O   UNL A   1      33.016  25.101  20.278  1.00  0.00    -0.269 OA
ATOM      7  H   UNL A   1      33.687  27.264  21.056  1.00  0.00     0.163 HD
BRANCH   5   8
ATOM      8  C   UNL A   1      32.240  24.555  22.420  1.00  0.00     0.040 A 
ATOM      9  C   UNL A   1      32.492  20.825  23.097  1.00  0.00     0.046 C 
ATOM     10  C   UNL A   1      32.207  22.286  23.325  1.00  0.00    -0.026 A 
ATOM     11  C   UNL A   1      32.575  23.198  22.319  1.00  0.00     0.019 A 
ATOM     12  C   UNL A   1      31.570  22.775  24.476  1.00  0.00     0.052 A 
ATOM     13  C   UNL A   1      31.007  24.053  24.441  1.00  0.00     0.028 A 
ATOM     14  C   UNL A   1      31.346  24.944  23.415  1.00  0.00     0.016 A 
BRANCH  12  15
ATOM     15  N   UNL A   1      31.650  21.984  25.663  1.00  0.00    -0.279 N 
ATOM     16  H   UNL A   1      30.854  21.452  25.891  1.00  0.00     0.180 HD
BRANCH  15  17
ATOM     17  S   UNL A   1      32.949  21.865  26.712  1.00  0.00     0.267 S 
ATOM     18  O   UNL A   1      32.630  22.714  27.842  1.00  0.00    -0.201 OA
ATOM     19  O   UNL A   1      33.174  20.444  26.883  1.00  0.00    -0.201 OA
BRANCH  17  20
ATOM     20  C   UNL A   1      34.382  22.515  25.941  1.00  0.00     0.158 A 
ATOM     21  C   UNL A   1      34.483  23.898  25.830  1.00  0.00     0.146 A 
ATOM     22  C   UNL A   1      35.341  21.718  25.335  1.00  0.00     0.146 A 
ATOM     23  F   UNL A   1      33.627  24.708  26.468  1.00  0.00    -0.205 F 
ATOM     24  C   UNL A   1      35.478  24.482  25.051  1.00  0.00     0.041 A 
ATOM     25  C   UNL A   1      36.328  22.290  24.526  1.00  0.00     0.041 A 
ATOM     26  F   UNL A   1      35.338  20.387  25.472  1.00  0.00    -0.205 F 
ATOM     27  C   UNL A   1      36.387  23.676  24.370  1.00  0.00     0.006 A 
ENDBRANCH  17  20
ENDBRANCH  15  17
ENDBRANCH  12  15
ENDBRANCH   5   8
ENDBRANCH   3   4
ENDBRANCH   2   3
ENDBRANCH   1   2
BRANCH   1  28
ATOM     28  C   UNL A   1      31.789  27.711  25.682  1.00  0.00     0.002 C 
BRANCH  28  29
ATOM     29  C   UNL A   1      33.072  27.963  26.474  1.00  0.00     0.021 C 
BRANCH  29  30
ATOM     30  C   UNL A   1      32.918  28.922  27.649  1.00  0.00     0.116 C 
BRANCH  30  31
ATOM     31  N   UNL A   1      33.299  30.289  27.332  1.00  0.00    -0.352 N 
ATOM     32  C   UNL A   1      34.382  30.978  27.867  1.00  0.00     0.251 C 
ATOM     33  H   UNL A   1      32.741  30.771  26.679  1.00  0.00     0.163 HD
ATOM     34  O   UNL A   1      34.425  32.179  27.992  1.00  0.00    -0.269 OA
BRANCH  32  35
ATOM     35  C   UNL A   1      35.574  30.146  28.144  1.00  0.00     0.039 A 
ATOM     36  C   UNL A   1      35.746  29.684  29.454  1.00  0.00     0.014 A 
ATOM     37  C   UNL A   1      36.606  30.085  27.212  1.00  0.00     0.014 A 
ATOM     38  C   UNL A   1      37.016  29.308  29.882  1.00  0.00     0.010 A 
ATOM     39  C   UNL A   1      37.878  29.793  27.663  1.00  0.00     0.010 A 
ATOM     40  C   UNL A   1      38.092  29.451  29.006  1.00  0.00    -0.014 A 
BRANCH  40  41
ATOM     41  C   UNL A   1      39.487  29.295  29.401  1.00  0.00     0.031 A 
ATOM     42  C   UNL A   1      40.196  28.032  29.074  1.00  0.00     0.074 A 
ATOM     43  C   UNL A   1      40.161  30.319  29.973  1.00  0.00     0.049 A 
ATOM     44  N   UNL A   1      41.299  27.647  29.622  1.00  0.00    -0.248 NA
ATOM     45  C   UNL A   1      39.673  27.069  28.108  1.00  0.00     0.031 C 
ATOM     46  C   UNL A   1      41.609  30.419  30.149  1.00  0.00     0.029 A 
ATOM     47  N   UNL A   1      39.670  31.400  30.711  1.00  0.00    -0.354 N 
ATOM     48  C   UNL A   1      41.775  26.578  28.898  1.00  0.00     0.074 A 
ATOM     49  C   UNL A   1      40.692  26.210  28.017  1.00  0.00     0.031 C 
ATOM     50  C   UNL A   1      41.860  31.261  31.164  1.00  0.00     0.029 A 
ATOM     51  C   UNL A   1      40.579  31.575  31.773  1.00  0.00     0.049 A 
ATOM     52  H   UNL A   1      38.859  31.928  30.528  1.00  0.00     0.167 HD
ATOM     53  C   UNL A   1      43.077  26.197  29.035  1.00  0.00     0.031 A 
ATOM     54  C   UNL A   1      40.262  31.358  33.086  1.00  0.00     0.031 A 
ATOM     55  C   UNL A   1      43.757  26.935  30.098  1.00  0.00     0.049 A 
ATOM     56  C   UNL A   1      41.127  30.303  33.768  1.00  0.00     0.074 A 
ATOM     57  C   UNL A   1      44.679  27.968  30.136  1.00  0.00     0.029 A 
ATOM     58  N   UNL A   1      43.286  26.799  31.394  1.00  0.00    -0.354 N 
ATOM     59  N   UNL A   1      42.055  29.609  33.169  1.00  0.00    -0.248 NA
ATOM     60  C   UNL A   1      40.941  29.876  35.159  1.00  0.00     0.031 C 
ATOM     61  C   UNL A   1      44.741  28.459  31.474  1.00  0.00     0.029 A 
ATOM     62  C   UNL A   1      43.869  27.715  32.246  1.00  0.00     0.049 A 
ATOM     63  H   UNL A   1      42.618  26.131  31.672  1.00  0.00     0.167 HD
ATOM     64  C   UNL A   1      42.543  28.653  34.019  1.00  0.00     0.074 A 
ATOM     65  C   UNL A   1      41.825  28.868  35.262  1.00  0.00     0.031 C 
ATOM     66  C   UNL A   1      43.462  27.719  33.640  1.00  0.00     0.031 A 
BRANCH  53  67
ATOM     67  C   UNL A   1      43.794  25.298  28.051  1.00  0.00    -0.014 A 
ATOM     68  C   UNL A   1      44.554  25.869  27.009  1.00  0.00     0.010 A 
ATOM     69  C   UNL A   1      43.721  23.892  28.063  1.00  0.00     0.010 A 
ATOM     70  C   UNL A   1      45.115  25.092  25.982  1.00  0.00     0.020 A 
ATOM     71  C   UNL A   1      44.241  23.105  27.023  1.00  0.00     0.020 A 
ATOM     72  C   UNL A   1      44.925  23.714  25.979  1.00  0.00     0.054 A 
BRANCH  72  73
ATOM     73  S   UNL A   1      45.565  22.733  24.597  1.00  0.00     0.124 S 
ATOM     74  O   UNL A   1      46.224  21.621  25.278  1.00  0.00    -0.237 OA
ATOM     75  O   UNL A   1      44.350  22.393  23.864  1.00  0.00    -0.237 OA
ATOM     76  O   UNL A   1      46.468  23.653  23.908  1.00  0.00    -0.744 OA
ENDBRANCH  72  73
ENDBRANCH  53  67
BRANCH  54  77
ATOM     77  C   UNL A   1      38.833  31.631  33.417  1.00  0.00    -0.014 A 
ATOM     78  C   UNL A   1      38.479  32.961  33.731  1.00  0.00     0.010 A 
ATOM     79  C   UNL A   1      37.825  30.733  33.029  1.00  0.00     0.010 A 
ATOM     80  C   UNL A   1      37.191  33.433  33.468  1.00  0.00     0.020 A 
ATOM     81  C   UNL A   1      36.526  31.201  32.785  1.00  0.00     0.020 A 
ATOM     82  C   UNL A   1      36.243  32.563  32.930  1.00  0.00     0.054 A 
BRANCH  82  83
ATOM     83  S   UNL A   1      34.715  33.276  32.249  1.00  0.00     0.124 S 
ATOM     84  O   UNL A   1      33.790  33.167  33.371  1.00  0.00    -0.237 OA
ATOM     85  O   UNL A   1      35.134  34.636  31.907  1.00  0.00    -0.237 OA
ATOM     86  O   UNL A   1      34.425  32.416  31.106  1.00  0.00    -0.744 OA
ENDBRANCH  82  83
ENDBRANCH  54  77
BRANCH  66  87
ATOM     87  C   UNL A   1      44.024  26.684  34.571  1.00  0.00    -0.014 A 
ATOM     88  C   UNL A   1      45.118  26.951  35.412  1.00  0.00     0.010 A 
ATOM     89  C   UNL A   1      43.539  25.358  34.534  1.00  0.00     0.010 A 
ATOM     90  C   UNL A   1      45.663  25.950  36.226  1.00  0.00     0.020 A 
ATOM     91  C   UNL A   1      44.089  24.349  35.328  1.00  0.00     0.020 A 
ATOM     92  C   UNL A   1      45.137  24.656  36.188  1.00  0.00     0.054 A 
BRANCH  92  93
ATOM     93  S   UNL A   1      45.868  23.368  37.230  1.00  0.00     0.124 S 
ATOM     94  O   UNL A   1      45.312  23.666  38.549  1.00  0.00    -0.237 OA
ATOM     95  O   UNL A   1      45.365  22.151  36.599  1.00  0.00    -0.237 OA
ATOM     96  O   UNL A   1      47.306  23.591  37.102  1.00  0.00    -0.744 OA
ENDBRANCH  92  93
ENDBRANCH  66  87
ENDBRANCH  40  41
ENDBRANCH  32  35
ENDBRANCH  30  31
ENDBRANCH  29  30
ENDBRANCH  28  29
ENDBRANCH   1  28
TORSDOF 19
ENDMDL
