MODEL 1
REMARK VINA RESULT:     -11.3      0.000      0.000
REMARK SMILES O=C(Cc1ccn(-c2ccccc2F)c1)NCCCCCCNC(=O)c1ccc(-c2c3nc(c(-c4ccc(S(=O)(=O)[O-])cc4)c4ccc([nH]4)c(-c4ccc(S(=O)(=O)[O-])cc4)c4nc(c(-c5ccc(S(=O)(=O)[O-])cc5)c5ccc2[nH]5)C=C4)C=C3)cc1
REMARK SMILES IDX 20 1 19 2 18 3 17 4 16 5 1 6 2 7 3 9 4 10 5 11 15 12 6 13
REMARK SMILES IDX 7 14 8 15 9 16 13 17 10 18 12 19 14 20 11 21 21 22 22 23
REMARK SMILES IDX 23 24 24 25 25 27 26 28 27 29 85 30 28 31 84 32 29 33 30 34
REMARK SMILES IDX 31 35 78 36 32 37 83 38 77 39 79 40 33 41 82 42 76 43 75 44
REMARK SMILES IDX 34 46 64 47 45 48 63 49 46 50 49 51 62 52 80 53 47 54 48 55
REMARK SMILES IDX 61 57 81 58 50 59 35 60 36 61 44 62 37 63 43 64 38 65 39 66
REMARK SMILES IDX 40 67 41 68 42 69 65 70 66 71 74 72 67 73 73 74 68 75 69 76
REMARK SMILES IDX 70 77 71 78 72 79 51 80 52 81 60 82 53 83 59 84 54 85 55 86
REMARK SMILES IDX 56 87 57 88 58 89
REMARK H PARENT 16 8 23 26 79 45 49 56
REMARK Flexibility Score: inf
ROOT
ATOM      1  C   UNL A   1      32.636  28.387  25.868  1.00  0.00     0.002 C 
ENDROOT
BRANCH   1   2
ATOM      2  C   UNL A   1      32.272  26.905  25.715  1.00  0.00     0.002 C 
BRANCH   2   3
ATOM      3  C   UNL A   1      30.973  26.471  26.409  1.00  0.00     0.021 C 
BRANCH   3   4
ATOM      4  C   UNL A   1      29.966  25.777  25.495  1.00  0.00     0.116 C 
BRANCH   4   5
ATOM      5  N   UNL A   1      30.485  24.520  25.003  1.00  0.00    -0.356 N 
ATOM      6  O   UNL A   1      30.668  25.134  22.794  1.00  0.00    -0.275 OA
ATOM      7  C   UNL A   1      30.790  24.293  23.679  1.00  0.00     0.224 C 
ATOM      8  H   UNL A   1      30.626  23.790  25.647  1.00  0.00     0.163 HD
BRANCH   7   9
ATOM      9  C   UNL A   1      31.253  22.874  23.388  1.00  0.00     0.137 C 
BRANCH   9  10
ATOM     10  C   UNL A   1      32.379  22.408  24.265  1.00  0.00    -0.021 A 
ATOM     11  C   UNL A   1      32.301  21.402  25.265  1.00  0.00     0.024 A 
ATOM     12  C   UNL A   1      33.694  22.834  24.253  1.00  0.00     0.095 A 
ATOM     13  C   UNL A   1      33.572  21.203  25.761  1.00  0.00     0.091 A 
ATOM     14  N   UNL A   1      34.428  22.096  25.153  1.00  0.00    -0.321 N 
BRANCH  14  15
ATOM     15  C   UNL A   1      35.821  22.196  25.360  1.00  0.00     0.081 A 
ATOM     16  C   UNL A   1      36.378  23.414  25.771  1.00  0.00     0.030 A 
ATOM     17  C   UNL A   1      36.640  21.077  25.197  1.00  0.00     0.147 A 
ATOM     18  C   UNL A   1      37.745  23.487  26.048  1.00  0.00     0.002 A 
ATOM     19  C   UNL A   1      38.009  21.164  25.434  1.00  0.00     0.041 A 
ATOM     20  F   UNL A   1      36.149  19.914  24.743  1.00  0.00    -0.205 F 
ATOM     21  C   UNL A   1      38.560  22.367  25.875  1.00  0.00     0.003 A 
ENDBRANCH  14  15
ENDBRANCH   9  10
ENDBRANCH   7   9
ENDBRANCH   4   5
ENDBRANCH   3   4
ENDBRANCH   2   3
ENDBRANCH   1   2
BRANCH   1  22
ATOM     22  C   UNL A   1      34.134  28.708  25.766  1.00  0.00     0.021 C 
BRANCH  22  23
ATOM     23  C   UNL A   1      34.817  28.919  27.117  1.00  0.00     0.116 C 
BRANCH  23  24
ATOM     24  N   UNL A   1      35.275  30.292  27.259  1.00  0.00    -0.352 N 
ATOM     25  C   UNL A   1      36.343  30.790  27.960  1.00  0.00     0.251 C 
ATOM     26  H   UNL A   1      34.738  30.964  26.779  1.00  0.00     0.163 HD
ATOM     27  O   UNL A   1      36.342  31.975  28.277  1.00  0.00    -0.269 OA
BRANCH  25  28
ATOM     28  C   UNL A   1      37.487  29.932  28.344  1.00  0.00     0.039 A 
ATOM     29  C   UNL A   1      38.603  29.912  27.497  1.00  0.00     0.014 A 
ATOM     30  C   UNL A   1      37.432  29.080  29.453  1.00  0.00     0.014 A 
ATOM     31  C   UNL A   1      39.680  29.080  27.792  1.00  0.00     0.010 A 
ATOM     32  C   UNL A   1      38.516  28.261  29.762  1.00  0.00     0.010 A 
ATOM     33  C   UNL A   1      39.646  28.272  28.937  1.00  0.00    -0.014 A 
BRANCH  33  34
ATOM     34  C   UNL A   1      40.893  27.594  29.362  1.00  0.00     0.031 A 
ATOM     35  C   UNL A   1      41.151  26.331  28.510  1.00  0.00     0.074 A 
ATOM     36  C   UNL A   1      41.567  28.128  30.430  1.00  0.00     0.049 A 
ATOM     37  N   UNL A   1      41.785  25.243  28.814  1.00  0.00    -0.248 NA
ATOM     38  C   UNL A   1      40.558  26.224  27.143  1.00  0.00     0.031 C 
ATOM     39  C   UNL A   1      41.219  29.408  31.095  1.00  0.00     0.029 A 
ATOM     40  N   UNL A   1      42.664  27.735  31.175  1.00  0.00    -0.354 N 
ATOM     41  C   UNL A   1      41.818  24.414  27.665  1.00  0.00     0.074 A 
ATOM     42  C   UNL A   1      40.963  25.031  26.699  1.00  0.00     0.031 C 
ATOM     43  C   UNL A   1      42.014  29.636  32.167  1.00  0.00     0.029 A 
ATOM     44  C   UNL A   1      42.962  28.548  32.309  1.00  0.00     0.049 A 
ATOM     45  H   UNL A   1      43.204  26.947  30.939  1.00  0.00     0.167 HD
ATOM     46  C   UNL A   1      42.651  23.337  27.548  1.00  0.00     0.031 A 
ATOM     47  C   UNL A   1      43.876  28.342  33.311  1.00  0.00     0.031 A 
ATOM     48  C   UNL A   1      43.378  23.167  28.759  1.00  0.00     0.049 A 
ATOM     49  C   UNL A   1      44.658  27.175  32.888  1.00  0.00     0.074 A 
ATOM     50  C   UNL A   1      42.998  22.754  30.009  1.00  0.00     0.029 A 
ATOM     51  N   UNL A   1      44.577  23.835  28.837  1.00  0.00    -0.354 N 
ATOM     52  N   UNL A   1      45.565  27.191  31.962  1.00  0.00    -0.248 NA
ATOM     53  C   UNL A   1      44.396  25.875  33.518  1.00  0.00     0.031 C 
ATOM     54  C   UNL A   1      43.701  23.637  30.851  1.00  0.00     0.029 A 
ATOM     55  C   UNL A   1      44.653  24.345  30.106  1.00  0.00     0.049 A 
ATOM     56  H   UNL A   1      45.248  23.928  28.124  1.00  0.00     0.167 HD
ATOM     57  C   UNL A   1      45.647  25.866  31.627  1.00  0.00     0.074 A 
ATOM     58  C   UNL A   1      45.215  25.119  32.791  1.00  0.00     0.031 C 
ATOM     59  C   UNL A   1      45.474  25.508  30.328  1.00  0.00     0.031 A 
BRANCH  46  60
ATOM     60  C   UNL A   1      43.105  22.507  26.375  1.00  0.00    -0.014 A 
ATOM     61  C   UNL A   1      42.631  21.168  26.317  1.00  0.00     0.010 A 
ATOM     62  C   UNL A   1      44.197  22.839  25.563  1.00  0.00     0.010 A 
ATOM     63  C   UNL A   1      43.303  20.173  25.608  1.00  0.00     0.020 A 
ATOM     64  C   UNL A   1      44.856  21.847  24.810  1.00  0.00     0.020 A 
ATOM     65  C   UNL A   1      44.437  20.515  24.882  1.00  0.00     0.054 A 
BRANCH  65  66
ATOM     66  S   UNL A   1      45.387  19.178  24.107  1.00  0.00     0.124 S 
ATOM     67  O   UNL A   1      44.748  19.063  22.800  1.00  0.00    -0.237 OA
ATOM     68  O   UNL A   1      46.744  19.723  24.093  1.00  0.00    -0.237 OA
ATOM     69  O   UNL A   1      45.188  18.047  25.009  1.00  0.00    -0.744 OA
ENDBRANCH  65  66
ENDBRANCH  46  60
BRANCH  47  70
ATOM     70  C   UNL A   1      44.246  28.871  34.686  1.00  0.00    -0.014 A 
ATOM     71  C   UNL A   1      43.631  28.559  35.902  1.00  0.00     0.010 A 
ATOM     72  C   UNL A   1      45.436  29.656  34.789  1.00  0.00     0.010 A 
ATOM     73  C   UNL A   1      44.261  28.870  37.137  1.00  0.00     0.020 A 
ATOM     74  C   UNL A   1      46.096  29.917  35.991  1.00  0.00     0.020 A 
ATOM     75  C   UNL A   1      45.518  29.489  37.170  1.00  0.00     0.054 A 
BRANCH  75  76
ATOM     76  S   UNL A   1      46.483  29.598  38.707  1.00  0.00     0.124 S 
ATOM     77  O   UNL A   1      47.326  30.765  38.470  1.00  0.00    -0.237 OA
ATOM     78  O   UNL A   1      45.448  29.760  39.725  1.00  0.00    -0.237 OA
ATOM     79  O   UNL A   1      47.190  28.318  38.761  1.00  0.00    -0.744 OA
ENDBRANCH  75  76
ENDBRANCH  47  70
BRANCH  59  80
ATOM     80  C   UNL A   1      45.807  26.589  29.301  1.00  0.00    -0.014 A 
ATOM     81  C   UNL A   1      44.755  27.277  28.663  1.00  0.00     0.010 A 
ATOM     82  C   UNL A   1      47.116  26.880  28.866  1.00  0.00     0.010 A 
ATOM     83  C   UNL A   1      44.989  28.196  27.630  1.00  0.00     0.020 A 
ATOM     84  C   UNL A   1      47.365  27.806  27.830  1.00  0.00     0.020 A 
ATOM     85  C   UNL A   1      46.294  28.460  27.217  1.00  0.00     0.054 A 
BRANCH  85  86
ATOM     86  S   UNL A   1      46.554  29.661  25.876  1.00  0.00     0.124 S 
ATOM     87  O   UNL A   1      45.406  30.553  26.010  1.00  0.00    -0.237 OA
ATOM     88  O   UNL A   1      47.845  30.250  26.224  1.00  0.00    -0.237 OA
ATOM     89  O   UNL A   1      46.554  28.841  24.664  1.00  0.00    -0.744 OA
ENDBRANCH  85  86
ENDBRANCH  59  80
ENDBRANCH  33  34
ENDBRANCH  25  28
ENDBRANCH  23  24
ENDBRANCH  22  23
ENDBRANCH   1  22
TORSDOF 18
ENDMDL
MODEL 2
REMARK VINA RESULT:     -10.8      4.539     10.195
REMARK SMILES O=C(Cc1ccn(-c2ccccc2F)c1)NCCCCCCNC(=O)c1ccc(-c2c3nc(c(-c4ccc(S(=O)(=O)[O-])cc4)c4ccc([nH]4)c(-c4ccc(S(=O)(=O)[O-])cc4)c4nc(c(-c5ccc(S(=O)(=O)[O-])cc5)c5ccc2[nH]5)C=C4)C=C3)cc1
REMARK SMILES IDX 20 1 19 2 18 3 17 4 16 5 1 6 2 7 3 9 4 10 5 11 15 12 6 13
REMARK SMILES IDX 7 14 8 15 9 16 13 17 10 18 12 19 14 20 11 21 21 22 22 23
REMARK SMILES IDX 23 24 24 25 25 27 26 28 27 29 85 30 28 31 84 32 29 33 30 34
REMARK SMILES IDX 31 35 78 36 32 37 83 38 77 39 79 40 33 41 82 42 76 43 75 44
REMARK SMILES IDX 34 46 64 47 45 48 63 49 46 50 49 51 62 52 80 53 47 54 48 55
REMARK SMILES IDX 61 57 81 58 50 59 35 60 36 61 44 62 37 63 43 64 38 65 39 66
REMARK SMILES IDX 40 67 41 68 42 69 65 70 66 71 74 72 67 73 73 74 68 75 69 76
REMARK SMILES IDX 70 77 71 78 72 79 51 80 52 81 60 82 53 83 59 84 54 85 55 86
REMARK SMILES IDX 56 87 57 88 58 89
REMARK H PARENT 16 8 23 26 79 45 49 56
REMARK Flexibility Score: inf
ROOT
ATOM      1  C   UNL A   1      35.005  23.894  25.685  1.00  0.00     0.002 C 
ENDROOT
BRANCH   1   2
ATOM      2  C   UNL A   1      33.933  23.533  26.721  1.00  0.00     0.002 C 
BRANCH   2   3
ATOM      3  C   UNL A   1      34.230  22.290  27.571  1.00  0.00     0.021 C 
BRANCH   3   4
ATOM      4  C   UNL A   1      33.432  21.047  27.182  1.00  0.00     0.116 C 
BRANCH   4   5
ATOM      5  N   UNL A   1      32.782  21.222  25.902  1.00  0.00    -0.356 N 
ATOM      6  O   UNL A   1      34.060  19.714  24.726  1.00  0.00    -0.275 OA
ATOM      7  C   UNL A   1      33.154  20.543  24.763  1.00  0.00     0.224 C 
ATOM      8  H   UNL A   1      32.035  21.860  25.842  1.00  0.00     0.163 HD
BRANCH   7   9
ATOM      9  C   UNL A   1      32.373  20.944  23.522  1.00  0.00     0.137 C 
BRANCH   9  10
ATOM     10  C   UNL A   1      32.490  22.399  23.173  1.00  0.00    -0.021 A 
ATOM     11  C   UNL A   1      33.315  22.954  22.157  1.00  0.00     0.024 A 
ATOM     12  C   UNL A   1      31.810  23.463  23.736  1.00  0.00     0.095 A 
ATOM     13  C   UNL A   1      33.049  24.305  22.091  1.00  0.00     0.091 A 
ATOM     14  N   UNL A   1      32.137  24.624  23.074  1.00  0.00    -0.321 N 
BRANCH  14  15
ATOM     15  C   UNL A   1      31.580  25.898  23.319  1.00  0.00     0.081 A 
ATOM     16  C   UNL A   1      31.436  26.352  24.636  1.00  0.00     0.030 A 
ATOM     17  C   UNL A   1      31.212  26.723  22.255  1.00  0.00     0.147 A 
ATOM     18  C   UNL A   1      30.956  27.643  24.871  1.00  0.00     0.002 A 
ATOM     19  C   UNL A   1      30.694  27.994  22.494  1.00  0.00     0.041 A 
ATOM     20  F   UNL A   1      31.276  26.295  20.985  1.00  0.00    -0.205 F 
ATOM     21  C   UNL A   1      30.581  28.460  23.803  1.00  0.00     0.003 A 
ENDBRANCH  14  15
ENDBRANCH   9  10
ENDBRANCH   7   9
ENDBRANCH   4   5
ENDBRANCH   3   4
ENDBRANCH   2   3
ENDBRANCH   1   2
BRANCH   1  22
ATOM     22  C   UNL A   1      36.361  23.200  25.879  1.00  0.00     0.021 C 
BRANCH  22  23
ATOM     23  C   UNL A   1      37.518  24.163  26.148  1.00  0.00     0.116 C 
BRANCH  23  24
ATOM     24  N   UNL A   1      38.641  23.469  26.756  1.00  0.00    -0.352 N 
ATOM     25  C   UNL A   1      39.819  23.971  27.247  1.00  0.00     0.251 C 
ATOM     26  H   UNL A   1      38.541  22.492  26.826  1.00  0.00     0.163 HD
ATOM     27  O   UNL A   1      40.783  23.220  27.356  1.00  0.00    -0.269 OA
BRANCH  25  28
ATOM     28  C   UNL A   1      39.952  25.392  27.638  1.00  0.00     0.039 A 
ATOM     29  C   UNL A   1      39.588  25.749  28.943  1.00  0.00     0.014 A 
ATOM     30  C   UNL A   1      40.323  26.381  26.720  1.00  0.00     0.014 A 
ATOM     31  C   UNL A   1      39.648  27.082  29.340  1.00  0.00     0.010 A 
ATOM     32  C   UNL A   1      40.403  27.714  27.118  1.00  0.00     0.010 A 
ATOM     33  C   UNL A   1      40.078  28.061  28.433  1.00  0.00    -0.014 A 
BRANCH  33  34
ATOM     34  C   UNL A   1      40.373  29.420  28.946  1.00  0.00     0.031 A 
ATOM     35  C   UNL A   1      39.067  30.196  29.232  1.00  0.00     0.074 A 
ATOM     36  C   UNL A   1      41.691  29.788  29.031  1.00  0.00     0.049 A 
ATOM     37  N   UNL A   1      38.841  31.471  29.214  1.00  0.00    -0.248 NA
ATOM     38  C   UNL A   1      37.804  29.447  29.507  1.00  0.00     0.031 C 
ATOM     39  C   UNL A   1      42.839  28.882  28.786  1.00  0.00     0.029 A 
ATOM     40  N   UNL A   1      42.347  30.966  29.337  1.00  0.00    -0.354 N 
ATOM     41  C   UNL A   1      37.504  31.690  29.628  1.00  0.00     0.074 A 
ATOM     42  C   UNL A   1      36.889  30.401  29.700  1.00  0.00     0.031 C 
ATOM     43  C   UNL A   1      44.015  29.547  28.868  1.00  0.00     0.029 A 
ATOM     44  C   UNL A   1      43.765  30.940  29.182  1.00  0.00     0.049 A 
ATOM     45  H   UNL A   1      41.868  31.771  29.642  1.00  0.00     0.167 HD
ATOM     46  C   UNL A   1      37.032  32.917  30.002  1.00  0.00     0.031 A 
ATOM     47  C   UNL A   1      44.668  31.969  29.262  1.00  0.00     0.031 A 
ATOM     48  C   UNL A   1      38.055  33.890  29.832  1.00  0.00     0.049 A 
ATOM     49  C   UNL A   1      43.899  33.123  29.741  1.00  0.00     0.074 A 
ATOM     50  C   UNL A   1      38.626  34.437  28.713  1.00  0.00     0.029 A 
ATOM     51  N   UNL A   1      38.875  34.095  30.917  1.00  0.00    -0.354 N 
ATOM     52  N   UNL A   1      43.495  33.285  30.962  1.00  0.00    -0.248 NA
ATOM     53  C   UNL A   1      43.518  34.172  28.786  1.00  0.00     0.031 C 
ATOM     54  C   UNL A   1      39.992  34.480  29.054  1.00  0.00     0.029 A 
ATOM     55  C   UNL A   1      40.146  34.218  30.422  1.00  0.00     0.049 A 
ATOM     56  H   UNL A   1      38.603  34.143  31.861  1.00  0.00     0.167 HD
ATOM     57  C   UNL A   1      42.484  34.196  30.805  1.00  0.00     0.074 A 
ATOM     58  C   UNL A   1      42.777  34.930  29.590  1.00  0.00     0.031 C 
ATOM     59  C   UNL A   1      41.251  33.893  31.288  1.00  0.00     0.031 A 
BRANCH  46  60
ATOM     60  C   UNL A   1      35.804  33.364  30.753  1.00  0.00    -0.014 A 
ATOM     61  C   UNL A   1      34.698  33.795  29.969  1.00  0.00     0.010 A 
ATOM     62  C   UNL A   1      35.802  33.703  32.111  1.00  0.00     0.010 A 
ATOM     63  C   UNL A   1      33.720  34.651  30.476  1.00  0.00     0.020 A 
ATOM     64  C   UNL A   1      34.794  34.534  32.640  1.00  0.00     0.020 A 
ATOM     65  C   UNL A   1      33.794  35.044  31.806  1.00  0.00     0.054 A 
BRANCH  65  66
ATOM     66  S   UNL A   1      32.611  36.287  32.393  1.00  0.00     0.124 S 
ATOM     67  O   UNL A   1      32.452  37.142  31.221  1.00  0.00    -0.237 OA
ATOM     68  O   UNL A   1      31.444  35.474  32.736  1.00  0.00    -0.237 OA
ATOM     69  O   UNL A   1      33.290  36.897  33.533  1.00  0.00    -0.744 OA
ENDBRANCH  65  66
ENDBRANCH  46  60
BRANCH  47  70
ATOM     70  C   UNL A   1      46.120  32.283  28.940  1.00  0.00    -0.014 A 
ATOM     71  C   UNL A   1      46.963  31.575  28.080  1.00  0.00     0.010 A 
ATOM     72  C   UNL A   1      46.654  33.507  29.447  1.00  0.00     0.010 A 
ATOM     73  C   UNL A   1      48.185  32.143  27.628  1.00  0.00     0.020 A 
ATOM     74  C   UNL A   1      47.823  34.104  28.969  1.00  0.00     0.020 A 
ATOM     75  C   UNL A   1      48.573  33.429  28.027  1.00  0.00     0.054 A 
BRANCH  75  76
ATOM     76  S   UNL A   1      49.948  34.299  27.216  1.00  0.00     0.124 S 
ATOM     77  O   UNL A   1      51.043  33.343  27.337  1.00  0.00    -0.237 OA
ATOM     78  O   UNL A   1      49.440  34.513  25.863  1.00  0.00    -0.237 OA
ATOM     79  O   UNL A   1      50.096  35.521  28.008  1.00  0.00    -0.744 OA
ENDBRANCH  75  76
ENDBRANCH  47  70
BRANCH  59  80
ATOM     80  C   UNL A   1      41.228  32.904  32.451  1.00  0.00    -0.014 A 
ATOM     81  C   UNL A   1      40.762  31.592  32.228  1.00  0.00     0.010 A 
ATOM     82  C   UNL A   1      41.550  33.249  33.780  1.00  0.00     0.010 A 
ATOM     83  C   UNL A   1      40.607  30.672  33.274  1.00  0.00     0.020 A 
ATOM     84  C   UNL A   1      41.403  32.330  34.841  1.00  0.00     0.020 A 
ATOM     85  C   UNL A   1      40.929  31.043  34.579  1.00  0.00     0.054 A 
BRANCH  85  86
ATOM     86  S   UNL A   1      40.715  29.819  35.908  1.00  0.00     0.124 S 
ATOM     87  O   UNL A   1      41.673  30.263  36.917  1.00  0.00    -0.237 OA
ATOM     88  O   UNL A   1      39.309  29.986  36.269  1.00  0.00    -0.237 OA
ATOM     89  O   UNL A   1      41.044  28.545  35.270  1.00  0.00    -0.744 OA
ENDBRANCH  85  86
ENDBRANCH  59  80
ENDBRANCH  33  34
ENDBRANCH  25  28
ENDBRANCH  23  24
ENDBRANCH  22  23
ENDBRANCH   1  22
TORSDOF 18
ENDMDL
MODEL 3
REMARK VINA RESULT:     -10.7      3.321      8.871
REMARK SMILES O=C(Cc1ccn(-c2ccccc2F)c1)NCCCCCCNC(=O)c1ccc(-c2c3nc(c(-c4ccc(S(=O)(=O)[O-])cc4)c4ccc([nH]4)c(-c4ccc(S(=O)(=O)[O-])cc4)c4nc(c(-c5ccc(S(=O)(=O)[O-])cc5)c5ccc2[nH]5)C=C4)C=C3)cc1
REMARK SMILES IDX 20 1 19 2 18 3 17 4 16 5 1 6 2 7 3 9 4 10 5 11 15 12 6 13
REMARK SMILES IDX 7 14 8 15 9 16 13 17 10 18 12 19 14 20 11 21 21 22 22 23
REMARK SMILES IDX 23 24 24 25 25 27 26 28 27 29 85 30 28 31 84 32 29 33 30 34
REMARK SMILES IDX 31 35 78 36 32 37 83 38 77 39 79 40 33 41 82 42 76 43 75 44
REMARK SMILES IDX 34 46 64 47 45 48 63 49 46 50 49 51 62 52 80 53 47 54 48 55
REMARK SMILES IDX 61 57 81 58 50 59 35 60 36 61 44 62 37 63 43 64 38 65 39 66
REMARK SMILES IDX 40 67 41 68 42 69 65 70 66 71 74 72 67 73 73 74 68 75 69 76
REMARK SMILES IDX 70 77 71 78 72 79 51 80 52 81 60 82 53 83 59 84 54 85 55 86
REMARK SMILES IDX 56 87 57 88 58 89
REMARK H PARENT 16 8 23 26 79 45 49 56
REMARK Flexibility Score: inf
ROOT
ATOM      1  C   UNL A   1      37.835  23.270  25.583  1.00  0.00     0.002 C 
ENDROOT
BRANCH   1   2
ATOM      2  C   UNL A   1      36.311  23.229  25.748  1.00  0.00     0.002 C 
BRANCH   2   3
ATOM      3  C   UNL A   1      35.708  21.833  25.957  1.00  0.00     0.021 C 
BRANCH   3   4
ATOM      4  C   UNL A   1      34.641  21.442  24.938  1.00  0.00     0.116 C 
BRANCH   4   5
ATOM      5  N   UNL A   1      34.394  22.515  24.000  1.00  0.00    -0.356 N 
ATOM      6  O   UNL A   1      32.391  21.727  23.189  1.00  0.00    -0.275 OA
ATOM      7  C   UNL A   1      33.283  22.570  23.187  1.00  0.00     0.224 C 
ATOM      8  H   UNL A   1      35.054  23.242  23.940  1.00  0.00     0.163 HD
BRANCH   7   9
ATOM      9  C   UNL A   1      33.275  23.755  22.234  1.00  0.00     0.137 C 
BRANCH   9  10
ATOM     10  C   UNL A   1      32.732  25.018  22.837  1.00  0.00    -0.021 A 
ATOM     11  C   UNL A   1      31.432  25.554  22.632  1.00  0.00     0.024 A 
ATOM     12  C   UNL A   1      33.364  25.876  23.718  1.00  0.00     0.095 A 
ATOM     13  C   UNL A   1      31.299  26.659  23.445  1.00  0.00     0.091 A 
ATOM     14  N   UNL A   1      32.493  26.870  24.101  1.00  0.00    -0.321 N 
BRANCH  14  15
ATOM     15  C   UNL A   1      32.761  27.881  25.050  1.00  0.00     0.081 A 
ATOM     16  C   UNL A   1      32.092  29.108  24.967  1.00  0.00     0.030 A 
ATOM     17  C   UNL A   1      33.659  27.648  26.093  1.00  0.00     0.147 A 
ATOM     18  C   UNL A   1      32.303  30.076  25.952  1.00  0.00     0.002 A 
ATOM     19  C   UNL A   1      33.900  28.631  27.050  1.00  0.00     0.041 A 
ATOM     20  F   UNL A   1      34.365  26.509  26.165  1.00  0.00    -0.205 F 
ATOM     21  C   UNL A   1      33.210  29.841  26.988  1.00  0.00     0.003 A 
ENDBRANCH  14  15
ENDBRANCH   9  10
ENDBRANCH   7   9
ENDBRANCH   4   5
ENDBRANCH   3   4
ENDBRANCH   2   3
ENDBRANCH   1   2
BRANCH   1  22
ATOM     22  C   UNL A   1      38.516  21.900  25.450  1.00  0.00     0.021 C 
BRANCH  22  23
ATOM     23  C   UNL A   1      39.517  21.594  26.564  1.00  0.00     0.116 C 
BRANCH  23  24
ATOM     24  N   UNL A   1      40.872  21.529  26.041  1.00  0.00    -0.352 N 
ATOM     25  C   UNL A   1      41.784  22.534  25.842  1.00  0.00     0.251 C 
ATOM     26  H   UNL A   1      41.182  20.627  25.794  1.00  0.00     0.163 HD
ATOM     27  O   UNL A   1      42.702  22.352  25.049  1.00  0.00    -0.269 OA
BRANCH  25  28
ATOM     28  C   UNL A   1      41.679  23.828  26.554  1.00  0.00     0.039 A 
ATOM     29  C   UNL A   1      41.178  23.816  27.862  1.00  0.00     0.014 A 
ATOM     30  C   UNL A   1      41.962  25.044  25.922  1.00  0.00     0.014 A 
ATOM     31  C   UNL A   1      41.014  25.014  28.552  1.00  0.00     0.010 A 
ATOM     32  C   UNL A   1      41.817  26.244  26.616  1.00  0.00     0.010 A 
ATOM     33  C   UNL A   1      41.355  26.226  27.936  1.00  0.00    -0.014 A 
BRANCH  33  34
ATOM     34  C   UNL A   1      41.412  27.451  28.768  1.00  0.00     0.031 A 
ATOM     35  C   UNL A   1      42.658  27.438  29.683  1.00  0.00     0.074 A 
ATOM     36  C   UNL A   1      40.375  28.340  28.651  1.00  0.00     0.049 A 
ATOM     37  N   UNL A   1      42.844  27.999  30.836  1.00  0.00    -0.248 NA
ATOM     38  C   UNL A   1      43.849  26.623  29.302  1.00  0.00     0.031 C 
ATOM     39  C   UNL A   1      39.281  28.237  27.655  1.00  0.00     0.029 A 
ATOM     40  N   UNL A   1      40.015  29.499  29.316  1.00  0.00    -0.354 N 
ATOM     41  C   UNL A   1      44.184  27.761  31.233  1.00  0.00     0.074 A 
ATOM     42  C   UNL A   1      44.722  26.827  30.293  1.00  0.00     0.031 C 
ATOM     43  C   UNL A   1      38.361  29.214  27.832  1.00  0.00     0.029 A 
ATOM     44  C   UNL A   1      38.757  30.057  28.943  1.00  0.00     0.049 A 
ATOM     45  H   UNL A   1      40.589  29.910  30.002  1.00  0.00     0.167 HD
ATOM     46  C   UNL A   1      44.794  28.451  32.242  1.00  0.00     0.031 A 
ATOM     47  C   UNL A   1      38.064  31.096  29.511  1.00  0.00     0.031 A 
ATOM     48  C   UNL A   1      43.861  29.344  32.837  1.00  0.00     0.049 A 
ATOM     49  C   UNL A   1      38.978  31.678  30.500  1.00  0.00     0.074 A 
ATOM     50  C   UNL A   1      42.763  29.132  33.629  1.00  0.00     0.029 A 
ATOM     51  N   UNL A   1      43.798  30.601  32.285  1.00  0.00    -0.354 N 
ATOM     52  N   UNL A   1      40.002  32.418  30.213  1.00  0.00    -0.248 NA
ATOM     53  C   UNL A   1      38.762  31.391  31.924  1.00  0.00     0.031 C 
ATOM     54  C   UNL A   1      41.828  30.048  33.109  1.00  0.00     0.029 A 
ATOM     55  C   UNL A   1      42.470  30.933  32.233  1.00  0.00     0.049 A 
ATOM     56  H   UNL A   1      44.555  31.153  31.986  1.00  0.00     0.167 HD
ATOM     57  C   UNL A   1      40.755  32.311  31.352  1.00  0.00     0.074 A 
ATOM     58  C   UNL A   1      39.834  32.000  32.427  1.00  0.00     0.031 C 
ATOM     59  C   UNL A   1      42.043  31.893  31.246  1.00  0.00     0.031 A 
BRANCH  46  60
ATOM     60  C   UNL A   1      46.235  28.622  32.649  1.00  0.00    -0.014 A 
ATOM     61  C   UNL A   1      46.482  28.909  34.020  1.00  0.00     0.010 A 
ATOM     62  C   UNL A   1      47.277  28.858  31.744  1.00  0.00     0.010 A 
ATOM     63  C   UNL A   1      47.649  29.543  34.446  1.00  0.00     0.020 A 
ATOM     64  C   UNL A   1      48.475  29.461  32.174  1.00  0.00     0.020 A 
ATOM     65  C   UNL A   1      48.629  29.847  33.509  1.00  0.00     0.054 A 
BRANCH  65  66
ATOM     66  S   UNL A   1      50.058  30.819  34.058  1.00  0.00     0.124 S 
ATOM     67  O   UNL A   1      50.904  29.803  34.678  1.00  0.00    -0.237 OA
ATOM     68  O   UNL A   1      50.565  31.372  32.802  1.00  0.00    -0.237 OA
ATOM     69  O   UNL A   1      49.478  31.800  34.971  1.00  0.00    -0.744 OA
ENDBRANCH  65  66
ENDBRANCH  46  60
BRANCH  47  70
ATOM     70  C   UNL A   1      36.686  31.737  29.489  1.00  0.00    -0.014 A 
ATOM     71  C   UNL A   1      35.949  32.188  30.587  1.00  0.00     0.010 A 
ATOM     72  C   UNL A   1      36.130  32.055  28.211  1.00  0.00     0.010 A 
ATOM     73  C   UNL A   1      34.827  33.041  30.411  1.00  0.00     0.020 A 
ATOM     74  C   UNL A   1      35.066  32.939  28.022  1.00  0.00     0.020 A 
ATOM     75  C   UNL A   1      34.435  33.461  29.133  1.00  0.00     0.054 A 
BRANCH  75  76
ATOM     76  S   UNL A   1      33.224  34.798  28.903  1.00  0.00     0.124 S 
ATOM     77  O   UNL A   1      32.317  34.236  27.907  1.00  0.00    -0.237 OA
ATOM     78  O   UNL A   1      32.669  34.962  30.244  1.00  0.00    -0.237 OA
ATOM     79  O   UNL A   1      34.037  35.923  28.442  1.00  0.00    -0.744 OA
ENDBRANCH  75  76
ENDBRANCH  47  70
BRANCH  59  80
ATOM     80  C   UNL A   1      42.710  32.162  29.899  1.00  0.00    -0.014 A 
ATOM     81  C   UNL A   1      43.042  31.073  29.067  1.00  0.00     0.010 A 
ATOM     82  C   UNL A   1      43.118  33.442  29.468  1.00  0.00     0.010 A 
ATOM     83  C   UNL A   1      43.758  31.243  27.874  1.00  0.00     0.020 A 
ATOM     84  C   UNL A   1      43.835  33.626  28.266  1.00  0.00     0.020 A 
ATOM     85  C   UNL A   1      44.152  32.520  27.475  1.00  0.00     0.054 A 
BRANCH  85  86
ATOM     86  S   UNL A   1      45.078  32.696  25.919  1.00  0.00     0.124 S 
ATOM     87  O   UNL A   1      45.692  31.382  25.755  1.00  0.00    -0.237 OA
ATOM     88  O   UNL A   1      44.025  33.016  24.958  1.00  0.00    -0.237 OA
ATOM     89  O   UNL A   1      46.019  33.783  26.190  1.00  0.00    -0.744 OA
ENDBRANCH  85  86
ENDBRANCH  59  80
ENDBRANCH  33  34
ENDBRANCH  25  28
ENDBRANCH  23  24
ENDBRANCH  22  23
ENDBRANCH   1  22
TORSDOF 18
ENDMDL
