MODEL 1
REMARK VINA RESULT:     -10.3      0.000      0.000
REMARK SMILES CC[N@H+]1CCC[C@@H]1C[N@@H+](C)C[C@H]([NH3+])C(=O)NCCCCCCNC(=O)c1ccc(-c2c3nc(c(-c4ccc(S(=O)(=O)[O-])cc4)c4ccc([nH]4)c(-c4ccc(S(=O)(=O)[O-])cc4)c4nc(c(-c5ccc(S(=O)(=O)[O-])cc5)c5ccc2[nH]5)C=C4)C=C3)cc1
REMARK SMILES IDX 18 1 17 2 16 3 14 4 15 5 12 7 11 8 9 9 10 10 8 12 7 13 3 14
REMARK SMILES IDX 4 15 5 17 6 18 2 19 1 20 13 21 19 25 20 26 21 27 22 28 23 29
REMARK SMILES IDX 24 30 25 32 26 33 27 34 85 35 28 36 84 37 29 38 30 39 31 40
REMARK SMILES IDX 78 41 32 42 83 43 77 44 79 45 33 46 82 47 76 48 75 49 34 51
REMARK SMILES IDX 64 52 45 53 63 54 46 55 49 56 62 57 80 58 47 59 48 60 61 62
REMARK SMILES IDX 81 63 50 64 35 65 36 66 44 67 37 68 43 69 38 70 39 71 40 72
REMARK SMILES IDX 41 73 42 74 65 75 66 76 74 77 67 78 73 79 68 80 69 81 70 82
REMARK SMILES IDX 71 83 72 84 51 85 52 86 60 87 53 88 59 89 54 90 55 91 56 92
REMARK SMILES IDX 57 93 58 94
REMARK H PARENT 16 6 9 11 3 16 13 22 13 23 13 24 23 31 79 50 49 61
REMARK Flexibility Score: inf
ROOT
ATOM      1  C   UNL A   1      37.459  21.098  24.724  1.00  0.00     0.021 C 
ENDROOT
BRANCH   1   2
ATOM      2  C   UNL A   1      36.079  20.647  25.200  1.00  0.00     0.116 C 
BRANCH   2   3
ATOM      3  N   UNL A   1      35.751  19.245  25.005  1.00  0.00    -0.351 N 
ATOM      4  C   UNL A   1      34.551  18.684  24.636  1.00  0.00     0.284 C 
ATOM      5  O   UNL A   1      34.615  17.654  23.951  1.00  0.00    -0.268 OA
ATOM      6  H   UNL A   1      36.489  18.611  25.157  1.00  0.00     0.163 HD
BRANCH   4   7
ATOM      7  C   UNL A   1      33.169  19.191  25.133  1.00  0.00     0.326 C 
BRANCH   7   8
ATOM      8  C   UNL A   1      32.505  20.480  24.540  1.00  0.00     0.338 C 
BRANCH   8   9
ATOM      9  N   UNL A   1      33.051  21.851  24.548  1.00  0.00    -0.327 N 
ATOM     10  C   UNL A   1      32.608  22.541  25.776  1.00  0.00     0.333 C 
ATOM     11  H   UNL A   1      34.061  21.719  24.500  1.00  0.00     0.348 HD
BRANCH   9  12
ATOM     12  C   UNL A   1      32.726  22.702  23.397  1.00  0.00     0.327 C 
BRANCH  12  13
ATOM     13  C   UNL A   1      32.643  24.265  23.375  1.00  0.00     0.239 C 
ATOM     14  N   UNL A   1      31.353  24.680  22.752  1.00  0.00    -0.328 N 
ATOM     15  C   UNL A   1      31.573  25.980  22.105  1.00  0.00     0.262 C 
ATOM     16  H   UNL A   1      31.098  23.948  22.089  1.00  0.00     0.348 HD
ATOM     17  C   UNL A   1      32.968  25.850  21.544  1.00  0.00     0.068 C 
ATOM     18  C   UNL A   1      33.708  25.060  22.611  1.00  0.00     0.077 C 
BRANCH  14  19
ATOM     19  C   UNL A   1      30.199  24.753  23.657  1.00  0.00     0.259 C 
ATOM     20  C   UNL A   1      29.623  26.150  23.874  1.00  0.00     0.071 C 
ENDBRANCH  14  19
ENDBRANCH  12  13
ENDBRANCH   9  12
ENDBRANCH   8   9
ENDBRANCH   7   8
BRANCH   7  21
ATOM     21  N   UNL A   1      32.965  19.017  26.590  1.00  0.00    -0.343 N 
ATOM     22  H   UNL A   1      33.800  19.325  27.088  1.00  0.00     0.345 HD
ATOM     23  H   UNL A   1      32.790  18.033  26.794  1.00  0.00     0.345 HD
ATOM     24  H   UNL A   1      32.166  19.574  26.889  1.00  0.00     0.345 HD
ENDBRANCH   7  21
ENDBRANCH   4   7
ENDBRANCH   2   3
ENDBRANCH   1   2
BRANCH   1  25
ATOM     25  C   UNL A   1      38.607  21.066  25.745  1.00  0.00     0.002 C 
BRANCH  25  26
ATOM     26  C   UNL A   1      39.171  22.387  26.289  1.00  0.00     0.002 C 
BRANCH  26  27
ATOM     27  C   UNL A   1      40.191  22.356  27.432  1.00  0.00     0.021 C 
BRANCH  27  28
ATOM     28  C   UNL A   1      41.569  22.983  27.228  1.00  0.00     0.116 C 
BRANCH  28  29
ATOM     29  N   UNL A   1      41.596  23.935  26.134  1.00  0.00    -0.352 N 
ATOM     30  C   UNL A   1      41.383  25.294  26.111  1.00  0.00     0.251 C 
ATOM     31  H   UNL A   1      41.802  23.540  25.256  1.00  0.00     0.163 HD
ATOM     32  O   UNL A   1      41.233  25.835  25.016  1.00  0.00    -0.269 OA
BRANCH  30  33
ATOM     33  C   UNL A   1      41.331  26.137  27.342  1.00  0.00     0.039 A 
ATOM     34  C   UNL A   1      40.203  26.029  28.168  1.00  0.00     0.014 A 
ATOM     35  C   UNL A   1      42.281  27.122  27.631  1.00  0.00     0.014 A 
ATOM     36  C   UNL A   1      40.030  26.885  29.265  1.00  0.00     0.010 A 
ATOM     37  C   UNL A   1      42.134  27.944  28.761  1.00  0.00     0.010 A 
ATOM     38  C   UNL A   1      40.994  27.855  29.578  1.00  0.00    -0.014 A 
BRANCH  38  39
ATOM     39  C   UNL A   1      40.789  28.798  30.718  1.00  0.00     0.031 A 
ATOM     40  C   UNL A   1      41.638  28.698  31.964  1.00  0.00     0.074 A 
ATOM     41  C   UNL A   1      39.832  29.746  30.649  1.00  0.00     0.049 A 
ATOM     42  N   UNL A   1      41.606  29.435  33.048  1.00  0.00    -0.248 NA
ATOM     43  C   UNL A   1      42.640  27.621  32.004  1.00  0.00     0.031 C 
ATOM     44  C   UNL A   1      38.916  29.942  29.525  1.00  0.00     0.029 A 
ATOM     45  N   UNL A   1      39.468  30.723  31.547  1.00  0.00    -0.354 N 
ATOM     46  C   UNL A   1      42.566  28.900  33.903  1.00  0.00     0.074 A 
ATOM     47  C   UNL A   1      43.136  27.755  33.226  1.00  0.00     0.031 C 
ATOM     48  C   UNL A   1      38.110  30.984  29.791  1.00  0.00     0.029 A 
ATOM     49  C   UNL A   1      38.431  31.516  31.112  1.00  0.00     0.049 A 
ATOM     50  H   UNL A   1      39.909  30.843  32.418  1.00  0.00     0.167 HD
ATOM     51  C   UNL A   1      42.953  29.329  35.131  1.00  0.00     0.031 A 
ATOM     52  C   UNL A   1      37.806  32.554  31.704  1.00  0.00     0.031 A 
ATOM     53  C   UNL A   1      42.406  30.479  35.803  1.00  0.00     0.049 A 
ATOM     54  C   UNL A   1      38.263  33.022  33.059  1.00  0.00     0.074 A 
ATOM     55  C   UNL A   1      42.781  31.025  37.019  1.00  0.00     0.029 A 
ATOM     56  N   UNL A   1      41.369  31.262  35.319  1.00  0.00    -0.354 N 
ATOM     57  N   UNL A   1      39.219  32.542  33.818  1.00  0.00    -0.248 NA
ATOM     58  C   UNL A   1      37.567  34.185  33.630  1.00  0.00     0.031 C 
ATOM     59  C   UNL A   1      41.938  32.109  37.293  1.00  0.00     0.029 A 
ATOM     60  C   UNL A   1      41.074  32.271  36.222  1.00  0.00     0.049 A 
ATOM     61  H   UNL A   1      40.910  31.121  34.459  1.00  0.00     0.167 HD
ATOM     62  C   UNL A   1      39.253  33.357  34.945  1.00  0.00     0.074 A 
ATOM     63  C   UNL A   1      38.236  34.371  34.760  1.00  0.00     0.031 C 
ATOM     64  C   UNL A   1      40.055  33.270  36.034  1.00  0.00     0.031 A 
BRANCH  51  65
ATOM     65  C   UNL A   1      44.025  28.541  35.842  1.00  0.00    -0.014 A 
ATOM     66  C   UNL A   1      43.696  27.488  36.716  1.00  0.00     0.010 A 
ATOM     67  C   UNL A   1      45.381  28.821  35.594  1.00  0.00     0.010 A 
ATOM     68  C   UNL A   1      44.701  26.759  37.358  1.00  0.00     0.020 A 
ATOM     69  C   UNL A   1      46.390  28.078  36.214  1.00  0.00     0.020 A 
ATOM     70  C   UNL A   1      46.043  27.062  37.107  1.00  0.00     0.054 A 
BRANCH  70  71
ATOM     71  S   UNL A   1      47.331  26.089  37.936  1.00  0.00     0.124 S 
ATOM     72  O   UNL A   1      48.442  26.197  36.989  1.00  0.00    -0.237 OA
ATOM     73  O   UNL A   1      47.514  26.810  39.197  1.00  0.00    -0.237 OA
ATOM     74  O   UNL A   1      46.743  24.764  38.059  1.00  0.00    -0.744 OA
ENDBRANCH  70  71
ENDBRANCH  51  65
BRANCH  52  75
ATOM     75  C   UNL A   1      36.679  33.235  31.008  1.00  0.00    -0.014 A 
ATOM     76  C   UNL A   1      35.386  33.230  31.561  1.00  0.00     0.010 A 
ATOM     77  C   UNL A   1      36.898  33.900  29.787  1.00  0.00     0.010 A 
ATOM     78  C   UNL A   1      34.329  33.864  30.900  1.00  0.00     0.020 A 
ATOM     79  C   UNL A   1      35.850  34.559  29.138  1.00  0.00     0.020 A 
ATOM     80  C   UNL A   1      34.570  34.527  29.693  1.00  0.00     0.054 A 
BRANCH  80  81
ATOM     81  S   UNL A   1      33.199  35.397  28.881  1.00  0.00     0.124 S 
ATOM     82  O   UNL A   1      32.585  34.331  28.096  1.00  0.00    -0.237 OA
ATOM     83  O   UNL A   1      32.415  35.881  30.015  1.00  0.00    -0.237 OA
ATOM     84  O   UNL A   1      33.869  36.440  28.108  1.00  0.00    -0.744 OA
ENDBRANCH  80  81
ENDBRANCH  52  75
BRANCH  64  85
ATOM     85  C   UNL A   1      39.881  34.316  37.105  1.00  0.00    -0.014 A 
ATOM     86  C   UNL A   1      39.133  34.050  38.267  1.00  0.00     0.010 A 
ATOM     87  C   UNL A   1      40.498  35.572  36.960  1.00  0.00     0.010 A 
ATOM     88  C   UNL A   1      38.974  35.036  39.245  1.00  0.00     0.020 A 
ATOM     89  C   UNL A   1      40.362  36.551  37.949  1.00  0.00     0.020 A 
ATOM     90  C   UNL A   1      39.585  36.283  39.077  1.00  0.00     0.054 A 
BRANCH  90  91
ATOM     91  S   UNL A   1      39.380  37.540  40.370  1.00  0.00     0.124 S 
ATOM     92  O   UNL A   1      40.765  37.838  40.723  1.00  0.00    -0.237 OA
ATOM     93  O   UNL A   1      38.665  38.606  39.673  1.00  0.00    -0.237 OA
ATOM     94  O   UNL A   1      38.608  36.851  41.401  1.00  0.00    -0.744 OA
ENDBRANCH  90  91
ENDBRANCH  64  85
ENDBRANCH  38  39
ENDBRANCH  30  33
ENDBRANCH  28  29
ENDBRANCH  27  28
ENDBRANCH  26  27
ENDBRANCH  25  26
ENDBRANCH   1  25
TORSDOF 22
ENDMDL
MODEL 2
REMARK VINA RESULT:      -9.7      3.758      4.917
REMARK SMILES CC[N@H+]1CCC[C@@H]1C[N@@H+](C)C[C@H]([NH3+])C(=O)NCCCCCCNC(=O)c1ccc(-c2c3nc(c(-c4ccc(S(=O)(=O)[O-])cc4)c4ccc([nH]4)c(-c4ccc(S(=O)(=O)[O-])cc4)c4nc(c(-c5ccc(S(=O)(=O)[O-])cc5)c5ccc2[nH]5)C=C4)C=C3)cc1
REMARK SMILES IDX 18 1 17 2 16 3 14 4 15 5 12 7 11 8 9 9 10 10 8 12 7 13 3 14
REMARK SMILES IDX 4 15 5 17 6 18 2 19 1 20 13 21 19 25 20 26 21 27 22 28 23 29
REMARK SMILES IDX 24 30 25 32 26 33 27 34 85 35 28 36 84 37 29 38 30 39 31 40
REMARK SMILES IDX 78 41 32 42 83 43 77 44 79 45 33 46 82 47 76 48 75 49 34 51
REMARK SMILES IDX 64 52 45 53 63 54 46 55 49 56 62 57 80 58 47 59 48 60 61 62
REMARK SMILES IDX 81 63 50 64 35 65 36 66 44 67 37 68 43 69 38 70 39 71 40 72
REMARK SMILES IDX 41 73 42 74 65 75 66 76 74 77 67 78 73 79 68 80 69 81 70 82
REMARK SMILES IDX 71 83 72 84 51 85 52 86 60 87 53 88 59 89 54 90 55 91 56 92
REMARK SMILES IDX 57 93 58 94
REMARK H PARENT 16 6 9 11 3 16 13 22 13 23 13 24 23 31 79 50 49 61
REMARK Flexibility Score: inf
ROOT
ATOM      1  C   UNL A   1      32.921  21.872  24.740  1.00  0.00     0.021 C 
ENDROOT
BRANCH   1   2
ATOM      2  C   UNL A   1      32.359  22.284  26.100  1.00  0.00     0.116 C 
BRANCH   2   3
ATOM      3  N   UNL A   1      32.355  23.708  26.395  1.00  0.00    -0.351 N 
ATOM      4  C   UNL A   1      31.415  24.654  26.061  1.00  0.00     0.284 C 
ATOM      5  O   UNL A   1      31.259  25.580  26.868  1.00  0.00    -0.268 OA
ATOM      6  H   UNL A   1      33.131  24.039  26.903  1.00  0.00     0.163 HD
BRANCH   4   7
ATOM      7  C   UNL A   1      30.661  24.684  24.704  1.00  0.00     0.326 C 
BRANCH   7   8
ATOM      8  C   UNL A   1      31.427  24.665  23.337  1.00  0.00     0.338 C 
BRANCH   8   9
ATOM      9  N   UNL A   1      32.067  25.808  22.655  1.00  0.00    -0.327 N 
ATOM     10  C   UNL A   1      32.804  25.314  21.474  1.00  0.00     0.333 C 
ATOM     11  H   UNL A   1      31.291  26.425  22.418  1.00  0.00     0.348 HD
BRANCH   9  12
ATOM     12  C   UNL A   1      32.976  26.634  23.457  1.00  0.00     0.327 C 
BRANCH  12  13
ATOM     13  C   UNL A   1      32.848  28.168  23.744  1.00  0.00     0.239 C 
ATOM     14  N   UNL A   1      32.783  28.388  25.218  1.00  0.00    -0.328 N 
ATOM     15  C   UNL A   1      31.987  29.601  25.448  1.00  0.00     0.262 C 
ATOM     16  H   UNL A   1      32.356  27.554  25.622  1.00  0.00     0.348 HD
ATOM     17  C   UNL A   1      30.910  29.507  24.394  1.00  0.00     0.068 C 
ATOM     18  C   UNL A   1      31.640  28.933  23.191  1.00  0.00     0.077 C 
BRANCH  14  19
ATOM     19  C   UNL A   1      34.075  28.492  25.907  1.00  0.00     0.259 C 
ATOM     20  C   UNL A   1      34.008  28.963  27.358  1.00  0.00     0.071 C 
ENDBRANCH  14  19
ENDBRANCH  12  13
ENDBRANCH   9  12
ENDBRANCH   8   9
ENDBRANCH   7   8
BRANCH   7  21
ATOM     21  N   UNL A   1      29.459  25.550  24.715  1.00  0.00    -0.343 N 
ATOM     22  H   UNL A   1      28.736  25.120  25.292  1.00  0.00     0.345 HD
ATOM     23  H   UNL A   1      29.111  25.663  23.762  1.00  0.00     0.345 HD
ATOM     24  H   UNL A   1      29.701  26.463  25.099  1.00  0.00     0.345 HD
ENDBRANCH   7  21
ENDBRANCH   4   7
ENDBRANCH   2   3
ENDBRANCH   1   2
BRANCH   1  25
ATOM     25  C   UNL A   1      34.440  21.664  24.634  1.00  0.00     0.002 C 
BRANCH  25  26
ATOM     26  C   UNL A   1      35.276  22.632  23.784  1.00  0.00     0.002 C 
BRANCH  26  27
ATOM     27  C   UNL A   1      35.703  23.979  24.378  1.00  0.00     0.021 C 
BRANCH  27  28
ATOM     28  C   UNL A   1      36.406  24.015  25.734  1.00  0.00     0.116 C 
BRANCH  28  29
ATOM     29  N   UNL A   1      37.417  22.983  25.869  1.00  0.00    -0.352 N 
ATOM     30  C   UNL A   1      38.736  23.053  26.251  1.00  0.00     0.251 C 
ATOM     31  H   UNL A   1      37.105  22.076  25.647  1.00  0.00     0.163 HD
ATOM     32  O   UNL A   1      39.445  22.065  26.060  1.00  0.00    -0.269 OA
BRANCH  30  33
ATOM     33  C   UNL A   1      39.343  24.258  26.890  1.00  0.00     0.039 A 
ATOM     34  C   UNL A   1      39.098  24.475  28.254  1.00  0.00     0.014 A 
ATOM     35  C   UNL A   1      40.018  25.246  26.166  1.00  0.00     0.014 A 
ATOM     36  C   UNL A   1      39.525  25.653  28.883  1.00  0.00     0.010 A 
ATOM     37  C   UNL A   1      40.494  26.401  26.809  1.00  0.00     0.010 A 
ATOM     38  C   UNL A   1      40.231  26.633  28.169  1.00  0.00    -0.014 A 
BRANCH  38  39
ATOM     39  C   UNL A   1      40.646  27.908  28.827  1.00  0.00     0.031 A 
ATOM     40  C   UNL A   1      42.031  28.059  29.414  1.00  0.00     0.074 A 
ATOM     41  C   UNL A   1      39.781  28.940  28.914  1.00  0.00     0.049 A 
ATOM     42  N   UNL A   1      42.567  29.093  30.014  1.00  0.00    -0.248 NA
ATOM     43  C   UNL A   1      42.922  26.891  29.329  1.00  0.00     0.031 C 
ATOM     44  C   UNL A   1      38.402  28.929  28.422  1.00  0.00     0.029 A 
ATOM     45  N   UNL A   1      39.931  30.197  29.449  1.00  0.00    -0.354 N 
ATOM     46  C   UNL A   1      43.846  28.696  30.394  1.00  0.00     0.074 A 
ATOM     47  C   UNL A   1      43.990  27.313  29.989  1.00  0.00     0.031 C 
ATOM     48  C   UNL A   1      37.841  30.127  28.661  1.00  0.00     0.029 A 
ATOM     49  C   UNL A   1      38.806  30.982  29.344  1.00  0.00     0.049 A 
ATOM     50  H   UNL A   1      40.766  30.507  29.868  1.00  0.00     0.167 HD
ATOM     51  C   UNL A   1      44.819  29.415  31.008  1.00  0.00     0.031 A 
ATOM     52  C   UNL A   1      38.572  32.248  29.749  1.00  0.00     0.031 A 
ATOM     53  C   UNL A   1      44.691  30.796  31.396  1.00  0.00     0.049 A 
ATOM     54  C   UNL A   1      39.672  33.031  30.414  1.00  0.00     0.074 A 
ATOM     55  C   UNL A   1      45.646  31.622  31.965  1.00  0.00     0.029 A 
ATOM     56  N   UNL A   1      43.540  31.555  31.256  1.00  0.00    -0.354 N 
ATOM     57  N   UNL A   1      40.895  32.655  30.700  1.00  0.00    -0.248 NA
ATOM     58  C   UNL A   1      39.364  34.418  30.792  1.00  0.00     0.031 C 
ATOM     59  C   UNL A   1      45.057  32.868  32.213  1.00  0.00     0.029 A 
ATOM     60  C   UNL A   1      43.752  32.833  31.749  1.00  0.00     0.049 A 
ATOM     61  H   UNL A   1      42.696  31.234  30.864  1.00  0.00     0.167 HD
ATOM     62  C   UNL A   1      41.508  33.764  31.273  1.00  0.00     0.074 A 
ATOM     63  C   UNL A   1      40.529  34.830  31.275  1.00  0.00     0.031 C 
ATOM     64  C   UNL A   1      42.769  33.885  31.755  1.00  0.00     0.031 A 
BRANCH  51  65
ATOM     65  C   UNL A   1      46.121  28.715  31.311  1.00  0.00    -0.014 A 
ATOM     66  C   UNL A   1      46.292  27.975  32.495  1.00  0.00     0.010 A 
ATOM     67  C   UNL A   1      47.170  28.754  30.374  1.00  0.00     0.010 A 
ATOM     68  C   UNL A   1      47.501  27.322  32.755  1.00  0.00     0.020 A 
ATOM     69  C   UNL A   1      48.372  28.082  30.618  1.00  0.00     0.020 A 
ATOM     70  C   UNL A   1      48.536  27.384  31.817  1.00  0.00     0.054 A 
BRANCH  70  71
ATOM     71  S   UNL A   1      50.089  26.512  32.166  1.00  0.00     0.124 S 
ATOM     72  O   UNL A   1      49.603  25.204  32.608  1.00  0.00    -0.237 OA
ATOM     73  O   UNL A   1      50.761  26.521  30.866  1.00  0.00    -0.237 OA
ATOM     74  O   UNL A   1      50.720  27.323  33.196  1.00  0.00    -0.744 OA
ENDBRANCH  70  71
ENDBRANCH  51  65
BRANCH  52  75
ATOM     75  C   UNL A   1      37.234  32.861  29.525  1.00  0.00    -0.014 A 
ATOM     76  C   UNL A   1      36.390  33.160  30.610  1.00  0.00     0.010 A 
ATOM     77  C   UNL A   1      36.799  33.158  28.220  1.00  0.00     0.010 A 
ATOM     78  C   UNL A   1      35.131  33.729  30.395  1.00  0.00     0.020 A 
ATOM     79  C   UNL A   1      35.553  33.753  28.003  1.00  0.00     0.020 A 
ATOM     80  C   UNL A   1      34.723  34.024  29.091  1.00  0.00     0.054 A 
BRANCH  80  81
ATOM     81  S   UNL A   1      33.111  34.820  28.835  1.00  0.00     0.124 S 
ATOM     82  O   UNL A   1      33.495  36.114  28.284  1.00  0.00    -0.237 OA
ATOM     83  O   UNL A   1      32.450  33.905  27.907  1.00  0.00    -0.237 OA
ATOM     84  O   UNL A   1      32.533  34.855  30.177  1.00  0.00    -0.744 OA
ENDBRANCH  80  81
ENDBRANCH  52  75
BRANCH  64  85
ATOM     85  C   UNL A   1      43.172  35.229  32.307  1.00  0.00    -0.014 A 
ATOM     86  C   UNL A   1      43.806  36.188  31.496  1.00  0.00     0.010 A 
ATOM     87  C   UNL A   1      42.885  35.546  33.647  1.00  0.00     0.010 A 
ATOM     88  C   UNL A   1      44.182  37.424  32.029  1.00  0.00     0.020 A 
ATOM     89  C   UNL A   1      43.236  36.792  34.175  1.00  0.00     0.020 A 
ATOM     90  C   UNL A   1      43.899  37.716  33.366  1.00  0.00     0.054 A 
BRANCH  90  91
ATOM     91  S   UNL A   1      44.378  39.337  34.029  1.00  0.00     0.124 S 
ATOM     92  O   UNL A   1      45.405  39.760  33.080  1.00  0.00    -0.237 OA
ATOM     93  O   UNL A   1      43.128  40.088  33.980  1.00  0.00    -0.237 OA
ATOM     94  O   UNL A   1      44.861  39.030  35.373  1.00  0.00    -0.744 OA
ENDBRANCH  90  91
ENDBRANCH  64  85
ENDBRANCH  38  39
ENDBRANCH  30  33
ENDBRANCH  28  29
ENDBRANCH  27  28
ENDBRANCH  26  27
ENDBRANCH  25  26
ENDBRANCH   1  25
TORSDOF 22
ENDMDL
MODEL 3
REMARK VINA RESULT:      -9.7      1.591      2.433
REMARK SMILES CC[N@H+]1CCC[C@@H]1C[N@@H+](C)C[C@H]([NH3+])C(=O)NCCCCCCNC(=O)c1ccc(-c2c3nc(c(-c4ccc(S(=O)(=O)[O-])cc4)c4ccc([nH]4)c(-c4ccc(S(=O)(=O)[O-])cc4)c4nc(c(-c5ccc(S(=O)(=O)[O-])cc5)c5ccc2[nH]5)C=C4)C=C3)cc1
REMARK SMILES IDX 18 1 17 2 16 3 14 4 15 5 12 7 11 8 9 9 10 10 8 12 7 13 3 14
REMARK SMILES IDX 4 15 5 17 6 18 2 19 1 20 13 21 19 25 20 26 21 27 22 28 23 29
REMARK SMILES IDX 24 30 25 32 26 33 27 34 85 35 28 36 84 37 29 38 30 39 31 40
REMARK SMILES IDX 78 41 32 42 83 43 77 44 79 45 33 46 82 47 76 48 75 49 34 51
REMARK SMILES IDX 64 52 45 53 63 54 46 55 49 56 62 57 80 58 47 59 48 60 61 62
REMARK SMILES IDX 81 63 50 64 35 65 36 66 44 67 37 68 43 69 38 70 39 71 40 72
REMARK SMILES IDX 41 73 42 74 65 75 66 76 74 77 67 78 73 79 68 80 69 81 70 82
REMARK SMILES IDX 71 83 72 84 51 85 52 86 60 87 53 88 59 89 54 90 55 91 56 92
REMARK SMILES IDX 57 93 58 94
REMARK H PARENT 16 6 9 11 3 16 13 22 13 23 13 24 23 31 79 50 49 61
REMARK Flexibility Score: inf
ROOT
ATOM      1  C   UNL A   1      34.538  21.519  24.767  1.00  0.00     0.021 C 
ENDROOT
BRANCH   1   2
ATOM      2  C   UNL A   1      33.210  21.077  25.381  1.00  0.00     0.116 C 
BRANCH   2   3
ATOM      3  N   UNL A   1      32.779  21.786  26.574  1.00  0.00    -0.351 N 
ATOM      4  C   UNL A   1      32.130  22.995  26.670  1.00  0.00     0.284 C 
ATOM      5  O   UNL A   1      31.341  23.119  27.616  1.00  0.00    -0.268 OA
ATOM      6  H   UNL A   1      32.979  21.342  27.429  1.00  0.00     0.163 HD
BRANCH   4   7
ATOM      7  C   UNL A   1      32.429  24.214  25.755  1.00  0.00     0.326 C 
BRANCH   7   8
ATOM      8  C   UNL A   1      31.987  24.242  24.252  1.00  0.00     0.338 C 
BRANCH   8   9
ATOM      9  N   UNL A   1      31.081  25.211  23.604  1.00  0.00    -0.327 N 
ATOM     10  C   UNL A   1      31.653  25.612  22.302  1.00  0.00     0.333 C 
ATOM     11  H   UNL A   1      30.197  24.711  23.521  1.00  0.00     0.348 HD
BRANCH   9  12
ATOM     12  C   UNL A   1      30.759  26.426  24.361  1.00  0.00     0.327 C 
BRANCH  12  13
ATOM     13  C   UNL A   1      31.395  27.845  24.180  1.00  0.00     0.239 C 
ATOM     14  N   UNL A   1      31.403  28.552  25.494  1.00  0.00    -0.328 N 
ATOM     15  C   UNL A   1      31.302  29.991  25.221  1.00  0.00     0.262 C 
ATOM     16  H   UNL A   1      30.608  28.195  26.024  1.00  0.00     0.348 HD
ATOM     17  C   UNL A   1      30.353  30.051  24.049  1.00  0.00     0.068 C 
ATOM     18  C   UNL A   1      30.740  28.840  23.216  1.00  0.00     0.077 C 
BRANCH  14  19
ATOM     19  C   UNL A   1      32.556  28.280  26.361  1.00  0.00     0.259 C 
ATOM     20  C   UNL A   1      33.920  28.348  25.678  1.00  0.00     0.071 C 
ENDBRANCH  14  19
ENDBRANCH  12  13
ENDBRANCH   9  12
ENDBRANCH   8   9
ENDBRANCH   7   8
BRANCH   7  21
ATOM     21  N   UNL A   1      33.750  24.835  26.011  1.00  0.00    -0.343 N 
ATOM     22  H   UNL A   1      33.917  25.572  25.326  1.00  0.00     0.345 HD
ATOM     23  H   UNL A   1      34.480  24.127  25.933  1.00  0.00     0.345 HD
ATOM     24  H   UNL A   1      33.761  25.234  26.949  1.00  0.00     0.345 HD
ENDBRANCH   7  21
ENDBRANCH   4   7
ENDBRANCH   2   3
ENDBRANCH   1   2
BRANCH   1  25
ATOM     25  C   UNL A   1      35.745  21.652  25.709  1.00  0.00     0.002 C 
BRANCH  25  26
ATOM     26  C   UNL A   1      36.658  22.883  25.596  1.00  0.00     0.002 C 
BRANCH  26  27
ATOM     27  C   UNL A   1      38.105  22.793  26.090  1.00  0.00     0.021 C 
BRANCH  27  28
ATOM     28  C   UNL A   1      38.790  24.041  26.647  1.00  0.00     0.116 C 
BRANCH  28  29
ATOM     29  N   UNL A   1      40.007  24.377  25.934  1.00  0.00    -0.352 N 
ATOM     30  C   UNL A   1      40.903  25.407  26.108  1.00  0.00     0.251 C 
ATOM     31  H   UNL A   1      40.231  23.764  25.197  1.00  0.00     0.163 HD
ATOM     32  O   UNL A   1      41.733  25.605  25.221  1.00  0.00    -0.269 OA
BRANCH  30  33
ATOM     33  C   UNL A   1      40.921  26.283  27.316  1.00  0.00     0.039 A 
ATOM     34  C   UNL A   1      40.027  25.990  28.357  1.00  0.00     0.014 A 
ATOM     35  C   UNL A   1      41.680  27.455  27.397  1.00  0.00     0.014 A 
ATOM     36  C   UNL A   1      39.899  26.847  29.459  1.00  0.00     0.010 A 
ATOM     37  C   UNL A   1      41.591  28.286  28.526  1.00  0.00     0.010 A 
ATOM     38  C   UNL A   1      40.681  28.008  29.560  1.00  0.00    -0.014 A 
BRANCH  38  39
ATOM     39  C   UNL A   1      40.512  28.946  30.710  1.00  0.00     0.031 A 
ATOM     40  C   UNL A   1      41.381  28.823  31.940  1.00  0.00     0.074 A 
ATOM     41  C   UNL A   1      39.570  29.910  30.666  1.00  0.00     0.049 A 
ATOM     42  N   UNL A   1      41.382  29.552  33.030  1.00  0.00    -0.248 NA
ATOM     43  C   UNL A   1      42.365  27.729  31.954  1.00  0.00     0.031 C 
ATOM     44  C   UNL A   1      38.637  30.130  29.560  1.00  0.00     0.029 A 
ATOM     45  N   UNL A   1      39.238  30.886  31.577  1.00  0.00    -0.354 N 
ATOM     46  C   UNL A   1      42.348  28.995  33.863  1.00  0.00     0.074 A 
ATOM     47  C   UNL A   1      42.886  27.845  33.168  1.00  0.00     0.031 C 
ATOM     48  C   UNL A   1      37.853  31.183  29.848  1.00  0.00     0.029 A 
ATOM     49  C   UNL A   1      38.208  31.700  31.167  1.00  0.00     0.049 A 
ATOM     50  H   UNL A   1      39.697  30.993  32.441  1.00  0.00     0.167 HD
ATOM     51  C   UNL A   1      42.765  29.408  35.087  1.00  0.00     0.031 A 
ATOM     52  C   UNL A   1      37.611  32.744  31.778  1.00  0.00     0.031 A 
ATOM     53  C   UNL A   1      42.249  30.562  35.776  1.00  0.00     0.049 A 
ATOM     54  C   UNL A   1      38.100  33.194  33.127  1.00  0.00     0.074 A 
ATOM     55  C   UNL A   1      42.655  31.093  36.990  1.00  0.00     0.029 A 
ATOM     56  N   UNL A   1      41.217  31.366  35.317  1.00  0.00    -0.354 N 
ATOM     57  N   UNL A   1      39.062  32.693  33.865  1.00  0.00    -0.248 NA
ATOM     58  C   UNL A   1      37.434  34.364  33.719  1.00  0.00     0.031 C 
ATOM     59  C   UNL A   1      41.836  32.188  37.287  1.00  0.00     0.029 A 
ATOM     60  C   UNL A   1      40.956  32.373  36.232  1.00  0.00     0.049 A 
ATOM     61  H   UNL A   1      40.740  31.239  34.465  1.00  0.00     0.167 HD
ATOM     62  C   UNL A   1      39.130  33.499  34.997  1.00  0.00     0.074 A 
ATOM     63  C   UNL A   1      38.127  34.531  34.838  1.00  0.00     0.031 C 
ATOM     64  C   UNL A   1      39.950  33.391  36.071  1.00  0.00     0.031 A 
BRANCH  51  65
ATOM     65  C   UNL A   1      43.835  28.597  35.773  1.00  0.00    -0.014 A 
ATOM     66  C   UNL A   1      45.200  28.889  35.593  1.00  0.00     0.010 A 
ATOM     67  C   UNL A   1      43.471  27.560  36.652  1.00  0.00     0.010 A 
ATOM     68  C   UNL A   1      46.179  28.135  36.246  1.00  0.00     0.020 A 
ATOM     69  C   UNL A   1      44.446  26.820  37.328  1.00  0.00     0.020 A 
ATOM     70  C   UNL A   1      45.796  27.101  37.106  1.00  0.00     0.054 A 
BRANCH  70  71
ATOM     71  S   UNL A   1      47.085  26.149  37.958  1.00  0.00     0.124 S 
ATOM     72  O   UNL A   1      47.143  26.823  39.256  1.00  0.00    -0.237 OA
ATOM     73  O   UNL A   1      46.521  24.798  37.981  1.00  0.00    -0.237 OA
ATOM     74  O   UNL A   1      48.259  26.317  37.116  1.00  0.00    -0.744 OA
ENDBRANCH  70  71
ENDBRANCH  51  65
BRANCH  52  75
ATOM     75  C   UNL A   1      36.483  33.448  31.107  1.00  0.00    -0.014 A 
ATOM     76  C   UNL A   1      35.265  33.655  31.778  1.00  0.00     0.010 A 
ATOM     77  C   UNL A   1      36.627  33.925  29.791  1.00  0.00     0.010 A 
ATOM     78  C   UNL A   1      34.206  34.310  31.142  1.00  0.00     0.020 A 
ATOM     79  C   UNL A   1      35.581  34.606  29.161  1.00  0.00     0.020 A 
ATOM     80  C   UNL A   1      34.373  34.784  29.838  1.00  0.00     0.054 A 
BRANCH  80  81
ATOM     81  S   UNL A   1      33.009  35.687  29.050  1.00  0.00     0.124 S 
ATOM     82  O   UNL A   1      32.375  34.643  28.252  1.00  0.00    -0.237 OA
ATOM     83  O   UNL A   1      32.240  36.162  30.198  1.00  0.00    -0.237 OA
ATOM     84  O   UNL A   1      33.688  36.733  28.290  1.00  0.00    -0.744 OA
ENDBRANCH  80  81
ENDBRANCH  52  75
BRANCH  64  85
ATOM     85  C   UNL A   1      39.813  34.431  37.152  1.00  0.00    -0.014 A 
ATOM     86  C   UNL A   1      38.977  34.220  38.263  1.00  0.00     0.010 A 
ATOM     87  C   UNL A   1      40.554  35.624  37.069  1.00  0.00     0.010 A 
ATOM     88  C   UNL A   1      38.854  35.202  39.251  1.00  0.00     0.020 A 
ATOM     89  C   UNL A   1      40.454  36.596  38.069  1.00  0.00     0.020 A 
ATOM     90  C   UNL A   1      39.589  36.386  39.145  1.00  0.00     0.054 A 
BRANCH  90  91
ATOM     91  S   UNL A   1      39.429  37.636  40.450  1.00  0.00     0.124 S 
ATOM     92  O   UNL A   1      40.705  38.340  40.354  1.00  0.00    -0.237 OA
ATOM     93  O   UNL A   1      38.257  38.397  40.027  1.00  0.00    -0.237 OA
ATOM     94  O   UNL A   1      39.244  36.845  41.665  1.00  0.00    -0.744 OA
ENDBRANCH  90  91
ENDBRANCH  64  85
ENDBRANCH  38  39
ENDBRANCH  30  33
ENDBRANCH  28  29
ENDBRANCH  27  28
ENDBRANCH  26  27
ENDBRANCH  25  26
ENDBRANCH   1  25
TORSDOF 22
ENDMDL
