MODEL 1
REMARK VINA RESULT:     -12.5      0.000      0.000
REMARK SMILES NS(=O)(=O)c1ccc(-n2nc(C(=O)NCCCCCCNC(=O)c3ccc(-c4c5nc(c(-c6ccc(S(=O)(=O)[O-])cc6)c6ccc([nH]6)c(-c6ccc(S(=O)(=O)[O-])cc6)c6nc(c(-c7ccc(S(=O)(=O)[O-])cc7)c7ccc4[nH]7)C=C6)C=C5)cc3)cc2-c2cc3ccccc3s2)cc1
REMARK SMILES IDX 17 1 16 2 15 3 14 4 12 5 13 6 11 8 9 9 10 10 85 11 84 12
REMARK SMILES IDX 8 13 5 14 6 15 96 16 7 17 95 18 2 19 3 20 4 21 1 22 86 25
REMARK SMILES IDX 87 26 94 27 88 28 93 29 89 30 92 31 90 32 91 33 18 34 19 35
REMARK SMILES IDX 20 36 21 37 22 38 23 40 24 41 25 42 83 43 26 44 82 45 27 46
REMARK SMILES IDX 28 47 29 48 76 49 30 50 81 51 75 52 77 53 31 54 80 55 74 56
REMARK SMILES IDX 73 57 32 59 62 60 43 61 61 62 44 63 47 64 60 65 78 66 45 67
REMARK SMILES IDX 46 68 59 70 79 71 48 72 33 73 34 74 42 75 35 76 41 77 36 78
REMARK SMILES IDX 37 79 38 80 39 81 40 82 63 83 64 84 72 85 65 86 71 87 66 88
REMARK SMILES IDX 67 89 68 90 69 91 70 92 49 93 50 94 58 95 51 96 57 97 52 98
REMARK SMILES IDX 53 99 54 100 55 101 56 102
REMARK H PARENT 14 7 1 23 1 24 21 39 77 58 47 69
REMARK Flexibility Score: inf
ROOT
ATOM      1  C   UNL A   1      40.774  25.032  27.843  1.00  0.00     0.002 C 
ENDROOT
BRANCH   1   2
ATOM      2  C   UNL A   1      39.280  24.737  28.046  1.00  0.00     0.021 C 
BRANCH   2   3
ATOM      3  C   UNL A   1      38.559  24.299  26.769  1.00  0.00     0.116 C 
BRANCH   3   4
ATOM      4  N   UNL A   1      38.819  22.900  26.467  1.00  0.00    -0.351 N 
ATOM      5  C   UNL A   1      38.124  21.949  25.739  1.00  0.00     0.271 C 
ATOM      6  O   UNL A   1      38.691  20.865  25.585  1.00  0.00    -0.267 OA
ATOM      7  H   UNL A   1      39.656  22.561  26.858  1.00  0.00     0.163 HD
BRANCH   5   8
ATOM      8  C   UNL A   1      36.828  22.267  25.110  1.00  0.00     0.151 A 
ATOM      9  N   UNL A   1      35.085  23.454  24.690  1.00  0.00    -0.231 N 
ATOM     10  N   UNL A   1      36.424  23.540  24.922  1.00  0.00    -0.162 NA
ATOM     11  C   UNL A   1      34.657  22.149  24.750  1.00  0.00     0.085 A 
ATOM     12  C   UNL A   1      35.817  21.397  24.658  1.00  0.00     0.066 A 
BRANCH   9  13
ATOM     13  C   UNL A   1      34.360  24.618  24.351  1.00  0.00     0.065 A 
ATOM     14  C   UNL A   1      32.860  26.831  23.584  1.00  0.00     0.082 A 
ATOM     15  C   UNL A   1      33.318  26.725  24.902  1.00  0.00     0.024 A 
ATOM     16  C   UNL A   1      33.149  25.838  22.646  1.00  0.00     0.024 A 
ATOM     17  C   UNL A   1      34.049  25.600  25.296  1.00  0.00     0.030 A 
ATOM     18  C   UNL A   1      33.928  24.746  23.022  1.00  0.00     0.030 A 
BRANCH  14  19
ATOM     19  S   UNL A   1      31.870  28.196  23.064  1.00  0.00     0.238 S 
ATOM     20  O   UNL A   1      32.721  29.200  22.481  1.00  0.00    -0.207 OA
ATOM     21  O   UNL A   1      30.912  28.493  24.110  1.00  0.00    -0.207 OA
BRANCH  19  22
ATOM     22  N   UNL A   1      30.962  27.596  21.782  1.00  0.00    -0.225 NA
ATOM     23  H   UNL A   1      30.909  26.580  21.849  1.00  0.00     0.137 HD
ATOM     24  H   UNL A   1      31.405  27.856  20.900  1.00  0.00     0.137 HD
ENDBRANCH  19  22
ENDBRANCH  14  19
ENDBRANCH   9  13
BRANCH  11  25
ATOM     25  C   UNL A   1      33.363  21.592  25.033  1.00  0.00     0.054 A 
ATOM     26  C   UNL A   1      32.374  21.352  24.087  1.00  0.00     0.031 A 
ATOM     27  S   UNL A   1      33.311  20.245  26.129  1.00  0.00    -0.134 S 
ATOM     28  C   UNL A   1      32.487  19.947  23.727  1.00  0.00    -0.007 A 
ATOM     29  C   UNL A   1      33.103  19.216  24.751  1.00  0.00     0.035 A 
ATOM     30  C   UNL A   1      32.211  19.283  22.511  1.00  0.00     0.009 A 
ATOM     31  C   UNL A   1      33.492  17.877  24.595  1.00  0.00     0.019 A 
ATOM     32  C   UNL A   1      32.648  17.967  22.325  1.00  0.00     0.001 A 
ATOM     33  C   UNL A   1      33.288  17.279  23.351  1.00  0.00     0.001 A 
ENDBRANCH  11  25
ENDBRANCH   5   8
ENDBRANCH   3   4
ENDBRANCH   2   3
ENDBRANCH   1   2
BRANCH   1  34
ATOM     34  C   UNL A   1      41.758  24.040  28.495  1.00  0.00     0.002 C 
BRANCH  34  35
ATOM     35  C   UNL A   1      42.408  23.002  27.569  1.00  0.00     0.021 C 
BRANCH  35  36
ATOM     36  C   UNL A   1      42.348  23.373  26.099  1.00  0.00     0.116 C 
BRANCH  36  37
ATOM     37  N   UNL A   1      43.672  23.565  25.494  1.00  0.00    -0.352 N 
ATOM     38  C   UNL A   1      44.287  24.757  25.131  1.00  0.00     0.251 C 
ATOM     39  H   UNL A   1      44.191  22.745  25.325  1.00  0.00     0.163 HD
ATOM     40  O   UNL A   1      45.205  24.772  24.319  1.00  0.00    -0.269 OA
BRANCH  38  41
ATOM     41  C   UNL A   1      43.815  26.004  25.761  1.00  0.00     0.039 A 
ATOM     42  C   UNL A   1      42.784  26.796  25.247  1.00  0.00     0.014 A 
ATOM     43  C   UNL A   1      44.434  26.346  26.953  1.00  0.00     0.014 A 
ATOM     44  C   UNL A   1      42.372  27.904  25.988  1.00  0.00     0.010 A 
ATOM     45  C   UNL A   1      43.824  27.212  27.803  1.00  0.00     0.010 A 
ATOM     46  C   UNL A   1      42.906  28.095  27.271  1.00  0.00    -0.014 A 
BRANCH  46  47
ATOM     47  C   UNL A   1      42.522  29.181  28.154  1.00  0.00     0.031 A 
ATOM     48  C   UNL A   1      43.440  30.338  28.121  1.00  0.00     0.074 A 
ATOM     49  C   UNL A   1      41.301  29.231  28.738  1.00  0.00     0.049 A 
ATOM     50  N   UNL A   1      44.278  30.674  29.039  1.00  0.00    -0.248 NA
ATOM     51  C   UNL A   1      43.582  31.104  26.873  1.00  0.00     0.031 C 
ATOM     52  C   UNL A   1      40.164  28.308  28.594  1.00  0.00     0.029 A 
ATOM     53  N   UNL A   1      40.770  30.217  29.504  1.00  0.00    -0.354 N 
ATOM     54  C   UNL A   1      44.885  31.838  28.592  1.00  0.00     0.074 A 
ATOM     55  C   UNL A   1      44.581  31.932  27.186  1.00  0.00     0.031 C 
ATOM     56  C   UNL A   1      39.034  28.904  29.037  1.00  0.00     0.029 A 
ATOM     57  C   UNL A   1      39.386  30.175  29.641  1.00  0.00     0.049 A 
ATOM     58  H   UNL A   1      41.324  30.910  29.930  1.00  0.00     0.167 HD
ATOM     59  C   UNL A   1      45.374  32.756  29.470  1.00  0.00     0.031 A 
ATOM     60  C   UNL A   1      38.597  31.143  30.180  1.00  0.00     0.031 A 
ATOM     61  C   UNL A   1      45.353  32.251  30.822  1.00  0.00     0.049 A 
ATOM     62  C   UNL A   1      39.480  31.975  31.039  1.00  0.00     0.074 A 
ATOM     63  C   UNL A   1      45.936  31.174  31.461  1.00  0.00     0.029 A 
ATOM     64  N   UNL A   1      44.284  32.628  31.606  1.00  0.00    -0.354 N 
ATOM     65  N   UNL A   1      40.064  31.508  32.109  1.00  0.00    -0.248 NA
ATOM     66  C   UNL A   1      40.125  33.135  30.437  1.00  0.00     0.031 C 
ATOM     67  C   UNL A   1      44.913  30.659  32.310  1.00  0.00     0.029 A 
ATOM     68  C   UNL A   1      43.801  31.501  32.220  1.00  0.00     0.049 A 
ATOM     69  H   UNL A   1      43.932  33.543  31.707  1.00  0.00     0.167 HD
ATOM     70  C   UNL A   1      41.362  31.998  32.047  1.00  0.00     0.074 A 
ATOM     71  C   UNL A   1      41.315  33.068  31.048  1.00  0.00     0.031 C 
ATOM     72  C   UNL A   1      42.411  31.299  32.578  1.00  0.00     0.031 A 
BRANCH  59  73
ATOM     73  C   UNL A   1      45.497  34.225  29.185  1.00  0.00    -0.014 A 
ATOM     74  C   UNL A   1      44.389  35.053  29.450  1.00  0.00     0.010 A 
ATOM     75  C   UNL A   1      46.553  34.777  28.432  1.00  0.00     0.010 A 
ATOM     76  C   UNL A   1      44.314  36.351  28.933  1.00  0.00     0.020 A 
ATOM     77  C   UNL A   1      46.507  36.085  27.947  1.00  0.00     0.020 A 
ATOM     78  C   UNL A   1      45.372  36.853  28.175  1.00  0.00     0.054 A 
BRANCH  78  79
ATOM     79  S   UNL A   1      45.222  38.498  27.440  1.00  0.00     0.124 S 
ATOM     80  O   UNL A   1      45.324  39.362  28.612  1.00  0.00    -0.237 OA
ATOM     81  O   UNL A   1      46.360  38.532  26.526  1.00  0.00    -0.237 OA
ATOM     82  O   UNL A   1      43.911  38.466  26.796  1.00  0.00    -0.744 OA
ENDBRANCH  78  79
ENDBRANCH  59  73
BRANCH  60  83
ATOM     83  C   UNL A   1      37.267  31.606  29.688  1.00  0.00    -0.014 A 
ATOM     84  C   UNL A   1      36.155  31.689  30.550  1.00  0.00     0.010 A 
ATOM     85  C   UNL A   1      37.165  32.252  28.438  1.00  0.00     0.010 A 
ATOM     86  C   UNL A   1      35.029  32.467  30.214  1.00  0.00     0.020 A 
ATOM     87  C   UNL A   1      36.047  33.022  28.094  1.00  0.00     0.020 A 
ATOM     88  C   UNL A   1      34.997  33.155  28.999  1.00  0.00     0.054 A 
BRANCH  88  89
ATOM     89  S   UNL A   1      33.667  34.353  28.667  1.00  0.00     0.124 S 
ATOM     90  O   UNL A   1      32.832  33.636  27.709  1.00  0.00    -0.237 OA
ATOM     91  O   UNL A   1      33.084  34.556  29.990  1.00  0.00    -0.237 OA
ATOM     92  O   UNL A   1      34.379  35.511  28.127  1.00  0.00    -0.744 OA
ENDBRANCH  88  89
ENDBRANCH  60  83
BRANCH  72  93
ATOM     93  C   UNL A   1      42.110  30.087  33.437  1.00  0.00    -0.014 A 
ATOM     94  C   UNL A   1      41.882  28.792  32.924  1.00  0.00     0.010 A 
ATOM     95  C   UNL A   1      42.219  30.241  34.829  1.00  0.00     0.010 A 
ATOM     96  C   UNL A   1      41.733  27.693  33.787  1.00  0.00     0.020 A 
ATOM     97  C   UNL A   1      42.090  29.150  35.690  1.00  0.00     0.020 A 
ATOM     98  C   UNL A   1      41.833  27.883  35.168  1.00  0.00     0.054 A 
BRANCH  98  99
ATOM     99  S   UNL A   1      41.655  26.462  36.284  1.00  0.00     0.124 S 
ATOM    100  O   UNL A   1      40.846  27.011  37.368  1.00  0.00    -0.237 OA
ATOM    101  O   UNL A   1      40.991  25.468  35.444  1.00  0.00    -0.237 OA
ATOM    102  O   UNL A   1      43.032  26.131  36.649  1.00  0.00    -0.744 OA
ENDBRANCH  98  99
ENDBRANCH  72  93
ENDBRANCH  46  47
ENDBRANCH  38  41
ENDBRANCH  36  37
ENDBRANCH  35  36
ENDBRANCH  34  35
ENDBRANCH   1  34
TORSDOF 20
ENDMDL
MODEL 2
REMARK VINA RESULT:     -12.2      3.122      9.475
REMARK SMILES NS(=O)(=O)c1ccc(-n2nc(C(=O)NCCCCCCNC(=O)c3ccc(-c4c5nc(c(-c6ccc(S(=O)(=O)[O-])cc6)c6ccc([nH]6)c(-c6ccc(S(=O)(=O)[O-])cc6)c6nc(c(-c7ccc(S(=O)(=O)[O-])cc7)c7ccc4[nH]7)C=C6)C=C5)cc3)cc2-c2cc3ccccc3s2)cc1
REMARK SMILES IDX 17 1 16 2 15 3 14 4 12 5 13 6 11 8 9 9 10 10 85 11 84 12
REMARK SMILES IDX 8 13 5 14 6 15 96 16 7 17 95 18 2 19 3 20 4 21 1 22 86 25
REMARK SMILES IDX 87 26 94 27 88 28 93 29 89 30 92 31 90 32 91 33 18 34 19 35
REMARK SMILES IDX 20 36 21 37 22 38 23 40 24 41 25 42 83 43 26 44 82 45 27 46
REMARK SMILES IDX 28 47 29 48 76 49 30 50 81 51 75 52 77 53 31 54 80 55 74 56
REMARK SMILES IDX 73 57 32 59 62 60 43 61 61 62 44 63 47 64 60 65 78 66 45 67
REMARK SMILES IDX 46 68 59 70 79 71 48 72 33 73 34 74 42 75 35 76 41 77 36 78
REMARK SMILES IDX 37 79 38 80 39 81 40 82 63 83 64 84 72 85 65 86 71 87 66 88
REMARK SMILES IDX 67 89 68 90 69 91 70 92 49 93 50 94 58 95 51 96 57 97 52 98
REMARK SMILES IDX 53 99 54 100 55 101 56 102
REMARK H PARENT 14 7 1 23 1 24 21 39 77 58 47 69
REMARK Flexibility Score: inf
ROOT
ATOM      1  C   UNL A   1      37.002  30.989  28.998  1.00  0.00     0.002 C 
ENDROOT
BRANCH   1   2
ATOM      2  C   UNL A   1      36.988  30.307  27.620  1.00  0.00     0.021 C 
BRANCH   2   3
ATOM      3  C   UNL A   1      35.652  29.649  27.272  1.00  0.00     0.116 C 
BRANCH   3   4
ATOM      4  N   UNL A   1      34.572  30.624  27.242  1.00  0.00    -0.351 N 
ATOM      5  C   UNL A   1      33.230  30.532  26.917  1.00  0.00     0.271 C 
ATOM      6  O   UNL A   1      32.557  31.548  27.108  1.00  0.00    -0.267 OA
ATOM      7  H   UNL A   1      34.852  31.530  27.505  1.00  0.00     0.163 HD
BRANCH   5   8
ATOM      8  C   UNL A   1      32.640  29.258  26.463  1.00  0.00     0.151 A 
ATOM      9  N   UNL A   1      32.649  27.210  25.808  1.00  0.00    -0.231 N 
ATOM     10  N   UNL A   1      33.263  28.079  26.658  1.00  0.00    -0.162 NA
ATOM     11  C   UNL A   1      31.668  27.844  25.081  1.00  0.00     0.085 A 
ATOM     12  C   UNL A   1      31.441  29.028  25.760  1.00  0.00     0.066 A 
BRANCH   9  13
ATOM     13  C   UNL A   1      33.002  25.843  25.833  1.00  0.00     0.065 A 
ATOM     14  C   UNL A   1      33.835  23.190  25.880  1.00  0.00     0.082 A 
ATOM     15  C   UNL A   1      32.621  23.548  26.477  1.00  0.00     0.024 A 
ATOM     16  C   UNL A   1      34.636  24.150  25.258  1.00  0.00     0.024 A 
ATOM     17  C   UNL A   1      32.214  24.885  26.477  1.00  0.00     0.030 A 
ATOM     18  C   UNL A   1      34.202  25.473  25.206  1.00  0.00     0.030 A 
BRANCH  14  19
ATOM     19  S   UNL A   1      34.424  21.527  25.923  1.00  0.00     0.238 S 
ATOM     20  O   UNL A   1      34.535  21.032  24.576  1.00  0.00    -0.207 OA
ATOM     21  O   UNL A   1      33.710  20.814  26.963  1.00  0.00    -0.207 OA
BRANCH  19  22
ATOM     22  N   UNL A   1      36.008  21.652  26.473  1.00  0.00    -0.225 NA
ATOM     23  H   UNL A   1      36.370  20.722  26.684  1.00  0.00     0.137 HD
ATOM     24  H   UNL A   1      36.030  22.225  27.318  1.00  0.00     0.137 HD
ENDBRANCH  19  22
ENDBRANCH  14  19
ENDBRANCH   9  13
BRANCH  11  25
ATOM     25  C   UNL A   1      31.088  27.528  23.806  1.00  0.00     0.054 A 
ATOM     26  C   UNL A   1      31.806  27.231  22.654  1.00  0.00     0.031 A 
ATOM     27  S   UNL A   1      29.725  26.450  23.809  1.00  0.00    -0.134 S 
ATOM     28  C   UNL A   1      31.858  25.780  22.569  1.00  0.00    -0.007 A 
ATOM     29  C   UNL A   1      30.798  25.199  23.275  1.00  0.00     0.035 A 
ATOM     30  C   UNL A   1      32.846  24.925  22.031  1.00  0.00     0.009 A 
ATOM     31  C   UNL A   1      30.708  23.817  23.502  1.00  0.00     0.019 A 
ATOM     32  C   UNL A   1      32.798  23.553  22.302  1.00  0.00     0.001 A 
ATOM     33  C   UNL A   1      31.747  23.011  23.036  1.00  0.00     0.001 A 
ENDBRANCH  11  25
ENDBRANCH   5   8
ENDBRANCH   3   4
ENDBRANCH   2   3
ENDBRANCH   1   2
BRANCH   1  34
ATOM     34  C   UNL A   1      37.289  32.503  29.004  1.00  0.00     0.002 C 
BRANCH  34  35
ATOM     35  C   UNL A   1      36.308  33.389  29.785  1.00  0.00     0.021 C 
BRANCH  35  36
ATOM     36  C   UNL A   1      35.377  32.613  30.697  1.00  0.00     0.116 C 
BRANCH  36  37
ATOM     37  N   UNL A   1      35.461  33.030  32.103  1.00  0.00    -0.352 N 
ATOM     38  C   UNL A   1      36.118  32.396  33.150  1.00  0.00     0.251 C 
ATOM     39  H   UNL A   1      34.992  33.865  32.333  1.00  0.00     0.163 HD
ATOM     40  O   UNL A   1      35.819  32.627  34.315  1.00  0.00    -0.269 OA
BRANCH  38  41
ATOM     41  C   UNL A   1      37.199  31.448  32.821  1.00  0.00     0.039 A 
ATOM     42  C   UNL A   1      36.997  30.086  32.584  1.00  0.00     0.014 A 
ATOM     43  C   UNL A   1      38.467  31.998  32.711  1.00  0.00     0.014 A 
ATOM     44  C   UNL A   1      38.092  29.314  32.194  1.00  0.00     0.010 A 
ATOM     45  C   UNL A   1      39.434  31.328  32.032  1.00  0.00     0.010 A 
ATOM     46  C   UNL A   1      39.308  29.958  31.920  1.00  0.00    -0.014 A 
BRANCH  46  47
ATOM     47  C   UNL A   1      40.502  29.271  31.462  1.00  0.00     0.031 A 
ATOM     48  C   UNL A   1      41.443  28.913  32.542  1.00  0.00     0.074 A 
ATOM     49  C   UNL A   1      40.605  28.775  30.206  1.00  0.00     0.049 A 
ATOM     50  N   UNL A   1      42.575  29.476  32.786  1.00  0.00    -0.248 NA
ATOM     51  C   UNL A   1      41.017  27.955  33.575  1.00  0.00     0.031 C 
ATOM     52  C   UNL A   1      39.607  28.772  29.124  1.00  0.00     0.029 A 
ATOM     53  N   UNL A   1      41.608  28.037  29.669  1.00  0.00    -0.354 N 
ATOM     54  C   UNL A   1      43.121  28.783  33.858  1.00  0.00     0.074 A 
ATOM     55  C   UNL A   1      42.042  28.015  34.428  1.00  0.00     0.031 C 
ATOM     56  C   UNL A   1      39.960  27.868  28.182  1.00  0.00     0.029 A 
ATOM     57  C   UNL A   1      41.276  27.349  28.506  1.00  0.00     0.049 A 
ATOM     58  H   UNL A   1      42.504  27.991  30.072  1.00  0.00     0.167 HD
ATOM     59  C   UNL A   1      44.469  28.705  34.029  1.00  0.00     0.031 A 
ATOM     60  C   UNL A   1      42.022  26.394  27.888  1.00  0.00     0.031 A 
ATOM     61  C   UNL A   1      45.165  29.576  33.112  1.00  0.00     0.049 A 
ATOM     62  C   UNL A   1      43.422  26.593  28.350  1.00  0.00     0.074 A 
ATOM     63  C   UNL A   1      45.167  30.938  32.885  1.00  0.00     0.029 A 
ATOM     64  N   UNL A   1      45.657  28.996  31.963  1.00  0.00    -0.354 N 
ATOM     65  N   UNL A   1      44.110  27.666  28.070  1.00  0.00    -0.248 NA
ATOM     66  C   UNL A   1      43.861  25.867  29.534  1.00  0.00     0.031 C 
ATOM     67  C   UNL A   1      45.186  31.069  31.466  1.00  0.00     0.029 A 
ATOM     68  C   UNL A   1      45.295  29.793  30.907  1.00  0.00     0.049 A 
ATOM     69  H   UNL A   1      46.177  28.160  31.910  1.00  0.00     0.167 HD
ATOM     70  C   UNL A   1      44.742  28.002  29.260  1.00  0.00     0.074 A 
ATOM     71  C   UNL A   1      44.627  26.808  30.100  1.00  0.00     0.031 C 
ATOM     72  C   UNL A   1      45.029  29.303  29.569  1.00  0.00     0.031 A 
BRANCH  59  73
ATOM     73  C   UNL A   1      45.175  27.578  34.726  1.00  0.00    -0.014 A 
ATOM     74  C   UNL A   1      45.335  26.361  34.037  1.00  0.00     0.010 A 
ATOM     75  C   UNL A   1      45.450  27.581  36.108  1.00  0.00     0.010 A 
ATOM     76  C   UNL A   1      45.695  25.189  34.710  1.00  0.00     0.020 A 
ATOM     77  C   UNL A   1      45.851  26.426  36.783  1.00  0.00     0.020 A 
ATOM     78  C   UNL A   1      45.940  25.229  36.083  1.00  0.00     0.054 A 
BRANCH  78  79
ATOM     79  S   UNL A   1      46.316  23.690  36.954  1.00  0.00     0.124 S 
ATOM     80  O   UNL A   1      47.593  23.311  36.356  1.00  0.00    -0.237 OA
ATOM     81  O   UNL A   1      46.372  24.129  38.345  1.00  0.00    -0.237 OA
ATOM     82  O   UNL A   1      45.187  22.825  36.623  1.00  0.00    -0.744 OA
ENDBRANCH  78  79
ENDBRANCH  59  73
BRANCH  60  83
ATOM     83  C   UNL A   1      41.541  25.127  27.268  1.00  0.00    -0.014 A 
ATOM     84  C   UNL A   1      42.328  24.421  26.335  1.00  0.00     0.010 A 
ATOM     85  C   UNL A   1      40.431  24.451  27.818  1.00  0.00     0.010 A 
ATOM     86  C   UNL A   1      42.072  23.067  26.042  1.00  0.00     0.020 A 
ATOM     87  C   UNL A   1      40.166  23.107  27.527  1.00  0.00     0.020 A 
ATOM     88  C   UNL A   1      41.009  22.409  26.666  1.00  0.00     0.054 A 
BRANCH  88  89
ATOM     89  S   UNL A   1      40.823  20.607  26.486  1.00  0.00     0.124 S 
ATOM     90  O   UNL A   1      39.506  20.490  25.865  1.00  0.00    -0.237 OA
ATOM     91  O   UNL A   1      41.958  20.253  25.638  1.00  0.00    -0.237 OA
ATOM     92  O   UNL A   1      40.908  20.117  27.861  1.00  0.00    -0.744 OA
ENDBRANCH  88  89
ENDBRANCH  60  83
BRANCH  72  93
ATOM     93  C   UNL A   1      44.851  30.357  28.494  1.00  0.00    -0.014 A 
ATOM     94  C   UNL A   1      43.767  31.259  28.442  1.00  0.00     0.010 A 
ATOM     95  C   UNL A   1      45.910  30.539  27.590  1.00  0.00     0.010 A 
ATOM     96  C   UNL A   1      43.733  32.288  27.487  1.00  0.00     0.020 A 
ATOM     97  C   UNL A   1      45.891  31.572  26.651  1.00  0.00     0.020 A 
ATOM     98  C   UNL A   1      44.797  32.434  26.593  1.00  0.00     0.054 A 
BRANCH  98  99
ATOM     99  S   UNL A   1      44.762  33.774  25.368  1.00  0.00     0.124 S 
ATOM    100  O   UNL A   1      44.332  33.082  24.155  1.00  0.00    -0.237 OA
ATOM    101  O   UNL A   1      43.796  34.710  25.935  1.00  0.00    -0.237 OA
ATOM    102  O   UNL A   1      46.142  34.259  25.344  1.00  0.00    -0.744 OA
ENDBRANCH  98  99
ENDBRANCH  72  93
ENDBRANCH  46  47
ENDBRANCH  38  41
ENDBRANCH  36  37
ENDBRANCH  35  36
ENDBRANCH  34  35
ENDBRANCH   1  34
TORSDOF 20
ENDMDL
MODEL 3
REMARK VINA RESULT:     -12.1      1.965      3.236
REMARK SMILES NS(=O)(=O)c1ccc(-n2nc(C(=O)NCCCCCCNC(=O)c3ccc(-c4c5nc(c(-c6ccc(S(=O)(=O)[O-])cc6)c6ccc([nH]6)c(-c6ccc(S(=O)(=O)[O-])cc6)c6nc(c(-c7ccc(S(=O)(=O)[O-])cc7)c7ccc4[nH]7)C=C6)C=C5)cc3)cc2-c2cc3ccccc3s2)cc1
REMARK SMILES IDX 17 1 16 2 15 3 14 4 12 5 13 6 11 8 9 9 10 10 85 11 84 12
REMARK SMILES IDX 8 13 5 14 6 15 96 16 7 17 95 18 2 19 3 20 4 21 1 22 86 25
REMARK SMILES IDX 87 26 94 27 88 28 93 29 89 30 92 31 90 32 91 33 18 34 19 35
REMARK SMILES IDX 20 36 21 37 22 38 23 40 24 41 25 42 83 43 26 44 82 45 27 46
REMARK SMILES IDX 28 47 29 48 76 49 30 50 81 51 75 52 77 53 31 54 80 55 74 56
REMARK SMILES IDX 73 57 32 59 62 60 43 61 61 62 44 63 47 64 60 65 78 66 45 67
REMARK SMILES IDX 46 68 59 70 79 71 48 72 33 73 34 74 42 75 35 76 41 77 36 78
REMARK SMILES IDX 37 79 38 80 39 81 40 82 63 83 64 84 72 85 65 86 71 87 66 88
REMARK SMILES IDX 67 89 68 90 69 91 70 92 49 93 50 94 58 95 51 96 57 97 52 98
REMARK SMILES IDX 53 99 54 100 55 101 56 102
REMARK H PARENT 14 7 1 23 1 24 21 39 77 58 47 69
REMARK Flexibility Score: inf
ROOT
ATOM      1  C   UNL A   1      39.415  22.224  26.174  1.00  0.00     0.002 C 
ENDROOT
BRANCH   1   2
ATOM      2  C   UNL A   1      37.912  22.224  25.858  1.00  0.00     0.021 C 
BRANCH   2   3
ATOM      3  C   UNL A   1      37.492  21.143  24.860  1.00  0.00     0.116 C 
BRANCH   3   4
ATOM      4  N   UNL A   1      36.279  20.464  25.293  1.00  0.00    -0.351 N 
ATOM      5  C   UNL A   1      34.942  20.821  25.271  1.00  0.00     0.271 C 
ATOM      6  O   UNL A   1      34.144  19.949  25.622  1.00  0.00    -0.267 OA
ATOM      7  H   UNL A   1      36.443  19.574  25.679  1.00  0.00     0.163 HD
BRANCH   5   8
ATOM      8  C   UNL A   1      34.512  22.137  24.761  1.00  0.00     0.151 A 
ATOM      9  N   UNL A   1      33.594  24.079  24.860  1.00  0.00    -0.231 N 
ATOM     10  N   UNL A   1      34.330  23.191  25.582  1.00  0.00    -0.162 NA
ATOM     11  C   UNL A   1      33.305  23.578  23.612  1.00  0.00     0.085 A 
ATOM     12  C   UNL A   1      34.187  22.524  23.446  1.00  0.00     0.066 A 
BRANCH   9  13
ATOM     13  C   UNL A   1      33.308  25.352  25.400  1.00  0.00     0.065 A 
ATOM     14  C   UNL A   1      32.786  27.918  26.338  1.00  0.00     0.082 A 
ATOM     15  C   UNL A   1      32.049  26.835  26.830  1.00  0.00     0.024 A 
ATOM     16  C   UNL A   1      33.784  27.727  25.381  1.00  0.00     0.024 A 
ATOM     17  C   UNL A   1      32.292  25.549  26.340  1.00  0.00     0.030 A 
ATOM     18  C   UNL A   1      34.068  26.437  24.936  1.00  0.00     0.030 A 
BRANCH  14  19
ATOM     19  S   UNL A   1      32.461  29.568  26.873  1.00  0.00     0.238 S 
ATOM     20  O   UNL A   1      31.249  29.581  27.650  1.00  0.00    -0.207 OA
ATOM     21  O   UNL A   1      32.685  30.464  25.756  1.00  0.00    -0.207 OA
BRANCH  19  22
ATOM     22  N   UNL A   1      33.688  29.908  27.971  1.00  0.00    -0.225 NA
ATOM     23  H   UNL A   1      34.042  29.037  28.367  1.00  0.00     0.137 HD
ATOM     24  H   UNL A   1      33.320  30.495  28.721  1.00  0.00     0.137 HD
ENDBRANCH  19  22
ENDBRANCH  14  19
ENDBRANCH   9  13
BRANCH  11  25
ATOM     25  C   UNL A   1      32.239  23.881  22.698  1.00  0.00     0.054 A 
ATOM     26  C   UNL A   1      30.925  24.144  23.064  1.00  0.00     0.031 A 
ATOM     27  S   UNL A   1      32.603  24.983  21.404  1.00  0.00    -0.134 S 
ATOM     28  C   UNL A   1      30.796  25.592  23.107  1.00  0.00    -0.007 A 
ATOM     29  C   UNL A   1      31.760  26.205  22.296  1.00  0.00     0.035 A 
ATOM     30  C   UNL A   1      29.982  26.420  23.912  1.00  0.00     0.009 A 
ATOM     31  C   UNL A   1      31.972  27.591  22.291  1.00  0.00     0.019 A 
ATOM     32  C   UNL A   1      30.225  27.798  23.958  1.00  0.00     0.001 A 
ATOM     33  C   UNL A   1      31.214  28.372  23.164  1.00  0.00     0.001 A 
ENDBRANCH  11  25
ENDBRANCH   5   8
ENDBRANCH   3   4
ENDBRANCH   2   3
ENDBRANCH   1   2
BRANCH   1  34
ATOM     34  C   UNL A   1      40.059  20.844  26.417  1.00  0.00     0.002 C 
BRANCH  34  35
ATOM     35  C   UNL A   1      41.073  20.747  27.566  1.00  0.00     0.021 C 
BRANCH  35  36
ATOM     36  C   UNL A   1      42.067  21.893  27.601  1.00  0.00     0.116 C 
BRANCH  36  37
ATOM     37  N   UNL A   1      42.854  22.017  26.367  1.00  0.00    -0.352 N 
ATOM     38  C   UNL A   1      42.980  23.123  25.536  1.00  0.00     0.251 C 
ATOM     39  H   UNL A   1      43.355  21.215  26.094  1.00  0.00     0.163 HD
ATOM     40  O   UNL A   1      43.350  23.001  24.375  1.00  0.00    -0.269 OA
BRANCH  38  41
ATOM     41  C   UNL A   1      42.672  24.453  26.095  1.00  0.00     0.039 A 
ATOM     42  C   UNL A   1      41.565  25.220  25.719  1.00  0.00     0.014 A 
ATOM     43  C   UNL A   1      43.537  24.906  27.079  1.00  0.00     0.014 A 
ATOM     44  C   UNL A   1      41.337  26.422  26.389  1.00  0.00     0.010 A 
ATOM     45  C   UNL A   1      43.136  25.888  27.927  1.00  0.00     0.010 A 
ATOM     46  C   UNL A   1      42.137  26.740  27.497  1.00  0.00    -0.014 A 
BRANCH  46  47
ATOM     47  C   UNL A   1      41.967  27.935  28.302  1.00  0.00     0.031 A 
ATOM     48  C   UNL A   1      43.009  28.959  28.088  1.00  0.00     0.074 A 
ATOM     49  C   UNL A   1      40.819  28.188  28.975  1.00  0.00     0.049 A 
ATOM     50  N   UNL A   1      43.961  29.261  28.901  1.00  0.00    -0.248 NA
ATOM     51  C   UNL A   1      43.128  29.595  26.766  1.00  0.00     0.031 C 
ATOM     52  C   UNL A   1      39.572  27.407  29.009  1.00  0.00     0.029 A 
ATOM     53  N   UNL A   1      40.481  29.293  29.685  1.00  0.00    -0.354 N 
ATOM     54  C   UNL A   1      44.660  30.298  28.300  1.00  0.00     0.074 A 
ATOM     55  C   UNL A   1      44.243  30.313  26.920  1.00  0.00     0.031 C 
ATOM     56  C   UNL A   1      38.566  28.177  29.483  1.00  0.00     0.029 A 
ATOM     57  C   UNL A   1      39.120  29.439  29.935  1.00  0.00     0.049 A 
ATOM     58  H   UNL A   1      41.149  29.944  29.998  1.00  0.00     0.167 HD
ATOM     59  C   UNL A   1      45.332  31.216  29.047  1.00  0.00     0.031 A 
ATOM     60  C   UNL A   1      38.503  30.540  30.442  1.00  0.00     0.031 A 
ATOM     61  C   UNL A   1      45.374  30.832  30.437  1.00  0.00     0.049 A 
ATOM     62  C   UNL A   1      39.554  31.323  31.146  1.00  0.00     0.074 A 
ATOM     63  C   UNL A   1      45.879  29.747  31.126  1.00  0.00     0.029 A 
ATOM     64  N   UNL A   1      44.433  31.406  31.265  1.00  0.00    -0.354 N 
ATOM     65  N   UNL A   1      40.173  30.876  32.205  1.00  0.00    -0.248 NA
ATOM     66  C   UNL A   1      40.275  32.337  30.389  1.00  0.00     0.031 C 
ATOM     67  C   UNL A   1      44.883  29.438  32.098  1.00  0.00     0.029 A 
ATOM     68  C   UNL A   1      43.876  30.403  32.019  1.00  0.00     0.049 A 
ATOM     69  H   UNL A   1      44.203  32.363  31.308  1.00  0.00     0.167 HD
ATOM     70  C   UNL A   1      41.508  31.190  31.995  1.00  0.00     0.074 A 
ATOM     71  C   UNL A   1      41.499  32.170  30.907  1.00  0.00     0.031 C 
ATOM     72  C   UNL A   1      42.510  30.411  32.503  1.00  0.00     0.031 A 
BRANCH  59  73
ATOM     73  C   UNL A   1      45.603  32.629  28.617  1.00  0.00    -0.014 A 
ATOM     74  C   UNL A   1      46.942  33.029  28.440  1.00  0.00     0.010 A 
ATOM     75  C   UNL A   1      44.622  33.640  28.634  1.00  0.00     0.010 A 
ATOM     76  C   UNL A   1      47.288  34.381  28.346  1.00  0.00     0.020 A 
ATOM     77  C   UNL A   1      44.952  34.990  28.499  1.00  0.00     0.020 A 
ATOM     78  C   UNL A   1      46.288  35.354  28.388  1.00  0.00     0.054 A 
BRANCH  78  79
ATOM     79  S   UNL A   1      46.759  37.099  28.356  1.00  0.00     0.124 S 
ATOM     80  O   UNL A   1      45.458  37.760  28.297  1.00  0.00    -0.237 OA
ATOM     81  O   UNL A   1      47.488  37.244  29.612  1.00  0.00    -0.237 OA
ATOM     82  O   UNL A   1      47.574  37.211  27.150  1.00  0.00    -0.744 OA
ENDBRANCH  78  79
ENDBRANCH  59  73
BRANCH  60  83
ATOM     83  C   UNL A   1      37.200  31.126  30.016  1.00  0.00    -0.014 A 
ATOM     84  C   UNL A   1      36.223  31.505  30.960  1.00  0.00     0.010 A 
ATOM     85  C   UNL A   1      37.034  31.589  28.694  1.00  0.00     0.010 A 
ATOM     86  C   UNL A   1      35.182  32.390  30.616  1.00  0.00     0.020 A 
ATOM     87  C   UNL A   1      35.998  32.464  28.343  1.00  0.00     0.020 A 
ATOM     88  C   UNL A   1      35.095  32.888  29.314  1.00  0.00     0.054 A 
BRANCH  88  89
ATOM     89  S   UNL A   1      33.911  34.216  28.925  1.00  0.00     0.124 S 
ATOM     90  O   UNL A   1      33.023  33.570  27.963  1.00  0.00    -0.237 OA
ATOM     91  O   UNL A   1      33.326  34.512  30.230  1.00  0.00    -0.237 OA
ATOM     92  O   UNL A   1      34.756  35.276  28.377  1.00  0.00    -0.744 OA
ENDBRANCH  88  89
ENDBRANCH  60  83
BRANCH  72  93
ATOM     93  C   UNL A   1      42.146  29.322  33.493  1.00  0.00    -0.014 A 
ATOM     94  C   UNL A   1      41.898  27.979  33.136  1.00  0.00     0.010 A 
ATOM     95  C   UNL A   1      42.213  29.644  34.858  1.00  0.00     0.010 A 
ATOM     96  C   UNL A   1      41.688  27.000  34.121  1.00  0.00     0.020 A 
ATOM     97  C   UNL A   1      42.024  28.672  35.842  1.00  0.00     0.020 A 
ATOM     98  C   UNL A   1      41.748  27.356  35.470  1.00  0.00     0.054 A 
BRANCH  98  99
ATOM     99  S   UNL A   1      41.491  26.089  36.746  1.00  0.00     0.124 S 
ATOM    100  O   UNL A   1      42.837  25.899  37.278  1.00  0.00    -0.237 OA
ATOM    101  O   UNL A   1      40.540  26.727  37.652  1.00  0.00    -0.237 OA
ATOM    102  O   UNL A   1      40.956  24.950  36.001  1.00  0.00    -0.744 OA
ENDBRANCH  98  99
ENDBRANCH  72  93
ENDBRANCH  46  47
ENDBRANCH  38  41
ENDBRANCH  36  37
ENDBRANCH  35  36
ENDBRANCH  34  35
ENDBRANCH   1  34
TORSDOF 20
ENDMDL
