MODEL 1
REMARK VINA RESULT:      -9.6      0.000      0.000
REMARK SMILES O=C(COCCNC(=O)Nc1cccc(F)c1)NCCCCCCNC(=O)c1ccc(-c2c3nc(c(-c4ccc(S(=O)(=O)[O-])cc4)c4ccc([nH]4)c(-c4ccc(S(=O)(=O)[O-])cc4)c4nc(c(-c5ccc(S(=O)(=O)[O-])cc5)c5ccc2[nH]5)C=C4)C=C3)cc1
REMARK SMILES IDX 20 1 19 2 18 3 1 4 2 5 3 7 4 8 5 9 6 10 7 11 8 12 9 14 10 15
REMARK SMILES IDX 11 17 12 18 17 19 13 20 15 21 14 22 16 23 21 24 22 25 23 26
REMARK SMILES IDX 24 27 25 28 26 29 27 31 28 32 29 33 87 34 30 35 86 36 31 37
REMARK SMILES IDX 32 38 33 39 80 40 34 41 85 42 79 43 81 44 35 45 84 46 78 47
REMARK SMILES IDX 77 48 36 50 66 51 47 52 65 53 48 54 51 55 64 56 82 57 49 58
REMARK SMILES IDX 50 59 63 61 83 62 52 63 37 64 38 65 46 66 39 67 45 68 40 69
REMARK SMILES IDX 41 70 42 71 43 72 44 73 67 74 68 75 76 76 69 77 75 78 70 79
REMARK SMILES IDX 71 80 72 81 73 82 74 83 53 84 54 85 62 86 55 87 61 88 56 89
REMARK SMILES IDX 57 90 58 91 59 92 60 93
REMARK H PARENT 18 6 7 13 10 16 25 30 81 49 51 60
REMARK Flexibility Score: inf
ROOT
ATOM      1  C   UNL A   1      35.434  30.625  28.226  1.00  0.00     0.021 C 
ENDROOT
BRANCH   1   2
ATOM      2  C   UNL A   1      34.202  30.610  27.327  1.00  0.00     0.116 C 
BRANCH   2   3
ATOM      3  N   UNL A   1      33.359  29.484  27.644  1.00  0.00    -0.354 N 
ATOM      4  O   UNL A   1      31.673  29.974  26.154  1.00  0.00    -0.272 OA
ATOM      5  C   UNL A   1      32.144  29.265  27.035  1.00  0.00     0.245 C 
ATOM      6  H   UNL A   1      33.665  28.843  28.327  1.00  0.00     0.163 HD
BRANCH   5   7
ATOM      7  C   UNL A   1      31.399  28.058  27.611  1.00  0.00     0.260 C 
BRANCH   7   8
ATOM      8  O   UNL A   1      31.562  26.824  26.933  1.00  0.00    -0.370 OA
BRANCH   8   9
ATOM      9  C   UNL A   1      30.891  26.724  25.677  1.00  0.00     0.182 C 
BRANCH   9  10
ATOM     10  C   UNL A   1      30.367  25.332  25.329  1.00  0.00     0.146 C 
BRANCH  10  11
ATOM     11  N   UNL A   1      29.876  24.524  26.444  1.00  0.00    -0.336 N 
ATOM     12  C   UNL A   1      30.196  23.313  26.950  1.00  0.00     0.319 C 
ATOM     13  H   UNL A   1      29.146  24.960  26.937  1.00  0.00     0.165 HD
ATOM     14  O   UNL A   1      29.450  22.833  27.807  1.00  0.00    -0.249 OA
ATOM     15  N   UNL A   1      31.229  22.572  26.499  1.00  0.00    -0.308 N 
ATOM     16  H   UNL A   1      31.133  21.604  26.652  1.00  0.00     0.171 HD
BRANCH  15  17
ATOM     17  C   UNL A   1      32.411  22.938  25.853  1.00  0.00     0.045 A 
ATOM     18  C   UNL A   1      33.391  23.719  26.480  1.00  0.00     0.026 A 
ATOM     19  C   UNL A   1      32.570  22.553  24.525  1.00  0.00     0.065 A 
ATOM     20  C   UNL A   1      34.434  24.263  25.730  1.00  0.00     0.005 A 
ATOM     21  C   UNL A   1      33.609  23.105  23.787  1.00  0.00     0.125 A 
ATOM     22  C   UNL A   1      34.522  23.979  24.368  1.00  0.00     0.039 A 
ATOM     23  F   UNL A   1      33.700  22.834  22.479  1.00  0.00    -0.207 F 
ENDBRANCH  15  17
ENDBRANCH  10  11
ENDBRANCH   9  10
ENDBRANCH   8   9
ENDBRANCH   7   8
ENDBRANCH   5   7
ENDBRANCH   2   3
ENDBRANCH   1   2
BRANCH   1  24
ATOM     24  C   UNL A   1      35.657  31.961  28.950  1.00  0.00     0.002 C 
BRANCH  24  25
ATOM     25  C   UNL A   1      35.814  33.178  28.032  1.00  0.00     0.002 C 
BRANCH  25  26
ATOM     26  C   UNL A   1      34.778  34.281  28.243  1.00  0.00     0.021 C 
BRANCH  26  27
ATOM     27  C   UNL A   1      33.457  33.805  28.839  1.00  0.00     0.116 C 
BRANCH  27  28
ATOM     28  N   UNL A   1      32.865  34.793  29.727  1.00  0.00    -0.352 N 
ATOM     29  C   UNL A   1      33.192  35.096  31.027  1.00  0.00     0.251 C 
ATOM     30  H   UNL A   1      32.127  35.319  29.343  1.00  0.00     0.163 HD
ATOM     31  O   UNL A   1      32.469  35.833  31.687  1.00  0.00    -0.269 OA
BRANCH  29  32
ATOM     32  C   UNL A   1      34.408  34.506  31.630  1.00  0.00     0.039 A 
ATOM     33  C   UNL A   1      34.348  33.207  32.140  1.00  0.00     0.014 A 
ATOM     34  C   UNL A   1      35.605  35.226  31.681  1.00  0.00     0.014 A 
ATOM     35  C   UNL A   1      35.506  32.608  32.643  1.00  0.00     0.010 A 
ATOM     36  C   UNL A   1      36.771  34.601  32.112  1.00  0.00     0.010 A 
ATOM     37  C   UNL A   1      36.735  33.286  32.600  1.00  0.00    -0.014 A 
BRANCH  37  38
ATOM     38  C   UNL A   1      37.993  32.634  33.051  1.00  0.00     0.031 A 
ATOM     39  C   UNL A   1      38.526  32.893  34.435  1.00  0.00     0.074 A 
ATOM     40  C   UNL A   1      38.689  31.862  32.191  1.00  0.00     0.049 A 
ATOM     41  N   UNL A   1      39.630  32.458  34.987  1.00  0.00    -0.248 NA
ATOM     42  C   UNL A   1      37.727  33.771  35.307  1.00  0.00     0.031 C 
ATOM     43  C   UNL A   1      38.300  31.567  30.809  1.00  0.00     0.029 A 
ATOM     44  N   UNL A   1      39.876  31.190  32.350  1.00  0.00    -0.354 N 
ATOM     45  C   UNL A   1      39.671  33.028  36.254  1.00  0.00     0.074 A 
ATOM     46  C   UNL A   1      38.502  33.871  36.377  1.00  0.00     0.031 C 
ATOM     47  C   UNL A   1      39.215  30.752  30.258  1.00  0.00     0.029 A 
ATOM     48  C   UNL A   1      40.279  30.504  31.225  1.00  0.00     0.049 A 
ATOM     49  H   UNL A   1      40.391  31.196  33.188  1.00  0.00     0.167 HD
ATOM     50  C   UNL A   1      40.592  32.855  37.231  1.00  0.00     0.031 A 
ATOM     51  C   UNL A   1      41.385  29.770  30.994  1.00  0.00     0.031 A 
ATOM     52  C   UNL A   1      41.743  31.999  37.111  1.00  0.00     0.049 A 
ATOM     53  C   UNL A   1      42.398  29.605  32.096  1.00  0.00     0.074 A 
ATOM     54  C   UNL A   1      42.691  31.696  38.074  1.00  0.00     0.029 A 
ATOM     55  N   UNL A   1      42.110  31.317  35.961  1.00  0.00    -0.354 N 
ATOM     56  N   UNL A   1      42.371  30.080  33.318  1.00  0.00    -0.248 NA
ATOM     57  C   UNL A   1      43.586  28.795  31.791  1.00  0.00     0.031 C 
ATOM     58  C   UNL A   1      43.667  30.888  37.487  1.00  0.00     0.029 A 
ATOM     59  C   UNL A   1      43.290  30.625  36.179  1.00  0.00     0.049 A 
ATOM     60  H   UNL A   1      41.607  31.324  35.115  1.00  0.00     0.167 HD
ATOM     61  C   UNL A   1      43.520  29.598  33.937  1.00  0.00     0.074 A 
ATOM     62  C   UNL A   1      44.210  28.782  32.960  1.00  0.00     0.031 C 
ATOM     63  C   UNL A   1      43.962  29.810  35.201  1.00  0.00     0.031 A 
BRANCH  50  64
ATOM     64  C   UNL A   1      40.409  33.615  38.520  1.00  0.00    -0.014 A 
ATOM     65  C   UNL A   1      40.833  34.949  38.649  1.00  0.00     0.010 A 
ATOM     66  C   UNL A   1      39.732  33.005  39.592  1.00  0.00     0.010 A 
ATOM     67  C   UNL A   1      40.610  35.650  39.838  1.00  0.00     0.020 A 
ATOM     68  C   UNL A   1      39.480  33.712  40.772  1.00  0.00     0.020 A 
ATOM     69  C   UNL A   1      39.932  35.027  40.891  1.00  0.00     0.054 A 
BRANCH  69  70
ATOM     70  S   UNL A   1      39.612  35.979  42.402  1.00  0.00     0.124 S 
ATOM     71  O   UNL A   1      40.635  35.461  43.307  1.00  0.00    -0.237 OA
ATOM     72  O   UNL A   1      39.807  37.357  41.958  1.00  0.00    -0.237 OA
ATOM     73  O   UNL A   1      38.238  35.628  42.750  1.00  0.00    -0.744 OA
ENDBRANCH  69  70
ENDBRANCH  50  64
BRANCH  51  74
ATOM     74  C   UNL A   1      41.602  29.131  29.665  1.00  0.00    -0.014 A 
ATOM     75  C   UNL A   1      41.163  27.817  29.421  1.00  0.00     0.010 A 
ATOM     76  C   UNL A   1      42.271  29.826  28.641  1.00  0.00     0.010 A 
ATOM     77  C   UNL A   1      41.421  27.198  28.195  1.00  0.00     0.020 A 
ATOM     78  C   UNL A   1      42.501  29.222  27.401  1.00  0.00     0.020 A 
ATOM     79  C   UNL A   1      42.090  27.906  27.193  1.00  0.00     0.054 A 
BRANCH  79  80
ATOM     80  S   UNL A   1      42.399  27.088  25.603  1.00  0.00     0.124 S 
ATOM     81  O   UNL A   1      41.212  26.252  25.456  1.00  0.00    -0.237 OA
ATOM     82  O   UNL A   1      42.497  28.217  24.682  1.00  0.00    -0.237 OA
ATOM     83  O   UNL A   1      43.650  26.366  25.827  1.00  0.00    -0.744 OA
ENDBRANCH  79  80
ENDBRANCH  51  74
BRANCH  63  84
ATOM     84  C   UNL A   1      45.230  29.113  35.622  1.00  0.00    -0.014 A 
ATOM     85  C   UNL A   1      45.209  27.821  36.175  1.00  0.00     0.010 A 
ATOM     86  C   UNL A   1      46.470  29.745  35.403  1.00  0.00     0.010 A 
ATOM     87  C   UNL A   1      46.402  27.186  36.531  1.00  0.00     0.020 A 
ATOM     88  C   UNL A   1      47.665  29.101  35.728  1.00  0.00     0.020 A 
ATOM     89  C   UNL A   1      47.623  27.829  36.303  1.00  0.00     0.054 A 
BRANCH  89  90
ATOM     90  S   UNL A   1      49.159  26.964  36.730  1.00  0.00     0.124 S 
ATOM     91  O   UNL A   1      50.114  28.065  36.818  1.00  0.00    -0.237 OA
ATOM     92  O   UNL A   1      48.821  26.322  37.998  1.00  0.00    -0.237 OA
ATOM     93  O   UNL A   1      49.366  26.048  35.610  1.00  0.00    -0.744 OA
ENDBRANCH  89  90
ENDBRANCH  63  84
ENDBRANCH  37  38
ENDBRANCH  29  32
ENDBRANCH  27  28
ENDBRANCH  26  27
ENDBRANCH  25  26
ENDBRANCH  24  25
ENDBRANCH   1  24
TORSDOF 21
ENDMDL
MODEL 2
REMARK VINA RESULT:      -9.3      1.737      2.461
REMARK SMILES O=C(COCCNC(=O)Nc1cccc(F)c1)NCCCCCCNC(=O)c1ccc(-c2c3nc(c(-c4ccc(S(=O)(=O)[O-])cc4)c4ccc([nH]4)c(-c4ccc(S(=O)(=O)[O-])cc4)c4nc(c(-c5ccc(S(=O)(=O)[O-])cc5)c5ccc2[nH]5)C=C4)C=C3)cc1
REMARK SMILES IDX 20 1 19 2 18 3 1 4 2 5 3 7 4 8 5 9 6 10 7 11 8 12 9 14 10 15
REMARK SMILES IDX 11 17 12 18 17 19 13 20 15 21 14 22 16 23 21 24 22 25 23 26
REMARK SMILES IDX 24 27 25 28 26 29 27 31 28 32 29 33 87 34 30 35 86 36 31 37
REMARK SMILES IDX 32 38 33 39 80 40 34 41 85 42 79 43 81 44 35 45 84 46 78 47
REMARK SMILES IDX 77 48 36 50 66 51 47 52 65 53 48 54 51 55 64 56 82 57 49 58
REMARK SMILES IDX 50 59 63 61 83 62 52 63 37 64 38 65 46 66 39 67 45 68 40 69
REMARK SMILES IDX 41 70 42 71 43 72 44 73 67 74 68 75 76 76 69 77 75 78 70 79
REMARK SMILES IDX 71 80 72 81 73 82 74 83 53 84 54 85 62 86 55 87 61 88 56 89
REMARK SMILES IDX 57 90 58 91 59 92 60 93
REMARK H PARENT 18 6 7 13 10 16 25 30 81 49 51 60
REMARK Flexibility Score: inf
ROOT
ATOM      1  C   UNL A   1      33.698  29.392  24.945  1.00  0.00     0.021 C 
ENDROOT
BRANCH   1   2
ATOM      2  C   UNL A   1      33.926  27.930  24.577  1.00  0.00     0.116 C 
BRANCH   2   3
ATOM      3  N   UNL A   1      32.726  27.357  24.019  1.00  0.00    -0.354 N 
ATOM      4  O   UNL A   1      33.739  26.239  22.279  1.00  0.00    -0.272 OA
ATOM      5  C   UNL A   1      32.731  26.562  22.895  1.00  0.00     0.245 C 
ATOM      6  H   UNL A   1      31.865  27.542  24.461  1.00  0.00     0.163 HD
BRANCH   5   7
ATOM      7  C   UNL A   1      31.324  26.155  22.449  1.00  0.00     0.260 C 
BRANCH   7   8
ATOM      8  O   UNL A   1      30.750  25.031  23.094  1.00  0.00    -0.370 OA
BRANCH   8   9
ATOM      9  C   UNL A   1      29.857  25.332  24.167  1.00  0.00     0.182 C 
BRANCH   9  10
ATOM     10  C   UNL A   1      30.484  25.310  25.560  1.00  0.00     0.146 C 
BRANCH  10  11
ATOM     11  N   UNL A   1      29.874  24.407  26.534  1.00  0.00    -0.336 N 
ATOM     12  C   UNL A   1      30.083  23.124  26.897  1.00  0.00     0.319 C 
ATOM     13  H   UNL A   1      29.144  24.830  27.040  1.00  0.00     0.165 HD
ATOM     14  O   UNL A   1      29.256  22.596  27.644  1.00  0.00    -0.249 OA
ATOM     15  N   UNL A   1      31.092  22.371  26.410  1.00  0.00    -0.308 N 
ATOM     16  H   UNL A   1      30.924  21.401  26.432  1.00  0.00     0.171 HD
BRANCH  15  17
ATOM     17  C   UNL A   1      32.333  22.729  25.880  1.00  0.00     0.045 A 
ATOM     18  C   UNL A   1      33.324  23.344  26.656  1.00  0.00     0.026 A 
ATOM     19  C   UNL A   1      32.544  22.511  24.522  1.00  0.00     0.065 A 
ATOM     20  C   UNL A   1      34.445  23.902  26.040  1.00  0.00     0.005 A 
ATOM     21  C   UNL A   1      33.660  23.075  23.919  1.00  0.00     0.125 A 
ATOM     22  C   UNL A   1      34.595  23.794  24.658  1.00  0.00     0.039 A 
ATOM     23  F   UNL A   1      33.812  22.973  22.592  1.00  0.00    -0.207 F 
ENDBRANCH  15  17
ENDBRANCH  10  11
ENDBRANCH   9  10
ENDBRANCH   8   9
ENDBRANCH   7   8
ENDBRANCH   5   7
ENDBRANCH   2   3
ENDBRANCH   1   2
BRANCH   1  24
ATOM     24  C   UNL A   1      33.469  29.626  26.446  1.00  0.00     0.002 C 
BRANCH  24  25
ATOM     25  C   UNL A   1      32.077  30.147  26.817  1.00  0.00     0.002 C 
BRANCH  25  26
ATOM     26  C   UNL A   1      31.969  31.667  26.930  1.00  0.00     0.021 C 
BRANCH  26  27
ATOM     27  C   UNL A   1      33.185  32.345  27.553  1.00  0.00     0.116 C 
BRANCH  27  28
ATOM     28  N   UNL A   1      32.969  33.765  27.781  1.00  0.00    -0.352 N 
ATOM     29  C   UNL A   1      33.546  34.590  28.717  1.00  0.00     0.251 C 
ATOM     30  H   UNL A   1      32.318  34.195  27.182  1.00  0.00     0.163 HD
ATOM     31  O   UNL A   1      33.114  35.724  28.887  1.00  0.00    -0.269 OA
BRANCH  29  32
ATOM     32  C   UNL A   1      34.676  34.091  29.532  1.00  0.00     0.039 A 
ATOM     33  C   UNL A   1      34.404  33.370  30.696  1.00  0.00     0.014 A 
ATOM     34  C   UNL A   1      35.998  34.323  29.142  1.00  0.00     0.014 A 
ATOM     35  C   UNL A   1      35.457  32.827  31.436  1.00  0.00     0.010 A 
ATOM     36  C   UNL A   1      37.041  33.718  29.837  1.00  0.00     0.010 A 
ATOM     37  C   UNL A   1      36.783  32.965  30.993  1.00  0.00    -0.014 A 
BRANCH  37  38
ATOM     38  C   UNL A   1      37.910  32.322  31.719  1.00  0.00     0.031 A 
ATOM     39  C   UNL A   1      38.367  32.869  33.046  1.00  0.00     0.074 A 
ATOM     40  C   UNL A   1      38.565  31.287  31.152  1.00  0.00     0.049 A 
ATOM     41  N   UNL A   1      39.362  32.477  33.799  1.00  0.00    -0.248 NA
ATOM     42  C   UNL A   1      37.625  34.020  33.586  1.00  0.00     0.031 C 
ATOM     43  C   UNL A   1      38.245  30.690  29.852  1.00  0.00     0.029 A 
ATOM     44  N   UNL A   1      39.641  30.557  31.594  1.00  0.00    -0.354 N 
ATOM     45  C   UNL A   1      39.381  33.345  34.884  1.00  0.00     0.074 A 
ATOM     46  C   UNL A   1      38.324  34.309  34.675  1.00  0.00     0.031 C 
ATOM     47  C   UNL A   1      39.087  29.670  29.617  1.00  0.00     0.029 A 
ATOM     48  C   UNL A   1      40.036  29.568  30.721  1.00  0.00     0.049 A 
ATOM     49  H   UNL A   1      40.088  30.724  32.455  1.00  0.00     0.167 HD
ATOM     50  C   UNL A   1      40.198  33.332  35.965  1.00  0.00     0.031 A 
ATOM     51  C   UNL A   1      41.053  28.687  30.794  1.00  0.00     0.031 A 
ATOM     52  C   UNL A   1      41.236  32.358  36.179  1.00  0.00     0.049 A 
ATOM     53  C   UNL A   1      41.952  28.705  32.003  1.00  0.00     0.074 A 
ATOM     54  C   UNL A   1      42.063  32.215  37.280  1.00  0.00     0.029 A 
ATOM     55  N   UNL A   1      41.598  31.371  35.277  1.00  0.00    -0.354 N 
ATOM     56  N   UNL A   1      41.895  29.478  33.061  1.00  0.00    -0.248 NA
ATOM     57  C   UNL A   1      43.046  27.725  32.030  1.00  0.00     0.031 C 
ATOM     58  C   UNL A   1      42.968  31.185  37.015  1.00  0.00     0.029 A 
ATOM     59  C   UNL A   1      42.659  30.638  35.780  1.00  0.00     0.049 A 
ATOM     60  H   UNL A   1      41.164  31.213  34.408  1.00  0.00     0.167 HD
ATOM     61  C   UNL A   1      42.923  29.052  33.895  1.00  0.00     0.074 A 
ATOM     62  C   UNL A   1      43.574  27.946  33.225  1.00  0.00     0.031 C 
ATOM     63  C   UNL A   1      43.294  29.534  35.107  1.00  0.00     0.031 A 
BRANCH  50  64
ATOM     64  C   UNL A   1      40.018  34.412  37.001  1.00  0.00    -0.014 A 
ATOM     65  C   UNL A   1      40.729  35.623  36.929  1.00  0.00     0.010 A 
ATOM     66  C   UNL A   1      39.063  34.240  38.021  1.00  0.00     0.010 A 
ATOM     67  C   UNL A   1      40.511  36.630  37.874  1.00  0.00     0.020 A 
ATOM     68  C   UNL A   1      38.820  35.256  38.950  1.00  0.00     0.020 A 
ATOM     69  C   UNL A   1      39.555  36.440  38.877  1.00  0.00     0.054 A 
BRANCH  69  70
ATOM     70  S   UNL A   1      39.258  37.784  40.058  1.00  0.00     0.124 S 
ATOM     71  O   UNL A   1      40.488  38.564  39.943  1.00  0.00    -0.237 OA
ATOM     72  O   UNL A   1      38.058  38.422  39.521  1.00  0.00    -0.237 OA
ATOM     73  O   UNL A   1      39.075  37.094  41.332  1.00  0.00    -0.744 OA
ENDBRANCH  69  70
ENDBRANCH  50  64
BRANCH  51  74
ATOM     74  C   UNL A   1      41.284  27.710  29.692  1.00  0.00    -0.014 A 
ATOM     75  C   UNL A   1      42.419  27.816  28.868  1.00  0.00     0.010 A 
ATOM     76  C   UNL A   1      40.357  26.681  29.446  1.00  0.00     0.010 A 
ATOM     77  C   UNL A   1      42.603  26.936  27.797  1.00  0.00     0.020 A 
ATOM     78  C   UNL A   1      40.555  25.778  28.397  1.00  0.00     0.020 A 
ATOM     79  C   UNL A   1      41.667  25.924  27.568  1.00  0.00     0.054 A 
BRANCH  79  80
ATOM     80  S   UNL A   1      41.936  24.782  26.183  1.00  0.00     0.124 S 
ATOM     81  O   UNL A   1      41.887  25.682  25.035  1.00  0.00    -0.237 OA
ATOM     82  O   UNL A   1      43.246  24.216  26.491  1.00  0.00    -0.237 OA
ATOM     83  O   UNL A   1      40.819  23.845  26.293  1.00  0.00    -0.744 OA
ENDBRANCH  79  80
ENDBRANCH  51  74
BRANCH  63  84
ATOM     84  C   UNL A   1      44.427  28.839  35.817  1.00  0.00    -0.014 A 
ATOM     85  C   UNL A   1      45.758  29.267  35.668  1.00  0.00     0.010 A 
ATOM     86  C   UNL A   1      44.143  27.776  36.695  1.00  0.00     0.010 A 
ATOM     87  C   UNL A   1      46.788  28.623  36.360  1.00  0.00     0.020 A 
ATOM     88  C   UNL A   1      45.165  27.152  37.412  1.00  0.00     0.020 A 
ATOM     89  C   UNL A   1      46.484  27.571  37.230  1.00  0.00     0.054 A 
BRANCH  89  90
ATOM     90  S   UNL A   1      47.833  26.784  38.152  1.00  0.00     0.124 S 
ATOM     91  O   UNL A   1      47.501  25.367  38.028  1.00  0.00    -0.237 OA
ATOM     92  O   UNL A   1      49.018  27.218  37.417  1.00  0.00    -0.237 OA
ATOM     93  O   UNL A   1      47.704  27.337  39.499  1.00  0.00    -0.744 OA
ENDBRANCH  89  90
ENDBRANCH  63  84
ENDBRANCH  37  38
ENDBRANCH  29  32
ENDBRANCH  27  28
ENDBRANCH  26  27
ENDBRANCH  25  26
ENDBRANCH  24  25
ENDBRANCH   1  24
TORSDOF 21
ENDMDL
MODEL 3
REMARK VINA RESULT:      -8.8      3.157      4.873
REMARK SMILES O=C(COCCNC(=O)Nc1cccc(F)c1)NCCCCCCNC(=O)c1ccc(-c2c3nc(c(-c4ccc(S(=O)(=O)[O-])cc4)c4ccc([nH]4)c(-c4ccc(S(=O)(=O)[O-])cc4)c4nc(c(-c5ccc(S(=O)(=O)[O-])cc5)c5ccc2[nH]5)C=C4)C=C3)cc1
REMARK SMILES IDX 20 1 19 2 18 3 1 4 2 5 3 7 4 8 5 9 6 10 7 11 8 12 9 14 10 15
REMARK SMILES IDX 11 17 12 18 17 19 13 20 15 21 14 22 16 23 21 24 22 25 23 26
REMARK SMILES IDX 24 27 25 28 26 29 27 31 28 32 29 33 87 34 30 35 86 36 31 37
REMARK SMILES IDX 32 38 33 39 80 40 34 41 85 42 79 43 81 44 35 45 84 46 78 47
REMARK SMILES IDX 77 48 36 50 66 51 47 52 65 53 48 54 51 55 64 56 82 57 49 58
REMARK SMILES IDX 50 59 63 61 83 62 52 63 37 64 38 65 46 66 39 67 45 68 40 69
REMARK SMILES IDX 41 70 42 71 43 72 44 73 67 74 68 75 76 76 69 77 75 78 70 79
REMARK SMILES IDX 71 80 72 81 73 82 74 83 53 84 54 85 62 86 55 87 61 88 56 89
REMARK SMILES IDX 57 90 58 91 59 92 60 93
REMARK H PARENT 18 6 7 13 10 16 25 30 81 49 51 60
REMARK Flexibility Score: inf
ROOT
ATOM      1  C   UNL A   1      31.851  25.813  25.689  1.00  0.00     0.021 C 
ENDROOT
BRANCH   1   2
ATOM      2  C   UNL A   1      31.933  24.860  24.501  1.00  0.00     0.116 C 
BRANCH   2   3
ATOM      3  N   UNL A   1      33.272  24.342  24.361  1.00  0.00    -0.354 N 
ATOM      4  O   UNL A   1      33.179  23.949  22.094  1.00  0.00    -0.272 OA
ATOM      5  C   UNL A   1      33.784  23.911  23.158  1.00  0.00     0.245 C 
ATOM      6  H   UNL A   1      33.846  24.295  25.161  1.00  0.00     0.163 HD
BRANCH   5   7
ATOM      7  C   UNL A   1      35.191  23.321  23.288  1.00  0.00     0.260 C 
BRANCH   7   8
ATOM      8  O   UNL A   1      35.630  23.002  24.598  1.00  0.00    -0.370 OA
BRANCH   8   9
ATOM      9  C   UNL A   1      36.066  21.655  24.785  1.00  0.00     0.182 C 
BRANCH   9  10
ATOM     10  C   UNL A   1      35.028  20.716  25.397  1.00  0.00     0.146 C 
BRANCH  10  11
ATOM     11  N   UNL A   1      33.729  21.304  25.720  1.00  0.00    -0.336 N 
ATOM     12  C   UNL A   1      32.449  20.998  25.416  1.00  0.00     0.319 C 
ATOM     13  H   UNL A   1      33.803  22.104  26.287  1.00  0.00     0.165 HD
ATOM     14  O   UNL A   1      31.577  21.821  25.706  1.00  0.00    -0.249 OA
ATOM     15  N   UNL A   1      32.095  19.890  24.732  1.00  0.00    -0.308 N 
ATOM     16  H   UNL A   1      31.239  19.966  24.250  1.00  0.00     0.171 HD
BRANCH  15  17
ATOM     17  C   UNL A   1      32.730  18.656  24.589  1.00  0.00     0.045 A 
ATOM     18  C   UNL A   1      33.421  18.305  23.422  1.00  0.00     0.026 A 
ATOM     19  C   UNL A   1      32.607  17.739  25.630  1.00  0.00     0.065 A 
ATOM     20  C   UNL A   1      33.829  16.985  23.224  1.00  0.00     0.005 A 
ATOM     21  C   UNL A   1      33.012  16.428  25.419  1.00  0.00     0.125 A 
ATOM     22  C   UNL A   1      33.592  16.036  24.217  1.00  0.00     0.039 A 
ATOM     23  F   UNL A   1      32.790  15.511  26.370  1.00  0.00    -0.207 F 
ENDBRANCH  15  17
ENDBRANCH  10  11
ENDBRANCH   9  10
ENDBRANCH   8   9
ENDBRANCH   7   8
ENDBRANCH   5   7
ENDBRANCH   2   3
ENDBRANCH   1   2
BRANCH   1  24
ATOM     24  C   UNL A   1      31.840  27.297  25.292  1.00  0.00     0.002 C 
BRANCH  24  25
ATOM     25  C   UNL A   1      33.132  27.806  24.646  1.00  0.00     0.002 C 
BRANCH  25  26
ATOM     26  C   UNL A   1      33.459  29.272  24.930  1.00  0.00     0.021 C 
BRANCH  26  27
ATOM     27  C   UNL A   1      34.275  29.506  26.197  1.00  0.00     0.116 C 
BRANCH  27  28
ATOM     28  N   UNL A   1      33.901  30.738  26.874  1.00  0.00    -0.352 N 
ATOM     29  C   UNL A   1      34.458  31.317  27.989  1.00  0.00     0.251 C 
ATOM     30  H   UNL A   1      33.143  31.225  26.478  1.00  0.00     0.163 HD
ATOM     31  O   UNL A   1      33.903  32.264  28.532  1.00  0.00    -0.269 OA
BRANCH  29  32
ATOM     32  C   UNL A   1      35.720  30.774  28.541  1.00  0.00     0.039 A 
ATOM     33  C   UNL A   1      36.934  31.318  28.115  1.00  0.00     0.014 A 
ATOM     34  C   UNL A   1      35.704  29.742  29.483  1.00  0.00     0.014 A 
ATOM     35  C   UNL A   1      38.129  30.869  28.682  1.00  0.00     0.010 A 
ATOM     36  C   UNL A   1      36.888  29.351  30.101  1.00  0.00     0.010 A 
ATOM     37  C   UNL A   1      38.114  29.908  29.706  1.00  0.00    -0.014 A 
BRANCH  37  38
ATOM     38  C   UNL A   1      39.367  29.480  30.382  1.00  0.00     0.031 A 
ATOM     39  C   UNL A   1      39.849  30.202  31.613  1.00  0.00     0.074 A 
ATOM     40  C   UNL A   1      40.107  28.486  29.849  1.00  0.00     0.049 A 
ATOM     41  N   UNL A   1      40.941  30.009  32.306  1.00  0.00    -0.248 NA
ATOM     42  C   UNL A   1      39.005  31.298  32.119  1.00  0.00     0.031 C 
ATOM     43  C   UNL A   1      39.770  27.733  28.636  1.00  0.00     0.029 A 
ATOM     44  N   UNL A   1      41.300  27.939  30.254  1.00  0.00    -0.354 N 
ATOM     45  C   UNL A   1      40.930  30.970  33.309  1.00  0.00     0.074 A 
ATOM     46  C   UNL A   1      39.742  31.773  33.113  1.00  0.00     0.031 C 
ATOM     47  C   UNL A   1      40.718  26.808  28.414  1.00  0.00     0.029 A 
ATOM     48  C   UNL A   1      41.753  26.929  29.435  1.00  0.00     0.049 A 
ATOM     49  H   UNL A   1      41.786  28.241  31.055  1.00  0.00     0.167 HD
ATOM     50  C   UNL A   1      41.821  31.161  34.311  1.00  0.00     0.031 A 
ATOM     51  C   UNL A   1      42.879  26.191  29.492  1.00  0.00     0.031 A 
ATOM     52  C   UNL A   1      42.991  30.347  34.514  1.00  0.00     0.049 A 
ATOM     53  C   UNL A   1      43.858  26.434  30.611  1.00  0.00     0.074 A 
ATOM     54  C   UNL A   1      43.911  30.412  35.547  1.00  0.00     0.029 A 
ATOM     55  N   UNL A   1      43.409  29.331  33.669  1.00  0.00    -0.354 N 
ATOM     56  N   UNL A   1      43.781  27.290  31.602  1.00  0.00    -0.248 NA
ATOM     57  C   UNL A   1      45.070  25.603  30.625  1.00  0.00     0.031 C 
ATOM     58  C   UNL A   1      44.921  29.482  35.290  1.00  0.00     0.029 A 
ATOM     59  C   UNL A   1      44.593  28.787  34.136  1.00  0.00     0.049 A 
ATOM     60  H   UNL A   1      42.934  29.040  32.858  1.00  0.00     0.167 HD
ATOM     61  C   UNL A   1      44.917  27.075  32.375  1.00  0.00     0.074 A 
ATOM     62  C   UNL A   1      45.654  25.999  31.746  1.00  0.00     0.031 C 
ATOM     63  C   UNL A   1      45.313  27.710  33.505  1.00  0.00     0.031 A 
BRANCH  50  64
ATOM     64  C   UNL A   1      41.580  32.303  35.265  1.00  0.00    -0.014 A 
ATOM     65  C   UNL A   1      42.026  33.605  34.976  1.00  0.00     0.010 A 
ATOM     66  C   UNL A   1      40.829  32.081  36.434  1.00  0.00     0.010 A 
ATOM     67  C   UNL A   1      41.749  34.658  35.853  1.00  0.00     0.020 A 
ATOM     68  C   UNL A   1      40.525  33.137  37.299  1.00  0.00     0.020 A 
ATOM     69  C   UNL A   1      40.998  34.417  37.008  1.00  0.00     0.054 A 
BRANCH  69  70
ATOM     70  S   UNL A   1      40.613  35.813  38.100  1.00  0.00     0.124 S 
ATOM     71  O   UNL A   1      41.943  36.229  38.539  1.00  0.00    -0.237 OA
ATOM     72  O   UNL A   1      39.930  36.742  37.203  1.00  0.00    -0.237 OA
ATOM     73  O   UNL A   1      39.772  35.221  39.138  1.00  0.00    -0.744 OA
ENDBRANCH  69  70
ENDBRANCH  50  64
BRANCH  51  74
ATOM     74  C   UNL A   1      43.152  25.151  28.460  1.00  0.00    -0.014 A 
ATOM     75  C   UNL A   1      43.764  25.494  27.241  1.00  0.00     0.010 A 
ATOM     76  C   UNL A   1      42.779  23.813  28.680  1.00  0.00     0.010 A 
ATOM     77  C   UNL A   1      43.964  24.529  26.249  1.00  0.00     0.020 A 
ATOM     78  C   UNL A   1      43.007  22.838  27.705  1.00  0.00     0.020 A 
ATOM     79  C   UNL A   1      43.581  23.206  26.489  1.00  0.00     0.054 A 
BRANCH  79  80
ATOM     80  S   UNL A   1      43.866  21.967  25.194  1.00  0.00     0.124 S 
ATOM     81  O   UNL A   1      42.773  21.029  25.428  1.00  0.00    -0.237 OA
ATOM     82  O   UNL A   1      43.772  22.759  23.972  1.00  0.00    -0.237 OA
ATOM     83  O   UNL A   1      45.203  21.458  25.497  1.00  0.00    -0.744 OA
ENDBRANCH  79  80
ENDBRANCH  51  74
BRANCH  63  84
ATOM     84  C   UNL A   1      46.579  27.232  34.168  1.00  0.00    -0.014 A 
ATOM     85  C   UNL A   1      47.829  27.789  33.851  1.00  0.00     0.010 A 
ATOM     86  C   UNL A   1      46.502  26.246  35.172  1.00  0.00     0.010 A 
ATOM     87  C   UNL A   1      48.985  27.345  34.501  1.00  0.00     0.020 A 
ATOM     88  C   UNL A   1      47.649  25.825  35.846  1.00  0.00     0.020 A 
ATOM     89  C   UNL A   1      48.887  26.368  35.497  1.00  0.00     0.054 A 
BRANCH  89  90
ATOM     90  S   UNL A   1      50.395  25.845  36.358  1.00  0.00     0.124 S 
ATOM     91  O   UNL A   1      51.010  27.125  36.699  1.00  0.00    -0.237 OA
ATOM     92  O   UNL A   1      49.869  25.080  37.486  1.00  0.00    -0.237 OA
ATOM     93  O   UNL A   1      51.111  25.057  35.358  1.00  0.00    -0.744 OA
ENDBRANCH  89  90
ENDBRANCH  63  84
ENDBRANCH  37  38
ENDBRANCH  29  32
ENDBRANCH  27  28
ENDBRANCH  26  27
ENDBRANCH  25  26
ENDBRANCH  24  25
ENDBRANCH   1  24
TORSDOF 21
ENDMDL
