MODEL 1
REMARK VINA RESULT:     -10.2      0.000      0.000
REMARK SMILES O=C(NCCCCCCNC(=O)[C@H]1CC(=O)N(c2cccc(OC(F)(F)F)c2)C1)c1ccc(-c2c3nc(c(-c4ccc(S(=O)(=O)[O-])cc4)c4ccc([nH]4)c(-c4ccc(S(=O)(=O)[O-])cc4)c4nc(c(-c5ccc(S(=O)(=O)[O-])cc5)c5ccc2[nH]5)C=C4)C=C3)cc1
REMARK SMILES IDX 6 1 5 2 4 3 3 4 1 5 2 6 30 8 31 9 89 10 32 11 88 12 33 13
REMARK SMILES IDX 34 14 35 15 82 16 36 17 87 18 81 19 83 20 37 21 86 22 80 23
REMARK SMILES IDX 79 24 38 26 68 27 49 28 67 29 50 30 53 31 66 32 84 33 51 34
REMARK SMILES IDX 52 35 65 37 85 38 54 39 39 40 40 41 48 42 41 43 47 44 42 45
REMARK SMILES IDX 43 46 44 47 45 48 46 49 69 50 70 51 78 52 71 53 77 54 72 55
REMARK SMILES IDX 73 56 74 57 75 58 76 59 55 60 56 61 64 62 57 63 63 64 58 65
REMARK SMILES IDX 59 66 60 67 61 68 62 69 7 70 8 71 9 72 10 73 11 74 12 76
REMARK SMILES IDX 13 77 14 78 29 79 15 80 17 81 16 82 18 83 19 84 28 85 20 86
REMARK SMILES IDX 22 87 21 88 23 89 24 90 25 91 26 92 27 93
REMARK H PARENT 3 7 83 25 53 36 10 75
REMARK Flexibility Score: inf
ROOT
ATOM      1  C   UNL A   1      35.494  22.269  23.836  1.00  0.00     0.002 C 
ENDROOT
BRANCH   1   2
ATOM      2  C   UNL A   1      36.163  23.589  24.214  1.00  0.00     0.021 C 
BRANCH   2   3
ATOM      3  C   UNL A   1      36.781  23.602  25.605  1.00  0.00     0.116 C 
BRANCH   3   4
ATOM      4  N   UNL A   1      37.918  22.700  25.720  1.00  0.00    -0.352 N 
ATOM      5  O   UNL A   1      40.071  22.121  26.077  1.00  0.00    -0.269 OA
ATOM      6  C   UNL A   1      39.180  22.953  26.207  1.00  0.00     0.251 C 
ATOM      7  H   UNL A   1      37.763  21.781  25.405  1.00  0.00     0.163 HD
BRANCH   6   8
ATOM      8  C   UNL A   1      39.457  24.252  26.860  1.00  0.00     0.039 A 
ATOM      9  C   UNL A   1      40.170  25.242  26.182  1.00  0.00     0.014 A 
ATOM     10  C   UNL A   1      39.042  24.462  28.176  1.00  0.00     0.014 A 
ATOM     11  C   UNL A   1      40.629  26.353  26.875  1.00  0.00     0.010 A 
ATOM     12  C   UNL A   1      39.413  25.638  28.839  1.00  0.00     0.010 A 
ATOM     13  C   UNL A   1      40.253  26.571  28.211  1.00  0.00    -0.014 A 
BRANCH  13  14
ATOM     14  C   UNL A   1      40.731  27.795  28.907  1.00  0.00     0.031 A 
ATOM     15  C   UNL A   1      42.155  27.917  29.387  1.00  0.00     0.074 A 
ATOM     16  C   UNL A   1      39.877  28.827  29.061  1.00  0.00     0.049 A 
ATOM     17  N   UNL A   1      42.744  28.938  29.957  1.00  0.00    -0.248 NA
ATOM     18  C   UNL A   1      43.027  26.745  29.216  1.00  0.00     0.031 C 
ATOM     19  C   UNL A   1      38.472  28.830  28.640  1.00  0.00     0.029 A 
ATOM     20  N   UNL A   1      40.066  30.080  29.584  1.00  0.00    -0.354 N 
ATOM     21  C   UNL A   1      44.043  28.527  30.237  1.00  0.00     0.074 A 
ATOM     22  C   UNL A   1      44.148  27.152  29.798  1.00  0.00     0.031 C 
ATOM     23  C   UNL A   1      37.949  30.043  28.859  1.00  0.00     0.029 A 
ATOM     24  C   UNL A   1      38.951  30.881  29.505  1.00  0.00     0.049 A 
ATOM     25  H   UNL A   1      40.917  30.378  29.977  1.00  0.00     0.167 HD
ATOM     26  C   UNL A   1      45.053  29.229  30.804  1.00  0.00     0.031 A 
ATOM     27  C   UNL A   1      38.747  32.147  29.917  1.00  0.00     0.031 A 
ATOM     28  C   UNL A   1      44.940  30.598  31.240  1.00  0.00     0.049 A 
ATOM     29  C   UNL A   1      39.876  32.891  30.568  1.00  0.00     0.074 A 
ATOM     30  C   UNL A   1      45.919  31.409  31.791  1.00  0.00     0.029 A 
ATOM     31  N   UNL A   1      43.782  31.359  31.182  1.00  0.00    -0.354 N 
ATOM     32  N   UNL A   1      41.107  32.494  30.786  1.00  0.00    -0.248 NA
ATOM     33  C   UNL A   1      39.589  34.257  31.022  1.00  0.00     0.031 C 
ATOM     34  C   UNL A   1      45.336  32.634  32.127  1.00  0.00     0.029 A 
ATOM     35  C   UNL A   1      44.013  32.617  31.713  1.00  0.00     0.049 A 
ATOM     36  H   UNL A   1      42.921  31.049  30.818  1.00  0.00     0.167 HD
ATOM     37  C   UNL A   1      41.752  33.576  31.374  1.00  0.00     0.074 A 
ATOM     38  C   UNL A   1      40.778  34.646  31.461  1.00  0.00     0.031 C 
ATOM     39  C   UNL A   1      43.036  33.675  31.798  1.00  0.00     0.031 A 
BRANCH  26  40
ATOM     40  C   UNL A   1      46.367  28.519  31.025  1.00  0.00    -0.014 A 
ATOM     41  C   UNL A   1      46.619  27.781  32.197  1.00  0.00     0.010 A 
ATOM     42  C   UNL A   1      47.350  28.551  30.017  1.00  0.00     0.010 A 
ATOM     43  C   UNL A   1      47.843  27.128  32.374  1.00  0.00     0.020 A 
ATOM     44  C   UNL A   1      48.563  27.873  30.178  1.00  0.00     0.020 A 
ATOM     45  C   UNL A   1      48.808  27.181  31.364  1.00  0.00     0.054 A 
BRANCH  45  46
ATOM     46  S   UNL A   1      50.380  26.311  31.617  1.00  0.00     0.124 S 
ATOM     47  O   UNL A   1      51.211  26.878  30.558  1.00  0.00    -0.237 OA
ATOM     48  O   UNL A   1      50.745  26.699  32.977  1.00  0.00    -0.237 OA
ATOM     49  O   UNL A   1      50.029  24.903  31.445  1.00  0.00    -0.744 OA
ENDBRANCH  45  46
ENDBRANCH  26  40
BRANCH  27  50
ATOM     50  C   UNL A   1      37.415  32.783  29.722  1.00  0.00    -0.014 A 
ATOM     51  C   UNL A   1      36.469  32.800  30.762  1.00  0.00     0.010 A 
ATOM     52  C   UNL A   1      37.093  33.391  28.495  1.00  0.00     0.010 A 
ATOM     53  C   UNL A   1      35.219  33.394  30.572  1.00  0.00     0.020 A 
ATOM     54  C   UNL A   1      35.858  34.018  28.312  1.00  0.00     0.020 A 
ATOM     55  C   UNL A   1      34.923  34.002  29.348  1.00  0.00     0.054 A 
BRANCH  55  56
ATOM     56  S   UNL A   1      33.311  34.807  29.141  1.00  0.00     0.124 S 
ATOM     57  O   UNL A   1      33.687  36.097  28.573  1.00  0.00    -0.237 OA
ATOM     58  O   UNL A   1      32.618  33.893  28.235  1.00  0.00    -0.237 OA
ATOM     59  O   UNL A   1      32.774  34.852  30.499  1.00  0.00    -0.744 OA
ENDBRANCH  55  56
ENDBRANCH  27  50
BRANCH  39  60
ATOM     60  C   UNL A   1      43.480  35.006  32.346  1.00  0.00    -0.014 A 
ATOM     61  C   UNL A   1      44.208  35.922  31.566  1.00  0.00     0.010 A 
ATOM     62  C   UNL A   1      43.137  35.354  33.667  1.00  0.00     0.010 A 
ATOM     63  C   UNL A   1      44.627  37.138  32.112  1.00  0.00     0.020 A 
ATOM     64  C   UNL A   1      43.523  36.583  34.204  1.00  0.00     0.020 A 
ATOM     65  C   UNL A   1      44.284  37.460  33.429  1.00  0.00     0.054 A 
BRANCH  65  66
ATOM     66  S   UNL A   1      44.822  39.052  34.108  1.00  0.00     0.124 S 
ATOM     67  O   UNL A   1      43.548  39.721  34.359  1.00  0.00    -0.237 OA
ATOM     68  O   UNL A   1      45.569  38.656  35.299  1.00  0.00    -0.237 OA
ATOM     69  O   UNL A   1      45.630  39.632  33.037  1.00  0.00    -0.744 OA
ENDBRANCH  65  66
ENDBRANCH  39  60
ENDBRANCH  13  14
ENDBRANCH   6   8
ENDBRANCH   3   4
ENDBRANCH   2   3
ENDBRANCH   1   2
BRANCH   1  70
ATOM     70  C   UNL A   1      35.079  21.396  25.025  1.00  0.00     0.002 C 
BRANCH  70  71
ATOM     71  C   UNL A   1      34.015  20.333  24.713  1.00  0.00     0.021 C 
BRANCH  71  72
ATOM     72  C   UNL A   1      32.668  20.589  25.387  1.00  0.00     0.116 C 
BRANCH  72  73
ATOM     73  N   UNL A   1      32.863  21.166  26.703  1.00  0.00    -0.356 N 
ATOM     74  C   UNL A   1      32.663  22.434  27.147  1.00  0.00     0.225 C 
ATOM     75  H   UNL A   1      33.196  20.537  27.384  1.00  0.00     0.163 HD
ATOM     76  O   UNL A   1      32.965  22.688  28.312  1.00  0.00    -0.275 OA
BRANCH  74  77
ATOM     77  C   UNL A   1      32.056  23.460  26.217  1.00  0.00     0.107 C 
ATOM     78  C   UNL A   1      30.555  23.628  26.459  1.00  0.00     0.116 C 
ATOM     79  C   UNL A   1      32.611  24.853  26.456  1.00  0.00     0.139 C 
ATOM     80  C   UNL A   1      30.295  25.081  26.167  1.00  0.00     0.227 C 
ATOM     81  N   UNL A   1      31.525  25.733  26.109  1.00  0.00    -0.311 N 
ATOM     82  O   UNL A   1      29.178  25.553  26.007  1.00  0.00    -0.274 OA
BRANCH  81  83
ATOM     83  C   UNL A   1      31.700  27.117  25.914  1.00  0.00     0.047 A 
ATOM     84  C   UNL A   1      31.390  27.706  24.684  1.00  0.00     0.026 A 
ATOM     85  C   UNL A   1      32.184  27.918  26.957  1.00  0.00     0.073 A 
ATOM     86  C   UNL A   1      31.528  29.083  24.512  1.00  0.00     0.006 A 
ATOM     87  C   UNL A   1      32.391  29.286  26.767  1.00  0.00     0.131 A 
ATOM     88  C   UNL A   1      32.031  29.867  25.549  1.00  0.00     0.047 A 
BRANCH  87  89
ATOM     89  O   UNL A   1      32.925  30.151  27.680  1.00  0.00    -0.406 OA
BRANCH  89  90
ATOM     90  C   UNL A   1      34.319  30.399  27.599  1.00  0.00     0.573 C 
ATOM     91  F   UNL A   1      34.865  30.524  28.826  1.00  0.00    -0.132 F 
ATOM     92  F   UNL A   1      34.959  29.425  26.914  1.00  0.00    -0.132 F 
ATOM     93  F   UNL A   1      34.513  31.564  26.938  1.00  0.00    -0.132 F 
ENDBRANCH  89  90
ENDBRANCH  87  89
ENDBRANCH  81  83
ENDBRANCH  74  77
ENDBRANCH  72  73
ENDBRANCH  71  72
ENDBRANCH  70  71
ENDBRANCH   1  70
TORSDOF 19
ENDMDL
MODEL 2
REMARK VINA RESULT:     -10.0      1.224      8.150
REMARK SMILES O=C(NCCCCCCNC(=O)[C@H]1CC(=O)N(c2cccc(OC(F)(F)F)c2)C1)c1ccc(-c2c3nc(c(-c4ccc(S(=O)(=O)[O-])cc4)c4ccc([nH]4)c(-c4ccc(S(=O)(=O)[O-])cc4)c4nc(c(-c5ccc(S(=O)(=O)[O-])cc5)c5ccc2[nH]5)C=C4)C=C3)cc1
REMARK SMILES IDX 6 1 5 2 4 3 3 4 1 5 2 6 30 8 31 9 89 10 32 11 88 12 33 13
REMARK SMILES IDX 34 14 35 15 82 16 36 17 87 18 81 19 83 20 37 21 86 22 80 23
REMARK SMILES IDX 79 24 38 26 68 27 49 28 67 29 50 30 53 31 66 32 84 33 51 34
REMARK SMILES IDX 52 35 65 37 85 38 54 39 39 40 40 41 48 42 41 43 47 44 42 45
REMARK SMILES IDX 43 46 44 47 45 48 46 49 69 50 70 51 78 52 71 53 77 54 72 55
REMARK SMILES IDX 73 56 74 57 75 58 76 59 55 60 56 61 64 62 57 63 63 64 58 65
REMARK SMILES IDX 59 66 60 67 61 68 62 69 7 70 8 71 9 72 10 73 11 74 12 76
REMARK SMILES IDX 13 77 14 78 29 79 15 80 17 81 16 82 18 83 19 84 28 85 20 86
REMARK SMILES IDX 22 87 21 88 23 89 24 90 25 91 26 92 27 93
REMARK H PARENT 3 7 83 25 53 36 10 75
REMARK Flexibility Score: inf
ROOT
ATOM      1  C   UNL A   1      35.678  21.876  24.244  1.00  0.00     0.002 C 
ENDROOT
BRANCH   1   2
ATOM      2  C   UNL A   1      35.920  23.381  24.330  1.00  0.00     0.021 C 
BRANCH   2   3
ATOM      3  C   UNL A   1      36.862  23.802  25.450  1.00  0.00     0.116 C 
BRANCH   3   4
ATOM      4  N   UNL A   1      37.966  22.870  25.630  1.00  0.00    -0.352 N 
ATOM      5  O   UNL A   1      40.077  22.233  26.117  1.00  0.00    -0.269 OA
ATOM      6  C   UNL A   1      39.201  23.088  26.197  1.00  0.00     0.251 C 
ATOM      7  H   UNL A   1      37.807  21.957  25.300  1.00  0.00     0.163 HD
BRANCH   6   8
ATOM      8  C   UNL A   1      39.470  24.376  26.873  1.00  0.00     0.039 A 
ATOM      9  C   UNL A   1      40.189  25.377  26.218  1.00  0.00     0.014 A 
ATOM     10  C   UNL A   1      39.041  24.566  28.188  1.00  0.00     0.014 A 
ATOM     11  C   UNL A   1      40.640  26.478  26.934  1.00  0.00     0.010 A 
ATOM     12  C   UNL A   1      39.404  25.730  28.873  1.00  0.00     0.010 A 
ATOM     13  C   UNL A   1      40.249  26.674  28.269  1.00  0.00    -0.014 A 
BRANCH  13  14
ATOM     14  C   UNL A   1      40.719  27.887  28.990  1.00  0.00     0.031 A 
ATOM     15  C   UNL A   1      39.805  29.064  29.220  1.00  0.00     0.074 A 
ATOM     16  C   UNL A   1      41.973  27.902  29.484  1.00  0.00     0.049 A 
ATOM     17  N   UNL A   1      40.042  30.170  29.879  1.00  0.00    -0.248 NA
ATOM     18  C   UNL A   1      38.459  28.999  28.630  1.00  0.00     0.031 C 
ATOM     19  C   UNL A   1      42.955  26.823  29.325  1.00  0.00     0.029 A 
ATOM     20  N   UNL A   1      42.631  28.836  30.241  1.00  0.00    -0.354 N 
ATOM     21  C   UNL A   1      38.891  30.942  29.763  1.00  0.00     0.074 A 
ATOM     22  C   UNL A   1      37.965  30.189  28.946  1.00  0.00     0.031 C 
ATOM     23  C   UNL A   1      44.060  27.128  30.019  1.00  0.00     0.029 A 
ATOM     24  C   UNL A   1      43.899  28.451  30.607  1.00  0.00     0.049 A 
ATOM     25  H   UNL A   1      42.234  29.699  30.498  1.00  0.00     0.167 HD
ATOM     26  C   UNL A   1      38.629  32.163  30.288  1.00  0.00     0.031 A 
ATOM     27  C   UNL A   1      44.840  29.094  31.325  1.00  0.00     0.031 A 
ATOM     28  C   UNL A   1      39.557  32.908  31.102  1.00  0.00     0.049 A 
ATOM     29  C   UNL A   1      44.533  30.457  31.872  1.00  0.00     0.074 A 
ATOM     30  C   UNL A   1      39.371  34.137  31.713  1.00  0.00     0.029 A 
ATOM     31  N   UNL A   1      40.847  32.503  31.412  1.00  0.00    -0.354 N 
ATOM     32  N   UNL A   1      43.422  31.150  31.781  1.00  0.00    -0.248 NA
ATOM     33  C   UNL A   1      45.604  31.122  32.624  1.00  0.00     0.031 C 
ATOM     34  C   UNL A   1      40.568  34.503  32.336  1.00  0.00     0.029 A 
ATOM     35  C   UNL A   1      41.476  33.468  32.180  1.00  0.00     0.049 A 
ATOM     36  H   UNL A   1      41.256  31.653  31.127  1.00  0.00     0.167 HD
ATOM     37  C   UNL A   1      43.652  32.321  32.495  1.00  0.00     0.074 A 
ATOM     38  C   UNL A   1      44.999  32.233  33.022  1.00  0.00     0.031 C 
ATOM     39  C   UNL A   1      42.819  33.371  32.698  1.00  0.00     0.031 A 
BRANCH  26  40
ATOM     40  C   UNL A   1      37.296  32.796  29.972  1.00  0.00    -0.014 A 
ATOM     41  C   UNL A   1      36.188  32.648  30.827  1.00  0.00     0.010 A 
ATOM     42  C   UNL A   1      37.164  33.596  28.820  1.00  0.00     0.010 A 
ATOM     43  C   UNL A   1      34.965  33.250  30.513  1.00  0.00     0.020 A 
ATOM     44  C   UNL A   1      35.951  34.225  28.520  1.00  0.00     0.020 A 
ATOM     45  C   UNL A   1      34.854  34.032  29.360  1.00  0.00     0.054 A 
BRANCH  45  46
ATOM     46  S   UNL A   1      33.259  34.812  28.988  1.00  0.00     0.124 S 
ATOM     47  O   UNL A   1      32.605  34.795  30.295  1.00  0.00    -0.237 OA
ATOM     48  O   UNL A   1      33.654  36.132  28.502  1.00  0.00    -0.237 OA
ATOM     49  O   UNL A   1      32.666  33.931  27.984  1.00  0.00    -0.744 OA
ENDBRANCH  45  46
ENDBRANCH  26  40
BRANCH  27  50
ATOM     50  C   UNL A   1      46.160  28.446  31.564  1.00  0.00    -0.014 A 
ATOM     51  C   UNL A   1      46.376  27.660  32.709  1.00  0.00     0.010 A 
ATOM     52  C   UNL A   1      47.204  28.602  30.634  1.00  0.00     0.010 A 
ATOM     53  C   UNL A   1      47.618  27.060  32.930  1.00  0.00     0.020 A 
ATOM     54  C   UNL A   1      48.435  27.974  30.833  1.00  0.00     0.020 A 
ATOM     55  C   UNL A   1      48.639  27.218  31.988  1.00  0.00     0.054 A 
BRANCH  55  56
ATOM     56  S   UNL A   1      50.227  26.391  32.275  1.00  0.00     0.124 S 
ATOM     57  O   UNL A   1      50.451  26.647  33.693  1.00  0.00    -0.237 OA
ATOM     58  O   UNL A   1      49.928  25.005  31.919  1.00  0.00    -0.237 OA
ATOM     59  O   UNL A   1      51.139  27.076  31.361  1.00  0.00    -0.744 OA
ENDBRANCH  55  56
ENDBRANCH  27  50
BRANCH  39  60
ATOM     60  C   UNL A   1      43.322  34.490  33.575  1.00  0.00    -0.014 A 
ATOM     61  C   UNL A   1      43.141  34.474  34.969  1.00  0.00     0.010 A 
ATOM     62  C   UNL A   1      44.011  35.567  32.986  1.00  0.00     0.010 A 
ATOM     63  C   UNL A   1      43.598  35.540  35.751  1.00  0.00     0.020 A 
ATOM     64  C   UNL A   1      44.499  36.615  33.768  1.00  0.00     0.020 A 
ATOM     65  C   UNL A   1      44.271  36.604  35.145  1.00  0.00     0.054 A 
BRANCH  65  66
ATOM     66  S   UNL A   1      44.870  37.964  36.183  1.00  0.00     0.124 S 
ATOM     67  O   UNL A   1      44.446  37.539  37.514  1.00  0.00    -0.237 OA
ATOM     68  O   UNL A   1      46.311  37.938  35.945  1.00  0.00    -0.237 OA
ATOM     69  O   UNL A   1      44.178  39.137  35.654  1.00  0.00    -0.744 OA
ENDBRANCH  65  66
ENDBRANCH  39  60
ENDBRANCH  13  14
ENDBRANCH   6   8
ENDBRANCH   3   4
ENDBRANCH   2   3
ENDBRANCH   1   2
BRANCH   1  70
ATOM     70  C   UNL A   1      34.879  21.286  25.410  1.00  0.00     0.002 C 
BRANCH  70  71
ATOM     71  C   UNL A   1      34.055  20.036  25.068  1.00  0.00     0.021 C 
BRANCH  71  72
ATOM     72  C   UNL A   1      32.653  20.343  24.544  1.00  0.00     0.116 C 
BRANCH  72  73
ATOM     73  N   UNL A   1      31.882  21.050  25.548  1.00  0.00    -0.356 N 
ATOM     74  C   UNL A   1      31.553  22.365  25.641  1.00  0.00     0.225 C 
ATOM     75  H   UNL A   1      31.543  20.486  26.281  1.00  0.00     0.163 HD
ATOM     76  O   UNL A   1      30.931  22.731  26.637  1.00  0.00    -0.275 OA
BRANCH  74  77
ATOM     77  C   UNL A   1      31.929  23.307  24.520  1.00  0.00     0.107 C 
ATOM     78  C   UNL A   1      30.699  23.797  23.753  1.00  0.00     0.116 C 
ATOM     79  C   UNL A   1      32.561  24.588  25.033  1.00  0.00     0.139 C 
ATOM     80  C   UNL A   1      31.059  25.197  23.338  1.00  0.00     0.227 C 
ATOM     81  N   UNL A   1      32.186  25.583  24.061  1.00  0.00    -0.311 N 
ATOM     82  O   UNL A   1      30.441  25.837  22.498  1.00  0.00    -0.274 OA
BRANCH  81  83
ATOM     83  C   UNL A   1      32.794  26.853  23.997  1.00  0.00     0.047 A 
ATOM     84  C   UNL A   1      33.522  27.235  22.866  1.00  0.00     0.026 A 
ATOM     85  C   UNL A   1      32.671  27.746  25.070  1.00  0.00     0.073 A 
ATOM     86  C   UNL A   1      34.087  28.509  22.794  1.00  0.00     0.006 A 
ATOM     87  C   UNL A   1      33.295  28.994  25.032  1.00  0.00     0.131 A 
ATOM     88  C   UNL A   1      33.977  29.380  23.876  1.00  0.00     0.047 A 
BRANCH  87  89
ATOM     89  O   UNL A   1      33.308  29.915  26.042  1.00  0.00    -0.406 OA
BRANCH  89  90
ATOM     90  C   UNL A   1      34.188  29.673  27.127  1.00  0.00     0.573 C 
ATOM     91  F   UNL A   1      33.741  28.663  27.902  1.00  0.00    -0.132 F 
ATOM     92  F   UNL A   1      35.441  29.399  26.701  1.00  0.00    -0.132 F 
ATOM     93  F   UNL A   1      34.247  30.788  27.891  1.00  0.00    -0.132 F 
ENDBRANCH  89  90
ENDBRANCH  87  89
ENDBRANCH  81  83
ENDBRANCH  74  77
ENDBRANCH  72  73
ENDBRANCH  71  72
ENDBRANCH  70  71
ENDBRANCH   1  70
TORSDOF 19
ENDMDL
MODEL 3
REMARK VINA RESULT:      -9.7      4.354      5.178
REMARK SMILES O=C(NCCCCCCNC(=O)[C@H]1CC(=O)N(c2cccc(OC(F)(F)F)c2)C1)c1ccc(-c2c3nc(c(-c4ccc(S(=O)(=O)[O-])cc4)c4ccc([nH]4)c(-c4ccc(S(=O)(=O)[O-])cc4)c4nc(c(-c5ccc(S(=O)(=O)[O-])cc5)c5ccc2[nH]5)C=C4)C=C3)cc1
REMARK SMILES IDX 6 1 5 2 4 3 3 4 1 5 2 6 30 8 31 9 89 10 32 11 88 12 33 13
REMARK SMILES IDX 34 14 35 15 82 16 36 17 87 18 81 19 83 20 37 21 86 22 80 23
REMARK SMILES IDX 79 24 38 26 68 27 49 28 67 29 50 30 53 31 66 32 84 33 51 34
REMARK SMILES IDX 52 35 65 37 85 38 54 39 39 40 40 41 48 42 41 43 47 44 42 45
REMARK SMILES IDX 43 46 44 47 45 48 46 49 69 50 70 51 78 52 71 53 77 54 72 55
REMARK SMILES IDX 73 56 74 57 75 58 76 59 55 60 56 61 64 62 57 63 63 64 58 65
REMARK SMILES IDX 59 66 60 67 61 68 62 69 7 70 8 71 9 72 10 73 11 74 12 76
REMARK SMILES IDX 13 77 14 78 29 79 15 80 17 81 16 82 18 83 19 84 28 85 20 86
REMARK SMILES IDX 22 87 21 88 23 89 24 90 25 91 26 92 27 93
REMARK H PARENT 3 7 83 25 53 36 10 75
REMARK Flexibility Score: inf
ROOT
ATOM      1  C   UNL A   1      37.295  23.414  26.084  1.00  0.00     0.002 C 
ENDROOT
BRANCH   1   2
ATOM      2  C   UNL A   1      38.763  23.323  26.498  1.00  0.00     0.021 C 
BRANCH   2   3
ATOM      3  C   UNL A   1      39.324  24.602  27.105  1.00  0.00     0.116 C 
BRANCH   3   4
ATOM      4  N   UNL A   1      40.208  25.312  26.192  1.00  0.00    -0.352 N 
ATOM      5  O   UNL A   1      41.324  27.087  25.355  1.00  0.00    -0.269 OA
ATOM      6  C   UNL A   1      40.727  26.581  26.300  1.00  0.00     0.251 C 
ATOM      7  H   UNL A   1      40.471  24.814  25.385  1.00  0.00     0.163 HD
BRANCH   6   8
ATOM      8  C   UNL A   1      40.529  27.341  27.554  1.00  0.00     0.039 A 
ATOM      9  C   UNL A   1      41.113  28.598  27.714  1.00  0.00     0.014 A 
ATOM     10  C   UNL A   1      39.793  26.771  28.594  1.00  0.00     0.014 A 
ATOM     11  C   UNL A   1      41.124  29.195  28.968  1.00  0.00     0.010 A 
ATOM     12  C   UNL A   1      39.711  27.430  29.826  1.00  0.00     0.010 A 
ATOM     13  C   UNL A   1      40.418  28.623  30.040  1.00  0.00    -0.014 A 
BRANCH  13  14
ATOM     14  C   UNL A   1      40.418  29.315  31.356  1.00  0.00     0.031 A 
ATOM     15  C   UNL A   1      41.528  29.098  32.354  1.00  0.00     0.074 A 
ATOM     16  C   UNL A   1      39.427  30.187  31.630  1.00  0.00     0.049 A 
ATOM     17  N   UNL A   1      41.706  29.669  33.519  1.00  0.00    -0.248 NA
ATOM     18  C   UNL A   1      42.563  28.112  32.009  1.00  0.00     0.031 C 
ATOM     19  C   UNL A   1      38.295  30.482  30.745  1.00  0.00     0.029 A 
ATOM     20  N   UNL A   1      39.222  31.007  32.709  1.00  0.00    -0.354 N 
ATOM     21  C   UNL A   1      42.853  29.096  34.057  1.00  0.00     0.074 A 
ATOM     22  C   UNL A   1      43.315  28.112  33.102  1.00  0.00     0.031 C 
ATOM     23  C   UNL A   1      37.556  31.459  31.285  1.00  0.00     0.029 A 
ATOM     24  C   UNL A   1      38.112  31.809  32.586  1.00  0.00     0.049 A 
ATOM     25  H   UNL A   1      39.813  31.020  33.496  1.00  0.00     0.167 HD
ATOM     26  C   UNL A   1      43.466  29.364  35.236  1.00  0.00     0.031 A 
ATOM     27  C   UNL A   1      37.586  32.717  33.430  1.00  0.00     0.031 A 
ATOM     28  C   UNL A   1      43.000  30.346  36.183  1.00  0.00     0.049 A 
ATOM     29  C   UNL A   1      38.270  32.974  34.740  1.00  0.00     0.074 A 
ATOM     30  C   UNL A   1      43.573  30.719  37.387  1.00  0.00     0.029 A 
ATOM     31  N   UNL A   1      41.847  31.105  36.040  1.00  0.00    -0.354 N 
ATOM     32  N   UNL A   1      39.376  32.448  35.210  1.00  0.00    -0.248 NA
ATOM     33  C   UNL A   1      37.638  33.955  35.632  1.00  0.00     0.031 C 
ATOM     34  C   UNL A   1      42.734  31.654  38.002  1.00  0.00     0.029 A 
ATOM     35  C   UNL A   1      41.678  31.922  37.146  1.00  0.00     0.049 A 
ATOM     36  H   UNL A   1      41.239  31.068  35.267  1.00  0.00     0.167 HD
ATOM     37  C   UNL A   1      39.590  33.059  36.440  1.00  0.00     0.074 A 
ATOM     38  C   UNL A   1      38.508  34.004  36.631  1.00  0.00     0.031 C 
ATOM     39  C   UNL A   1      40.595  32.858  37.328  1.00  0.00     0.031 A 
BRANCH  26  40
ATOM     40  C   UNL A   1      44.692  28.560  35.592  1.00  0.00    -0.014 A 
ATOM     41  C   UNL A   1      45.986  28.997  35.252  1.00  0.00     0.010 A 
ATOM     42  C   UNL A   1      44.548  27.367  36.327  1.00  0.00     0.010 A 
ATOM     43  C   UNL A   1      47.106  28.235  35.600  1.00  0.00     0.020 A 
ATOM     44  C   UNL A   1      45.668  26.618  36.704  1.00  0.00     0.020 A 
ATOM     45  C   UNL A   1      46.939  27.049  36.322  1.00  0.00     0.054 A 
BRANCH  45  46
ATOM     46  S   UNL A   1      48.412  26.091  36.771  1.00  0.00     0.124 S 
ATOM     47  O   UNL A   1      48.528  26.371  38.201  1.00  0.00    -0.237 OA
ATOM     48  O   UNL A   1      48.023  24.725  36.429  1.00  0.00    -0.237 OA
ATOM     49  O   UNL A   1      49.468  26.663  35.938  1.00  0.00    -0.744 OA
ENDBRANCH  45  46
ENDBRANCH  26  40
BRANCH  27  50
ATOM     50  C   UNL A   1      36.344  33.446  33.052  1.00  0.00    -0.014 A 
ATOM     51  C   UNL A   1      35.081  32.935  33.393  1.00  0.00     0.010 A 
ATOM     52  C   UNL A   1      36.423  34.669  32.360  1.00  0.00     0.010 A 
ATOM     53  C   UNL A   1      33.918  33.620  33.031  1.00  0.00     0.020 A 
ATOM     54  C   UNL A   1      35.266  35.376  32.028  1.00  0.00     0.020 A 
ATOM     55  C   UNL A   1      34.019  34.840  32.354  1.00  0.00     0.054 A 
BRANCH  55  56
ATOM     56  S   UNL A   1      32.498  35.734  31.936  1.00  0.00     0.124 S 
ATOM     57  O   UNL A   1      31.505  35.040  32.747  1.00  0.00    -0.237 OA
ATOM     58  O   UNL A   1      32.813  37.100  32.350  1.00  0.00    -0.237 OA
ATOM     59  O   UNL A   1      32.374  35.543  30.492  1.00  0.00    -0.744 OA
ENDBRANCH  55  56
ENDBRANCH  27  50
BRANCH  39  60
ATOM     60  C   UNL A   1      40.603  33.718  38.565  1.00  0.00    -0.014 A 
ATOM     61  C   UNL A   1      41.227  34.978  38.586  1.00  0.00     0.010 A 
ATOM     62  C   UNL A   1      39.950  33.258  39.725  1.00  0.00     0.010 A 
ATOM     63  C   UNL A   1      41.238  35.740  39.758  1.00  0.00     0.020 A 
ATOM     64  C   UNL A   1      39.929  34.032  40.886  1.00  0.00     0.020 A 
ATOM     65  C   UNL A   1      40.592  35.261  40.901  1.00  0.00     0.054 A 
BRANCH  65  66
ATOM     66  S   UNL A   1      40.603  36.277  42.403  1.00  0.00     0.124 S 
ATOM     67  O   UNL A   1      39.439  37.134  42.199  1.00  0.00    -0.237 OA
ATOM     68  O   UNL A   1      40.473  35.281  43.464  1.00  0.00    -0.237 OA
ATOM     69  O   UNL A   1      41.895  36.959  42.351  1.00  0.00    -0.744 OA
ENDBRANCH  65  66
ENDBRANCH  39  60
ENDBRANCH  13  14
ENDBRANCH   6   8
ENDBRANCH   3   4
ENDBRANCH   2   3
ENDBRANCH   1   2
BRANCH   1  70
ATOM     70  C   UNL A   1      37.031  23.153  24.597  1.00  0.00     0.002 C 
BRANCH  70  71
ATOM     71  C   UNL A   1      36.312  21.831  24.286  1.00  0.00     0.021 C 
BRANCH  71  72
ATOM     72  C   UNL A   1      35.186  21.495  25.263  1.00  0.00     0.116 C 
BRANCH  72  73
ATOM     73  N   UNL A   1      33.967  21.187  24.540  1.00  0.00    -0.356 N 
ATOM     74  C   UNL A   1      33.151  21.989  23.808  1.00  0.00     0.225 C 
ATOM     75  H   UNL A   1      33.684  20.245  24.590  1.00  0.00     0.163 HD
ATOM     76  O   UNL A   1      32.130  21.491  23.337  1.00  0.00    -0.275 OA
BRANCH  74  77
ATOM     77  C   UNL A   1      33.540  23.432  23.575  1.00  0.00     0.107 C 
ATOM     78  C   UNL A   1      33.553  23.783  22.086  1.00  0.00     0.116 C 
ATOM     79  C   UNL A   1      32.528  24.401  24.159  1.00  0.00     0.139 C 
ATOM     80  C   UNL A   1      33.122  25.223  22.045  1.00  0.00     0.227 C 
ATOM     81  N   UNL A   1      32.596  25.550  23.293  1.00  0.00    -0.311 N 
ATOM     82  O   UNL A   1      33.244  25.941  21.062  1.00  0.00    -0.274 OA
BRANCH  81  83
ATOM     83  C   UNL A   1      32.030  26.795  23.633  1.00  0.00     0.047 A 
ATOM     84  C   UNL A   1      32.691  27.660  24.510  1.00  0.00     0.026 A 
ATOM     85  C   UNL A   1      30.796  27.178  23.089  1.00  0.00     0.073 A 
ATOM     86  C   UNL A   1      32.144  28.908  24.809  1.00  0.00     0.006 A 
ATOM     87  C   UNL A   1      30.210  28.395  23.442  1.00  0.00     0.131 A 
ATOM     88  C   UNL A   1      30.906  29.269  24.280  1.00  0.00     0.047 A 
BRANCH  87  89
ATOM     89  O   UNL A   1      28.983  28.842  23.037  1.00  0.00    -0.406 OA
BRANCH  89  90
ATOM     90  C   UNL A   1      28.959  29.908  22.102  1.00  0.00     0.573 C 
ATOM     91  F   UNL A   1      30.121  29.986  21.421  1.00  0.00    -0.132 F 
ATOM     92  F   UNL A   1      27.931  29.785  21.234  1.00  0.00    -0.132 F 
ATOM     93  F   UNL A   1      28.793  31.069  22.776  1.00  0.00    -0.132 F 
ENDBRANCH  89  90
ENDBRANCH  87  89
ENDBRANCH  81  83
ENDBRANCH  74  77
ENDBRANCH  72  73
ENDBRANCH  71  72
ENDBRANCH  70  71
ENDBRANCH   1  70
TORSDOF 19
ENDMDL
