MODEL 1
REMARK VINA RESULT:     -11.3      0.000      0.000
REMARK SMILES O=C(C[C@H](C(=O)NCCCCCCNC(=O)c1ccc(-c2c3nc(c(-c4ccc(S(=O)(=O)[O-])cc4)c4ccc([nH]4)c(-c4ccc(S(=O)(=O)[O-])cc4)c4nc(c(-c5ccc(S(=O)(=O)[O-])cc5)c5ccc2[nH]5)C=C4)C=C3)cc1)c1ccccc1)Nc1ccc(Cl)cc1Cl
REMARK SMILES IDX 10 1 9 2 8 3 7 4 5 5 6 6 4 8 3 9 2 10 1 11 83 12 84 14 85 15
REMARK SMILES IDX 90 16 86 17 89 18 91 19 87 20 88 21 77 22 78 23 82 24 79 25
REMARK SMILES IDX 81 26 80 27 11 28 12 29 13 30 14 31 15 32 16 34 17 35 18 36
REMARK SMILES IDX 76 37 19 38 75 39 20 40 21 41 22 42 69 43 23 44 74 45 68 46
REMARK SMILES IDX 70 47 24 48 73 49 67 50 66 51 25 53 55 54 36 55 54 56 37 57
REMARK SMILES IDX 40 58 53 59 71 60 38 61 39 62 52 64 72 65 41 66 26 67 27 68
REMARK SMILES IDX 35 69 28 70 34 71 29 72 30 73 31 74 32 75 33 76 56 77 57 78
REMARK SMILES IDX 65 79 58 80 64 81 59 82 60 83 61 84 62 85 63 86 42 87 43 88
REMARK SMILES IDX 51 89 44 90 50 91 45 92 46 93 47 94 48 95 49 96
REMARK H PARENT 7 7 83 13 14 33 70 52 40 63
REMARK Flexibility Score: inf
ROOT
ATOM      1  C   UNL A   1      33.121  30.171  26.666  1.00  0.00     0.002 C 
ENDROOT
BRANCH   1   2
ATOM      2  C   UNL A   1      31.938  29.233  26.953  1.00  0.00     0.021 C 
BRANCH   2   3
ATOM      3  C   UNL A   1      32.231  27.726  27.003  1.00  0.00     0.116 C 
BRANCH   3   4
ATOM      4  N   UNL A   1      31.023  26.915  27.025  1.00  0.00    -0.356 N 
ATOM      5  C   UNL A   1      30.410  26.159  26.071  1.00  0.00     0.228 C 
ATOM      6  O   UNL A   1      29.480  25.446  26.473  1.00  0.00    -0.274 OA
ATOM      7  H   UNL A   1      30.559  26.913  27.894  1.00  0.00     0.163 HD
BRANCH   5   8
ATOM      8  C   UNL A   1      30.737  26.190  24.566  1.00  0.00     0.118 C 
BRANCH   8   9
ATOM      9  C   UNL A   1      30.810  24.768  23.959  1.00  0.00     0.118 C 
BRANCH   9  10
ATOM     10  C   UNL A   1      31.915  23.900  24.511  1.00  0.00     0.225 C 
ATOM     11  O   UNL A   1      31.800  23.285  25.569  1.00  0.00    -0.275 OA
ATOM     12  N   UNL A   1      33.036  23.801  23.719  1.00  0.00    -0.325 N 
ATOM     13  H   UNL A   1      32.960  23.994  22.757  1.00  0.00     0.169 HD
BRANCH  12  14
ATOM     14  C   UNL A   1      34.294  23.432  24.248  1.00  0.00     0.060 A 
ATOM     15  C   UNL A   1      34.807  22.151  23.994  1.00  0.00     0.029 A 
ATOM     16  C   UNL A   1      35.004  24.297  25.091  1.00  0.00     0.066 A 
ATOM     17  C   UNL A   1      36.001  21.738  24.570  1.00  0.00     0.023 A 
ATOM     18  C   UNL A   1      36.234  23.905  25.623  1.00  0.00     0.043 A 
ATOM     19  Cl  UNL A   1      34.410  25.882  25.436  1.00  0.00    -0.082 Cl
ATOM     20  C   UNL A   1      36.725  22.628  25.350  1.00  0.00     0.042 A 
ATOM     21  Cl  UNL A   1      38.253  22.131  25.942  1.00  0.00    -0.084 Cl
ENDBRANCH  12  14
ENDBRANCH   9  10
ENDBRANCH   8   9
BRANCH   8  22
ATOM     22  C   UNL A   1      30.151  27.321  23.721  1.00  0.00    -0.035 A 
ATOM     23  C   UNL A   1      28.749  27.440  23.616  1.00  0.00     0.004 A 
ATOM     24  C   UNL A   1      30.930  28.249  23.017  1.00  0.00     0.004 A 
ATOM     25  C   UNL A   1      28.151  28.487  22.910  1.00  0.00     0.000 A 
ATOM     26  C   UNL A   1      30.332  29.292  22.300  1.00  0.00     0.000 A 
ATOM     27  C   UNL A   1      28.945  29.420  22.257  1.00  0.00     0.000 A 
ENDBRANCH   8  22
ENDBRANCH   5   8
ENDBRANCH   3   4
ENDBRANCH   2   3
ENDBRANCH   1   2
BRANCH   1  28
ATOM     28  C   UNL A   1      33.858  30.785  27.869  1.00  0.00     0.002 C 
BRANCH  28  29
ATOM     29  C   UNL A   1      35.196  31.508  27.632  1.00  0.00     0.021 C 
BRANCH  29  30
ATOM     30  C   UNL A   1      35.944  32.085  28.842  1.00  0.00     0.116 C 
BRANCH  30  31
ATOM     31  N   UNL A   1      35.746  31.325  30.066  1.00  0.00    -0.352 N 
ATOM     32  C   UNL A   1      36.518  30.337  30.641  1.00  0.00     0.251 C 
ATOM     33  H   UNL A   1      34.928  31.553  30.564  1.00  0.00     0.163 HD
ATOM     34  O   UNL A   1      36.081  29.747  31.630  1.00  0.00    -0.269 OA
BRANCH  32  35
ATOM     35  C   UNL A   1      37.851  29.947  30.106  1.00  0.00     0.039 A 
ATOM     36  C   UNL A   1      38.938  29.891  30.987  1.00  0.00     0.014 A 
ATOM     37  C   UNL A   1      38.077  29.744  28.743  1.00  0.00     0.014 A 
ATOM     38  C   UNL A   1      40.225  29.575  30.519  1.00  0.00     0.010 A 
ATOM     39  C   UNL A   1      39.363  29.404  28.283  1.00  0.00     0.010 A 
ATOM     40  C   UNL A   1      40.455  29.297  29.162  1.00  0.00    -0.014 A 
BRANCH  40  41
ATOM     41  C   UNL A   1      41.820  28.903  28.677  1.00  0.00     0.031 A 
ATOM     42  C   UNL A   1      42.943  29.910  28.595  1.00  0.00     0.074 A 
ATOM     43  C   UNL A   1      42.072  27.631  28.292  1.00  0.00     0.049 A 
ATOM     44  N   UNL A   1      44.192  29.731  28.235  1.00  0.00    -0.248 NA
ATOM     45  C   UNL A   1      42.622  31.300  28.950  1.00  0.00     0.031 C 
ATOM     46  C   UNL A   1      41.091  26.544  28.264  1.00  0.00     0.029 A 
ATOM     47  N   UNL A   1      43.233  27.033  27.851  1.00  0.00    -0.354 N 
ATOM     48  C   UNL A   1      44.800  30.979  28.315  1.00  0.00     0.074 A 
ATOM     49  C   UNL A   1      43.768  31.918  28.706  1.00  0.00     0.031 C 
ATOM     50  C   UNL A   1      41.696  25.413  27.864  1.00  0.00     0.029 A 
ATOM     51  C   UNL A   1      43.101  25.691  27.572  1.00  0.00     0.049 A 
ATOM     52  H   UNL A   1      44.081  27.523  27.746  1.00  0.00     0.167 HD
ATOM     53  C   UNL A   1      46.097  31.321  28.110  1.00  0.00     0.031 A 
ATOM     54  C   UNL A   1      43.996  24.780  27.136  1.00  0.00     0.031 A 
ATOM     55  C   UNL A   1      47.139  30.405  27.725  1.00  0.00     0.049 A 
ATOM     56  C   UNL A   1      45.429  25.184  26.899  1.00  0.00     0.074 A 
ATOM     57  C   UNL A   1      48.489  30.665  27.546  1.00  0.00     0.029 A 
ATOM     58  N   UNL A   1      46.957  29.059  27.454  1.00  0.00    -0.354 N 
ATOM     59  N   UNL A   1      45.993  26.357  27.060  1.00  0.00    -0.248 NA
ATOM     60  C   UNL A   1      46.351  24.133  26.437  1.00  0.00     0.031 C 
ATOM     61  C   UNL A   1      49.112  29.488  27.116  1.00  0.00     0.029 A 
ATOM     62  C   UNL A   1      48.162  28.481  27.086  1.00  0.00     0.049 A 
ATOM     63  H   UNL A   1      46.097  28.582  27.513  1.00  0.00     0.167 HD
ATOM     64  C   UNL A   1      47.337  26.177  26.744  1.00  0.00     0.074 A 
ATOM     65  C   UNL A   1      47.507  24.782  26.398  1.00  0.00     0.031 C 
ATOM     66  C   UNL A   1      48.338  27.092  26.743  1.00  0.00     0.031 A 
BRANCH  53  67
ATOM     67  C   UNL A   1      46.472  32.769  28.306  1.00  0.00    -0.014 A 
ATOM     68  C   UNL A   1      46.864  33.250  29.568  1.00  0.00     0.010 A 
ATOM     69  C   UNL A   1      46.478  33.649  27.207  1.00  0.00     0.010 A 
ATOM     70  C   UNL A   1      47.209  34.593  29.739  1.00  0.00     0.020 A 
ATOM     71  C   UNL A   1      46.850  34.987  27.368  1.00  0.00     0.020 A 
ATOM     72  C   UNL A   1      47.194  35.455  28.638  1.00  0.00     0.054 A 
BRANCH  72  73
ATOM     73  S   UNL A   1      47.655  37.192  28.889  1.00  0.00     0.124 S 
ATOM     74  O   UNL A   1      49.105  37.145  28.721  1.00  0.00    -0.237 OA
ATOM     75  O   UNL A   1      46.920  37.876  27.828  1.00  0.00    -0.237 OA
ATOM     76  O   UNL A   1      47.195  37.479  30.247  1.00  0.00    -0.744 OA
ENDBRANCH  72  73
ENDBRANCH  53  67
BRANCH  54  77
ATOM     77  C   UNL A   1      43.569  23.370  26.899  1.00  0.00    -0.014 A 
ATOM     78  C   UNL A   1      43.562  22.830  25.600  1.00  0.00     0.010 A 
ATOM     79  C   UNL A   1      43.156  22.563  27.975  1.00  0.00     0.010 A 
ATOM     80  C   UNL A   1      43.134  21.517  25.380  1.00  0.00     0.020 A 
ATOM     81  C   UNL A   1      42.755  21.241  27.762  1.00  0.00     0.020 A 
ATOM     82  C   UNL A   1      42.735  20.729  26.464  1.00  0.00     0.054 A 
BRANCH  82  83
ATOM     83  S   UNL A   1      42.234  19.010  26.160  1.00  0.00     0.124 S 
ATOM     84  O   UNL A   1      40.829  19.158  25.816  1.00  0.00    -0.237 OA
ATOM     85  O   UNL A   1      43.119  18.612  25.066  1.00  0.00    -0.237 OA
ATOM     86  O   UNL A   1      42.504  18.348  27.437  1.00  0.00    -0.744 OA
ENDBRANCH  82  83
ENDBRANCH  54  77
BRANCH  66  87
ATOM     87  C   UNL A   1      49.726  26.619  26.390  1.00  0.00    -0.014 A 
ATOM     88  C   UNL A   1      50.255  26.795  25.099  1.00  0.00     0.010 A 
ATOM     89  C   UNL A   1      50.537  26.041  27.385  1.00  0.00     0.010 A 
ATOM     90  C   UNL A   1      51.557  26.378  24.803  1.00  0.00     0.020 A 
ATOM     91  C   UNL A   1      51.847  25.646  27.100  1.00  0.00     0.020 A 
ATOM     92  C   UNL A   1      52.346  25.805  25.806  1.00  0.00     0.054 A 
BRANCH  92  93
ATOM     93  S   UNL A   1      54.047  25.313  25.409  1.00  0.00     0.124 S 
ATOM     94  O   UNL A   1      54.670  25.276  26.729  1.00  0.00    -0.237 OA
ATOM     95  O   UNL A   1      53.864  24.015  24.765  1.00  0.00    -0.237 OA
ATOM     96  O   UNL A   1      54.519  26.377  24.526  1.00  0.00    -0.744 OA
ENDBRANCH  92  93
ENDBRANCH  66  87
ENDBRANCH  40  41
ENDBRANCH  32  35
ENDBRANCH  30  31
ENDBRANCH  29  30
ENDBRANCH  28  29
ENDBRANCH   1  28
TORSDOF 20
ENDMDL
MODEL 2
REMARK VINA RESULT:     -11.1      6.268     11.688
REMARK SMILES O=C(C[C@H](C(=O)NCCCCCCNC(=O)c1ccc(-c2c3nc(c(-c4ccc(S(=O)(=O)[O-])cc4)c4ccc([nH]4)c(-c4ccc(S(=O)(=O)[O-])cc4)c4nc(c(-c5ccc(S(=O)(=O)[O-])cc5)c5ccc2[nH]5)C=C4)C=C3)cc1)c1ccccc1)Nc1ccc(Cl)cc1Cl
REMARK SMILES IDX 10 1 9 2 8 3 7 4 5 5 6 6 4 8 3 9 2 10 1 11 83 12 84 14 85 15
REMARK SMILES IDX 90 16 86 17 89 18 91 19 87 20 88 21 77 22 78 23 82 24 79 25
REMARK SMILES IDX 81 26 80 27 11 28 12 29 13 30 14 31 15 32 16 34 17 35 18 36
REMARK SMILES IDX 76 37 19 38 75 39 20 40 21 41 22 42 69 43 23 44 74 45 68 46
REMARK SMILES IDX 70 47 24 48 73 49 67 50 66 51 25 53 55 54 36 55 54 56 37 57
REMARK SMILES IDX 40 58 53 59 71 60 38 61 39 62 52 64 72 65 41 66 26 67 27 68
REMARK SMILES IDX 35 69 28 70 34 71 29 72 30 73 31 74 32 75 33 76 56 77 57 78
REMARK SMILES IDX 65 79 58 80 64 81 59 82 60 83 61 84 62 85 63 86 42 87 43 88
REMARK SMILES IDX 51 89 44 90 50 91 45 92 46 93 47 94 48 95 49 96
REMARK H PARENT 7 7 83 13 14 33 70 52 40 63
REMARK Flexibility Score: inf
ROOT
ATOM      1  C   UNL A   1      37.445  22.730  25.532  1.00  0.00     0.002 C 
ENDROOT
BRANCH   1   2
ATOM      2  C   UNL A   1      36.662  23.021  24.242  1.00  0.00     0.021 C 
BRANCH   2   3
ATOM      3  C   UNL A   1      35.170  23.356  24.385  1.00  0.00     0.116 C 
BRANCH   3   4
ATOM      4  N   UNL A   1      34.938  24.650  25.010  1.00  0.00    -0.356 N 
ATOM      5  C   UNL A   1      33.799  25.287  25.401  1.00  0.00     0.228 C 
ATOM      6  O   UNL A   1      33.968  26.317  26.070  1.00  0.00    -0.274 OA
ATOM      7  H   UNL A   1      35.761  25.162  25.184  1.00  0.00     0.163 HD
BRANCH   5   8
ATOM      8  C   UNL A   1      32.369  24.869  25.014  1.00  0.00     0.118 C 
BRANCH   8   9
ATOM      9  C   UNL A   1      31.710  23.981  26.099  1.00  0.00     0.118 C 
BRANCH   9  10
ATOM     10  C   UNL A   1      31.407  22.568  25.661  1.00  0.00     0.225 C 
ATOM     11  O   UNL A   1      30.374  21.988  25.987  1.00  0.00    -0.275 OA
ATOM     12  N   UNL A   1      32.341  21.998  24.827  1.00  0.00    -0.325 N 
ATOM     13  H   UNL A   1      32.941  22.583  24.311  1.00  0.00     0.169 HD
BRANCH  12  14
ATOM     14  C   UNL A   1      32.465  20.596  24.691  1.00  0.00     0.060 A 
ATOM     15  C   UNL A   1      32.816  19.818  25.805  1.00  0.00     0.029 A 
ATOM     16  C   UNL A   1      32.321  19.977  23.444  1.00  0.00     0.066 A 
ATOM     17  C   UNL A   1      33.023  18.450  25.678  1.00  0.00     0.023 A 
ATOM     18  C   UNL A   1      32.470  18.593  23.325  1.00  0.00     0.043 A 
ATOM     19  Cl  UNL A   1      31.894  20.895  22.043  1.00  0.00    -0.082 Cl
ATOM     20  C   UNL A   1      32.814  17.842  24.449  1.00  0.00     0.042 A 
ATOM     21  Cl  UNL A   1      32.954  16.137  24.354  1.00  0.00    -0.084 Cl
ENDBRANCH  12  14
ENDBRANCH   9  10
ENDBRANCH   8   9
BRANCH   8  22
ATOM     22  C   UNL A   1      31.499  25.874  24.259  1.00  0.00    -0.035 A 
ATOM     23  C   UNL A   1      32.112  26.755  23.343  1.00  0.00     0.004 A 
ATOM     24  C   UNL A   1      30.115  25.993  24.438  1.00  0.00     0.004 A 
ATOM     25  C   UNL A   1      31.367  27.655  22.577  1.00  0.00     0.000 A 
ATOM     26  C   UNL A   1      29.368  26.902  23.678  1.00  0.00     0.000 A 
ATOM     27  C   UNL A   1      29.990  27.722  22.740  1.00  0.00     0.000 A 
ENDBRANCH   8  22
ENDBRANCH   5   8
ENDBRANCH   3   4
ENDBRANCH   2   3
ENDBRANCH   1   2
BRANCH   1  28
ATOM     28  C   UNL A   1      38.489  21.599  25.498  1.00  0.00     0.002 C 
BRANCH  28  29
ATOM     29  C   UNL A   1      39.777  21.752  26.328  1.00  0.00     0.021 C 
BRANCH  29  30
ATOM     30  C   UNL A   1      40.156  23.147  26.845  1.00  0.00     0.116 C 
BRANCH  30  31
ATOM     31  N   UNL A   1      41.010  23.893  25.935  1.00  0.00    -0.352 N 
ATOM     32  C   UNL A   1      41.465  25.194  25.998  1.00  0.00     0.251 C 
ATOM     33  H   UNL A   1      41.312  23.388  25.146  1.00  0.00     0.163 HD
ATOM     34  O   UNL A   1      42.086  25.650  25.037  1.00  0.00    -0.269 OA
BRANCH  32  35
ATOM     35  C   UNL A   1      41.221  26.072  27.175  1.00  0.00     0.039 A 
ATOM     36  C   UNL A   1      42.069  27.168  27.382  1.00  0.00     0.014 A 
ATOM     37  C   UNL A   1      40.250  25.781  28.135  1.00  0.00     0.014 A 
ATOM     38  C   UNL A   1      41.908  27.997  28.504  1.00  0.00     0.010 A 
ATOM     39  C   UNL A   1      40.077  26.628  29.246  1.00  0.00     0.010 A 
ATOM     40  C   UNL A   1      40.890  27.758  29.443  1.00  0.00    -0.014 A 
BRANCH  40  41
ATOM     41  C   UNL A   1      40.685  28.681  30.609  1.00  0.00     0.031 A 
ATOM     42  C   UNL A   1      41.530  28.566  31.856  1.00  0.00     0.074 A 
ATOM     43  C   UNL A   1      39.727  29.635  30.571  1.00  0.00     0.049 A 
ATOM     44  N   UNL A   1      41.512  29.305  32.941  1.00  0.00    -0.248 NA
ATOM     45  C   UNL A   1      42.513  27.474  31.899  1.00  0.00     0.031 C 
ATOM     46  C   UNL A   1      38.794  29.855  29.465  1.00  0.00     0.029 A 
ATOM     47  N   UNL A   1      39.380  30.604  31.488  1.00  0.00    -0.354 N 
ATOM     48  C   UNL A   1      42.471  28.766  33.792  1.00  0.00     0.074 A 
ATOM     49  C   UNL A   1      43.015  27.604  33.119  1.00  0.00     0.031 C 
ATOM     50  C   UNL A   1      38.008  30.907  29.752  1.00  0.00     0.029 A 
ATOM     51  C   UNL A   1      38.352  31.422  31.075  1.00  0.00     0.049 A 
ATOM     52  H   UNL A   1      39.827  30.702  32.359  1.00  0.00     0.167 HD
ATOM     53  C   UNL A   1      42.887  29.201  35.007  1.00  0.00     0.031 A 
ATOM     54  C   UNL A   1      37.750  32.468  31.679  1.00  0.00     0.031 A 
ATOM     55  C   UNL A   1      42.363  30.354  35.693  1.00  0.00     0.049 A 
ATOM     56  C   UNL A   1      38.216  32.927  33.038  1.00  0.00     0.074 A 
ATOM     57  C   UNL A   1      42.766  30.889  36.907  1.00  0.00     0.029 A 
ATOM     58  N   UNL A   1      41.324  31.148  35.237  1.00  0.00    -0.354 N 
ATOM     59  N   UNL A   1      39.180  32.445  33.784  1.00  0.00    -0.248 NA
ATOM     60  C   UNL A   1      37.520  34.082  33.628  1.00  0.00     0.031 C 
ATOM     61  C   UNL A   1      41.937  31.974  37.208  1.00  0.00     0.029 A 
ATOM     62  C   UNL A   1      41.056  32.153  36.154  1.00  0.00     0.049 A 
ATOM     63  H   UNL A   1      40.846  31.018  34.386  1.00  0.00     0.167 HD
ATOM     64  C   UNL A   1      39.223  33.254  34.916  1.00  0.00     0.074 A 
ATOM     65  C   UNL A   1      38.200  34.265  34.752  1.00  0.00     0.031 C 
ATOM     66  C   UNL A   1      40.041  33.163  35.995  1.00  0.00     0.031 A 
BRANCH  53  67
ATOM     67  C   UNL A   1      43.983  28.418  35.686  1.00  0.00    -0.014 A 
ATOM     68  C   UNL A   1      43.680  27.331  36.526  1.00  0.00     0.010 A 
ATOM     69  C   UNL A   1      45.332  28.741  35.446  1.00  0.00     0.010 A 
ATOM     70  C   UNL A   1      44.703  26.612  37.151  1.00  0.00     0.020 A 
ATOM     71  C   UNL A   1      46.359  28.006  36.045  1.00  0.00     0.020 A 
ATOM     72  C   UNL A   1      46.037  26.958  36.911  1.00  0.00     0.054 A 
BRANCH  72  73
ATOM     73  S   UNL A   1      47.342  26.001  37.730  1.00  0.00     0.124 S 
ATOM     74  O   UNL A   1      46.678  25.581  38.961  1.00  0.00    -0.237 OA
ATOM     75  O   UNL A   1      47.613  24.937  36.766  1.00  0.00    -0.237 OA
ATOM     76  O   UNL A   1      48.424  26.969  37.905  1.00  0.00    -0.744 OA
ENDBRANCH  72  73
ENDBRANCH  53  67
BRANCH  54  77
ATOM     77  C   UNL A   1      36.629  33.178  30.996  1.00  0.00    -0.014 A 
ATOM     78  C   UNL A   1      35.302  33.010  31.429  1.00  0.00     0.010 A 
ATOM     79  C   UNL A   1      36.885  34.020  29.899  1.00  0.00     0.010 A 
ATOM     80  C   UNL A   1      34.251  33.656  30.768  1.00  0.00     0.020 A 
ATOM     81  C   UNL A   1      35.842  34.690  29.254  1.00  0.00     0.020 A 
ATOM     82  C   UNL A   1      34.529  34.495  29.685  1.00  0.00     0.054 A 
BRANCH  82  83
ATOM     83  S   UNL A   1      33.156  35.364  28.876  1.00  0.00     0.124 S 
ATOM     84  O   UNL A   1      32.366  35.814  30.011  1.00  0.00    -0.237 OA
ATOM     85  O   UNL A   1      33.845  36.411  28.124  1.00  0.00    -0.237 OA
ATOM     86  O   UNL A   1      32.537  34.325  28.050  1.00  0.00    -0.744 OA
ENDBRANCH  82  83
ENDBRANCH  54  77
BRANCH  66  87
ATOM     87  C   UNL A   1      39.898  34.203  37.078  1.00  0.00    -0.014 A 
ATOM     88  C   UNL A   1      40.366  35.516  36.900  1.00  0.00     0.010 A 
ATOM     89  C   UNL A   1      39.230  33.874  38.272  1.00  0.00     0.010 A 
ATOM     90  C   UNL A   1      40.194  36.473  37.906  1.00  0.00     0.020 A 
ATOM     91  C   UNL A   1      39.033  34.834  39.269  1.00  0.00     0.020 A 
ATOM     92  C   UNL A   1      39.528  36.126  39.086  1.00  0.00     0.054 A 
BRANCH  92  93
ATOM     93  S   UNL A   1      39.277  37.396  40.356  1.00  0.00     0.124 S 
ATOM     94  O   UNL A   1      38.536  38.420  39.623  1.00  0.00    -0.237 OA
ATOM     95  O   UNL A   1      38.515  36.683  41.379  1.00  0.00    -0.237 OA
ATOM     96  O   UNL A   1      40.634  37.769  40.748  1.00  0.00    -0.744 OA
ENDBRANCH  92  93
ENDBRANCH  66  87
ENDBRANCH  40  41
ENDBRANCH  32  35
ENDBRANCH  30  31
ENDBRANCH  29  30
ENDBRANCH  28  29
ENDBRANCH   1  28
TORSDOF 20
ENDMDL
MODEL 3
REMARK VINA RESULT:     -10.9      1.768      3.831
REMARK SMILES O=C(C[C@H](C(=O)NCCCCCCNC(=O)c1ccc(-c2c3nc(c(-c4ccc(S(=O)(=O)[O-])cc4)c4ccc([nH]4)c(-c4ccc(S(=O)(=O)[O-])cc4)c4nc(c(-c5ccc(S(=O)(=O)[O-])cc5)c5ccc2[nH]5)C=C4)C=C3)cc1)c1ccccc1)Nc1ccc(Cl)cc1Cl
REMARK SMILES IDX 10 1 9 2 8 3 7 4 5 5 6 6 4 8 3 9 2 10 1 11 83 12 84 14 85 15
REMARK SMILES IDX 90 16 86 17 89 18 91 19 87 20 88 21 77 22 78 23 82 24 79 25
REMARK SMILES IDX 81 26 80 27 11 28 12 29 13 30 14 31 15 32 16 34 17 35 18 36
REMARK SMILES IDX 76 37 19 38 75 39 20 40 21 41 22 42 69 43 23 44 74 45 68 46
REMARK SMILES IDX 70 47 24 48 73 49 67 50 66 51 25 53 55 54 36 55 54 56 37 57
REMARK SMILES IDX 40 58 53 59 71 60 38 61 39 62 52 64 72 65 41 66 26 67 27 68
REMARK SMILES IDX 35 69 28 70 34 71 29 72 30 73 31 74 32 75 33 76 56 77 57 78
REMARK SMILES IDX 65 79 58 80 64 81 59 82 60 83 61 84 62 85 63 86 42 87 43 88
REMARK SMILES IDX 51 89 44 90 50 91 45 92 46 93 47 94 48 95 49 96
REMARK H PARENT 7 7 83 13 14 33 70 52 40 63
REMARK Flexibility Score: inf
ROOT
ATOM      1  C   UNL A   1      32.301  29.367  27.334  1.00  0.00     0.002 C 
ENDROOT
BRANCH   1   2
ATOM      2  C   UNL A   1      31.640  27.981  27.286  1.00  0.00     0.021 C 
BRANCH   2   3
ATOM      3  C   UNL A   1      31.824  27.156  26.003  1.00  0.00     0.116 C 
BRANCH   3   4
ATOM      4  N   UNL A   1      32.995  26.293  26.049  1.00  0.00    -0.356 N 
ATOM      5  C   UNL A   1      33.537  25.437  25.137  1.00  0.00     0.228 C 
ATOM      6  O   UNL A   1      34.651  24.981  25.433  1.00  0.00    -0.274 OA
ATOM      7  H   UNL A   1      33.489  26.334  26.900  1.00  0.00     0.163 HD
BRANCH   5   8
ATOM      8  C   UNL A   1      32.847  24.956  23.848  1.00  0.00     0.118 C 
BRANCH   8   9
ATOM      9  C   UNL A   1      33.234  25.823  22.625  1.00  0.00     0.118 C 
BRANCH   9  10
ATOM     10  C   UNL A   1      32.534  27.159  22.549  1.00  0.00     0.225 C 
ATOM     11  O   UNL A   1      33.101  28.213  22.830  1.00  0.00    -0.275 OA
ATOM     12  N   UNL A   1      31.238  27.118  22.090  1.00  0.00    -0.325 N 
ATOM     13  H   UNL A   1      30.947  26.349  21.550  1.00  0.00     0.169 HD
BRANCH  12  14
ATOM     14  C   UNL A   1      30.312  28.148  22.373  1.00  0.00     0.060 A 
ATOM     15  C   UNL A   1      30.535  29.440  21.870  1.00  0.00     0.029 A 
ATOM     16  C   UNL A   1      29.216  27.922  23.214  1.00  0.00     0.066 A 
ATOM     17  C   UNL A   1      29.683  30.486  22.203  1.00  0.00     0.023 A 
ATOM     18  C   UNL A   1      28.326  28.959  23.502  1.00  0.00     0.043 A 
ATOM     19  Cl  UNL A   1      28.905  26.350  23.860  1.00  0.00    -0.082 Cl
ATOM     20  C   UNL A   1      28.566  30.233  22.985  1.00  0.00     0.042 A 
ATOM     21  Cl  UNL A   1      27.469  31.516  23.272  1.00  0.00    -0.084 Cl
ENDBRANCH  12  14
ENDBRANCH   9  10
ENDBRANCH   8   9
BRANCH   8  22
ATOM     22  C   UNL A   1      32.646  23.454  23.650  1.00  0.00    -0.035 A 
ATOM     23  C   UNL A   1      32.473  22.633  24.785  1.00  0.00     0.004 A 
ATOM     24  C   UNL A   1      32.645  22.828  22.397  1.00  0.00     0.004 A 
ATOM     25  C   UNL A   1      32.224  21.263  24.670  1.00  0.00     0.000 A 
ATOM     26  C   UNL A   1      32.406  21.453  22.281  1.00  0.00     0.000 A 
ATOM     27  C   UNL A   1      32.183  20.673  23.414  1.00  0.00     0.000 A 
ENDBRANCH   8  22
ENDBRANCH   5   8
ENDBRANCH   3   4
ENDBRANCH   2   3
ENDBRANCH   1   2
BRANCH   1  28
ATOM     28  C   UNL A   1      33.618  29.560  26.561  1.00  0.00     0.002 C 
BRANCH  28  29
ATOM     29  C   UNL A   1      34.947  29.513  27.335  1.00  0.00     0.021 C 
BRANCH  29  30
ATOM     30  C   UNL A   1      35.489  30.814  27.945  1.00  0.00     0.116 C 
BRANCH  30  31
ATOM     31  N   UNL A   1      35.453  30.836  29.398  1.00  0.00    -0.352 N 
ATOM     32  C   UNL A   1      36.406  30.463  30.323  1.00  0.00     0.251 C 
ATOM     33  H   UNL A   1      34.612  31.171  29.784  1.00  0.00     0.163 HD
ATOM     34  O   UNL A   1      36.100  30.457  31.516  1.00  0.00    -0.269 OA
BRANCH  32  35
ATOM     35  C   UNL A   1      37.783  30.053  29.935  1.00  0.00     0.039 A 
ATOM     36  C   UNL A   1      38.119  30.031  28.575  1.00  0.00     0.014 A 
ATOM     37  C   UNL A   1      38.713  29.587  30.865  1.00  0.00     0.014 A 
ATOM     38  C   UNL A   1      39.390  29.606  28.156  1.00  0.00     0.010 A 
ATOM     39  C   UNL A   1      39.994  29.184  30.444  1.00  0.00     0.010 A 
ATOM     40  C   UNL A   1      40.362  29.202  29.087  1.00  0.00    -0.014 A 
BRANCH  40  41
ATOM     41  C   UNL A   1      41.739  28.804  28.639  1.00  0.00     0.031 A 
ATOM     42  C   UNL A   1      42.865  29.810  28.580  1.00  0.00     0.074 A 
ATOM     43  C   UNL A   1      41.999  27.530  28.267  1.00  0.00     0.049 A 
ATOM     44  N   UNL A   1      44.122  29.629  28.252  1.00  0.00    -0.248 NA
ATOM     45  C   UNL A   1      42.535  31.203  28.920  1.00  0.00     0.031 C 
ATOM     46  C   UNL A   1      41.019  26.443  28.220  1.00  0.00     0.029 A 
ATOM     47  N   UNL A   1      43.172  26.930  27.859  1.00  0.00    -0.354 N 
ATOM     48  C   UNL A   1      44.728  30.878  28.341  1.00  0.00     0.074 A 
ATOM     49  C   UNL A   1      43.688  31.818  28.701  1.00  0.00     0.031 C 
ATOM     50  C   UNL A   1      41.634  25.310  27.841  1.00  0.00     0.029 A 
ATOM     51  C   UNL A   1      43.045  25.586  27.584  1.00  0.00     0.049 A 
ATOM     52  H   UNL A   1      44.022  27.418  27.772  1.00  0.00     0.167 HD
ATOM     53  C   UNL A   1      46.030  31.217  28.168  1.00  0.00     0.031 A 
ATOM     54  C   UNL A   1      43.951  24.673  27.175  1.00  0.00     0.031 A 
ATOM     55  C   UNL A   1      47.081  30.299  27.814  1.00  0.00     0.049 A 
ATOM     56  C   UNL A   1      45.390  25.074  26.972  1.00  0.00     0.074 A 
ATOM     57  C   UNL A   1      48.436  30.557  27.667  1.00  0.00     0.029 A 
ATOM     58  N   UNL A   1      46.905  28.952  27.545  1.00  0.00    -0.354 N 
ATOM     59  N   UNL A   1      45.950  26.248  27.141  1.00  0.00    -0.248 NA
ATOM     60  C   UNL A   1      46.322  24.021  26.538  1.00  0.00     0.031 C 
ATOM     61  C   UNL A   1      49.068  29.379  27.260  1.00  0.00     0.029 A 
ATOM     62  C   UNL A   1      48.119  28.371  27.210  1.00  0.00     0.049 A 
ATOM     63  H   UNL A   1      46.044  28.476  27.585  1.00  0.00     0.167 HD
ATOM     64  C   UNL A   1      47.301  26.066  26.860  1.00  0.00     0.074 A 
ATOM     65  C   UNL A   1      47.479  24.669  26.526  1.00  0.00     0.031 C 
ATOM     66  C   UNL A   1      48.303  26.981  26.879  1.00  0.00     0.031 A 
BRANCH  53  67
ATOM     67  C   UNL A   1      46.401  32.667  28.365  1.00  0.00    -0.014 A 
ATOM     68  C   UNL A   1      46.325  33.583  27.301  1.00  0.00     0.010 A 
ATOM     69  C   UNL A   1      46.782  33.129  29.639  1.00  0.00     0.010 A 
ATOM     70  C   UNL A   1      46.671  34.923  27.493  1.00  0.00     0.020 A 
ATOM     71  C   UNL A   1      47.100  34.475  29.843  1.00  0.00     0.020 A 
ATOM     72  C   UNL A   1      47.062  35.359  28.764  1.00  0.00     0.054 A 
BRANCH  72  73
ATOM     73  S   UNL A   1      47.496  37.107  28.985  1.00  0.00     0.124 S 
ATOM     74  O   UNL A   1      46.416  37.577  29.848  1.00  0.00    -0.237 OA
ATOM     75  O   UNL A   1      48.814  37.033  29.610  1.00  0.00    -0.237 OA
ATOM     76  O   UNL A   1      47.484  37.642  27.624  1.00  0.00    -0.744 OA
ENDBRANCH  72  73
ENDBRANCH  53  67
BRANCH  54  77
ATOM     77  C   UNL A   1      43.529  23.262  26.935  1.00  0.00    -0.014 A 
ATOM     78  C   UNL A   1      43.127  22.440  28.003  1.00  0.00     0.010 A 
ATOM     79  C   UNL A   1      43.538  22.729  25.633  1.00  0.00     0.010 A 
ATOM     80  C   UNL A   1      42.759  21.109  27.777  1.00  0.00     0.020 A 
ATOM     81  C   UNL A   1      43.142  21.409  25.398  1.00  0.00     0.020 A 
ATOM     82  C   UNL A   1      42.766  20.603  26.474  1.00  0.00     0.054 A 
BRANCH  82  83
ATOM     83  S   UNL A   1      42.234  18.889  26.197  1.00  0.00     0.124 S 
ATOM     84  O   UNL A   1      40.850  19.061  25.785  1.00  0.00    -0.237 OA
ATOM     85  O   UNL A   1      43.158  18.436  25.158  1.00  0.00    -0.237 OA
ATOM     86  O   UNL A   1      42.429  18.259  27.505  1.00  0.00    -0.744 OA
ENDBRANCH  82  83
ENDBRANCH  54  77
BRANCH  66  87
ATOM     87  C   UNL A   1      49.699  26.505  26.564  1.00  0.00    -0.014 A 
ATOM     88  C   UNL A   1      50.550  26.015  27.570  1.00  0.00     0.010 A 
ATOM     89  C   UNL A   1      50.145  26.493  25.229  1.00  0.00     0.010 A 
ATOM     90  C   UNL A   1      51.830  25.548  27.250  1.00  0.00     0.020 A 
ATOM     91  C   UNL A   1      51.412  26.004  24.902  1.00  0.00     0.020 A 
ATOM     92  C   UNL A   1      52.254  25.545  25.917  1.00  0.00     0.054 A 
BRANCH  92  93
ATOM     93  S   UNL A   1      53.900  24.893  25.523  1.00  0.00     0.124 S 
ATOM     94  O   UNL A   1      54.591  25.013  26.804  1.00  0.00    -0.237 OA
ATOM     95  O   UNL A   1      53.611  23.527  25.093  1.00  0.00    -0.237 OA
ATOM     96  O   UNL A   1      54.383  25.781  24.468  1.00  0.00    -0.744 OA
ENDBRANCH  92  93
ENDBRANCH  66  87
ENDBRANCH  40  41
ENDBRANCH  32  35
ENDBRANCH  30  31
ENDBRANCH  29  30
ENDBRANCH  28  29
ENDBRANCH   1  28
TORSDOF 20
ENDMDL
