MODEL 1
REMARK VINA RESULT:      -9.1      0.000      0.000
REMARK SMILES COc1ccc(OCCNc2c(Cl)cccc2C(=O)NCCCCCCNC(=O)c2ccc(-c3c4nc(c(-c5ccc(S(=O)(=O)[O-])cc5)c5ccc([nH]5)c(-c5ccc(S(=O)(=O)[O-])cc5)c5nc(c(-c6ccc(S(=O)(=O)[O-])cc6)c6ccc3[nH]6)C=C5)C=C4)cc2)cc1
REMARK SMILES IDX 22 1 21 2 20 3 18 4 19 5 17 7 11 8 12 9 13 10 14 11 16 12
REMARK SMILES IDX 15 13 10 14 9 16 8 17 7 18 6 19 3 20 4 21 91 22 5 23 90 24
REMARK SMILES IDX 2 25 1 26 23 27 24 28 25 29 26 30 27 31 28 32 29 34 30 35
REMARK SMILES IDX 31 36 89 37 32 38 88 39 33 40 34 41 35 42 82 43 36 44 87 45
REMARK SMILES IDX 81 46 83 47 37 48 86 49 80 50 79 51 38 53 68 54 49 55 67 56
REMARK SMILES IDX 50 57 53 58 66 59 84 60 51 61 52 62 65 64 85 65 54 66 39 67
REMARK SMILES IDX 40 68 48 69 41 70 47 71 42 72 43 73 44 74 45 75 46 76 69 77
REMARK SMILES IDX 70 78 78 79 71 80 77 81 72 82 73 83 74 84 75 85 76 86 55 87
REMARK SMILES IDX 56 88 64 89 57 90 63 91 58 92 59 93 60 94 61 95 62 96
REMARK H PARENT 20 6 10 15 27 33 83 52 53 63
REMARK Flexibility Score: inf
ROOT
ATOM      1  C   UNL A   1      35.759  22.290  23.847  1.00  0.00     0.021 C 
ENDROOT
BRANCH   1   2
ATOM      2  C   UNL A   1      34.891  23.523  23.596  1.00  0.00     0.116 C 
BRANCH   2   3
ATOM      3  N   UNL A   1      34.961  24.514  24.648  1.00  0.00    -0.352 N 
ATOM      4  C   UNL A   1      34.099  25.526  24.987  1.00  0.00     0.253 C 
ATOM      5  O   UNL A   1      34.377  26.207  25.977  1.00  0.00    -0.269 OA
ATOM      6  H   UNL A   1      35.761  24.451  25.218  1.00  0.00     0.163 HD
BRANCH   4   7
ATOM      7  C   UNL A   1      32.911  25.920  24.185  1.00  0.00     0.064 A 
ATOM      8  C   UNL A   1      31.570  25.897  24.612  1.00  0.00     0.066 A 
ATOM      9  C   UNL A   1      30.599  26.402  23.702  1.00  0.00     0.065 A 
ATOM     10  Cl  UNL A   1      28.911  26.429  24.107  1.00  0.00    -0.082 Cl
ATOM     11  C   UNL A   1      30.937  26.926  22.451  1.00  0.00     0.023 A 
ATOM     12  C   UNL A   1      33.241  26.467  22.922  1.00  0.00     0.016 A 
ATOM     13  C   UNL A   1      32.264  26.956  22.057  1.00  0.00     0.003 A 
BRANCH   8  14
ATOM     14  N   UNL A   1      31.119  25.246  25.745  1.00  0.00    -0.380 N 
ATOM     15  H   UNL A   1      30.420  25.702  26.267  1.00  0.00     0.160 HD
BRANCH  14  16
ATOM     16  C   UNL A   1      31.571  23.958  26.245  1.00  0.00     0.154 C 
BRANCH  16  17
ATOM     17  C   UNL A   1      30.973  22.798  25.406  1.00  0.00     0.250 C 
BRANCH  17  18
ATOM     18  O   UNL A   1      31.723  22.465  24.224  1.00  0.00    -0.492 OA
BRANCH  18  19
ATOM     19  C   UNL A   1      32.149  21.179  24.025  1.00  0.00     0.119 A 
ATOM     20  C   UNL A   1      32.574  18.472  23.423  1.00  0.00     0.119 A 
ATOM     21  C   UNL A   1      32.328  19.379  22.399  1.00  0.00     0.050 A 
ATOM     22  C   UNL A   1      32.727  18.933  24.727  1.00  0.00     0.050 A 
ATOM     23  C   UNL A   1      32.109  20.727  22.702  1.00  0.00     0.050 A 
ATOM     24  C   UNL A   1      32.542  20.287  25.018  1.00  0.00     0.050 A 
BRANCH  20  25
ATOM     25  O   UNL A   1      32.739  17.158  23.083  1.00  0.00    -0.497 OA
ATOM     26  C   UNL A   1      34.088  16.715  23.231  1.00  0.00     0.278 C 
ENDBRANCH  20  25
ENDBRANCH  18  19
ENDBRANCH  17  18
ENDBRANCH  16  17
ENDBRANCH  14  16
ENDBRANCH   8  14
ENDBRANCH   4   7
ENDBRANCH   2   3
ENDBRANCH   1   2
BRANCH   1  27
ATOM     27  C   UNL A   1      37.171  22.532  24.404  1.00  0.00     0.002 C 
BRANCH  27  28
ATOM     28  C   UNL A   1      37.687  21.585  25.492  1.00  0.00     0.002 C 
BRANCH  28  29
ATOM     29  C   UNL A   1      38.509  20.382  25.033  1.00  0.00     0.021 C 
BRANCH  29  30
ATOM     30  C   UNL A   1      39.283  19.613  26.098  1.00  0.00     0.116 C 
BRANCH  30  31
ATOM     31  N   UNL A   1      40.594  19.177  25.662  1.00  0.00    -0.352 N 
ATOM     32  C   UNL A   1      41.822  19.783  25.792  1.00  0.00     0.251 C 
ATOM     33  H   UNL A   1      40.608  18.309  25.199  1.00  0.00     0.163 HD
ATOM     34  O   UNL A   1      42.797  19.253  25.265  1.00  0.00    -0.269 OA
BRANCH  32  35
ATOM     35  C   UNL A   1      41.992  21.069  26.519  1.00  0.00     0.039 A 
ATOM     36  C   UNL A   1      42.381  22.194  25.780  1.00  0.00     0.014 A 
ATOM     37  C   UNL A   1      41.828  21.189  27.902  1.00  0.00     0.014 A 
ATOM     38  C   UNL A   1      42.557  23.430  26.411  1.00  0.00     0.010 A 
ATOM     39  C   UNL A   1      41.937  22.440  28.522  1.00  0.00     0.010 A 
ATOM     40  C   UNL A   1      42.309  23.574  27.785  1.00  0.00    -0.014 A 
BRANCH  40  41
ATOM     41  C   UNL A   1      42.442  24.904  28.444  1.00  0.00     0.031 A 
ATOM     42  C   UNL A   1      43.724  25.301  29.131  1.00  0.00     0.074 A 
ATOM     43  C   UNL A   1      41.398  25.758  28.439  1.00  0.00     0.049 A 
ATOM     44  N   UNL A   1      44.022  26.424  29.735  1.00  0.00    -0.248 NA
ATOM     45  C   UNL A   1      44.806  24.304  29.158  1.00  0.00     0.031 C 
ATOM     46  C   UNL A   1      40.086  25.487  27.846  1.00  0.00     0.029 A 
ATOM     47  N   UNL A   1      41.275  27.031  28.943  1.00  0.00    -0.354 N 
ATOM     48  C   UNL A   1      45.317  26.269  30.217  1.00  0.00     0.074 A 
ATOM     49  C   UNL A   1      45.730  24.924  29.880  1.00  0.00     0.031 C 
ATOM     50  C   UNL A   1      39.306  26.571  27.988  1.00  0.00     0.029 A 
ATOM     51  C   UNL A   1      40.046  27.602  28.710  1.00  0.00     0.049 A 
ATOM     52  H   UNL A   1      42.000  27.490  29.426  1.00  0.00     0.167 HD
ATOM     53  C   UNL A   1      46.102  27.165  30.863  1.00  0.00     0.031 A 
ATOM     54  C   UNL A   1      39.565  28.818  29.035  1.00  0.00     0.031 A 
ATOM     55  C   UNL A   1      45.698  28.508  31.195  1.00  0.00     0.049 A 
ATOM     56  C   UNL A   1      40.453  29.794  29.758  1.00  0.00     0.074 A 
ATOM     57  C   UNL A   1      46.441  29.503  31.807  1.00  0.00     0.029 A 
ATOM     58  N   UNL A   1      44.445  29.044  30.943  1.00  0.00    -0.354 N 
ATOM     59  N   UNL A   1      41.697  29.645  30.147  1.00  0.00    -0.248 NA
ATOM     60  C   UNL A   1      39.877  31.110  30.070  1.00  0.00     0.031 C 
ATOM     61  C   UNL A   1      45.621  30.626  31.967  1.00  0.00     0.029 A 
ATOM     62  C   UNL A   1      44.387  30.349  31.404  1.00  0.00     0.049 A 
ATOM     63  H   UNL A   1      43.706  28.568  30.500  1.00  0.00     0.167 HD
ATOM     64  C   UNL A   1      42.059  30.856  30.727  1.00  0.00     0.074 A 
ATOM     65  C   UNL A   1      40.911  31.733  30.618  1.00  0.00     0.031 C 
ATOM     66  C   UNL A   1      43.238  31.211  31.296  1.00  0.00     0.031 A 
BRANCH  53  67
ATOM     67  C   UNL A   1      47.490  26.725  31.255  1.00  0.00    -0.014 A 
ATOM     68  C   UNL A   1      48.577  26.894  30.379  1.00  0.00     0.010 A 
ATOM     69  C   UNL A   1      47.720  26.183  32.533  1.00  0.00     0.010 A 
ATOM     70  C   UNL A   1      49.861  26.495  30.757  1.00  0.00     0.020 A 
ATOM     71  C   UNL A   1      49.009  25.809  32.927  1.00  0.00     0.020 A 
ATOM     72  C   UNL A   1      50.070  25.952  32.029  1.00  0.00     0.054 A 
BRANCH  72  73
ATOM     73  S   UNL A   1      51.752  25.467  32.503  1.00  0.00     0.124 S 
ATOM     74  O   UNL A   1      51.757  25.764  33.934  1.00  0.00    -0.237 OA
ATOM     75  O   UNL A   1      51.787  24.049  32.157  1.00  0.00    -0.237 OA
ATOM     76  O   UNL A   1      52.605  26.326  31.686  1.00  0.00    -0.744 OA
ENDBRANCH  72  73
ENDBRANCH  53  67
BRANCH  54  77
ATOM     77  C   UNL A   1      38.173  29.194  28.662  1.00  0.00    -0.014 A 
ATOM     78  C   UNL A   1      37.863  29.568  27.341  1.00  0.00     0.010 A 
ATOM     79  C   UNL A   1      37.150  29.187  29.627  1.00  0.00     0.010 A 
ATOM     80  C   UNL A   1      36.562  29.951  27.000  1.00  0.00     0.020 A 
ATOM     81  C   UNL A   1      35.842  29.542  29.283  1.00  0.00     0.020 A 
ATOM     82  C   UNL A   1      35.560  29.936  27.973  1.00  0.00     0.054 A 
BRANCH  82  83
ATOM     83  S   UNL A   1      33.870  30.398  27.500  1.00  0.00     0.124 S 
ATOM     84  O   UNL A   1      33.090  29.290  28.043  1.00  0.00    -0.237 OA
ATOM     85  O   UNL A   1      33.695  31.684  28.169  1.00  0.00    -0.237 OA
ATOM     86  O   UNL A   1      33.931  30.466  26.042  1.00  0.00    -0.744 OA
ENDBRANCH  82  83
ENDBRANCH  54  77
BRANCH  66  87
ATOM     87  C   UNL A   1      43.355  32.620  31.818  1.00  0.00    -0.014 A 
ATOM     88  C   UNL A   1      43.081  32.925  33.163  1.00  0.00     0.010 A 
ATOM     89  C   UNL A   1      43.779  33.647  30.955  1.00  0.00     0.010 A 
ATOM     90  C   UNL A   1      43.186  34.241  33.624  1.00  0.00     0.020 A 
ATOM     91  C   UNL A   1      43.911  34.958  31.419  1.00  0.00     0.020 A 
ATOM     92  C   UNL A   1      43.596  35.250  32.747  1.00  0.00     0.054 A 
BRANCH  92  93
ATOM     93  S   UNL A   1      43.747  36.945  33.375  1.00  0.00     0.124 S 
ATOM     94  O   UNL A   1      44.983  36.872  34.150  1.00  0.00    -0.237 OA
ATOM     95  O   UNL A   1      43.820  37.737  32.150  1.00  0.00    -0.237 OA
ATOM     96  O   UNL A   1      42.529  37.134  34.160  1.00  0.00    -0.744 OA
ENDBRANCH  92  93
ENDBRANCH  66  87
ENDBRANCH  40  41
ENDBRANCH  32  35
ENDBRANCH  30  31
ENDBRANCH  29  30
ENDBRANCH  28  29
ENDBRANCH  27  28
ENDBRANCH   1  27
TORSDOF 22
ENDMDL
MODEL 2
REMARK VINA RESULT:      -8.9      4.164      9.062
REMARK SMILES COc1ccc(OCCNc2c(Cl)cccc2C(=O)NCCCCCCNC(=O)c2ccc(-c3c4nc(c(-c5ccc(S(=O)(=O)[O-])cc5)c5ccc([nH]5)c(-c5ccc(S(=O)(=O)[O-])cc5)c5nc(c(-c6ccc(S(=O)(=O)[O-])cc6)c6ccc3[nH]6)C=C5)C=C4)cc2)cc1
REMARK SMILES IDX 22 1 21 2 20 3 18 4 19 5 17 7 11 8 12 9 13 10 14 11 16 12
REMARK SMILES IDX 15 13 10 14 9 16 8 17 7 18 6 19 3 20 4 21 91 22 5 23 90 24
REMARK SMILES IDX 2 25 1 26 23 27 24 28 25 29 26 30 27 31 28 32 29 34 30 35
REMARK SMILES IDX 31 36 89 37 32 38 88 39 33 40 34 41 35 42 82 43 36 44 87 45
REMARK SMILES IDX 81 46 83 47 37 48 86 49 80 50 79 51 38 53 68 54 49 55 67 56
REMARK SMILES IDX 50 57 53 58 66 59 84 60 51 61 52 62 65 64 85 65 54 66 39 67
REMARK SMILES IDX 40 68 48 69 41 70 47 71 42 72 43 73 44 74 45 75 46 76 69 77
REMARK SMILES IDX 70 78 78 79 71 80 77 81 72 82 73 83 74 84 75 85 76 86 55 87
REMARK SMILES IDX 56 88 64 89 57 90 63 91 58 92 59 93 60 94 61 95 62 96
REMARK H PARENT 20 6 10 15 27 33 83 52 53 63
REMARK Flexibility Score: inf
ROOT
ATOM      1  C   UNL A   1      33.284  28.609  25.239  1.00  0.00     0.021 C 
ENDROOT
BRANCH   1   2
ATOM      2  C   UNL A   1      33.496  27.096  25.196  1.00  0.00     0.116 C 
BRANCH   2   3
ATOM      3  N   UNL A   1      33.597  26.555  23.858  1.00  0.00    -0.352 N 
ATOM      4  C   UNL A   1      32.717  26.588  22.806  1.00  0.00     0.253 C 
ATOM      5  O   UNL A   1      33.078  26.084  21.740  1.00  0.00    -0.269 OA
ATOM      6  H   UNL A   1      34.440  26.084  23.670  1.00  0.00     0.163 HD
BRANCH   4   7
ATOM      7  C   UNL A   1      31.324  27.099  22.895  1.00  0.00     0.064 A 
ATOM      8  C   UNL A   1      30.229  26.442  23.489  1.00  0.00     0.066 A 
ATOM      9  C   UNL A   1      29.001  27.159  23.536  1.00  0.00     0.065 A 
ATOM     10  Cl  UNL A   1      27.575  26.462  24.241  1.00  0.00    -0.082 Cl
ATOM     11  C   UNL A   1      28.867  28.463  23.049  1.00  0.00     0.023 A 
ATOM     12  C   UNL A   1      31.178  28.425  22.419  1.00  0.00     0.016 A 
ATOM     13  C   UNL A   1      29.960  29.098  22.484  1.00  0.00     0.003 A 
BRANCH   8  14
ATOM     14  N   UNL A   1      30.213  25.105  23.837  1.00  0.00    -0.380 N 
ATOM     15  H   UNL A   1      29.816  24.485  23.184  1.00  0.00     0.160 HD
BRANCH  14  16
ATOM     16  C   UNL A   1      30.720  24.522  25.068  1.00  0.00     0.154 C 
BRANCH  16  17
ATOM     17  C   UNL A   1      31.549  23.244  24.774  1.00  0.00     0.250 C 
BRANCH  17  18
ATOM     18  O   UNL A   1      32.637  23.435  23.852  1.00  0.00    -0.492 OA
BRANCH  18  19
ATOM     19  C   UNL A   1      33.906  23.061  24.204  1.00  0.00     0.119 A 
ATOM     20  C   UNL A   1      36.479  21.994  24.536  1.00  0.00     0.119 A 
ATOM     21  C   UNL A   1      36.169  22.708  23.385  1.00  0.00     0.050 A 
ATOM     22  C   UNL A   1      35.550  21.916  25.568  1.00  0.00     0.050 A 
ATOM     23  C   UNL A   1      34.882  23.233  23.218  1.00  0.00     0.050 A 
ATOM     24  C   UNL A   1      34.277  22.473  25.409  1.00  0.00     0.050 A 
BRANCH  20  25
ATOM     25  O   UNL A   1      37.735  21.463  24.635  1.00  0.00    -0.497 OA
ATOM     26  C   UNL A   1      37.722  20.056  24.877  1.00  0.00     0.278 C 
ENDBRANCH  20  25
ENDBRANCH  18  19
ENDBRANCH  17  18
ENDBRANCH  16  17
ENDBRANCH  14  16
ENDBRANCH   8  14
ENDBRANCH   4   7
ENDBRANCH   2   3
ENDBRANCH   1   2
BRANCH   1  27
ATOM     27  C   UNL A   1      33.849  29.358  26.457  1.00  0.00     0.002 C 
BRANCH  27  28
ATOM     28  C   UNL A   1      32.899  30.261  27.251  1.00  0.00     0.002 C 
BRANCH  28  29
ATOM     29  C   UNL A   1      32.895  31.746  26.896  1.00  0.00     0.021 C 
BRANCH  29  30
ATOM     30  C   UNL A   1      32.635  32.737  28.026  1.00  0.00     0.116 C 
BRANCH  30  31
ATOM     31  N   UNL A   1      33.062  34.087  27.724  1.00  0.00    -0.352 N 
ATOM     32  C   UNL A   1      34.186  34.775  28.121  1.00  0.00     0.251 C 
ATOM     33  H   UNL A   1      32.452  34.594  27.142  1.00  0.00     0.163 HD
ATOM     34  O   UNL A   1      34.297  35.956  27.798  1.00  0.00    -0.269 OA
BRANCH  32  35
ATOM     35  C   UNL A   1      35.244  34.141  28.951  1.00  0.00     0.039 A 
ATOM     36  C   UNL A   1      36.580  34.426  28.641  1.00  0.00     0.014 A 
ATOM     37  C   UNL A   1      34.964  33.243  29.986  1.00  0.00     0.014 A 
ATOM     38  C   UNL A   1      37.617  33.857  29.387  1.00  0.00     0.010 A 
ATOM     39  C   UNL A   1      35.999  32.729  30.775  1.00  0.00     0.010 A 
ATOM     40  C   UNL A   1      37.339  33.024  30.482  1.00  0.00    -0.014 A 
BRANCH  40  41
ATOM     41  C   UNL A   1      38.444  32.465  31.310  1.00  0.00     0.031 A 
ATOM     42  C   UNL A   1      39.291  31.326  30.801  1.00  0.00     0.074 A 
ATOM     43  C   UNL A   1      38.682  32.974  32.536  1.00  0.00     0.049 A 
ATOM     44  N   UNL A   1      40.307  30.732  31.377  1.00  0.00    -0.248 NA
ATOM     45  C   UNL A   1      38.945  30.772  29.483  1.00  0.00     0.031 C 
ATOM     46  C   UNL A   1      37.914  34.050  33.169  1.00  0.00     0.029 A 
ATOM     47  N   UNL A   1      39.640  32.661  33.470  1.00  0.00    -0.354 N 
ATOM     48  C   UNL A   1      40.715  29.734  30.499  1.00  0.00     0.074 A 
ATOM     49  C   UNL A   1      39.806  29.769  29.374  1.00  0.00     0.031 C 
ATOM     50  C   UNL A   1      38.454  34.330  34.367  1.00  0.00     0.029 A 
ATOM     51  C   UNL A   1      39.582  33.434  34.605  1.00  0.00     0.049 A 
ATOM     52  H   UNL A   1      40.307  31.948  33.337  1.00  0.00     0.167 HD
ATOM     53  C   UNL A   1      41.761  28.879  30.605  1.00  0.00     0.031 A 
ATOM     54  C   UNL A   1      40.349  33.431  35.713  1.00  0.00     0.031 A 
ATOM     55  C   UNL A   1      42.673  28.845  31.720  1.00  0.00     0.049 A 
ATOM     56  C   UNL A   1      41.501  32.468  35.810  1.00  0.00     0.074 A 
ATOM     57  C   UNL A   1      43.790  28.045  31.894  1.00  0.00     0.029 A 
ATOM     58  N   UNL A   1      42.576  29.644  32.849  1.00  0.00    -0.354 N 
ATOM     59  N   UNL A   1      41.906  31.576  34.938  1.00  0.00    -0.248 NA
ATOM     60  C   UNL A   1      42.309  32.524  37.036  1.00  0.00     0.031 C 
ATOM     61  C   UNL A   1      44.340  28.328  33.149  1.00  0.00     0.029 A 
ATOM     62  C   UNL A   1      43.600  29.344  33.732  1.00  0.00     0.049 A 
ATOM     63  H   UNL A   1      41.882  30.326  33.000  1.00  0.00     0.167 HD
ATOM     64  C   UNL A   1      43.031  30.983  35.499  1.00  0.00     0.074 A 
ATOM     65  C   UNL A   1      43.254  31.631  36.775  1.00  0.00     0.031 C 
ATOM     66  C   UNL A   1      43.811  29.991  35.001  1.00  0.00     0.031 A 
BRANCH  53  67
ATOM     67  C   UNL A   1      41.984  27.903  29.478  1.00  0.00    -0.014 A 
ATOM     68  C   UNL A   1      42.873  28.199  28.429  1.00  0.00     0.010 A 
ATOM     69  C   UNL A   1      41.336  26.654  29.492  1.00  0.00     0.010 A 
ATOM     70  C   UNL A   1      43.082  27.282  27.396  1.00  0.00     0.020 A 
ATOM     71  C   UNL A   1      41.564  25.721  28.475  1.00  0.00     0.020 A 
ATOM     72  C   UNL A   1      42.423  26.048  27.424  1.00  0.00     0.054 A 
BRANCH  72  73
ATOM     73  S   UNL A   1      42.734  24.866  26.084  1.00  0.00     0.124 S 
ATOM     74  O   UNL A   1      42.376  25.649  24.904  1.00  0.00    -0.237 OA
ATOM     75  O   UNL A   1      44.158  24.575  26.236  1.00  0.00    -0.237 OA
ATOM     76  O   UNL A   1      41.838  23.753  26.387  1.00  0.00    -0.744 OA
ENDBRANCH  72  73
ENDBRANCH  53  67
BRANCH  54  77
ATOM     77  C   UNL A   1      40.066  34.387  36.819  1.00  0.00    -0.014 A 
ATOM     78  C   UNL A   1      39.103  34.084  37.799  1.00  0.00     0.010 A 
ATOM     79  C   UNL A   1      40.755  35.611  36.896  1.00  0.00     0.010 A 
ATOM     80  C   UNL A   1      38.817  34.996  38.819  1.00  0.00     0.020 A 
ATOM     81  C   UNL A   1      40.493  36.514  37.931  1.00  0.00     0.020 A 
ATOM     82  C   UNL A   1      39.514  36.206  38.878  1.00  0.00     0.054 A 
BRANCH  82  83
ATOM     83  S   UNL A   1      39.156  37.359  40.233  1.00  0.00     0.124 S 
ATOM     84  O   UNL A   1      38.224  38.289  39.601  1.00  0.00    -0.237 OA
ATOM     85  O   UNL A   1      38.583  36.482  41.252  1.00  0.00    -0.237 OA
ATOM     86  O   UNL A   1      40.467  37.913  40.564  1.00  0.00    -0.744 OA
ENDBRANCH  82  83
ENDBRANCH  54  77
BRANCH  66  87
ATOM     87  C   UNL A   1      44.999  29.568  35.825  1.00  0.00    -0.014 A 
ATOM     88  C   UNL A   1      46.273  30.122  35.608  1.00  0.00     0.010 A 
ATOM     89  C   UNL A   1      44.829  28.625  36.856  1.00  0.00     0.010 A 
ATOM     90  C   UNL A   1      47.365  29.707  36.377  1.00  0.00     0.020 A 
ATOM     91  C   UNL A   1      45.911  28.229  37.645  1.00  0.00     0.020 A 
ATOM     92  C   UNL A   1      47.177  28.759  37.388  1.00  0.00     0.054 A 
BRANCH  92  93
ATOM     93  S   UNL A   1      48.603  28.255  38.389  1.00  0.00     0.124 S 
ATOM     94  O   UNL A   1      48.723  26.838  38.055  1.00  0.00    -0.237 OA
ATOM     95  O   UNL A   1      49.672  29.112  37.881  1.00  0.00    -0.237 OA
ATOM     96  O   UNL A   1      48.183  28.539  39.759  1.00  0.00    -0.744 OA
ENDBRANCH  92  93
ENDBRANCH  66  87
ENDBRANCH  40  41
ENDBRANCH  32  35
ENDBRANCH  30  31
ENDBRANCH  29  30
ENDBRANCH  28  29
ENDBRANCH  27  28
ENDBRANCH   1  27
TORSDOF 22
ENDMDL
MODEL 3
REMARK VINA RESULT:      -8.7      4.192      9.669
REMARK SMILES COc1ccc(OCCNc2c(Cl)cccc2C(=O)NCCCCCCNC(=O)c2ccc(-c3c4nc(c(-c5ccc(S(=O)(=O)[O-])cc5)c5ccc([nH]5)c(-c5ccc(S(=O)(=O)[O-])cc5)c5nc(c(-c6ccc(S(=O)(=O)[O-])cc6)c6ccc3[nH]6)C=C5)C=C4)cc2)cc1
REMARK SMILES IDX 22 1 21 2 20 3 18 4 19 5 17 7 11 8 12 9 13 10 14 11 16 12
REMARK SMILES IDX 15 13 10 14 9 16 8 17 7 18 6 19 3 20 4 21 91 22 5 23 90 24
REMARK SMILES IDX 2 25 1 26 23 27 24 28 25 29 26 30 27 31 28 32 29 34 30 35
REMARK SMILES IDX 31 36 89 37 32 38 88 39 33 40 34 41 35 42 82 43 36 44 87 45
REMARK SMILES IDX 81 46 83 47 37 48 86 49 80 50 79 51 38 53 68 54 49 55 67 56
REMARK SMILES IDX 50 57 53 58 66 59 84 60 51 61 52 62 65 64 85 65 54 66 39 67
REMARK SMILES IDX 40 68 48 69 41 70 47 71 42 72 43 73 44 74 45 75 46 76 69 77
REMARK SMILES IDX 70 78 78 79 71 80 77 81 72 82 73 83 74 84 75 85 76 86 55 87
REMARK SMILES IDX 56 88 64 89 57 90 63 91 58 92 59 93 60 94 61 95 62 96
REMARK H PARENT 20 6 10 15 27 33 83 52 53 63
REMARK Flexibility Score: inf
ROOT
ATOM      1  C   UNL A   1      33.361  28.631  25.175  1.00  0.00     0.021 C 
ENDROOT
BRANCH   1   2
ATOM      2  C   UNL A   1      33.571  27.118  25.107  1.00  0.00     0.116 C 
BRANCH   2   3
ATOM      3  N   UNL A   1      33.663  26.597  23.761  1.00  0.00    -0.352 N 
ATOM      4  C   UNL A   1      32.764  26.619  22.726  1.00  0.00     0.253 C 
ATOM      5  O   UNL A   1      33.120  26.138  21.647  1.00  0.00    -0.269 OA
ATOM      6  H   UNL A   1      34.516  26.152  23.552  1.00  0.00     0.163 HD
BRANCH   4   7
ATOM      7  C   UNL A   1      31.359  27.090  22.845  1.00  0.00     0.064 A 
ATOM      8  C   UNL A   1      30.297  26.403  23.464  1.00  0.00     0.066 A 
ATOM      9  C   UNL A   1      29.050  27.084  23.539  1.00  0.00     0.065 A 
ATOM     10  Cl  UNL A   1      27.662  26.347  24.276  1.00  0.00    -0.082 Cl
ATOM     11  C   UNL A   1      28.868  28.382  23.053  1.00  0.00     0.023 A 
ATOM     12  C   UNL A   1      31.165  28.410  22.372  1.00  0.00     0.016 A 
ATOM     13  C   UNL A   1      29.930  29.048  22.464  1.00  0.00     0.003 A 
BRANCH   8  14
ATOM     14  N   UNL A   1      30.328  25.066  23.814  1.00  0.00    -0.380 N 
ATOM     15  H   UNL A   1      29.983  24.428  23.148  1.00  0.00     0.160 HD
BRANCH  14  16
ATOM     16  C   UNL A   1      30.815  24.506  25.063  1.00  0.00     0.154 C 
BRANCH  16  17
ATOM     17  C   UNL A   1      31.651  23.224  24.806  1.00  0.00     0.250 C 
BRANCH  17  18
ATOM     18  O   UNL A   1      32.798  23.418  23.958  1.00  0.00    -0.492 OA
BRANCH  18  19
ATOM     19  C   UNL A   1      34.030  22.982  24.365  1.00  0.00     0.119 A 
ATOM     20  C   UNL A   1      36.552  21.826  24.783  1.00  0.00     0.119 A 
ATOM     21  C   UNL A   1      36.340  22.649  23.682  1.00  0.00     0.050 A 
ATOM     22  C   UNL A   1      35.548  21.679  25.734  1.00  0.00     0.050 A 
ATOM     23  C   UNL A   1      35.080  23.217  23.472  1.00  0.00     0.050 A 
ATOM     24  C   UNL A   1      34.301  22.280  25.536  1.00  0.00     0.050 A 
BRANCH  20  25
ATOM     25  O   UNL A   1      37.787  21.258  24.923  1.00  0.00    -0.497 OA
ATOM     26  C   UNL A   1      37.734  19.834  25.001  1.00  0.00     0.278 C 
ENDBRANCH  20  25
ENDBRANCH  18  19
ENDBRANCH  17  18
ENDBRANCH  16  17
ENDBRANCH  14  16
ENDBRANCH   8  14
ENDBRANCH   4   7
ENDBRANCH   2   3
ENDBRANCH   1   2
BRANCH   1  27
ATOM     27  C   UNL A   1      34.027  29.376  26.343  1.00  0.00     0.002 C 
BRANCH  27  28
ATOM     28  C   UNL A   1      33.142  30.251  27.237  1.00  0.00     0.002 C 
BRANCH  28  29
ATOM     29  C   UNL A   1      33.183  31.758  26.992  1.00  0.00     0.021 C 
BRANCH  29  30
ATOM     30  C   UNL A   1      33.019  32.670  28.202  1.00  0.00     0.116 C 
BRANCH  30  31
ATOM     31  N   UNL A   1      33.339  34.057  27.932  1.00  0.00    -0.352 N 
ATOM     32  C   UNL A   1      34.419  34.814  28.323  1.00  0.00     0.251 C 
ATOM     33  H   UNL A   1      32.677  34.534  27.381  1.00  0.00     0.163 HD
ATOM     34  O   UNL A   1      34.435  36.008  28.034  1.00  0.00    -0.269 OA
BRANCH  32  35
ATOM     35  C   UNL A   1      35.543  34.235  29.107  1.00  0.00     0.039 A 
ATOM     36  C   UNL A   1      35.227  33.429  30.208  1.00  0.00     0.014 A 
ATOM     37  C   UNL A   1      36.886  34.499  28.822  1.00  0.00     0.014 A 
ATOM     38  C   UNL A   1      36.242  32.859  30.983  1.00  0.00     0.010 A 
ATOM     39  C   UNL A   1      37.901  33.874  29.555  1.00  0.00     0.010 A 
ATOM     40  C   UNL A   1      37.592  33.051  30.648  1.00  0.00    -0.014 A 
BRANCH  40  41
ATOM     41  C   UNL A   1      38.671  32.396  31.441  1.00  0.00     0.031 A 
ATOM     42  C   UNL A   1      39.042  32.907  32.810  1.00  0.00     0.074 A 
ATOM     43  C   UNL A   1      39.333  31.342  30.922  1.00  0.00     0.049 A 
ATOM     44  N   UNL A   1      39.938  32.446  33.647  1.00  0.00    -0.248 NA
ATOM     45  C   UNL A   1      38.327  34.097  33.296  1.00  0.00     0.031 C 
ATOM     46  C   UNL A   1      39.104  30.769  29.593  1.00  0.00     0.029 A 
ATOM     47  N   UNL A   1      40.331  30.558  31.450  1.00  0.00    -0.354 N 
ATOM     48  C   UNL A   1      39.900  33.289  34.751  1.00  0.00     0.074 A 
ATOM     49  C   UNL A   1      38.928  34.320  34.458  1.00  0.00     0.031 C 
ATOM     50  C   UNL A   1      39.909  29.707  29.426  1.00  0.00     0.029 A 
ATOM     51  C   UNL A   1      40.736  29.541  30.618  1.00  0.00     0.049 A 
ATOM     52  H   UNL A   1      40.720  30.712  32.342  1.00  0.00     0.167 HD
ATOM     53  C   UNL A   1      40.592  33.206  35.914  1.00  0.00     0.031 A 
ATOM     54  C   UNL A   1      41.663  28.579  30.790  1.00  0.00     0.031 A 
ATOM     55  C   UNL A   1      41.556  32.178  36.214  1.00  0.00     0.049 A 
ATOM     56  C   UNL A   1      42.424  28.511  32.087  1.00  0.00     0.074 A 
ATOM     57  C   UNL A   1      42.273  31.985  37.383  1.00  0.00     0.029 A 
ATOM     58  N   UNL A   1      41.937  31.169  35.342  1.00  0.00    -0.354 N 
ATOM     59  N   UNL A   1      42.325  29.283  33.142  1.00  0.00    -0.248 NA
ATOM     60  C   UNL A   1      43.411  27.430  32.221  1.00  0.00     0.031 C 
ATOM     61  C   UNL A   1      43.121  30.888  37.201  1.00  0.00     0.029 A 
ATOM     62  C   UNL A   1      42.892  30.363  35.939  1.00  0.00     0.049 A 
ATOM     63  H   UNL A   1      41.580  31.044  34.433  1.00  0.00     0.167 HD
ATOM     64  C   UNL A   1      43.217  28.766  34.075  1.00  0.00     0.074 A 
ATOM     65  C   UNL A   1      43.832  27.604  33.466  1.00  0.00     0.031 C 
ATOM     66  C   UNL A   1      43.501  29.212  35.324  1.00  0.00     0.031 A 
BRANCH  53  67
ATOM     67  C   UNL A   1      40.331  34.260  36.960  1.00  0.00    -0.014 A 
ATOM     68  C   UNL A   1      39.416  34.033  38.004  1.00  0.00     0.010 A 
ATOM     69  C   UNL A   1      41.046  35.472  36.930  1.00  0.00     0.010 A 
ATOM     70  C   UNL A   1      39.192  35.011  38.975  1.00  0.00     0.020 A 
ATOM     71  C   UNL A   1      40.846  36.442  37.918  1.00  0.00     0.020 A 
ATOM     72  C   UNL A   1      39.906  36.212  38.925  1.00  0.00     0.054 A 
BRANCH  72  73
ATOM     73  S   UNL A   1      39.614  37.453  40.216  1.00  0.00     0.124 S 
ATOM     74  O   UNL A   1      38.158  37.570  40.195  1.00  0.00    -0.237 OA
ATOM     75  O   UNL A   1      40.176  36.817  41.405  1.00  0.00    -0.237 OA
ATOM     76  O   UNL A   1      40.340  38.627  39.739  1.00  0.00    -0.744 OA
ENDBRANCH  72  73
ENDBRANCH  53  67
BRANCH  54  77
ATOM     77  C   UNL A   1      41.915  27.583  29.712  1.00  0.00    -0.014 A 
ATOM     78  C   UNL A   1      43.029  27.716  28.862  1.00  0.00     0.010 A 
ATOM     79  C   UNL A   1      41.040  26.499  29.525  1.00  0.00     0.010 A 
ATOM     80  C   UNL A   1      43.247  26.797  27.831  1.00  0.00     0.020 A 
ATOM     81  C   UNL A   1      41.270  25.562  28.513  1.00  0.00     0.020 A 
ATOM     82  C   UNL A   1      42.365  25.727  27.663  1.00  0.00     0.054 A 
BRANCH  82  83
ATOM     83  S   UNL A   1      42.689  24.523  26.343  1.00  0.00     0.124 S 
ATOM     84  O   UNL A   1      42.166  25.215  25.168  1.00  0.00    -0.237 OA
ATOM     85  O   UNL A   1      44.141  24.375  26.398  1.00  0.00    -0.237 OA
ATOM     86  O   UNL A   1      41.934  23.345  26.764  1.00  0.00    -0.744 OA
ENDBRANCH  82  83
ENDBRANCH  54  77
BRANCH  66  87
ATOM     87  C   UNL A   1      44.499  28.421  36.129  1.00  0.00    -0.014 A 
ATOM     88  C   UNL A   1      44.082  27.478  37.085  1.00  0.00     0.010 A 
ATOM     89  C   UNL A   1      45.875  28.601  35.899  1.00  0.00     0.010 A 
ATOM     90  C   UNL A   1      45.024  26.762  37.829  1.00  0.00     0.020 A 
ATOM     91  C   UNL A   1      46.820  27.867  36.621  1.00  0.00     0.020 A 
ATOM     92  C   UNL A   1      46.388  26.965  37.595  1.00  0.00     0.054 A 
BRANCH  92  93
ATOM     93  S   UNL A   1      47.592  26.006  38.556  1.00  0.00     0.124 S 
ATOM     94  O   UNL A   1      48.288  27.053  39.301  1.00  0.00    -0.237 OA
ATOM     95  O   UNL A   1      46.741  25.127  39.354  1.00  0.00    -0.237 OA
ATOM     96  O   UNL A   1      48.391  25.332  37.535  1.00  0.00    -0.744 OA
ENDBRANCH  92  93
ENDBRANCH  66  87
ENDBRANCH  40  41
ENDBRANCH  32  35
ENDBRANCH  30  31
ENDBRANCH  29  30
ENDBRANCH  28  29
ENDBRANCH  27  28
ENDBRANCH   1  27
TORSDOF 22
ENDMDL
