MODEL 1
REMARK VINA RESULT:     -14.5      0.000      0.000
REMARK SMILES Cc1ccc(-c2cc(C(=O)NCCCCCCNC(=O)c3ccc(-c4c5nc(c(-c6ccc(S(=O)(=O)[O-])cc6)c6ccc([nH]6)c(-c6ccc(S(=O)(=O)[O-])cc6)c6nc(c(-c7ccc(S(=O)(=O)[O-])cc7)c7ccc4[nH]7)C=C6)C=C5)cc3)c3c(-c4cccc([N+](=O)[O-])c4)[nH]nc3n2)cc1
REMARK SMILES IDX 15 1 14 2 13 3 12 4 11 5 9 6 10 7 8 9 6 10 7 11 95 12 94 13
REMARK SMILES IDX 81 14 93 15 82 16 92 17 5 19 1 20 2 21 3 22 97 23 4 24 96 25
REMARK SMILES IDX 83 26 84 27 91 28 85 29 87 30 86 31 88 32 89 33 90 34 16 35
REMARK SMILES IDX 17 36 18 37 19 38 20 40 21 41 22 42 80 43 23 44 79 45 24 46
REMARK SMILES IDX 25 47 26 48 73 49 27 50 78 51 72 52 74 53 28 54 77 55 71 56
REMARK SMILES IDX 70 57 29 59 59 60 40 61 58 62 41 63 44 64 57 65 75 66 42 67
REMARK SMILES IDX 43 68 56 70 76 71 45 72 30 73 31 74 39 75 32 76 38 77 33 78
REMARK SMILES IDX 34 79 35 80 36 81 37 82 60 83 61 84 69 85 62 86 68 87 63 88
REMARK SMILES IDX 64 89 65 90 66 91 67 92 46 93 47 94 55 95 48 96 54 97 49 98
REMARK SMILES IDX 50 99 51 100 52 101 53 102
REMARK H PARENT 11 8 92 18 18 39 74 58 44 69
REMARK Flexibility Score: inf
ROOT
ATOM      1  C   UNL A   1      35.755  22.659  25.106  1.00  0.00     0.002 C 
ENDROOT
BRANCH   1   2
ATOM      2  C   UNL A   1      35.629  24.108  24.608  1.00  0.00     0.002 C 
BRANCH   2   3
ATOM      3  C   UNL A   1      34.681  25.028  25.392  1.00  0.00     0.021 C 
BRANCH   3   4
ATOM      4  C   UNL A   1      34.233  26.277  24.633  1.00  0.00     0.116 C 
BRANCH   4   5
ATOM      5  N   UNL A   1      33.568  25.941  23.390  1.00  0.00    -0.352 N 
ATOM      6  C   UNL A   1      32.576  25.086  22.995  1.00  0.00     0.252 C 
ATOM      7  O   UNL A   1      32.165  25.315  21.860  1.00  0.00    -0.269 OA
ATOM      8  H   UNL A   1      33.921  26.465  22.635  1.00  0.00     0.163 HD
BRANCH   6   9
ATOM      9  C   UNL A   1      31.974  24.012  23.828  1.00  0.00     0.055 A 
ATOM     10  C   UNL A   1      31.770  21.620  24.490  1.00  0.00     0.074 A 
ATOM     11  C   UNL A   1      32.134  22.643  23.574  1.00  0.00     0.043 A 
ATOM     12  N   UNL A   1      31.107  21.801  25.660  1.00  0.00    -0.226 NA
ATOM     13  C   UNL A   1      30.802  23.100  25.889  1.00  0.00     0.182 A 
ATOM     14  C   UNL A   1      31.212  24.174  25.010  1.00  0.00     0.059 A 
ATOM     15  N   UNL A   1      30.118  23.547  26.942  1.00  0.00    -0.154 NA
ATOM     16  C   UNL A   1      30.659  25.310  25.587  1.00  0.00     0.076 A 
ATOM     17  N   UNL A   1      30.038  24.864  26.730  1.00  0.00    -0.275 N 
ATOM     18  H   UNL A   1      29.569  25.470  27.346  1.00  0.00     0.190 HD
BRANCH  10  19
ATOM     19  C   UNL A   1      32.229  20.251  24.211  1.00  0.00     0.000 A 
ATOM     20  C   UNL A   1      34.059  16.432  23.335  1.00  0.00     0.044 C 
ATOM     21  C   UNL A   1      33.381  17.730  23.662  1.00  0.00    -0.051 A 
ATOM     22  C   UNL A   1      32.648  18.410  22.681  1.00  0.00     0.004 A 
ATOM     23  C   UNL A   1      33.498  18.291  24.934  1.00  0.00     0.004 A 
ATOM     24  C   UNL A   1      32.070  19.656  22.955  1.00  0.00     0.010 A 
ATOM     25  C   UNL A   1      32.924  19.535  25.204  1.00  0.00     0.010 A 
ENDBRANCH  10  19
BRANCH  16  26
ATOM     26  C   UNL A   1      30.565  26.711  25.207  1.00  0.00     0.007 A 
ATOM     27  C   UNL A   1      31.389  27.665  25.823  1.00  0.00     0.011 A 
ATOM     28  C   UNL A   1      29.720  27.096  24.157  1.00  0.00     0.096 A 
ATOM     29  C   UNL A   1      31.417  28.982  25.358  1.00  0.00     0.008 A 
ATOM     30  C   UNL A   1      29.785  28.407  23.670  1.00  0.00     0.270 A 
ATOM     31  C   UNL A   1      30.627  29.355  24.269  1.00  0.00     0.085 A 
BRANCH  30  32
ATOM     32  N   UNL A   1      29.001  28.779  22.488  1.00  0.00     0.062 N 
ATOM     33  O   UNL A   1      27.780  28.560  22.515  1.00  0.00    -0.258 OA
ATOM     34  O   UNL A   1      29.604  29.261  21.520  1.00  0.00    -0.258 OA
ENDBRANCH  30  32
ENDBRANCH  16  26
ENDBRANCH   6   9
ENDBRANCH   4   5
ENDBRANCH   3   4
ENDBRANCH   2   3
ENDBRANCH   1   2
BRANCH   1  35
ATOM     35  C   UNL A   1      37.100  22.257  25.718  1.00  0.00     0.021 C 
BRANCH  35  36
ATOM     36  C   UNL A   1      37.941  23.440  26.180  1.00  0.00     0.116 C 
BRANCH  36  37
ATOM     37  N   UNL A   1      39.047  23.045  27.036  1.00  0.00    -0.352 N 
ATOM     38  C   UNL A   1      40.098  23.870  27.410  1.00  0.00     0.251 C 
ATOM     39  H   UNL A   1      39.052  22.122  27.377  1.00  0.00     0.163 HD
ATOM     40  O   UNL A   1      41.227  23.473  27.624  1.00  0.00    -0.269 OA
BRANCH  38  41
ATOM     41  C   UNL A   1      39.718  25.270  27.683  1.00  0.00     0.039 A 
ATOM     42  C   UNL A   1      40.159  26.250  26.785  1.00  0.00     0.014 A 
ATOM     43  C   UNL A   1      39.211  25.606  28.934  1.00  0.00     0.014 A 
ATOM     44  C   UNL A   1      40.224  27.577  27.199  1.00  0.00     0.010 A 
ATOM     45  C   UNL A   1      39.360  26.908  29.370  1.00  0.00     0.010 A 
ATOM     46  C   UNL A   1      39.900  27.887  28.519  1.00  0.00    -0.014 A 
BRANCH  46  47
ATOM     47  C   UNL A   1      40.140  29.188  29.138  1.00  0.00     0.031 A 
ATOM     48  C   UNL A   1      39.090  30.234  29.096  1.00  0.00     0.074 A 
ATOM     49  C   UNL A   1      41.257  29.400  29.870  1.00  0.00     0.049 A 
ATOM     50  N   UNL A   1      39.287  31.488  29.343  1.00  0.00    -0.248 NA
ATOM     51  C   UNL A   1      37.717  29.940  28.699  1.00  0.00     0.031 C 
ATOM     52  C   UNL A   1      41.455  30.445  30.872  1.00  0.00     0.029 A 
ATOM     53  N   UNL A   1      42.530  28.852  29.699  1.00  0.00    -0.354 N 
ATOM     54  C   UNL A   1      38.050  32.086  29.451  1.00  0.00     0.074 A 
ATOM     55  C   UNL A   1      37.116  31.105  28.950  1.00  0.00     0.031 C 
ATOM     56  C   UNL A   1      42.770  30.671  31.001  1.00  0.00     0.029 A 
ATOM     57  C   UNL A   1      43.439  29.889  29.975  1.00  0.00     0.049 A 
ATOM     58  H   UNL A   1      42.747  27.929  29.436  1.00  0.00     0.167 HD
ATOM     59  C   UNL A   1      37.928  33.284  30.093  1.00  0.00     0.031 A 
ATOM     60  C   UNL A   1      44.356  30.377  29.090  1.00  0.00     0.031 A 
ATOM     61  C   UNL A   1      39.227  33.850  30.451  1.00  0.00     0.049 A 
ATOM     62  C   UNL A   1      44.255  31.873  28.886  1.00  0.00     0.074 A 
ATOM     63  C   UNL A   1      39.940  33.911  31.638  1.00  0.00     0.029 A 
ATOM     64  N   UNL A   1      40.103  34.234  29.444  1.00  0.00    -0.354 N 
ATOM     65  N   UNL A   1      43.220  32.586  29.234  1.00  0.00    -0.248 NA
ATOM     66  C   UNL A   1      45.283  32.674  28.227  1.00  0.00     0.031 C 
ATOM     67  C   UNL A   1      41.276  34.274  31.327  1.00  0.00     0.029 A 
ATOM     68  C   UNL A   1      41.366  34.453  29.958  1.00  0.00     0.049 A 
ATOM     69  H   UNL A   1      39.858  34.335  28.496  1.00  0.00     0.167 HD
ATOM     70  C   UNL A   1      43.410  33.891  28.861  1.00  0.00     0.074 A 
ATOM     71  C   UNL A   1      44.725  33.899  28.248  1.00  0.00     0.031 C 
ATOM     72  C   UNL A   1      42.459  34.846  29.078  1.00  0.00     0.031 A 
BRANCH  59  73
ATOM     73  C   UNL A   1      36.614  33.786  30.660  1.00  0.00    -0.014 A 
ATOM     74  C   UNL A   1      35.529  34.036  29.790  1.00  0.00     0.010 A 
ATOM     75  C   UNL A   1      36.401  34.105  32.012  1.00  0.00     0.010 A 
ATOM     76  C   UNL A   1      34.357  34.677  30.223  1.00  0.00     0.020 A 
ATOM     77  C   UNL A   1      35.254  34.783  32.454  1.00  0.00     0.020 A 
ATOM     78  C   UNL A   1      34.242  35.081  31.550  1.00  0.00     0.054 A 
BRANCH  78  79
ATOM     79  S   UNL A   1      32.776  36.006  32.073  1.00  0.00     0.124 S 
ATOM     80  O   UNL A   1      32.417  36.741  30.862  1.00  0.00    -0.237 OA
ATOM     81  O   UNL A   1      31.855  34.942  32.462  1.00  0.00    -0.237 OA
ATOM     82  O   UNL A   1      33.264  36.838  33.172  1.00  0.00    -0.744 OA
ENDBRANCH  78  79
ENDBRANCH  59  73
BRANCH  60  83
ATOM     83  C   UNL A   1      44.779  29.407  28.044  1.00  0.00    -0.014 A 
ATOM     84  C   UNL A   1      45.676  28.389  28.431  1.00  0.00     0.010 A 
ATOM     85  C   UNL A   1      43.987  29.221  26.897  1.00  0.00     0.010 A 
ATOM     86  C   UNL A   1      45.642  27.142  27.804  1.00  0.00     0.020 A 
ATOM     87  C   UNL A   1      43.959  27.973  26.262  1.00  0.00     0.020 A 
ATOM     88  C   UNL A   1      44.730  26.923  26.773  1.00  0.00     0.054 A 
BRANCH  88  89
ATOM     89  S   UNL A   1      44.422  25.206  26.255  1.00  0.00     0.124 S 
ATOM     90  O   UNL A   1      45.581  24.916  25.419  1.00  0.00    -0.237 OA
ATOM     91  O   UNL A   1      44.378  24.504  27.539  1.00  0.00    -0.237 OA
ATOM     92  O   UNL A   1      43.143  25.289  25.556  1.00  0.00    -0.744 OA
ENDBRANCH  88  89
ENDBRANCH  60  83
BRANCH  72  93
ATOM     93  C   UNL A   1      42.478  36.262  28.552  1.00  0.00    -0.014 A 
ATOM     94  C   UNL A   1      42.937  37.372  29.279  1.00  0.00     0.010 A 
ATOM     95  C   UNL A   1      42.136  36.488  27.194  1.00  0.00     0.010 A 
ATOM     96  C   UNL A   1      42.995  38.649  28.703  1.00  0.00     0.020 A 
ATOM     97  C   UNL A   1      42.231  37.747  26.598  1.00  0.00     0.020 A 
ATOM     98  C   UNL A   1      42.639  38.831  27.365  1.00  0.00     0.054 A 
BRANCH  98  99
ATOM     99  S   UNL A   1      42.789  40.467  26.604  1.00  0.00     0.124 S 
ATOM    100  O   UNL A   1      41.527  40.580  25.879  1.00  0.00    -0.237 OA
ATOM    101  O   UNL A   1      42.930  41.356  27.757  1.00  0.00    -0.237 OA
ATOM    102  O   UNL A   1      43.985  40.347  25.774  1.00  0.00    -0.744 OA
ENDBRANCH  98  99
ENDBRANCH  72  93
ENDBRANCH  46  47
ENDBRANCH  38  41
ENDBRANCH  36  37
ENDBRANCH  35  36
ENDBRANCH   1  35
TORSDOF 19
ENDMDL
MODEL 2
REMARK VINA RESULT:     -13.9      4.490     11.391
REMARK SMILES Cc1ccc(-c2cc(C(=O)NCCCCCCNC(=O)c3ccc(-c4c5nc(c(-c6ccc(S(=O)(=O)[O-])cc6)c6ccc([nH]6)c(-c6ccc(S(=O)(=O)[O-])cc6)c6nc(c(-c7ccc(S(=O)(=O)[O-])cc7)c7ccc4[nH]7)C=C6)C=C5)cc3)c3c(-c4cccc([N+](=O)[O-])c4)[nH]nc3n2)cc1
REMARK SMILES IDX 15 1 14 2 13 3 12 4 11 5 9 6 10 7 8 9 6 10 7 11 95 12 94 13
REMARK SMILES IDX 81 14 93 15 82 16 92 17 5 19 1 20 2 21 3 22 97 23 4 24 96 25
REMARK SMILES IDX 83 26 84 27 91 28 85 29 87 30 86 31 88 32 89 33 90 34 16 35
REMARK SMILES IDX 17 36 18 37 19 38 20 40 21 41 22 42 80 43 23 44 79 45 24 46
REMARK SMILES IDX 25 47 26 48 73 49 27 50 78 51 72 52 74 53 28 54 77 55 71 56
REMARK SMILES IDX 70 57 29 59 59 60 40 61 58 62 41 63 44 64 57 65 75 66 42 67
REMARK SMILES IDX 43 68 56 70 76 71 45 72 30 73 31 74 39 75 32 76 38 77 33 78
REMARK SMILES IDX 34 79 35 80 36 81 37 82 60 83 61 84 69 85 62 86 68 87 63 88
REMARK SMILES IDX 64 89 65 90 66 91 67 92 46 93 47 94 55 95 48 96 54 97 49 98
REMARK SMILES IDX 50 99 51 100 52 101 53 102
REMARK H PARENT 11 8 92 18 18 39 74 58 44 69
REMARK Flexibility Score: inf
ROOT
ATOM      1  C   UNL A   1      32.327  28.745  26.910  1.00  0.00     0.002 C 
ENDROOT
BRANCH   1   2
ATOM      2  C   UNL A   1      32.099  27.234  26.743  1.00  0.00     0.002 C 
BRANCH   2   3
ATOM      3  C   UNL A   1      33.241  26.429  26.102  1.00  0.00     0.021 C 
BRANCH   3   4
ATOM      4  C   UNL A   1      33.291  24.957  26.512  1.00  0.00     0.116 C 
BRANCH   4   5
ATOM      5  N   UNL A   1      31.996  24.320  26.388  1.00  0.00    -0.352 N 
ATOM      6  C   UNL A   1      31.051  24.174  25.409  1.00  0.00     0.252 C 
ATOM      7  O   UNL A   1      30.198  23.333  25.682  1.00  0.00    -0.269 OA
ATOM      8  H   UNL A   1      31.726  23.876  27.224  1.00  0.00     0.163 HD
BRANCH   6   9
ATOM      9  C   UNL A   1      31.040  24.884  24.103  1.00  0.00     0.055 A 
ATOM     10  C   UNL A   1      30.401  26.827  22.681  1.00  0.00     0.074 A 
ATOM     11  C   UNL A   1      30.244  26.005  23.829  1.00  0.00     0.043 A 
ATOM     12  N   UNL A   1      31.232  26.582  21.638  1.00  0.00    -0.226 NA
ATOM     13  C   UNL A   1      31.927  25.429  21.786  1.00  0.00     0.182 A 
ATOM     14  C   UNL A   1      31.839  24.601  22.969  1.00  0.00     0.059 A 
ATOM     15  N   UNL A   1      32.779  24.933  20.888  1.00  0.00    -0.154 NA
ATOM     16  C   UNL A   1      32.664  23.520  22.685  1.00  0.00     0.076 A 
ATOM     17  N   UNL A   1      33.193  23.791  21.445  1.00  0.00    -0.275 N 
ATOM     18  H   UNL A   1      33.830  23.188  21.000  1.00  0.00     0.190 HD
BRANCH  10  19
ATOM     19  C   UNL A   1      29.683  28.110  22.650  1.00  0.00     0.000 A 
ATOM     20  C   UNL A   1      27.804  31.988  23.013  1.00  0.00     0.044 C 
ATOM     21  C   UNL A   1      28.445  30.643  22.832  1.00  0.00    -0.051 A 
ATOM     22  C   UNL A   1      27.730  29.476  23.128  1.00  0.00     0.004 A 
ATOM     23  C   UNL A   1      29.767  30.539  22.399  1.00  0.00     0.004 A 
ATOM     24  C   UNL A   1      28.341  28.219  23.030  1.00  0.00     0.010 A 
ATOM     25  C   UNL A   1      30.375  29.286  22.305  1.00  0.00     0.010 A 
ENDBRANCH  10  19
BRANCH  16  26
ATOM     26  C   UNL A   1      32.974  22.264  23.351  1.00  0.00     0.007 A 
ATOM     27  C   UNL A   1      32.152  21.144  23.159  1.00  0.00     0.011 A 
ATOM     28  C   UNL A   1      34.147  22.145  24.109  1.00  0.00     0.096 A 
ATOM     29  C   UNL A   1      32.526  19.897  23.667  1.00  0.00     0.008 A 
ATOM     30  C   UNL A   1      34.535  20.884  24.579  1.00  0.00     0.270 A 
ATOM     31  C   UNL A   1      33.726  19.759  24.365  1.00  0.00     0.085 A 
BRANCH  30  32
ATOM     32  N   UNL A   1      35.826  20.732  25.258  1.00  0.00     0.062 N 
ATOM     33  O   UNL A   1      36.551  19.788  24.909  1.00  0.00    -0.258 OA
ATOM     34  O   UNL A   1      36.105  21.534  26.159  1.00  0.00    -0.258 OA
ENDBRANCH  30  32
ENDBRANCH  16  26
ENDBRANCH   6   9
ENDBRANCH   4   5
ENDBRANCH   3   4
ENDBRANCH   2   3
ENDBRANCH   1   2
BRANCH   1  35
ATOM     35  C   UNL A   1      33.594  29.169  27.657  1.00  0.00     0.021 C 
BRANCH  35  36
ATOM     36  C   UNL A   1      34.758  29.519  26.739  1.00  0.00     0.116 C 
BRANCH  36  37
ATOM     37  N   UNL A   1      35.436  30.744  27.131  1.00  0.00    -0.352 N 
ATOM     38  C   UNL A   1      36.386  30.841  28.137  1.00  0.00     0.251 C 
ATOM     39  H   UNL A   1      35.204  31.568  26.646  1.00  0.00     0.163 HD
ATOM     40  O   UNL A   1      36.545  31.830  28.825  1.00  0.00    -0.269 OA
BRANCH  38  41
ATOM     41  C   UNL A   1      37.314  29.695  28.224  1.00  0.00     0.039 A 
ATOM     42  C   UNL A   1      37.353  28.980  29.426  1.00  0.00     0.014 A 
ATOM     43  C   UNL A   1      38.304  29.547  27.257  1.00  0.00     0.014 A 
ATOM     44  C   UNL A   1      38.472  28.210  29.728  1.00  0.00     0.010 A 
ATOM     45  C   UNL A   1      39.449  28.854  27.597  1.00  0.00     0.010 A 
ATOM     46  C   UNL A   1      39.552  28.216  28.845  1.00  0.00    -0.014 A 
BRANCH  46  47
ATOM     47  C   UNL A   1      40.860  27.639  29.145  1.00  0.00     0.031 A 
ATOM     48  C   UNL A   1      41.176  26.256  28.716  1.00  0.00     0.074 A 
ATOM     49  C   UNL A   1      41.834  28.404  29.689  1.00  0.00     0.049 A 
ATOM     50  N   UNL A   1      42.162  25.551  29.165  1.00  0.00    -0.248 NA
ATOM     51  C   UNL A   1      40.340  25.527  27.767  1.00  0.00     0.031 C 
ATOM     52  C   UNL A   1      43.268  28.131  29.664  1.00  0.00     0.029 A 
ATOM     53  N   UNL A   1      41.710  29.475  30.575  1.00  0.00    -0.354 N 
ATOM     54  C   UNL A   1      42.277  24.440  28.358  1.00  0.00     0.074 A 
ATOM     55  C   UNL A   1      41.068  24.426  27.569  1.00  0.00     0.031 C 
ATOM     56  C   UNL A   1      43.845  28.776  30.687  1.00  0.00     0.029 A 
ATOM     57  C   UNL A   1      42.775  29.351  31.484  1.00  0.00     0.049 A 
ATOM     58  H   UNL A   1      41.017  30.174  30.566  1.00  0.00     0.167 HD
ATOM     59  C   UNL A   1      43.446  23.737  28.331  1.00  0.00     0.031 A 
ATOM     60  C   UNL A   1      42.634  29.200  32.834  1.00  0.00     0.031 A 
ATOM     61  C   UNL A   1      44.395  24.211  29.336  1.00  0.00     0.049 A 
ATOM     62  C   UNL A   1      43.344  27.979  33.378  1.00  0.00     0.074 A 
ATOM     63  C   UNL A   1      45.519  25.020  29.273  1.00  0.00     0.029 A 
ATOM     64  N   UNL A   1      44.089  24.067  30.683  1.00  0.00    -0.354 N 
ATOM     65  N   UNL A   1      43.762  26.992  32.637  1.00  0.00    -0.248 NA
ATOM     66  C   UNL A   1      43.590  27.749  34.799  1.00  0.00     0.031 C 
ATOM     67  C   UNL A   1      45.849  25.415  30.595  1.00  0.00     0.029 A 
ATOM     68  C   UNL A   1      44.940  24.830  31.459  1.00  0.00     0.049 A 
ATOM     69  H   UNL A   1      43.365  23.500  31.036  1.00  0.00     0.167 HD
ATOM     70  C   UNL A   1      44.306  26.015  33.431  1.00  0.00     0.074 A 
ATOM     71  C   UNL A   1      44.190  26.544  34.777  1.00  0.00     0.031 C 
ATOM     72  C   UNL A   1      44.792  24.851  32.908  1.00  0.00     0.031 A 
BRANCH  59  73
ATOM     73  C   UNL A   1      43.832  22.821  27.185  1.00  0.00    -0.014 A 
ATOM     74  C   UNL A   1      42.945  21.801  26.779  1.00  0.00     0.010 A 
ATOM     75  C   UNL A   1      45.071  22.856  26.522  1.00  0.00     0.010 A 
ATOM     76  C   UNL A   1      43.319  20.808  25.860  1.00  0.00     0.020 A 
ATOM     77  C   UNL A   1      45.476  21.849  25.632  1.00  0.00     0.020 A 
ATOM     78  C   UNL A   1      44.601  20.817  25.318  1.00  0.00     0.054 A 
BRANCH  78  79
ATOM     79  S   UNL A   1      45.112  19.470  24.221  1.00  0.00     0.124 S 
ATOM     80  O   UNL A   1      44.517  18.299  24.860  1.00  0.00    -0.237 OA
ATOM     81  O   UNL A   1      44.521  19.862  22.945  1.00  0.00    -0.237 OA
ATOM     82  O   UNL A   1      46.573  19.519  24.270  1.00  0.00    -0.744 OA
ENDBRANCH  78  79
ENDBRANCH  59  73
BRANCH  60  83
ATOM     83  C   UNL A   1      41.372  29.763  33.387  1.00  0.00    -0.014 A 
ATOM     84  C   UNL A   1      41.402  31.100  33.834  1.00  0.00     0.010 A 
ATOM     85  C   UNL A   1      40.137  29.180  33.050  1.00  0.00     0.010 A 
ATOM     86  C   UNL A   1      40.256  31.895  33.759  1.00  0.00     0.020 A 
ATOM     87  C   UNL A   1      38.985  29.975  32.985  1.00  0.00     0.020 A 
ATOM     88  C   UNL A   1      39.075  31.343  33.264  1.00  0.00     0.054 A 
BRANCH  88  89
ATOM     89  S   UNL A   1      37.731  32.478  32.800  1.00  0.00     0.124 S 
ATOM     90  O   UNL A   1      38.362  33.785  32.933  1.00  0.00    -0.237 OA
ATOM     91  O   UNL A   1      37.435  32.055  31.430  1.00  0.00    -0.237 OA
ATOM     92  O   UNL A   1      36.686  32.178  33.774  1.00  0.00    -0.744 OA
ENDBRANCH  88  89
ENDBRANCH  60  83
BRANCH  72  93
ATOM     93  C   UNL A   1      45.241  23.639  33.690  1.00  0.00    -0.014 A 
ATOM     94  C   UNL A   1      46.580  23.330  33.972  1.00  0.00     0.010 A 
ATOM     95  C   UNL A   1      44.256  22.818  34.296  1.00  0.00     0.010 A 
ATOM     96  C   UNL A   1      46.924  22.227  34.768  1.00  0.00     0.020 A 
ATOM     97  C   UNL A   1      44.585  21.743  35.124  1.00  0.00     0.020 A 
ATOM     98  C   UNL A   1      45.924  21.437  35.337  1.00  0.00     0.054 A 
BRANCH  98  99
ATOM     99  S   UNL A   1      46.370  20.060  36.426  1.00  0.00     0.124 S 
ATOM    100  O   UNL A   1      45.897  18.908  35.664  1.00  0.00    -0.237 OA
ATOM    101  O   UNL A   1      47.823  20.183  36.535  1.00  0.00    -0.237 OA
ATOM    102  O   UNL A   1      45.636  20.347  37.655  1.00  0.00    -0.744 OA
ENDBRANCH  98  99
ENDBRANCH  72  93
ENDBRANCH  46  47
ENDBRANCH  38  41
ENDBRANCH  36  37
ENDBRANCH  35  36
ENDBRANCH   1  35
TORSDOF 19
ENDMDL
MODEL 3
REMARK VINA RESULT:     -13.0      1.773      2.408
REMARK SMILES Cc1ccc(-c2cc(C(=O)NCCCCCCNC(=O)c3ccc(-c4c5nc(c(-c6ccc(S(=O)(=O)[O-])cc6)c6ccc([nH]6)c(-c6ccc(S(=O)(=O)[O-])cc6)c6nc(c(-c7ccc(S(=O)(=O)[O-])cc7)c7ccc4[nH]7)C=C6)C=C5)cc3)c3c(-c4cccc([N+](=O)[O-])c4)[nH]nc3n2)cc1
REMARK SMILES IDX 15 1 14 2 13 3 12 4 11 5 9 6 10 7 8 9 6 10 7 11 95 12 94 13
REMARK SMILES IDX 81 14 93 15 82 16 92 17 5 19 1 20 2 21 3 22 97 23 4 24 96 25
REMARK SMILES IDX 83 26 84 27 91 28 85 29 87 30 86 31 88 32 89 33 90 34 16 35
REMARK SMILES IDX 17 36 18 37 19 38 20 40 21 41 22 42 80 43 23 44 79 45 24 46
REMARK SMILES IDX 25 47 26 48 73 49 27 50 78 51 72 52 74 53 28 54 77 55 71 56
REMARK SMILES IDX 70 57 29 59 59 60 40 61 58 62 41 63 44 64 57 65 75 66 42 67
REMARK SMILES IDX 43 68 56 70 76 71 45 72 30 73 31 74 39 75 32 76 38 77 33 78
REMARK SMILES IDX 34 79 35 80 36 81 37 82 60 83 61 84 69 85 62 86 68 87 63 88
REMARK SMILES IDX 64 89 65 90 66 91 67 92 46 93 47 94 55 95 48 96 54 97 49 98
REMARK SMILES IDX 50 99 51 100 52 101 53 102
REMARK H PARENT 11 8 92 18 18 39 74 58 44 69
REMARK Flexibility Score: inf
ROOT
ATOM      1  C   UNL A   1      36.553  21.110  24.687  1.00  0.00     0.002 C 
ENDROOT
BRANCH   1   2
ATOM      2  C   UNL A   1      36.007  22.502  25.046  1.00  0.00     0.002 C 
BRANCH   2   3
ATOM      3  C   UNL A   1      36.006  23.555  23.926  1.00  0.00     0.021 C 
BRANCH   3   4
ATOM      4  C   UNL A   1      35.206  24.818  24.240  1.00  0.00     0.116 C 
BRANCH   4   5
ATOM      5  N   UNL A   1      34.139  25.030  23.284  1.00  0.00    -0.352 N 
ATOM      6  C   UNL A   1      32.835  24.635  23.146  1.00  0.00     0.252 C 
ATOM      7  O   UNL A   1      32.228  25.265  22.283  1.00  0.00    -0.269 OA
ATOM      8  H   UNL A   1      34.425  25.608  22.540  1.00  0.00     0.163 HD
BRANCH   6   9
ATOM      9  C   UNL A   1      32.151  23.603  23.968  1.00  0.00     0.055 A 
ATOM     10  C   UNL A   1      31.848  21.239  24.693  1.00  0.00     0.074 A 
ATOM     11  C   UNL A   1      32.300  22.223  23.772  1.00  0.00     0.043 A 
ATOM     12  N   UNL A   1      31.106  21.473  25.803  1.00  0.00    -0.226 NA
ATOM     13  C   UNL A   1      30.811  22.785  25.965  1.00  0.00     0.182 A 
ATOM     14  C   UNL A   1      31.307  23.820  25.084  1.00  0.00     0.059 A 
ATOM     15  N   UNL A   1      30.061  23.281  26.949  1.00  0.00    -0.154 NA
ATOM     16  C   UNL A   1      30.738  24.985  25.580  1.00  0.00     0.076 A 
ATOM     17  N   UNL A   1      30.025  24.591  26.688  1.00  0.00    -0.275 N 
ATOM     18  H   UNL A   1      29.524  25.227  27.247  1.00  0.00     0.190 HD
BRANCH  10  19
ATOM     19  C   UNL A   1      32.299  19.853  24.495  1.00  0.00     0.000 A 
ATOM     20  C   UNL A   1      34.108  15.958  23.987  1.00  0.00     0.044 C 
ATOM     21  C   UNL A   1      33.432  17.284  24.174  1.00  0.00    -0.051 A 
ATOM     22  C   UNL A   1      33.007  18.022  23.061  1.00  0.00     0.004 A 
ATOM     23  C   UNL A   1      33.246  17.814  25.452  1.00  0.00     0.004 A 
ATOM     24  C   UNL A   1      32.438  19.292  23.220  1.00  0.00     0.010 A 
ATOM     25  C   UNL A   1      32.682  19.081  25.608  1.00  0.00     0.010 A 
ENDBRANCH  10  19
BRANCH  16  26
ATOM     26  C   UNL A   1      30.701  26.374  25.146  1.00  0.00     0.007 A 
ATOM     27  C   UNL A   1      31.769  27.233  25.446  1.00  0.00     0.011 A 
ATOM     28  C   UNL A   1      29.644  26.830  24.346  1.00  0.00     0.096 A 
ATOM     29  C   UNL A   1      31.815  28.520  24.904  1.00  0.00     0.008 A 
ATOM     30  C   UNL A   1      29.719  28.106  23.774  1.00  0.00     0.270 A 
ATOM     31  C   UNL A   1      30.799  28.956  24.052  1.00  0.00     0.085 A 
BRANCH  30  32
ATOM     32  N   UNL A   1      28.682  28.536  22.831  1.00  0.00     0.062 N 
ATOM     33  O   UNL A   1      27.510  28.211  23.077  1.00  0.00    -0.258 OA
ATOM     34  O   UNL A   1      29.036  29.172  21.829  1.00  0.00    -0.258 OA
ENDBRANCH  30  32
ENDBRANCH  16  26
ENDBRANCH   6   9
ENDBRANCH   4   5
ENDBRANCH   3   4
ENDBRANCH   2   3
ENDBRANCH   1   2
BRANCH   1  35
ATOM     35  C   UNL A   1      37.914  20.732  25.278  1.00  0.00     0.021 C 
BRANCH  35  36
ATOM     36  C   UNL A   1      38.691  21.919  25.832  1.00  0.00     0.116 C 
BRANCH  36  37
ATOM     37  N   UNL A   1      40.060  21.579  26.185  1.00  0.00    -0.352 N 
ATOM     38  C   UNL A   1      41.116  22.478  26.235  1.00  0.00     0.251 C 
ATOM     39  H   UNL A   1      40.254  20.640  26.405  1.00  0.00     0.163 HD
ATOM     40  O   UNL A   1      42.268  22.184  25.985  1.00  0.00    -0.269 OA
BRANCH  38  41
ATOM     41  C   UNL A   1      40.767  23.811  26.768  1.00  0.00     0.039 A 
ATOM     42  C   UNL A   1      41.034  24.923  25.962  1.00  0.00     0.014 A 
ATOM     43  C   UNL A   1      40.477  23.947  28.122  1.00  0.00     0.014 A 
ATOM     44  C   UNL A   1      41.150  26.180  26.547  1.00  0.00     0.010 A 
ATOM     45  C   UNL A   1      40.680  25.179  28.712  1.00  0.00     0.010 A 
ATOM     46  C   UNL A   1      41.052  26.289  27.934  1.00  0.00    -0.014 A 
BRANCH  46  47
ATOM     47  C   UNL A   1      41.376  27.498  28.686  1.00  0.00     0.031 A 
ATOM     48  C   UNL A   1      40.350  28.552  28.872  1.00  0.00     0.074 A 
ATOM     49  C   UNL A   1      42.558  27.603  29.333  1.00  0.00     0.049 A 
ATOM     50  N   UNL A   1      40.595  29.762  29.255  1.00  0.00    -0.248 NA
ATOM     51  C   UNL A   1      38.940  28.325  28.569  1.00  0.00     0.031 C 
ATOM     52  C   UNL A   1      42.869  28.510  30.436  1.00  0.00     0.029 A 
ATOM     53  N   UNL A   1      43.798  27.068  28.979  1.00  0.00    -0.354 N 
ATOM     54  C   UNL A   1      39.387  30.355  29.551  1.00  0.00     0.074 A 
ATOM     55  C   UNL A   1      38.390  29.456  29.018  1.00  0.00     0.031 C 
ATOM     56  C   UNL A   1      44.194  28.704  30.472  1.00  0.00     0.029 A 
ATOM     57  C   UNL A   1      44.751  28.051  29.299  1.00  0.00     0.049 A 
ATOM     58  H   UNL A   1      43.970  26.183  28.584  1.00  0.00     0.167 HD
ATOM     59  C   UNL A   1      39.350  31.463  30.345  1.00  0.00     0.031 A 
ATOM     60  C   UNL A   1      45.595  28.638  28.401  1.00  0.00     0.031 A 
ATOM     61  C   UNL A   1      40.688  31.965  30.651  1.00  0.00     0.049 A 
ATOM     62  C   UNL A   1      45.510  30.149  28.396  1.00  0.00     0.074 A 
ATOM     63  C   UNL A   1      41.506  31.867  31.766  1.00  0.00     0.029 A 
ATOM     64  N   UNL A   1      41.478  32.465  29.624  1.00  0.00    -0.354 N 
ATOM     65  N   UNL A   1      44.527  30.823  28.925  1.00  0.00    -0.248 NA
ATOM     66  C   UNL A   1      46.492  31.016  27.751  1.00  0.00     0.031 C 
ATOM     67  C   UNL A   1      42.816  32.252  31.382  1.00  0.00     0.029 A 
ATOM     68  C   UNL A   1      42.788  32.603  30.044  1.00  0.00     0.049 A 
ATOM     69  H   UNL A   1      41.152  32.688  28.723  1.00  0.00     0.167 HD
ATOM     70  C   UNL A   1      44.711  32.163  28.702  1.00  0.00     0.074 A 
ATOM     71  C   UNL A   1      45.966  32.234  27.977  1.00  0.00     0.031 C 
ATOM     72  C   UNL A   1      43.805  33.093  29.124  1.00  0.00     0.031 A 
BRANCH  59  73
ATOM     73  C   UNL A   1      38.103  31.904  31.089  1.00  0.00    -0.014 A 
ATOM     74  C   UNL A   1      37.234  32.846  30.496  1.00  0.00     0.010 A 
ATOM     75  C   UNL A   1      37.768  31.496  32.393  1.00  0.00     0.010 A 
ATOM     76  C   UNL A   1      36.174  33.433  31.205  1.00  0.00     0.020 A 
ATOM     77  C   UNL A   1      36.738  32.102  33.128  1.00  0.00     0.020 A 
ATOM     78  C   UNL A   1      35.954  33.083  32.534  1.00  0.00     0.054 A 
BRANCH  78  79
ATOM     79  S   UNL A   1      34.656  33.927  33.473  1.00  0.00     0.124 S 
ATOM     80  O   UNL A   1      33.444  33.257  33.008  1.00  0.00    -0.237 OA
ATOM     81  O   UNL A   1      35.039  33.653  34.855  1.00  0.00    -0.237 OA
ATOM     82  O   UNL A   1      34.782  35.324  33.059  1.00  0.00    -0.744 OA
ENDBRANCH  78  79
ENDBRANCH  59  73
BRANCH  60  83
ATOM     83  C   UNL A   1      45.901  27.804  27.208  1.00  0.00    -0.014 A 
ATOM     84  C   UNL A   1      45.297  28.173  25.988  1.00  0.00     0.010 A 
ATOM     85  C   UNL A   1      47.063  27.012  27.184  1.00  0.00     0.010 A 
ATOM     86  C   UNL A   1      45.945  27.924  24.775  1.00  0.00     0.020 A 
ATOM     87  C   UNL A   1      47.708  26.754  25.967  1.00  0.00     0.020 A 
ATOM     88  C   UNL A   1      47.182  27.282  24.784  1.00  0.00     0.054 A 
BRANCH  88  89
ATOM     89  S   UNL A   1      48.180  27.332  23.263  1.00  0.00     0.124 S 
ATOM     90  O   UNL A   1      48.274  25.923  22.901  1.00  0.00    -0.237 OA
ATOM     91  O   UNL A   1      47.352  28.157  22.383  1.00  0.00    -0.237 OA
ATOM     92  O   UNL A   1      49.426  27.956  23.699  1.00  0.00    -0.744 OA
ENDBRANCH  88  89
ENDBRANCH  60  83
BRANCH  72  93
ATOM     93  C   UNL A   1      43.809  34.564  28.779  1.00  0.00    -0.014 A 
ATOM     94  C   UNL A   1      43.777  35.071  27.471  1.00  0.00     0.010 A 
ATOM     95  C   UNL A   1      43.709  35.509  29.832  1.00  0.00     0.010 A 
ATOM     96  C   UNL A   1      43.708  36.451  27.224  1.00  0.00     0.020 A 
ATOM     97  C   UNL A   1      43.598  36.881  29.597  1.00  0.00     0.020 A 
ATOM     98  C   UNL A   1      43.622  37.349  28.289  1.00  0.00     0.054 A 
BRANCH  98  99
ATOM     99  S   UNL A   1      43.456  39.123  27.964  1.00  0.00     0.124 S 
ATOM    100  O   UNL A   1      43.966  39.228  26.600  1.00  0.00    -0.237 OA
ATOM    101  O   UNL A   1      42.020  39.354  28.114  1.00  0.00    -0.237 OA
ATOM    102  O   UNL A   1      44.287  39.736  28.996  1.00  0.00    -0.744 OA
ENDBRANCH  98  99
ENDBRANCH  72  93
ENDBRANCH  46  47
ENDBRANCH  38  41
ENDBRANCH  36  37
ENDBRANCH  35  36
ENDBRANCH   1  35
TORSDOF 19
ENDMDL
