MODEL 1
REMARK VINA RESULT:     -12.7      0.000      0.000
REMARK SMILES O=C(NCCCCCCNC(=O)[C@H]1CC2=c3ccccc3=N[C@H]2[C@@H](c2ccccc2)[NH2+]1)c1ccc(-c2c3nc(c(-c4ccc(S(=O)(=O)[O-])cc4)c4ccc([nH]4)c(-c4ccc(S(=O)(=O)[O-])cc4)c4nc(c(-c5ccc(S(=O)(=O)[O-])cc5)c5ccc2[nH]5)C=C4)C=C3)cc1
REMARK SMILES IDX 5 1 4 2 3 3 1 4 2 5 32 7 33 8 91 9 34 10 90 11 35 12 36 13
REMARK SMILES IDX 37 14 84 15 38 16 89 17 83 18 85 19 39 20 88 21 82 22 81 23
REMARK SMILES IDX 40 25 70 26 51 27 69 28 52 29 55 30 68 31 86 32 53 33 54 34
REMARK SMILES IDX 67 36 87 37 56 38 41 39 42 40 50 41 43 42 49 43 44 44 45 45
REMARK SMILES IDX 46 46 47 47 48 48 71 49 72 50 80 51 73 52 79 53 74 54 75 55
REMARK SMILES IDX 76 56 77 57 78 58 57 59 58 60 66 61 59 62 65 63 60 64 61 65
REMARK SMILES IDX 62 66 63 67 64 68 6 69 7 70 8 71 9 72 10 73 11 74 12 76
REMARK SMILES IDX 13 77 14 78 31 79 15 80 24 81 16 84 23 85 17 86 21 87 22 88
REMARK SMILES IDX 18 89 20 90 19 91 25 92 26 93 30 94 27 95 29 96 28 97
REMARK H PARENT 3 6 85 24 55 35 10 75 31 82 31 83
REMARK Flexibility Score: inf
ROOT
ATOM      1  C   UNL A   1      32.945  28.033  27.087  1.00  0.00     0.021 C 
ENDROOT
BRANCH   1   2
ATOM      2  C   UNL A   1      33.662  29.071  26.224  1.00  0.00     0.116 C 
BRANCH   2   3
ATOM      3  N   UNL A   1      33.604  30.408  26.797  1.00  0.00    -0.352 N 
ATOM      4  O   UNL A   1      34.113  32.120  28.161  1.00  0.00    -0.269 OA
ATOM      5  C   UNL A   1      34.456  31.034  27.668  1.00  0.00     0.251 C 
ATOM      6  H   UNL A   1      32.831  30.947  26.514  1.00  0.00     0.163 HD
BRANCH   5   7
ATOM      7  C   UNL A   1      35.767  30.453  28.041  1.00  0.00     0.039 A 
ATOM      8  C   UNL A   1      35.897  29.821  29.285  1.00  0.00     0.014 A 
ATOM      9  C   UNL A   1      36.892  30.586  27.222  1.00  0.00     0.014 A 
ATOM     10  C   UNL A   1      37.135  29.310  29.692  1.00  0.00     0.010 A 
ATOM     11  C   UNL A   1      38.108  30.011  27.596  1.00  0.00     0.010 A 
ATOM     12  C   UNL A   1      38.253  29.392  28.847  1.00  0.00    -0.014 A 
BRANCH  12  13
ATOM     13  C   UNL A   1      39.592  28.909  29.284  1.00  0.00     0.031 A 
ATOM     14  C   UNL A   1      40.453  29.785  30.159  1.00  0.00     0.074 A 
ATOM     15  C   UNL A   1      40.050  27.705  28.887  1.00  0.00     0.049 A 
ATOM     16  N   UNL A   1      41.668  29.573  30.599  1.00  0.00    -0.248 NA
ATOM     17  C   UNL A   1      39.884  31.076  30.581  1.00  0.00     0.031 C 
ATOM     18  C   UNL A   1      39.315  26.759  28.046  1.00  0.00     0.029 A 
ATOM     19  N   UNL A   1      41.239  27.065  29.144  1.00  0.00    -0.354 N 
ATOM     20  C   UNL A   1      42.006  30.700  31.338  1.00  0.00     0.074 A 
ATOM     21  C   UNL A   1      40.898  31.622  31.237  1.00  0.00     0.031 C 
ATOM     22  C   UNL A   1      40.051  25.648  27.888  1.00  0.00     0.029 A 
ATOM     23  C   UNL A   1      41.332  25.816  28.573  1.00  0.00     0.049 A 
ATOM     24  H   UNL A   1      41.957  27.463  29.688  1.00  0.00     0.167 HD
ATOM     25  C   UNL A   1      43.125  30.935  32.064  1.00  0.00     0.031 A 
ATOM     26  C   UNL A   1      42.330  24.906  28.594  1.00  0.00     0.031 A 
ATOM     27  C   UNL A   1      44.214  30.003  32.186  1.00  0.00     0.049 A 
ATOM     28  C   UNL A   1      43.586  25.208  29.368  1.00  0.00     0.074 A 
ATOM     29  C   UNL A   1      45.373  30.138  32.930  1.00  0.00     0.029 A 
ATOM     30  N   UNL A   1      44.279  28.765  31.565  1.00  0.00    -0.354 N 
ATOM     31  N   UNL A   1      43.873  26.266  30.088  1.00  0.00    -0.248 NA
ATOM     32  C   UNL A   1      44.649  24.192  29.344  1.00  0.00     0.031 C 
ATOM     33  C   UNL A   1      46.170  29.016  32.701  1.00  0.00     0.029 A 
ATOM     34  C   UNL A   1      45.473  28.140  31.884  1.00  0.00     0.049 A 
ATOM     35  H   UNL A   1      43.580  28.386  30.985  1.00  0.00     0.167 HD
ATOM     36  C   UNL A   1      45.136  26.034  30.621  1.00  0.00     0.074 A 
ATOM     37  C   UNL A   1      45.554  24.728  30.156  1.00  0.00     0.031 C 
ATOM     38  C   UNL A   1      45.881  26.835  31.423  1.00  0.00     0.031 A 
BRANCH  25  39
ATOM     39  C   UNL A   1      43.230  32.241  32.813  1.00  0.00    -0.014 A 
ATOM     40  C   UNL A   1      42.696  32.350  34.110  1.00  0.00     0.010 A 
ATOM     41  C   UNL A   1      43.748  33.391  32.191  1.00  0.00     0.010 A 
ATOM     42  C   UNL A   1      42.645  33.587  34.757  1.00  0.00     0.020 A 
ATOM     43  C   UNL A   1      43.731  34.625  32.847  1.00  0.00     0.020 A 
ATOM     44  C   UNL A   1      43.156  34.720  34.115  1.00  0.00     0.054 A 
BRANCH  44  45
ATOM     45  S   UNL A   1      43.050  36.324  34.957  1.00  0.00     0.124 S 
ATOM     46  O   UNL A   1      41.639  36.388  35.322  1.00  0.00    -0.237 OA
ATOM     47  O   UNL A   1      43.985  36.164  36.068  1.00  0.00    -0.237 OA
ATOM     48  O   UNL A   1      43.475  37.276  33.931  1.00  0.00    -0.744 OA
ENDBRANCH  44  45
ENDBRANCH  25  39
BRANCH  26  49
ATOM     49  C   UNL A   1      42.144  23.604  27.891  1.00  0.00    -0.014 A 
ATOM     50  C   UNL A   1      41.252  22.637  28.392  1.00  0.00     0.010 A 
ATOM     51  C   UNL A   1      42.920  23.291  26.761  1.00  0.00     0.010 A 
ATOM     52  C   UNL A   1      41.189  21.363  27.822  1.00  0.00     0.020 A 
ATOM     53  C   UNL A   1      42.836  22.026  26.166  1.00  0.00     0.020 A 
ATOM     54  C   UNL A   1      41.994  21.061  26.721  1.00  0.00     0.054 A 
BRANCH  54  55
ATOM     55  S   UNL A   1      41.948  19.378  26.045  1.00  0.00     0.124 S 
ATOM     56  O   UNL A   1      42.844  19.491  24.898  1.00  0.00    -0.237 OA
ATOM     57  O   UNL A   1      42.448  18.574  27.157  1.00  0.00    -0.237 OA
ATOM     58  O   UNL A   1      40.538  19.178  25.719  1.00  0.00    -0.744 OA
ENDBRANCH  54  55
ENDBRANCH  26  49
BRANCH  38  59
ATOM     59  C   UNL A   1      47.235  26.348  31.874  1.00  0.00    -0.014 A 
ATOM     60  C   UNL A   1      48.348  26.497  31.024  1.00  0.00     0.010 A 
ATOM     61  C   UNL A   1      47.376  25.600  33.057  1.00  0.00     0.010 A 
ATOM     62  C   UNL A   1      49.559  25.865  31.318  1.00  0.00     0.020 A 
ATOM     63  C   UNL A   1      48.596  24.995  33.373  1.00  0.00     0.020 A 
ATOM     64  C   UNL A   1      49.670  25.106  32.485  1.00  0.00     0.054 A 
BRANCH  64  65
ATOM     65  S   UNL A   1      51.229  24.241  32.818  1.00  0.00     0.124 S 
ATOM     66  O   UNL A   1      52.207  25.104  32.162  1.00  0.00    -0.237 OA
ATOM     67  O   UNL A   1      51.282  24.226  34.278  1.00  0.00    -0.237 OA
ATOM     68  O   UNL A   1      51.036  22.932  32.197  1.00  0.00    -0.744 OA
ENDBRANCH  64  65
ENDBRANCH  38  59
ENDBRANCH  12  13
ENDBRANCH   5   7
ENDBRANCH   2   3
ENDBRANCH   1   2
BRANCH   1  69
ATOM     69  C   UNL A   1      31.423  27.961  26.921  1.00  0.00     0.002 C 
BRANCH  69  70
ATOM     70  C   UNL A   1      30.896  27.841  25.483  1.00  0.00     0.002 C 
BRANCH  70  71
ATOM     71  C   UNL A   1      30.514  26.426  25.026  1.00  0.00     0.021 C 
BRANCH  71  72
ATOM     72  C   UNL A   1      30.203  25.443  26.164  1.00  0.00     0.116 C 
BRANCH  72  73
ATOM     73  N   UNL A   1      31.382  24.655  26.529  1.00  0.00    -0.351 N 
ATOM     74  C   UNL A   1      31.715  23.333  26.396  1.00  0.00     0.278 C 
ATOM     75  H   UNL A   1      32.085  25.189  26.965  1.00  0.00     0.163 HD
ATOM     76  O   UNL A   1      32.569  22.922  27.196  1.00  0.00    -0.268 OA
BRANCH  74  77
ATOM     77  C   UNL A   1      31.260  22.392  25.237  1.00  0.00     0.277 C 
ATOM     78  C   UNL A   1      31.250  23.046  23.799  1.00  0.00     0.109 C 
ATOM     79  N   UNL A   1      31.812  21.033  25.287  1.00  0.00    -0.327 N 
ATOM     80  C   UNL A   1      32.595  22.947  23.061  1.00  0.00    -0.024 C 
ATOM     81  C   UNL A   1      32.701  20.764  24.153  1.00  0.00     0.243 C 
ATOM     82  H   UNL A   1      31.043  20.364  25.269  1.00  0.00     0.347 HD
ATOM     83  H   UNL A   1      32.357  20.945  26.144  1.00  0.00     0.347 HD
ATOM     84  C   UNL A   1      33.278  24.044  22.747  1.00  0.00     0.002 A 
ATOM     85  C   UNL A   1      33.575  21.958  23.646  1.00  0.00     0.196 C 
ATOM     86  C   UNL A   1      32.857  25.249  22.111  1.00  0.00     0.010 A 
ATOM     87  C   UNL A   1      34.084  24.044  24.003  1.00  0.00     0.066 A 
ATOM     88  N   UNL A   1      34.306  22.880  24.581  1.00  0.00    -0.270 NA
ATOM     89  C   UNL A   1      33.194  26.429  22.643  1.00  0.00     0.001 A 
ATOM     90  C   UNL A   1      34.359  25.401  24.559  1.00  0.00     0.028 A 
ATOM     91  C   UNL A   1      33.896  26.492  23.911  1.00  0.00     0.002 A 
BRANCH  81  92
ATOM     92  C   UNL A   1      33.142  19.308  24.094  1.00  0.00     0.012 A 
ATOM     93  C   UNL A   1      32.484  18.493  23.139  1.00  0.00     0.010 A 
ATOM     94  C   UNL A   1      34.278  18.797  24.723  1.00  0.00     0.010 A 
ATOM     95  C   UNL A   1      32.978  17.245  22.772  1.00  0.00     0.001 A 
ATOM     96  C   UNL A   1      34.771  17.536  24.356  1.00  0.00     0.001 A 
ATOM     97  C   UNL A   1      34.136  16.773  23.372  1.00  0.00     0.000 A 
ENDBRANCH  81  92
ENDBRANCH  74  77
ENDBRANCH  72  73
ENDBRANCH  71  72
ENDBRANCH  70  71
ENDBRANCH  69  70
ENDBRANCH   1  69
TORSDOF 17
ENDMDL
MODEL 2
REMARK VINA RESULT:     -12.5      3.381      8.630
REMARK SMILES O=C(NCCCCCCNC(=O)[C@H]1CC2=c3ccccc3=N[C@H]2[C@@H](c2ccccc2)[NH2+]1)c1ccc(-c2c3nc(c(-c4ccc(S(=O)(=O)[O-])cc4)c4ccc([nH]4)c(-c4ccc(S(=O)(=O)[O-])cc4)c4nc(c(-c5ccc(S(=O)(=O)[O-])cc5)c5ccc2[nH]5)C=C4)C=C3)cc1
REMARK SMILES IDX 5 1 4 2 3 3 1 4 2 5 32 7 33 8 91 9 34 10 90 11 35 12 36 13
REMARK SMILES IDX 37 14 84 15 38 16 89 17 83 18 85 19 39 20 88 21 82 22 81 23
REMARK SMILES IDX 40 25 70 26 51 27 69 28 52 29 55 30 68 31 86 32 53 33 54 34
REMARK SMILES IDX 67 36 87 37 56 38 41 39 42 40 50 41 43 42 49 43 44 44 45 45
REMARK SMILES IDX 46 46 47 47 48 48 71 49 72 50 80 51 73 52 79 53 74 54 75 55
REMARK SMILES IDX 76 56 77 57 78 58 57 59 58 60 66 61 59 62 65 63 60 64 61 65
REMARK SMILES IDX 62 66 63 67 64 68 6 69 7 70 8 71 9 72 10 73 11 74 12 76
REMARK SMILES IDX 13 77 14 78 31 79 15 80 24 81 16 84 23 85 17 86 21 87 22 88
REMARK SMILES IDX 18 89 20 90 19 91 25 92 26 93 30 94 27 95 29 96 28 97
REMARK H PARENT 3 6 85 24 55 35 10 75 31 82 31 83
REMARK Flexibility Score: inf
ROOT
ATOM      1  C   UNL A   1      34.373  28.661  26.893  1.00  0.00     0.021 C 
ENDROOT
BRANCH   1   2
ATOM      2  C   UNL A   1      35.398  29.676  27.399  1.00  0.00     0.116 C 
BRANCH   2   3
ATOM      3  N   UNL A   1      35.297  29.903  28.833  1.00  0.00    -0.352 N 
ATOM      4  O   UNL A   1      35.890  29.866  31.000  1.00  0.00    -0.269 OA
ATOM      5  C   UNL A   1      36.246  29.791  29.815  1.00  0.00     0.251 C 
ATOM      6  H   UNL A   1      34.407  30.183  29.147  1.00  0.00     0.163 HD
BRANCH   5   7
ATOM      7  C   UNL A   1      37.679  29.577  29.503  1.00  0.00     0.039 A 
ATOM      8  C   UNL A   1      38.091  29.603  28.164  1.00  0.00     0.014 A 
ATOM      9  C   UNL A   1      38.613  29.274  30.499  1.00  0.00     0.014 A 
ATOM     10  C   UNL A   1      39.427  29.350  27.830  1.00  0.00     0.010 A 
ATOM     11  C   UNL A   1      39.958  29.096  30.173  1.00  0.00     0.010 A 
ATOM     12  C   UNL A   1      40.377  29.102  28.833  1.00  0.00    -0.014 A 
BRANCH  12  13
ATOM     13  C   UNL A   1      41.791  28.772  28.498  1.00  0.00     0.031 A 
ATOM     14  C   UNL A   1      42.151  27.368  28.082  1.00  0.00     0.074 A 
ATOM     15  C   UNL A   1      42.753  29.712  28.583  1.00  0.00     0.049 A 
ATOM     16  N   UNL A   1      43.328  26.865  27.805  1.00  0.00    -0.248 NA
ATOM     17  C   UNL A   1      41.049  26.396  27.982  1.00  0.00     0.031 C 
ATOM     18  C   UNL A   1      42.537  31.108  28.967  1.00  0.00     0.029 A 
ATOM     19  N   UNL A   1      44.105  29.640  28.344  1.00  0.00    -0.354 N 
ATOM     20  C   UNL A   1      43.107  25.526  27.506  1.00  0.00     0.074 A 
ATOM     21  C   UNL A   1      41.697  25.275  27.697  1.00  0.00     0.031 C 
ATOM     22  C   UNL A   1      43.704  31.766  28.901  1.00  0.00     0.029 A 
ATOM     23  C   UNL A   1      44.764  30.834  28.519  1.00  0.00     0.049 A 
ATOM     24  H   UNL A   1      44.559  28.809  28.072  1.00  0.00     0.167 HD
ATOM     25  C   UNL A   1      43.993  24.594  27.080  1.00  0.00     0.031 A 
ATOM     26  C   UNL A   1      46.071  31.151  28.390  1.00  0.00     0.031 A 
ATOM     27  C   UNL A   1      45.391  24.855  26.863  1.00  0.00     0.049 A 
ATOM     28  C   UNL A   1      47.047  30.088  27.960  1.00  0.00     0.074 A 
ATOM     29  C   UNL A   1      46.359  23.983  26.397  1.00  0.00     0.029 A 
ATOM     30  N   UNL A   1      46.020  26.071  27.084  1.00  0.00    -0.354 N 
ATOM     31  N   UNL A   1      46.814  28.835  27.651  1.00  0.00    -0.248 NA
ATOM     32  C   UNL A   1      48.461  30.479  27.851  1.00  0.00     0.031 C 
ATOM     33  C   UNL A   1      47.585  24.649  26.404  1.00  0.00     0.029 A 
ATOM     34  C   UNL A   1      47.369  25.962  26.793  1.00  0.00     0.049 A 
ATOM     35  H   UNL A   1      45.574  26.889  27.400  1.00  0.00     0.167 HD
ATOM     36  C   UNL A   1      48.044  28.296  27.287  1.00  0.00     0.074 A 
ATOM     37  C   UNL A   1      49.017  29.361  27.399  1.00  0.00     0.031 C 
ATOM     38  C   UNL A   1      48.335  27.029  26.899  1.00  0.00     0.031 A 
BRANCH  25  39
ATOM     39  C   UNL A   1      43.484  23.205  26.787  1.00  0.00    -0.014 A 
ATOM     40  C   UNL A   1      42.864  22.456  27.805  1.00  0.00     0.010 A 
ATOM     41  C   UNL A   1      43.726  22.594  25.544  1.00  0.00     0.010 A 
ATOM     42  C   UNL A   1      42.528  21.116  27.598  1.00  0.00     0.020 A 
ATOM     43  C   UNL A   1      43.360  21.264  25.320  1.00  0.00     0.020 A 
ATOM     44  C   UNL A   1      42.787  20.526  26.358  1.00  0.00     0.054 A 
BRANCH  44  45
ATOM     45  S   UNL A   1      42.374  18.775  26.119  1.00  0.00     0.124 S 
ATOM     46  O   UNL A   1      42.643  18.212  27.438  1.00  0.00    -0.237 OA
ATOM     47  O   UNL A   1      40.968  18.828  25.728  1.00  0.00    -0.237 OA
ATOM     48  O   UNL A   1      43.289  18.350  25.059  1.00  0.00    -0.744 OA
ENDBRANCH  44  45
ENDBRANCH  25  39
BRANCH  26  49
ATOM     49  C   UNL A   1      46.507  32.557  28.627  1.00  0.00    -0.014 A 
ATOM     50  C   UNL A   1      46.858  32.994  29.918  1.00  0.00     0.010 A 
ATOM     51  C   UNL A   1      46.495  33.490  27.574  1.00  0.00     0.010 A 
ATOM     52  C   UNL A   1      47.121  34.344  30.166  1.00  0.00     0.020 A 
ATOM     53  C   UNL A   1      46.791  34.838  27.813  1.00  0.00     0.020 A 
ATOM     54  C   UNL A   1      47.069  35.260  29.113  1.00  0.00     0.054 A 
BRANCH  54  55
ATOM     55  S   UNL A   1      47.342  37.017  29.475  1.00  0.00     0.124 S 
ATOM     56  O   UNL A   1      48.279  37.397  28.421  1.00  0.00    -0.237 OA
ATOM     57  O   UNL A   1      46.000  37.579  29.357  1.00  0.00    -0.237 OA
ATOM     58  O   UNL A   1      47.895  37.007  30.828  1.00  0.00    -0.744 OA
ENDBRANCH  54  55
ENDBRANCH  26  49
BRANCH  38  59
ATOM     59  C   UNL A   1      49.763  26.691  26.551  1.00  0.00    -0.014 A 
ATOM     60  C   UNL A   1      50.213  26.846  25.226  1.00  0.00     0.010 A 
ATOM     61  C   UNL A   1      50.605  26.068  27.489  1.00  0.00     0.010 A 
ATOM     62  C   UNL A   1      51.454  26.340  24.832  1.00  0.00     0.020 A 
ATOM     63  C   UNL A   1      51.863  25.589  27.107  1.00  0.00     0.020 A 
ATOM     64  C   UNL A   1      52.264  25.701  25.773  1.00  0.00     0.054 A 
BRANCH  64  65
ATOM     65  S   UNL A   1      53.843  24.993  25.228  1.00  0.00     0.124 S 
ATOM     66  O   UNL A   1      54.737  25.351  26.326  1.00  0.00    -0.237 OA
ATOM     67  O   UNL A   1      53.533  23.570  25.108  1.00  0.00    -0.237 OA
ATOM     68  O   UNL A   1      54.106  25.674  23.962  1.00  0.00    -0.744 OA
ENDBRANCH  64  65
ENDBRANCH  38  59
ENDBRANCH  12  13
ENDBRANCH   5   7
ENDBRANCH   2   3
ENDBRANCH   1   2
BRANCH   1  69
ATOM     69  C   UNL A   1      32.910  28.956  27.241  1.00  0.00     0.002 C 
BRANCH  69  70
ATOM     70  C   UNL A   1      31.972  27.744  27.341  1.00  0.00     0.002 C 
BRANCH  70  71
ATOM     71  C   UNL A   1      31.021  27.534  26.154  1.00  0.00     0.021 C 
BRANCH  71  72
ATOM     72  C   UNL A   1      30.543  26.087  25.959  1.00  0.00     0.116 C 
BRANCH  72  73
ATOM     73  N   UNL A   1      31.512  25.127  26.491  1.00  0.00    -0.351 N 
ATOM     74  C   UNL A   1      31.583  23.759  26.496  1.00  0.00     0.278 C 
ATOM     75  H   UNL A   1      32.275  25.555  26.944  1.00  0.00     0.163 HD
ATOM     76  O   UNL A   1      32.277  23.271  27.401  1.00  0.00    -0.268 OA
BRANCH  74  77
ATOM     77  C   UNL A   1      31.033  22.814  25.382  1.00  0.00     0.277 C 
ATOM     78  C   UNL A   1      30.907  23.463  23.947  1.00  0.00     0.109 C 
ATOM     79  N   UNL A   1      31.586  21.455  25.392  1.00  0.00    -0.327 N 
ATOM     80  C   UNL A   1      32.187  23.361  23.102  1.00  0.00    -0.024 C 
ATOM     81  C   UNL A   1      32.379  21.181  24.190  1.00  0.00     0.243 C 
ATOM     82  H   UNL A   1      30.817  20.787  25.439  1.00  0.00     0.347 HD
ATOM     83  H   UNL A   1      32.199  21.369  26.201  1.00  0.00     0.347 HD
ATOM     84  C   UNL A   1      32.843  24.455  22.729  1.00  0.00     0.002 A 
ATOM     85  C   UNL A   1      33.211  22.372  23.608  1.00  0.00     0.196 C 
ATOM     86  C   UNL A   1      32.373  25.659  22.126  1.00  0.00     0.010 A 
ATOM     87  C   UNL A   1      33.749  24.458  23.916  1.00  0.00     0.066 A 
ATOM     88  N   UNL A   1      34.016  23.296  24.477  1.00  0.00    -0.270 NA
ATOM     89  C   UNL A   1      32.754  26.840  22.624  1.00  0.00     0.001 A 
ATOM     90  C   UNL A   1      34.070  25.817  24.442  1.00  0.00     0.028 A 
ATOM     91  C   UNL A   1      33.557  26.906  23.831  1.00  0.00     0.002 A 
BRANCH  81  92
ATOM     92  C   UNL A   1      32.812  19.724  24.100  1.00  0.00     0.012 A 
ATOM     93  C   UNL A   1      32.215  18.955  23.069  1.00  0.00     0.010 A 
ATOM     94  C   UNL A   1      33.898  19.175  24.783  1.00  0.00     0.010 A 
ATOM     95  C   UNL A   1      32.724  17.719  22.684  1.00  0.00     0.001 A 
ATOM     96  C   UNL A   1      34.406  17.925  24.398  1.00  0.00     0.001 A 
ATOM     97  C   UNL A   1      33.834  17.211  23.341  1.00  0.00     0.000 A 
ENDBRANCH  81  92
ENDBRANCH  74  77
ENDBRANCH  72  73
ENDBRANCH  71  72
ENDBRANCH  70  71
ENDBRANCH  69  70
ENDBRANCH   1  69
TORSDOF 17
ENDMDL
MODEL 3
REMARK VINA RESULT:     -12.4      3.967      9.755
REMARK SMILES O=C(NCCCCCCNC(=O)[C@H]1CC2=c3ccccc3=N[C@H]2[C@@H](c2ccccc2)[NH2+]1)c1ccc(-c2c3nc(c(-c4ccc(S(=O)(=O)[O-])cc4)c4ccc([nH]4)c(-c4ccc(S(=O)(=O)[O-])cc4)c4nc(c(-c5ccc(S(=O)(=O)[O-])cc5)c5ccc2[nH]5)C=C4)C=C3)cc1
REMARK SMILES IDX 5 1 4 2 3 3 1 4 2 5 32 7 33 8 91 9 34 10 90 11 35 12 36 13
REMARK SMILES IDX 37 14 84 15 38 16 89 17 83 18 85 19 39 20 88 21 82 22 81 23
REMARK SMILES IDX 40 25 70 26 51 27 69 28 52 29 55 30 68 31 86 32 53 33 54 34
REMARK SMILES IDX 67 36 87 37 56 38 41 39 42 40 50 41 43 42 49 43 44 44 45 45
REMARK SMILES IDX 46 46 47 47 48 48 71 49 72 50 80 51 73 52 79 53 74 54 75 55
REMARK SMILES IDX 76 56 77 57 78 58 57 59 58 60 66 61 59 62 65 63 60 64 61 65
REMARK SMILES IDX 62 66 63 67 64 68 6 69 7 70 8 71 9 72 10 73 11 74 12 76
REMARK SMILES IDX 13 77 14 78 31 79 15 80 24 81 16 84 23 85 17 86 21 87 22 88
REMARK SMILES IDX 18 89 20 90 19 91 25 92 26 93 30 94 27 95 29 96 28 97
REMARK H PARENT 3 6 85 24 55 35 10 75 31 82 31 83
REMARK Flexibility Score: inf
ROOT
ATOM      1  C   UNL A   1      37.201  23.945  25.673  1.00  0.00     0.021 C 
ENDROOT
BRANCH   1   2
ATOM      2  C   UNL A   1      38.338  23.812  26.686  1.00  0.00     0.116 C 
BRANCH   2   3
ATOM      3  N   UNL A   1      39.649  23.995  26.080  1.00  0.00    -0.352 N 
ATOM      4  O   UNL A   1      41.568  25.023  25.524  1.00  0.00    -0.269 OA
ATOM      5  C   UNL A   1      40.589  24.970  26.284  1.00  0.00     0.251 C 
ATOM      6  H   UNL A   1      39.900  23.309  25.420  1.00  0.00     0.163 HD
BRANCH   5   7
ATOM      7  C   UNL A   1      40.467  25.964  27.377  1.00  0.00     0.039 A 
ATOM      8  C   UNL A   1      41.221  27.143  27.306  1.00  0.00     0.014 A 
ATOM      9  C   UNL A   1      39.684  25.720  28.509  1.00  0.00     0.014 A 
ATOM     10  C   UNL A   1      41.173  28.075  28.348  1.00  0.00     0.010 A 
ATOM     11  C   UNL A   1      39.578  26.685  29.512  1.00  0.00     0.010 A 
ATOM     12  C   UNL A   1      40.343  27.861  29.460  1.00  0.00    -0.014 A 
BRANCH  12  13
ATOM     13  C   UNL A   1      40.320  28.810  30.607  1.00  0.00     0.031 A 
ATOM     14  C   UNL A   1      39.311  29.930  30.629  1.00  0.00     0.074 A 
ATOM     15  C   UNL A   1      41.207  28.690  31.615  1.00  0.00     0.049 A 
ATOM     16  N   UNL A   1      39.164  30.892  31.506  1.00  0.00    -0.248 NA
ATOM     17  C   UNL A   1      38.352  29.990  29.513  1.00  0.00     0.031 C 
ATOM     18  C   UNL A   1      42.230  27.648  31.717  1.00  0.00     0.029 A 
ATOM     19  N   UNL A   1      41.387  29.443  32.750  1.00  0.00    -0.354 N 
ATOM     20  C   UNL A   1      38.107  31.668  31.043  1.00  0.00     0.074 A 
ATOM     21  C   UNL A   1      37.690  31.107  29.779  1.00  0.00     0.031 C 
ATOM     22  C   UNL A   1      42.903  27.806  32.868  1.00  0.00     0.029 A 
ATOM     23  C   UNL A   1      42.397  28.987  33.565  1.00  0.00     0.049 A 
ATOM     24  H   UNL A   1      40.841  30.236  32.962  1.00  0.00     0.167 HD
ATOM     25  C   UNL A   1      37.515  32.734  31.633  1.00  0.00     0.031 A 
ATOM     26  C   UNL A   1      42.868  29.460  34.739  1.00  0.00     0.031 A 
ATOM     27  C   UNL A   1      37.915  33.272  32.906  1.00  0.00     0.049 A 
ATOM     28  C   UNL A   1      42.226  30.675  35.355  1.00  0.00     0.074 A 
ATOM     29  C   UNL A   1      37.351  34.327  33.601  1.00  0.00     0.029 A 
ATOM     30  N   UNL A   1      38.963  32.798  33.680  1.00  0.00    -0.354 N 
ATOM     31  N   UNL A   1      41.206  31.376  34.918  1.00  0.00    -0.248 NA
ATOM     32  C   UNL A   1      42.787  31.160  36.625  1.00  0.00     0.031 C 
ATOM     33  C   UNL A   1      38.101  34.538  34.758  1.00  0.00     0.029 A 
ATOM     34  C   UNL A   1      39.081  33.560  34.830  1.00  0.00     0.049 A 
ATOM     35  H   UNL A   1      39.538  32.034  33.447  1.00  0.00     0.167 HD
ATOM     36  C   UNL A   1      40.989  32.366  35.870  1.00  0.00     0.074 A 
ATOM     37  C   UNL A   1      41.971  32.167  36.915  1.00  0.00     0.031 C 
ATOM     38  C   UNL A   1      40.058  33.353  35.872  1.00  0.00     0.031 A 
BRANCH  25  39
ATOM     39  C   UNL A   1      36.349  33.383  30.931  1.00  0.00    -0.014 A 
ATOM     40  C   UNL A   1      36.524  33.942  29.651  1.00  0.00     0.010 A 
ATOM     41  C   UNL A   1      35.114  33.549  31.583  1.00  0.00     0.010 A 
ATOM     42  C   UNL A   1      35.501  34.683  29.052  1.00  0.00     0.020 A 
ATOM     43  C   UNL A   1      34.076  34.259  30.974  1.00  0.00     0.020 A 
ATOM     44  C   UNL A   1      34.285  34.843  29.724  1.00  0.00     0.054 A 
BRANCH  44  45
ATOM     45  S   UNL A   1      32.981  35.836  28.945  1.00  0.00     0.124 S 
ATOM     46  O   UNL A   1      32.340  34.866  28.063  1.00  0.00    -0.237 OA
ATOM     47  O   UNL A   1      32.185  36.272  30.090  1.00  0.00    -0.237 OA
ATOM     48  O   UNL A   1      33.720  36.903  28.270  1.00  0.00    -0.744 OA
ENDBRANCH  44  45
ENDBRANCH  25  39
BRANCH  26  49
ATOM     49  C   UNL A   1      43.980  28.738  35.423  1.00  0.00    -0.014 A 
ATOM     50  C   UNL A   1      45.322  29.028  35.116  1.00  0.00     0.010 A 
ATOM     51  C   UNL A   1      43.700  27.696  36.326  1.00  0.00     0.010 A 
ATOM     52  C   UNL A   1      46.357  28.251  35.643  1.00  0.00     0.020 A 
ATOM     53  C   UNL A   1      44.736  26.936  36.882  1.00  0.00     0.020 A 
ATOM     54  C   UNL A   1      46.055  27.199  36.511  1.00  0.00     0.054 A 
BRANCH  54  55
ATOM     55  S   UNL A   1      47.411  26.159  37.123  1.00  0.00     0.124 S 
ATOM     56  O   UNL A   1      48.298  26.113  35.964  1.00  0.00    -0.237 OA
ATOM     57  O   UNL A   1      47.906  26.922  38.264  1.00  0.00    -0.237 OA
ATOM     58  O   UNL A   1      46.752  24.898  37.456  1.00  0.00    -0.744 OA
ENDBRANCH  54  55
ENDBRANCH  26  49
BRANCH  38  59
ATOM     59  C   UNL A   1      40.026  34.313  37.035  1.00  0.00    -0.014 A 
ATOM     60  C   UNL A   1      39.174  34.058  38.126  1.00  0.00     0.010 A 
ATOM     61  C   UNL A   1      40.706  35.542  36.974  1.00  0.00     0.010 A 
ATOM     62  C   UNL A   1      38.962  35.030  39.107  1.00  0.00     0.020 A 
ATOM     63  C   UNL A   1      40.523  36.506  37.971  1.00  0.00     0.020 A 
ATOM     64  C   UNL A   1      39.627  36.254  39.014  1.00  0.00     0.054 A 
BRANCH  64  65
ATOM     65  S   UNL A   1      39.290  37.528  40.261  1.00  0.00     0.124 S 
ATOM     66  O   UNL A   1      38.266  38.336  39.606  1.00  0.00    -0.237 OA
ATOM     67  O   UNL A   1      38.837  36.743  41.406  1.00  0.00    -0.237 OA
ATOM     68  O   UNL A   1      40.584  38.185  40.439  1.00  0.00    -0.744 OA
ENDBRANCH  64  65
ENDBRANCH  38  59
ENDBRANCH  12  13
ENDBRANCH   5   7
ENDBRANCH   2   3
ENDBRANCH   1   2
BRANCH   1  69
ATOM     69  C   UNL A   1      37.073  22.803  24.657  1.00  0.00     0.002 C 
BRANCH  69  70
ATOM     70  C   UNL A   1      36.186  23.074  23.432  1.00  0.00     0.002 C 
BRANCH  70  71
ATOM     71  C   UNL A   1      34.742  22.562  23.525  1.00  0.00     0.021 C 
BRANCH  71  72
ATOM     72  C   UNL A   1      33.740  23.289  22.616  1.00  0.00     0.116 C 
BRANCH  72  73
ATOM     73  N   UNL A   1      33.919  24.742  22.676  1.00  0.00    -0.351 N 
ATOM     74  C   UNL A   1      33.157  25.806  22.271  1.00  0.00     0.278 C 
ATOM     75  H   UNL A   1      34.768  25.011  23.096  1.00  0.00     0.163 HD
ATOM     76  O   UNL A   1      33.786  26.855  22.065  1.00  0.00    -0.268 OA
BRANCH  74  77
ATOM     77  C   UNL A   1      31.597  25.849  22.236  1.00  0.00     0.277 C 
ATOM     78  C   UNL A   1      30.872  24.887  23.258  1.00  0.00     0.109 C 
ATOM     79  N   UNL A   1      31.015  27.193  22.143  1.00  0.00    -0.327 N 
ATOM     80  C   UNL A   1      30.643  25.509  24.645  1.00  0.00    -0.024 C 
ATOM     81  C   UNL A   1      30.252  27.540  23.345  1.00  0.00     0.243 C 
ATOM     82  H   UNL A   1      30.393  27.226  21.336  1.00  0.00     0.347 HD
ATOM     83  H   UNL A   1      31.778  27.862  22.048  1.00  0.00     0.347 HD
ATOM     84  C   UNL A   1      31.232  24.999  25.722  1.00  0.00     0.002 A 
ATOM     85  C   UNL A   1      30.806  27.009  24.709  1.00  0.00     0.196 C 
ATOM     86  C   UNL A   1      31.317  23.653  26.185  1.00  0.00     0.010 A 
ATOM     87  C   UNL A   1      32.427  25.890  25.633  1.00  0.00     0.066 A 
ATOM     88  N   UNL A   1      32.264  27.068  25.068  1.00  0.00    -0.270 NA
ATOM     89  C   UNL A   1      32.500  23.157  26.562  1.00  0.00     0.001 A 
ATOM     90  C   UNL A   1      33.713  25.234  26.014  1.00  0.00     0.028 A 
ATOM     91  C   UNL A   1      33.711  23.943  26.410  1.00  0.00     0.002 A 
BRANCH  81  92
ATOM     92  C   UNL A   1      29.498  28.855  23.194  1.00  0.00     0.012 A 
ATOM     93  C   UNL A   1      28.136  28.755  22.815  1.00  0.00     0.010 A 
ATOM     94  C   UNL A   1      29.971  30.095  23.624  1.00  0.00     0.010 A 
ATOM     95  C   UNL A   1      27.260  29.830  22.926  1.00  0.00     0.001 A 
ATOM     96  C   UNL A   1      29.087  31.180  23.731  1.00  0.00     0.001 A 
ATOM     97  C   UNL A   1      27.735  31.042  23.402  1.00  0.00     0.000 A 
ENDBRANCH  81  92
ENDBRANCH  74  77
ENDBRANCH  72  73
ENDBRANCH  71  72
ENDBRANCH  70  71
ENDBRANCH  69  70
ENDBRANCH   1  69
TORSDOF 17
ENDMDL
