MODEL 1
REMARK VINA RESULT:     -11.2      0.000      0.000
REMARK SMILES COc1ccc2c(c1)C(=O)N(c1ccccc1C(=O)NCCCCCCNC(=O)c1ccc(-c3c4nc(c(-c5ccc(S(=O)(=O)[O-])cc5)c5ccc([nH]5)c(-c5ccc(S(=O)(=O)[O-])cc5)c5nc(c(-c6ccc(S(=O)(=O)[O-])cc6)c6ccc3[nH]6)C=C5)C=C4)cc1)C2=O
REMARK SMILES IDX 24 1 23 2 22 3 21 4 20 5 18 6 19 7 17 9 12 10 13 11 14 12
REMARK SMILES IDX 16 13 15 14 11 15 3 16 4 17 8 18 5 19 7 20 6 21 9 22 90 23
REMARK SMILES IDX 10 24 91 25 2 26 1 27 25 28 26 29 27 30 28 31 29 33 30 34
REMARK SMILES IDX 31 35 89 36 32 37 88 38 33 39 34 40 35 41 82 42 36 43 87 44
REMARK SMILES IDX 81 45 83 46 37 47 86 48 80 49 79 50 38 52 68 53 49 54 67 55
REMARK SMILES IDX 50 56 53 57 66 58 84 59 51 60 52 61 65 63 85 64 54 65 39 66
REMARK SMILES IDX 40 67 48 68 41 69 47 70 42 71 43 72 44 73 45 74 46 75 69 76
REMARK SMILES IDX 70 77 78 78 71 79 77 80 72 81 73 82 74 83 75 84 76 85 55 86
REMARK SMILES IDX 56 87 64 88 57 89 63 90 58 91 59 92 60 93 61 94 62 95
REMARK H PARENT 20 8 27 32 83 51 53 62
REMARK Flexibility Score: inf
ROOT
ATOM      1  C   UNL A   1      33.735  26.711  25.200  1.00  0.00     0.002 C 
ENDROOT
BRANCH   1   2
ATOM      2  C   UNL A   1      34.168  25.303  25.630  1.00  0.00     0.002 C 
BRANCH   2   3
ATOM      3  C   UNL A   1      35.172  24.531  24.766  1.00  0.00     0.021 C 
BRANCH   3   4
ATOM      4  C   UNL A   1      35.464  23.071  25.097  1.00  0.00     0.116 C 
BRANCH   4   5
ATOM      5  N   UNL A   1      34.677  22.446  26.124  1.00  0.00    -0.352 N 
ATOM      6  C   UNL A   1      33.850  21.343  26.081  1.00  0.00     0.253 C 
ATOM      7  O   UNL A   1      33.425  20.947  27.172  1.00  0.00    -0.269 OA
ATOM      8  H   UNL A   1      34.738  22.877  27.007  1.00  0.00     0.163 HD
BRANCH   6   9
ATOM      9  C   UNL A   1      33.306  20.689  24.838  1.00  0.00     0.064 A 
ATOM     10  C   UNL A   1      32.550  21.225  23.774  1.00  0.00     0.065 A 
ATOM     11  C   UNL A   1      32.080  20.358  22.756  1.00  0.00     0.028 A 
ATOM     12  C   UNL A   1      32.377  18.997  22.745  1.00  0.00     0.002 A 
ATOM     13  C   UNL A   1      33.588  19.298  24.798  1.00  0.00     0.016 A 
ATOM     14  C   UNL A   1      33.138  18.465  23.769  1.00  0.00     0.001 A 
BRANCH  10  15
ATOM     15  N   UNL A   1      32.203  22.582  23.601  1.00  0.00    -0.241 N 
ATOM     16  C   UNL A   1      30.376  26.752  23.088  1.00  0.00     0.119 A 
ATOM     17  C   UNL A   1      31.282  26.759  22.002  1.00  0.00     0.047 A 
ATOM     18  C   UNL A   1      30.356  25.680  23.990  1.00  0.00     0.061 A 
ATOM     19  C   UNL A   1      32.161  25.700  21.782  1.00  0.00     0.018 A 
ATOM     20  C   UNL A   1      31.218  24.627  23.738  1.00  0.00     0.057 A 
ATOM     21  C   UNL A   1      32.103  24.651  22.674  1.00  0.00     0.053 A 
ATOM     22  C   UNL A   1      31.283  23.285  24.340  1.00  0.00     0.266 C 
ATOM     23  C   UNL A   1      32.777  23.362  22.622  1.00  0.00     0.266 C 
ATOM     24  O   UNL A   1      30.604  22.938  25.287  1.00  0.00    -0.268 OA
ATOM     25  O   UNL A   1      33.601  23.082  21.770  1.00  0.00    -0.268 OA
BRANCH  16  26
ATOM     26  O   UNL A   1      29.524  27.820  23.091  1.00  0.00    -0.497 OA
ATOM     27  C   UNL A   1      29.997  29.041  23.646  1.00  0.00     0.278 C 
ENDBRANCH  16  26
ENDBRANCH  10  15
ENDBRANCH   6   9
ENDBRANCH   4   5
ENDBRANCH   3   4
ENDBRANCH   2   3
ENDBRANCH   1   2
BRANCH   1  28
ATOM     28  C   UNL A   1      34.179  27.896  26.058  1.00  0.00     0.021 C 
BRANCH  28  29
ATOM     29  C   UNL A   1      33.350  28.244  27.293  1.00  0.00     0.116 C 
BRANCH  29  30
ATOM     30  N   UNL A   1      33.328  29.665  27.575  1.00  0.00    -0.352 N 
ATOM     31  C   UNL A   1      34.295  30.520  28.049  1.00  0.00     0.251 C 
ATOM     32  H   UNL A   1      32.462  30.097  27.395  1.00  0.00     0.163 HD
ATOM     33  O   UNL A   1      33.947  31.665  28.340  1.00  0.00    -0.269 OA
BRANCH  31  34
ATOM     34  C   UNL A   1      35.724  30.133  28.241  1.00  0.00     0.039 A 
ATOM     35  C   UNL A   1      36.111  29.706  29.520  1.00  0.00     0.014 A 
ATOM     36  C   UNL A   1      36.712  30.273  27.262  1.00  0.00     0.014 A 
ATOM     37  C   UNL A   1      37.449  29.396  29.802  1.00  0.00     0.010 A 
ATOM     38  C   UNL A   1      38.042  29.902  27.527  1.00  0.00     0.010 A 
ATOM     39  C   UNL A   1      38.432  29.469  28.804  1.00  0.00    -0.014 A 
BRANCH  39  40
ATOM     40  C   UNL A   1      39.846  29.090  29.109  1.00  0.00     0.031 A 
ATOM     41  C   UNL A   1      40.786  30.050  29.800  1.00  0.00     0.074 A 
ATOM     42  C   UNL A   1      40.299  27.864  28.772  1.00  0.00     0.049 A 
ATOM     43  N   UNL A   1      42.028  29.861  30.178  1.00  0.00    -0.248 NA
ATOM     44  C   UNL A   1      40.274  31.397  30.093  1.00  0.00     0.031 C 
ATOM     45  C   UNL A   1      39.522  26.839  28.076  1.00  0.00     0.029 A 
ATOM     46  N   UNL A   1      41.522  27.268  28.981  1.00  0.00    -0.354 N 
ATOM     47  C   UNL A   1      42.446  31.061  30.745  1.00  0.00     0.074 A 
ATOM     48  C   UNL A   1      41.339  31.986  30.620  1.00  0.00     0.031 C 
ATOM     49  C   UNL A   1      40.268  25.730  27.949  1.00  0.00     0.029 A 
ATOM     50  C   UNL A   1      41.593  25.974  28.516  1.00  0.00     0.049 A 
ATOM     51  H   UNL A   1      42.275  27.724  29.420  1.00  0.00     0.167 HD
ATOM     52  C   UNL A   1      43.632  31.366  31.329  1.00  0.00     0.031 A 
ATOM     53  C   UNL A   1      42.601  25.080  28.539  1.00  0.00     0.031 A 
ATOM     54  C   UNL A   1      44.740  30.454  31.463  1.00  0.00     0.049 A 
ATOM     55  C   UNL A   1      43.914  25.448  29.178  1.00  0.00     0.074 A 
ATOM     56  C   UNL A   1      45.958  30.667  32.090  1.00  0.00     0.029 A 
ATOM     57  N   UNL A   1      44.775  29.162  30.962  1.00  0.00    -0.354 N 
ATOM     58  N   UNL A   1      44.260  26.567  29.764  1.00  0.00    -0.248 NA
ATOM     59  C   UNL A   1      44.968  24.422  29.165  1.00  0.00     0.031 C 
ATOM     60  C   UNL A   1      46.750  29.526  31.918  1.00  0.00     0.029 A 
ATOM     61  C   UNL A   1      46.002  28.578  31.237  1.00  0.00     0.049 A 
ATOM     62  H   UNL A   1      44.037  28.723  30.481  1.00  0.00     0.167 HD
ATOM     63  C   UNL A   1      45.565  26.373  30.210  1.00  0.00     0.074 A 
ATOM     64  C   UNL A   1      45.936  25.022  29.844  1.00  0.00     0.031 C 
ATOM     65  C   UNL A   1      46.379  27.239  30.863  1.00  0.00     0.031 A 
BRANCH  52  66
ATOM     66  C   UNL A   1      43.806  32.763  31.870  1.00  0.00    -0.014 A 
ATOM     67  C   UNL A   1      44.219  33.820  31.038  1.00  0.00     0.010 A 
ATOM     68  C   UNL A   1      43.492  33.037  33.216  1.00  0.00     0.010 A 
ATOM     69  C   UNL A   1      44.353  35.114  31.550  1.00  0.00     0.020 A 
ATOM     70  C   UNL A   1      43.600  34.335  33.724  1.00  0.00     0.020 A 
ATOM     71  C   UNL A   1      44.045  35.363  32.890  1.00  0.00     0.054 A 
BRANCH  71  72
ATOM     72  S   UNL A   1      44.210  37.056  33.522  1.00  0.00     0.124 S 
ATOM     73  O   UNL A   1      45.115  36.867  34.654  1.00  0.00    -0.237 OA
ATOM     74  O   UNL A   1      44.776  37.770  32.381  1.00  0.00    -0.237 OA
ATOM     75  O   UNL A   1      42.843  37.431  33.874  1.00  0.00    -0.744 OA
ENDBRANCH  71  72
ENDBRANCH  52  66
BRANCH  53  76
ATOM     76  C   UNL A   1      42.409  23.732  27.936  1.00  0.00    -0.014 A 
ATOM     77  C   UNL A   1      41.992  22.645  28.725  1.00  0.00     0.010 A 
ATOM     78  C   UNL A   1      42.640  23.531  26.563  1.00  0.00     0.010 A 
ATOM     79  C   UNL A   1      41.828  21.378  28.156  1.00  0.00     0.020 A 
ATOM     80  C   UNL A   1      42.449  22.273  25.985  1.00  0.00     0.020 A 
ATOM     81  C   UNL A   1      42.054  21.202  26.788  1.00  0.00     0.054 A 
BRANCH  81  82
ATOM     82  S   UNL A   1      41.781  19.564  26.058  1.00  0.00     0.124 S 
ATOM     83  O   UNL A   1      40.361  19.612  25.726  1.00  0.00    -0.237 OA
ATOM     84  O   UNL A   1      42.699  19.567  24.923  1.00  0.00    -0.237 OA
ATOM     85  O   UNL A   1      42.142  18.647  27.138  1.00  0.00    -0.744 OA
ENDBRANCH  81  82
ENDBRANCH  53  76
BRANCH  65  86
ATOM     86  C   UNL A   1      47.750  26.746  31.248  1.00  0.00    -0.014 A 
ATOM     87  C   UNL A   1      47.984  26.130  32.491  1.00  0.00     0.010 A 
ATOM     88  C   UNL A   1      48.818  26.874  30.340  1.00  0.00     0.010 A 
ATOM     89  C   UNL A   1      49.266  25.691  32.835  1.00  0.00     0.020 A 
ATOM     90  C   UNL A   1      50.095  26.411  30.669  1.00  0.00     0.020 A 
ATOM     91  C   UNL A   1      50.315  25.839  31.923  1.00  0.00     0.054 A 
BRANCH  91  92
ATOM     92  S   UNL A   1      51.966  25.243  32.384  1.00  0.00     0.124 S 
ATOM     93  O   UNL A   1      52.111  25.767  33.740  1.00  0.00    -0.237 OA
ATOM     94  O   UNL A   1      51.823  23.792  32.284  1.00  0.00    -0.237 OA
ATOM     95  O   UNL A   1      52.844  25.847  31.386  1.00  0.00    -0.744 OA
ENDBRANCH  91  92
ENDBRANCH  65  86
ENDBRANCH  39  40
ENDBRANCH  31  34
ENDBRANCH  29  30
ENDBRANCH  28  29
ENDBRANCH   1  28
TORSDOF 18
ENDMDL
MODEL 2
REMARK VINA RESULT:     -11.1      4.173      9.604
REMARK SMILES COc1ccc2c(c1)C(=O)N(c1ccccc1C(=O)NCCCCCCNC(=O)c1ccc(-c3c4nc(c(-c5ccc(S(=O)(=O)[O-])cc5)c5ccc([nH]5)c(-c5ccc(S(=O)(=O)[O-])cc5)c5nc(c(-c6ccc(S(=O)(=O)[O-])cc6)c6ccc3[nH]6)C=C5)C=C4)cc1)C2=O
REMARK SMILES IDX 24 1 23 2 22 3 21 4 20 5 18 6 19 7 17 9 12 10 13 11 14 12
REMARK SMILES IDX 16 13 15 14 11 15 3 16 4 17 8 18 5 19 7 20 6 21 9 22 90 23
REMARK SMILES IDX 10 24 91 25 2 26 1 27 25 28 26 29 27 30 28 31 29 33 30 34
REMARK SMILES IDX 31 35 89 36 32 37 88 38 33 39 34 40 35 41 82 42 36 43 87 44
REMARK SMILES IDX 81 45 83 46 37 47 86 48 80 49 79 50 38 52 68 53 49 54 67 55
REMARK SMILES IDX 50 56 53 57 66 58 84 59 51 60 52 61 65 63 85 64 54 65 39 66
REMARK SMILES IDX 40 67 48 68 41 69 47 70 42 71 43 72 44 73 45 74 46 75 69 76
REMARK SMILES IDX 70 77 78 78 71 79 77 80 72 81 73 82 74 83 75 84 76 85 55 86
REMARK SMILES IDX 56 87 64 88 57 89 63 90 58 91 59 92 60 93 61 94 62 95
REMARK H PARENT 20 8 27 32 83 51 53 62
REMARK Flexibility Score: inf
ROOT
ATOM      1  C   UNL A   1      40.393  21.704  26.494  1.00  0.00     0.002 C 
ENDROOT
BRANCH   1   2
ATOM      2  C   UNL A   1      38.990  22.311  26.369  1.00  0.00     0.002 C 
BRANCH   2   3
ATOM      3  C   UNL A   1      37.915  21.558  25.578  1.00  0.00     0.021 C 
BRANCH   3   4
ATOM      4  C   UNL A   1      36.621  22.279  25.216  1.00  0.00     0.116 C 
BRANCH   4   5
ATOM      5  N   UNL A   1      35.579  22.321  26.204  1.00  0.00    -0.352 N 
ATOM      6  C   UNL A   1      34.387  21.631  26.290  1.00  0.00     0.253 C 
ATOM      7  O   UNL A   1      33.763  21.764  27.347  1.00  0.00    -0.269 OA
ATOM      8  H   UNL A   1      35.742  22.947  26.946  1.00  0.00     0.163 HD
BRANCH   6   9
ATOM      9  C   UNL A   1      33.720  20.872  25.173  1.00  0.00     0.064 A 
ATOM     10  C   UNL A   1      32.829  21.308  24.170  1.00  0.00     0.065 A 
ATOM     11  C   UNL A   1      32.267  20.355  23.283  1.00  0.00     0.028 A 
ATOM     12  C   UNL A   1      32.599  19.004  23.339  1.00  0.00     0.002 A 
ATOM     13  C   UNL A   1      34.035  19.487  25.204  1.00  0.00     0.016 A 
ATOM     14  C   UNL A   1      33.491  18.568  24.301  1.00  0.00     0.001 A 
BRANCH  10  15
ATOM     15  N   UNL A   1      32.425  22.640  23.937  1.00  0.00    -0.241 N 
ATOM     16  C   UNL A   1      30.426  26.691  23.174  1.00  0.00     0.119 A 
ATOM     17  C   UNL A   1      31.426  26.733  22.176  1.00  0.00     0.047 A 
ATOM     18  C   UNL A   1      30.381  25.633  24.092  1.00  0.00     0.061 A 
ATOM     19  C   UNL A   1      32.379  25.723  22.060  1.00  0.00     0.018 A 
ATOM     20  C   UNL A   1      31.320  24.627  23.942  1.00  0.00     0.057 A 
ATOM     21  C   UNL A   1      32.297  24.686  22.964  1.00  0.00     0.053 A 
ATOM     22  C   UNL A   1      31.403  23.301  24.574  1.00  0.00     0.266 C 
ATOM     23  C   UNL A   1      33.044  23.437  23.000  1.00  0.00     0.266 C 
ATOM     24  O   UNL A   1      30.658  22.930  25.462  1.00  0.00    -0.268 OA
ATOM     25  O   UNL A   1      33.957  23.192  22.233  1.00  0.00    -0.268 OA
BRANCH  16  26
ATOM     26  O   UNL A   1      29.519  27.709  23.078  1.00  0.00    -0.497 OA
ATOM     27  C   UNL A   1      30.022  29.027  22.902  1.00  0.00     0.278 C 
ENDBRANCH  16  26
ENDBRANCH  10  15
ENDBRANCH   6   9
ENDBRANCH   4   5
ENDBRANCH   3   4
ENDBRANCH   2   3
ENDBRANCH   1   2
BRANCH   1  28
ATOM     28  C   UNL A   1      41.258  22.123  27.684  1.00  0.00     0.021 C 
BRANCH  28  29
ATOM     29  C   UNL A   1      42.464  23.022  27.420  1.00  0.00     0.116 C 
BRANCH  29  30
ATOM     30  N   UNL A   1      42.281  23.887  26.271  1.00  0.00    -0.352 N 
ATOM     31  C   UNL A   1      41.799  25.169  26.156  1.00  0.00     0.251 C 
ATOM     32  H   UNL A   1      42.552  23.480  25.416  1.00  0.00     0.163 HD
ATOM     33  O   UNL A   1      41.613  25.606  25.020  1.00  0.00    -0.269 OA
BRANCH  31  34
ATOM     34  C   UNL A   1      41.479  26.043  27.324  1.00  0.00     0.039 A 
ATOM     35  C   UNL A   1      42.348  27.112  27.586  1.00  0.00     0.014 A 
ATOM     36  C   UNL A   1      40.438  25.798  28.224  1.00  0.00     0.014 A 
ATOM     37  C   UNL A   1      42.160  27.935  28.706  1.00  0.00     0.010 A 
ATOM     38  C   UNL A   1      40.212  26.660  29.311  1.00  0.00     0.010 A 
ATOM     39  C   UNL A   1      41.076  27.735  29.575  1.00  0.00    -0.014 A 
BRANCH  39  40
ATOM     40  C   UNL A   1      40.862  28.650  30.738  1.00  0.00     0.031 A 
ATOM     41  C   UNL A   1      41.719  28.558  31.979  1.00  0.00     0.074 A 
ATOM     42  C   UNL A   1      39.892  29.587  30.685  1.00  0.00     0.049 A 
ATOM     43  N   UNL A   1      41.694  29.305  33.056  1.00  0.00    -0.248 NA
ATOM     44  C   UNL A   1      42.722  27.484  32.023  1.00  0.00     0.031 C 
ATOM     45  C   UNL A   1      38.965  29.780  29.569  1.00  0.00     0.029 A 
ATOM     46  N   UNL A   1      39.531  30.560  31.588  1.00  0.00    -0.354 N 
ATOM     47  C   UNL A   1      42.668  28.791  33.906  1.00  0.00     0.074 A 
ATOM     48  C   UNL A   1      43.235  27.639  33.237  1.00  0.00     0.031 C 
ATOM     49  C   UNL A   1      38.170  30.828  29.833  1.00  0.00     0.029 A 
ATOM     50  C   UNL A   1      38.498  31.361  31.154  1.00  0.00     0.049 A 
ATOM     51  H   UNL A   1      39.969  30.674  32.461  1.00  0.00     0.167 HD
ATOM     52  C   UNL A   1      43.069  29.239  35.122  1.00  0.00     0.031 A 
ATOM     53  C   UNL A   1      37.880  32.403  31.744  1.00  0.00     0.031 A 
ATOM     54  C   UNL A   1      42.516  30.386  35.798  1.00  0.00     0.049 A 
ATOM     55  C   UNL A   1      38.330  32.871  33.101  1.00  0.00     0.074 A 
ATOM     56  C   UNL A   1      42.902  30.939  37.009  1.00  0.00     0.029 A 
ATOM     57  N   UNL A   1      41.460  31.154  35.332  1.00  0.00    -0.354 N 
ATOM     58  N   UNL A   1      39.297  32.407  33.854  1.00  0.00    -0.248 NA
ATOM     59  C   UNL A   1      37.609  34.013  33.683  1.00  0.00     0.031 C 
ATOM     60  C   UNL A   1      42.043  32.004  37.302  1.00  0.00     0.029 A 
ATOM     61  C   UNL A   1      41.161  32.155  36.244  1.00  0.00     0.049 A 
ATOM     62  H   UNL A   1      40.991  31.010  34.479  1.00  0.00     0.167 HD
ATOM     63  C   UNL A   1      39.314  33.215  34.988  1.00  0.00     0.074 A 
ATOM     64  C   UNL A   1      38.276  34.208  34.812  1.00  0.00     0.031 C 
ATOM     65  C   UNL A   1      40.120  33.137  36.076  1.00  0.00     0.031 A 
BRANCH  52  66
ATOM     66  C   UNL A   1      44.166  28.476  35.822  1.00  0.00    -0.014 A 
ATOM     67  C   UNL A   1      45.519  28.820  35.644  1.00  0.00     0.010 A 
ATOM     68  C   UNL A   1      43.838  27.441  36.718  1.00  0.00     0.010 A 
ATOM     69  C   UNL A   1      46.523  28.118  36.317  1.00  0.00     0.020 A 
ATOM     70  C   UNL A   1      44.839  26.755  37.414  1.00  0.00     0.020 A 
ATOM     71  C   UNL A   1      46.177  27.088  37.196  1.00  0.00     0.054 A 
BRANCH  71  72
ATOM     72  S   UNL A   1      47.500  26.207  38.071  1.00  0.00     0.124 S 
ATOM     73  O   UNL A   1      48.353  27.309  38.512  1.00  0.00    -0.237 OA
ATOM     74  O   UNL A   1      46.775  25.513  39.132  1.00  0.00    -0.237 OA
ATOM     75  O   UNL A   1      48.079  25.342  37.047  1.00  0.00    -0.744 OA
ENDBRANCH  71  72
ENDBRANCH  52  66
BRANCH  53  76
ATOM     76  C   UNL A   1      36.757  33.089  31.045  1.00  0.00    -0.014 A 
ATOM     77  C   UNL A   1      35.426  32.876  31.444  1.00  0.00     0.010 A 
ATOM     78  C   UNL A   1      37.018  33.964  29.975  1.00  0.00     0.010 A 
ATOM     79  C   UNL A   1      34.375  33.511  30.775  1.00  0.00     0.020 A 
ATOM     80  C   UNL A   1      35.973  34.624  29.322  1.00  0.00     0.020 A 
ATOM     81  C   UNL A   1      34.657  34.384  29.720  1.00  0.00     0.054 A 
BRANCH  81  82
ATOM     82  S   UNL A   1      33.283  35.241  28.901  1.00  0.00     0.124 S 
ATOM     83  O   UNL A   1      32.664  34.164  28.137  1.00  0.00    -0.237 OA
ATOM     84  O   UNL A   1      32.507  35.744  30.032  1.00  0.00    -0.237 OA
ATOM     85  O   UNL A   1      33.951  36.271  28.108  1.00  0.00    -0.744 OA
ENDBRANCH  81  82
ENDBRANCH  53  76
BRANCH  65  86
ATOM     86  C   UNL A   1      39.929  34.170  37.157  1.00  0.00    -0.014 A 
ATOM     87  C   UNL A   1      40.659  35.371  37.158  1.00  0.00     0.010 A 
ATOM     88  C   UNL A   1      38.981  33.948  38.174  1.00  0.00     0.010 A 
ATOM     89  C   UNL A   1      40.477  36.311  38.177  1.00  0.00     0.020 A 
ATOM     90  C   UNL A   1      38.774  34.897  39.178  1.00  0.00     0.020 A 
ATOM     91  C   UNL A   1      39.538  36.067  39.184  1.00  0.00     0.054 A 
BRANCH  91  92
ATOM     92  S   UNL A   1      39.305  37.311  40.484  1.00  0.00     0.124 S 
ATOM     93  O   UNL A   1      40.607  37.971  40.511  1.00  0.00    -0.237 OA
ATOM     94  O   UNL A   1      38.203  38.116  39.963  1.00  0.00    -0.237 OA
ATOM     95  O   UNL A   1      38.984  36.519  41.668  1.00  0.00    -0.744 OA
ENDBRANCH  91  92
ENDBRANCH  65  86
ENDBRANCH  39  40
ENDBRANCH  31  34
ENDBRANCH  29  30
ENDBRANCH  28  29
ENDBRANCH   1  28
TORSDOF 18
ENDMDL
MODEL 3
REMARK VINA RESULT:     -11.0      2.450      3.159
REMARK SMILES COc1ccc2c(c1)C(=O)N(c1ccccc1C(=O)NCCCCCCNC(=O)c1ccc(-c3c4nc(c(-c5ccc(S(=O)(=O)[O-])cc5)c5ccc([nH]5)c(-c5ccc(S(=O)(=O)[O-])cc5)c5nc(c(-c6ccc(S(=O)(=O)[O-])cc6)c6ccc3[nH]6)C=C5)C=C4)cc1)C2=O
REMARK SMILES IDX 24 1 23 2 22 3 21 4 20 5 18 6 19 7 17 9 12 10 13 11 14 12
REMARK SMILES IDX 16 13 15 14 11 15 3 16 4 17 8 18 5 19 7 20 6 21 9 22 90 23
REMARK SMILES IDX 10 24 91 25 2 26 1 27 25 28 26 29 27 30 28 31 29 33 30 34
REMARK SMILES IDX 31 35 89 36 32 37 88 38 33 39 34 40 35 41 82 42 36 43 87 44
REMARK SMILES IDX 81 45 83 46 37 47 86 48 80 49 79 50 38 52 68 53 49 54 67 55
REMARK SMILES IDX 50 56 53 57 66 58 84 59 51 60 52 61 65 63 85 64 54 65 39 66
REMARK SMILES IDX 40 67 48 68 41 69 47 70 42 71 43 72 44 73 45 74 46 75 69 76
REMARK SMILES IDX 70 77 78 78 71 79 77 80 72 81 73 82 74 83 75 84 76 85 55 86
REMARK SMILES IDX 56 87 64 88 57 89 63 90 58 91 59 92 60 93 61 94 62 95
REMARK H PARENT 20 8 27 32 83 51 53 62
REMARK Flexibility Score: inf
ROOT
ATOM      1  C   UNL A   1      31.996  27.671  26.347  1.00  0.00     0.002 C 
ENDROOT
BRANCH   1   2
ATOM      2  C   UNL A   1      32.395  26.211  26.591  1.00  0.00     0.002 C 
BRANCH   2   3
ATOM      3  C   UNL A   1      33.589  25.622  25.830  1.00  0.00     0.021 C 
BRANCH   3   4
ATOM      4  C   UNL A   1      34.180  24.295  26.294  1.00  0.00     0.116 C 
BRANCH   4   5
ATOM      5  N   UNL A   1      35.321  23.786  25.585  1.00  0.00    -0.352 N 
ATOM      6  C   UNL A   1      35.433  22.749  24.682  1.00  0.00     0.253 C 
ATOM      7  O   UNL A   1      36.525  22.646  24.113  1.00  0.00    -0.269 OA
ATOM      8  H   UNL A   1      36.165  24.256  25.774  1.00  0.00     0.163 HD
BRANCH   6   9
ATOM      9  C   UNL A   1      34.416  21.662  24.448  1.00  0.00     0.064 A 
ATOM     10  C   UNL A   1      33.070  21.737  24.033  1.00  0.00     0.065 A 
ATOM     11  C   UNL A   1      32.297  20.551  23.981  1.00  0.00     0.028 A 
ATOM     12  C   UNL A   1      32.833  19.301  24.283  1.00  0.00     0.002 A 
ATOM     13  C   UNL A   1      34.931  20.373  24.752  1.00  0.00     0.016 A 
ATOM     14  C   UNL A   1      34.158  19.211  24.666  1.00  0.00     0.001 A 
BRANCH  10  15
ATOM     15  N   UNL A   1      32.384  22.907  23.642  1.00  0.00    -0.241 N 
ATOM     16  C   UNL A   1      30.827  27.019  22.358  1.00  0.00     0.119 A 
ATOM     17  C   UNL A   1      29.942  26.759  23.430  1.00  0.00     0.047 A 
ATOM     18  C   UNL A   1      31.742  26.044  21.939  1.00  0.00     0.061 A 
ATOM     19  C   UNL A   1      29.966  25.545  24.113  1.00  0.00     0.018 A 
ATOM     20  C   UNL A   1      31.767  24.856  22.648  1.00  0.00     0.057 A 
ATOM     21  C   UNL A   1      30.890  24.614  23.691  1.00  0.00     0.053 A 
ATOM     22  C   UNL A   1      32.736  23.749  22.615  1.00  0.00     0.266 C 
ATOM     23  C   UNL A   1      31.248  23.337  24.291  1.00  0.00     0.266 C 
ATOM     24  O   UNL A   1      33.654  23.680  21.820  1.00  0.00    -0.268 OA
ATOM     25  O   UNL A   1      30.662  22.871  25.251  1.00  0.00    -0.268 OA
BRANCH  16  26
ATOM     26  O   UNL A   1      30.732  28.293  21.873  1.00  0.00    -0.497 OA
ATOM     27  C   UNL A   1      30.190  29.289  22.730  1.00  0.00     0.278 C 
ENDBRANCH  16  26
ENDBRANCH  10  15
ENDBRANCH   6   9
ENDBRANCH   4   5
ENDBRANCH   3   4
ENDBRANCH   2   3
ENDBRANCH   1   2
BRANCH   1  28
ATOM     28  C   UNL A   1      32.825  28.491  25.357  1.00  0.00     0.021 C 
BRANCH  28  29
ATOM     29  C   UNL A   1      34.025  29.270  25.892  1.00  0.00     0.116 C 
BRANCH  29  30
ATOM     30  N   UNL A   1      33.648  30.513  26.536  1.00  0.00    -0.352 N 
ATOM     31  C   UNL A   1      34.223  31.224  27.562  1.00  0.00     0.251 C 
ATOM     32  H   UNL A   1      32.831  30.923  26.170  1.00  0.00     0.163 HD
ATOM     33  O   UNL A   1      33.593  32.183  28.010  1.00  0.00    -0.269 OA
BRANCH  31  34
ATOM     34  C   UNL A   1      35.548  30.890  28.164  1.00  0.00     0.039 A 
ATOM     35  C   UNL A   1      35.615  29.755  28.986  1.00  0.00     0.014 A 
ATOM     36  C   UNL A   1      36.686  31.692  28.048  1.00  0.00     0.014 A 
ATOM     37  C   UNL A   1      36.803  29.415  29.649  1.00  0.00     0.010 A 
ATOM     38  C   UNL A   1      37.895  31.316  28.661  1.00  0.00     0.010 A 
ATOM     39  C   UNL A   1      37.967  30.179  29.480  1.00  0.00    -0.014 A 
BRANCH  39  40
ATOM     40  C   UNL A   1      39.238  29.776  30.156  1.00  0.00     0.031 A 
ATOM     41  C   UNL A   1      39.711  30.462  31.417  1.00  0.00     0.074 A 
ATOM     42  C   UNL A   1      39.983  28.773  29.644  1.00  0.00     0.049 A 
ATOM     43  N   UNL A   1      40.765  30.204  32.152  1.00  0.00    -0.248 NA
ATOM     44  C   UNL A   1      38.906  31.591  31.908  1.00  0.00     0.031 C 
ATOM     45  C   UNL A   1      39.674  28.035  28.418  1.00  0.00     0.029 A 
ATOM     46  N   UNL A   1      41.146  28.195  30.095  1.00  0.00    -0.354 N 
ATOM     47  C   UNL A   1      40.755  31.136  33.185  1.00  0.00     0.074 A 
ATOM     48  C   UNL A   1      39.613  31.996  32.954  1.00  0.00     0.031 C 
ATOM     49  C   UNL A   1      40.599  27.079  28.236  1.00  0.00     0.029 A 
ATOM     50  C   UNL A   1      41.591  27.158  29.306  1.00  0.00     0.049 A 
ATOM     51  H   UNL A   1      41.617  28.494  30.905  1.00  0.00     0.167 HD
ATOM     52  C   UNL A   1      41.603  31.261  34.236  1.00  0.00     0.031 A 
ATOM     53  C   UNL A   1      42.671  26.359  29.421  1.00  0.00     0.031 A 
ATOM     54  C   UNL A   1      42.741  30.409  34.479  1.00  0.00     0.049 A 
ATOM     55  C   UNL A   1      43.607  26.529  30.586  1.00  0.00     0.074 A 
ATOM     56  C   UNL A   1      43.620  30.435  35.551  1.00  0.00     0.029 A 
ATOM     57  N   UNL A   1      43.164  29.387  33.645  1.00  0.00    -0.354 N 
ATOM     58  N   UNL A   1      43.538  27.376  31.583  1.00  0.00    -0.248 NA
ATOM     59  C   UNL A   1      44.764  25.622  30.645  1.00  0.00     0.031 C 
ATOM     60  C   UNL A   1      44.607  29.466  35.335  1.00  0.00     0.029 A 
ATOM     61  C   UNL A   1      44.308  28.795  34.161  1.00  0.00     0.049 A 
ATOM     62  H   UNL A   1      42.718  29.119  32.809  1.00  0.00     0.167 HD
ATOM     63  C   UNL A   1      44.629  27.090  32.400  1.00  0.00     0.074 A 
ATOM     64  C   UNL A   1      45.328  25.978  31.791  1.00  0.00     0.031 C 
ATOM     65  C   UNL A   1      45.013  27.697  33.550  1.00  0.00     0.031 A 
BRANCH  52  66
ATOM     66  C   UNL A   1      41.341  32.376  35.217  1.00  0.00    -0.014 A 
ATOM     67  C   UNL A   1      40.533  32.174  36.351  1.00  0.00     0.010 A 
ATOM     68  C   UNL A   1      41.962  33.627  35.037  1.00  0.00     0.010 A 
ATOM     69  C   UNL A   1      40.318  33.211  37.263  1.00  0.00     0.020 A 
ATOM     70  C   UNL A   1      41.772  34.659  35.962  1.00  0.00     0.020 A 
ATOM     71  C   UNL A   1      40.937  34.448  37.061  1.00  0.00     0.054 A 
BRANCH  71  72
ATOM     72  S   UNL A   1      40.656  35.771  38.271  1.00  0.00     0.124 S 
ATOM     73  O   UNL A   1      39.978  35.053  39.348  1.00  0.00    -0.237 OA
ATOM     74  O   UNL A   1      42.012  36.220  38.575  1.00  0.00    -0.237 OA
ATOM     75  O   UNL A   1      39.830  36.735  37.549  1.00  0.00    -0.744 OA
ENDBRANCH  71  72
ENDBRANCH  52  66
BRANCH  53  76
ATOM     76  C   UNL A   1      42.928  25.311  28.394  1.00  0.00    -0.014 A 
ATOM     77  C   UNL A   1      43.660  25.608  27.231  1.00  0.00     0.010 A 
ATOM     78  C   UNL A   1      42.440  24.004  28.580  1.00  0.00     0.010 A 
ATOM     79  C   UNL A   1      43.885  24.623  26.265  1.00  0.00     0.020 A 
ATOM     80  C   UNL A   1      42.688  23.009  27.630  1.00  0.00     0.020 A 
ATOM     81  C   UNL A   1      43.400  23.329  26.473  1.00  0.00     0.054 A 
BRANCH  81  82
ATOM     82  S   UNL A   1      43.751  22.051  25.233  1.00  0.00     0.124 S 
ATOM     83  O   UNL A   1      42.796  21.009  25.592  1.00  0.00    -0.237 OA
ATOM     84  O   UNL A   1      43.487  22.749  23.978  1.00  0.00    -0.237 OA
ATOM     85  O   UNL A   1      45.156  21.724  25.471  1.00  0.00    -0.744 OA
ENDBRANCH  81  82
ENDBRANCH  53  76
BRANCH  65  86
ATOM     86  C   UNL A   1      46.237  27.158  34.244  1.00  0.00    -0.014 A 
ATOM     87  C   UNL A   1      46.151  26.087  35.152  1.00  0.00     0.010 A 
ATOM     88  C   UNL A   1      47.500  27.711  33.961  1.00  0.00     0.010 A 
ATOM     89  C   UNL A   1      47.296  25.609  35.796  1.00  0.00     0.020 A 
ATOM     90  C   UNL A   1      48.652  27.218  34.581  1.00  0.00     0.020 A 
ATOM     91  C   UNL A   1      48.540  26.181  35.510  1.00  0.00     0.054 A 
BRANCH  91  92
ATOM     92  S   UNL A   1      50.015  25.530  36.342  1.00  0.00     0.124 S 
ATOM     93  O   UNL A   1      49.477  25.113  37.634  1.00  0.00    -0.237 OA
ATOM     94  O   UNL A   1      50.431  24.446  35.456  1.00  0.00    -0.237 OA
ATOM     95  O   UNL A   1      50.922  26.674  36.386  1.00  0.00    -0.744 OA
ENDBRANCH  91  92
ENDBRANCH  65  86
ENDBRANCH  39  40
ENDBRANCH  31  34
ENDBRANCH  29  30
ENDBRANCH  28  29
ENDBRANCH   1  28
TORSDOF 18
ENDMDL
