MODEL 1
REMARK VINA RESULT:     -12.0      0.000      0.000
REMARK SMILES C/C(=N/N=c1\[nH]c(O)c(C(=O)NCCCCCCNC(=O)c2ccc(-c3c4nc(c(-c5ccc(S(=O)(=O)[O-])cc5)c5ccc([nH]5)c(-c5ccc(S(=O)(=O)[O-])cc5)c5nc(c(-c6ccc(S(=O)(=O)[O-])cc6)c6ccc3[nH]6)C=C5)C=C4)cc2)s1)c1ccc2c(c1)OCO2
REMARK SMILES IDX 16 1 15 2 14 3 13 4 12 5 10 6 11 7 9 9 4 10 5 11 6 12 82 13
REMARK SMILES IDX 7 14 3 16 1 17 2 18 83 19 84 20 88 21 85 22 87 23 86 24
REMARK SMILES IDX 89 25 91 26 90 27 8 28 17 30 18 31 19 32 20 33 21 35 22 36
REMARK SMILES IDX 23 37 81 38 24 39 80 40 25 41 26 42 27 43 74 44 28 45 79 46
REMARK SMILES IDX 73 47 75 48 29 49 78 50 72 51 71 52 30 54 60 55 41 56 59 57
REMARK SMILES IDX 42 58 45 59 58 60 76 61 43 62 44 63 57 65 77 66 46 67 31 68
REMARK SMILES IDX 32 69 40 70 33 71 39 72 34 73 35 74 36 75 37 76 38 77 61 78
REMARK SMILES IDX 62 79 70 80 63 81 69 82 64 83 65 84 66 85 67 86 68 87 47 88
REMARK SMILES IDX 48 89 56 90 49 91 55 92 50 93 51 94 52 95 53 96 54 97
REMARK H PARENT 12 8 6 15 8 29 19 34 75 53 45 64
REMARK Flexibility Score: inf
ROOT
ATOM      1  C   UNL A   1      38.470  23.120  26.246  1.00  0.00     0.002 C 
ENDROOT
BRANCH   1   2
ATOM      2  C   UNL A   1      37.237  23.566  25.442  1.00  0.00     0.002 C 
BRANCH   2   3
ATOM      3  C   UNL A   1      35.888  23.068  25.976  1.00  0.00     0.021 C 
BRANCH   3   4
ATOM      4  C   UNL A   1      34.821  22.938  24.886  1.00  0.00     0.116 C 
BRANCH   4   5
ATOM      5  N   UNL A   1      33.947  21.804  25.138  1.00  0.00    -0.351 N 
ATOM      6  C   UNL A   1      32.598  21.611  25.013  1.00  0.00     0.266 C 
ATOM      7  O   UNL A   1      32.178  20.483  25.279  1.00  0.00    -0.268 OA
ATOM      8  H   UNL A   1      34.425  21.007  25.467  1.00  0.00     0.163 HD
BRANCH   6   9
ATOM      9  C   UNL A   1      31.681  22.675  24.531  1.00  0.00     0.155 A 
ATOM     10  N   UNL A   1      29.994  25.970  24.537  1.00  0.00    -0.121 NA
ATOM     11  C   UNL A   1      30.383  24.785  24.255  1.00  0.00     0.211 A 
ATOM     12  N   UNL A   1      30.651  24.123  23.088  1.00  0.00    -0.300 N 
ATOM     13  S   UNL A   1      30.781  23.721  25.605  1.00  0.00    -0.086 S 
ATOM     14  C   UNL A   1      31.407  22.985  23.244  1.00  0.00     0.214 A 
ATOM     15  H   UNL A   1      30.331  24.436  22.211  1.00  0.00     0.172 HD
BRANCH  10  16
ATOM     16  N   UNL A   1      29.687  26.778  23.454  1.00  0.00    -0.152 NA
ATOM     17  C   UNL A   1      30.218  28.927  22.448  1.00  0.00     0.069 C 
ATOM     18  C   UNL A   1      30.469  27.821  23.440  1.00  0.00     0.067 C 
BRANCH  18  19
ATOM     19  C   UNL A   1      31.627  28.031  24.348  1.00  0.00     0.001 A 
ATOM     20  C   UNL A   1      32.897  27.516  24.004  1.00  0.00     0.014 A 
ATOM     21  C   UNL A   1      31.443  28.813  25.489  1.00  0.00     0.060 A 
ATOM     22  C   UNL A   1      34.015  27.835  24.781  1.00  0.00     0.051 A 
ATOM     23  C   UNL A   1      32.571  29.144  26.201  1.00  0.00     0.166 A 
ATOM     24  C   UNL A   1      33.822  28.684  25.851  1.00  0.00     0.165 A 
ATOM     25  O   UNL A   1      32.608  29.992  27.261  1.00  0.00    -0.454 OA
ATOM     26  O   UNL A   1      34.796  29.205  26.647  1.00  0.00    -0.454 OA
ATOM     27  C   UNL A   1      34.031  30.194  27.378  1.00  0.00     0.468 C 
ENDBRANCH  18  19
ENDBRANCH  10  16
BRANCH  14  28
ATOM     28  O   UNL A   1      31.867  22.339  22.138  1.00  0.00    -0.493 OA
ATOM     29  H   UNL A   1      31.328  21.701  21.710  1.00  0.00     0.295 HD
ENDBRANCH  14  28
ENDBRANCH   6   9
ENDBRANCH   4   5
ENDBRANCH   3   4
ENDBRANCH   2   3
ENDBRANCH   1   2
BRANCH   1  30
ATOM     30  C   UNL A   1      39.083  21.767  25.852  1.00  0.00     0.021 C 
BRANCH  30  31
ATOM     31  C   UNL A   1      40.323  21.417  26.656  1.00  0.00     0.116 C 
BRANCH  31  32
ATOM     32  N   UNL A   1      41.549  21.562  25.865  1.00  0.00    -0.352 N 
ATOM     33  C   UNL A   1      42.272  22.714  25.604  1.00  0.00     0.251 C 
ATOM     34  H   UNL A   1      41.904  20.734  25.468  1.00  0.00     0.163 HD
ATOM     35  O   UNL A   1      43.034  22.784  24.657  1.00  0.00    -0.269 OA
BRANCH  33  36
ATOM     36  C   UNL A   1      42.105  23.847  26.531  1.00  0.00     0.039 A 
ATOM     37  C   UNL A   1      42.627  23.845  27.827  1.00  0.00     0.014 A 
ATOM     38  C   UNL A   1      41.438  24.957  26.026  1.00  0.00     0.014 A 
ATOM     39  C   UNL A   1      42.521  25.011  28.584  1.00  0.00     0.010 A 
ATOM     40  C   UNL A   1      41.542  26.150  26.674  1.00  0.00     0.010 A 
ATOM     41  C   UNL A   1      41.983  26.163  27.989  1.00  0.00    -0.014 A 
BRANCH  41  42
ATOM     42  C   UNL A   1      41.946  27.450  28.665  1.00  0.00     0.031 A 
ATOM     43  C   UNL A   1      43.092  28.333  28.342  1.00  0.00     0.074 A 
ATOM     44  C   UNL A   1      40.831  27.890  29.292  1.00  0.00     0.049 A 
ATOM     45  N   UNL A   1      44.078  28.651  29.113  1.00  0.00    -0.248 NA
ATOM     46  C   UNL A   1      43.266  28.771  26.945  1.00  0.00     0.031 C 
ATOM     47  C   UNL A   1      39.517  27.233  29.393  1.00  0.00     0.029 A 
ATOM     48  N   UNL A   1      40.592  29.093  29.870  1.00  0.00    -0.354 N 
ATOM     49  C   UNL A   1      44.847  29.548  28.383  1.00  0.00     0.074 A 
ATOM     50  C   UNL A   1      44.446  29.391  27.008  1.00  0.00     0.031 C 
ATOM     51  C   UNL A   1      38.580  28.136  29.758  1.00  0.00     0.029 A 
ATOM     52  C   UNL A   1      39.247  29.377  30.098  1.00  0.00     0.049 A 
ATOM     53  H   UNL A   1      41.313  29.720  30.109  1.00  0.00     0.167 HD
ATOM     54  C   UNL A   1      45.520  30.561  29.001  1.00  0.00     0.031 A 
ATOM     55  C   UNL A   1      38.721  30.558  30.517  1.00  0.00     0.031 A 
ATOM     56  C   UNL A   1      45.578  30.358  30.429  1.00  0.00     0.049 A 
ATOM     57  C   UNL A   1      39.829  31.302  31.167  1.00  0.00     0.074 A 
ATOM     58  C   UNL A   1      46.063  29.361  31.252  1.00  0.00     0.029 A 
ATOM     59  N   UNL A   1      44.681  31.073  31.192  1.00  0.00    -0.354 N 
ATOM     60  N   UNL A   1      40.431  30.879  32.245  1.00  0.00    -0.248 NA
ATOM     61  C   UNL A   1      40.596  32.227  30.347  1.00  0.00     0.031 C 
ATOM     62  C   UNL A   1      45.085  29.228  32.282  1.00  0.00     0.029 A 
ATOM     63  C   UNL A   1      44.106  30.207  32.088  1.00  0.00     0.049 A 
ATOM     64  H   UNL A   1      44.487  32.034  31.110  1.00  0.00     0.167 HD
ATOM     65  C   UNL A   1      41.780  31.114  32.013  1.00  0.00     0.074 A 
ATOM     66  C   UNL A   1      41.810  32.031  30.872  1.00  0.00     0.031 C 
ATOM     67  C   UNL A   1      42.744  30.322  32.573  1.00  0.00     0.031 A 
BRANCH  54  68
ATOM     68  C   UNL A   1      45.717  31.926  28.384  1.00  0.00    -0.014 A 
ATOM     69  C   UNL A   1      47.030  32.414  28.226  1.00  0.00     0.010 A 
ATOM     70  C   UNL A   1      44.668  32.855  28.215  1.00  0.00     0.010 A 
ATOM     71  C   UNL A   1      47.278  33.774  27.995  1.00  0.00     0.020 A 
ATOM     72  C   UNL A   1      44.902  34.202  27.940  1.00  0.00     0.020 A 
ATOM     73  C   UNL A   1      46.208  34.661  27.867  1.00  0.00     0.054 A 
BRANCH  73  74
ATOM     74  S   UNL A   1      46.534  36.428  27.668  1.00  0.00     0.124 S 
ATOM     75  O   UNL A   1      47.912  36.533  28.139  1.00  0.00    -0.237 OA
ATOM     76  O   UNL A   1      46.334  36.620  26.235  1.00  0.00    -0.237 OA
ATOM     77  O   UNL A   1      45.528  37.058  28.521  1.00  0.00    -0.744 OA
ENDBRANCH  73  74
ENDBRANCH  54  68
BRANCH  55  78
ATOM     78  C   UNL A   1      37.450  31.197  30.080  1.00  0.00    -0.014 A 
ATOM     79  C   UNL A   1      36.371  31.382  30.966  1.00  0.00     0.010 A 
ATOM     80  C   UNL A   1      37.403  31.885  28.849  1.00  0.00     0.010 A 
ATOM     81  C   UNL A   1      35.314  32.261  30.653  1.00  0.00     0.020 A 
ATOM     82  C   UNL A   1      36.354  32.760  28.530  1.00  0.00     0.020 A 
ATOM     83  C   UNL A   1      35.323  32.961  29.443  1.00  0.00     0.054 A 
BRANCH  83  84
ATOM     84  S   UNL A   1      34.045  34.214  29.113  1.00  0.00     0.124 S 
ATOM     85  O   UNL A   1      33.505  34.470  30.444  1.00  0.00    -0.237 OA
ATOM     86  O   UNL A   1      34.812  35.307  28.522  1.00  0.00    -0.237 OA
ATOM     87  O   UNL A   1      33.129  33.539  28.194  1.00  0.00    -0.744 OA
ENDBRANCH  83  84
ENDBRANCH  55  78
BRANCH  67  88
ATOM     88  C   UNL A   1      42.330  29.329  33.642  1.00  0.00    -0.014 A 
ATOM     89  C   UNL A   1      41.855  28.029  33.368  1.00  0.00     0.010 A 
ATOM     90  C   UNL A   1      42.593  29.671  34.979  1.00  0.00     0.010 A 
ATOM     91  C   UNL A   1      41.633  27.108  34.407  1.00  0.00     0.020 A 
ATOM     92  C   UNL A   1      42.388  28.754  36.015  1.00  0.00     0.020 A 
ATOM     93  C   UNL A   1      41.902  27.479  35.727  1.00  0.00     0.054 A 
BRANCH  93  94
ATOM     94  S   UNL A   1      41.661  26.277  37.067  1.00  0.00     0.124 S 
ATOM     95  O   UNL A   1      41.644  25.003  36.354  1.00  0.00    -0.237 OA
ATOM     96  O   UNL A   1      42.823  26.503  37.923  1.00  0.00    -0.237 OA
ATOM     97  O   UNL A   1      40.382  26.668  37.660  1.00  0.00    -0.744 OA
ENDBRANCH  93  94
ENDBRANCH  67  88
ENDBRANCH  41  42
ENDBRANCH  33  36
ENDBRANCH  31  32
ENDBRANCH  30  31
ENDBRANCH   1  30
TORSDOF 19
ENDMDL
MODEL 2
REMARK VINA RESULT:     -11.8      2.746      9.135
REMARK SMILES C/C(=N/N=c1\[nH]c(O)c(C(=O)NCCCCCCNC(=O)c2ccc(-c3c4nc(c(-c5ccc(S(=O)(=O)[O-])cc5)c5ccc([nH]5)c(-c5ccc(S(=O)(=O)[O-])cc5)c5nc(c(-c6ccc(S(=O)(=O)[O-])cc6)c6ccc3[nH]6)C=C5)C=C4)cc2)s1)c1ccc2c(c1)OCO2
REMARK SMILES IDX 16 1 15 2 14 3 13 4 12 5 10 6 11 7 9 9 4 10 5 11 6 12 82 13
REMARK SMILES IDX 7 14 3 16 1 17 2 18 83 19 84 20 88 21 85 22 87 23 86 24
REMARK SMILES IDX 89 25 91 26 90 27 8 28 17 30 18 31 19 32 20 33 21 35 22 36
REMARK SMILES IDX 23 37 81 38 24 39 80 40 25 41 26 42 27 43 74 44 28 45 79 46
REMARK SMILES IDX 73 47 75 48 29 49 78 50 72 51 71 52 30 54 60 55 41 56 59 57
REMARK SMILES IDX 42 58 45 59 58 60 76 61 43 62 44 63 57 65 77 66 46 67 31 68
REMARK SMILES IDX 32 69 40 70 33 71 39 72 34 73 35 74 36 75 37 76 38 77 61 78
REMARK SMILES IDX 62 79 70 80 63 81 69 82 64 83 65 84 66 85 67 86 68 87 47 88
REMARK SMILES IDX 48 89 56 90 49 91 55 92 50 93 51 94 52 95 53 96 54 97
REMARK H PARENT 12 8 6 15 8 29 19 34 75 53 45 64
REMARK Flexibility Score: inf
ROOT
ATOM      1  C   UNL A   1      34.872  29.527  27.543  1.00  0.00     0.002 C 
ENDROOT
BRANCH   1   2
ATOM      2  C   UNL A   1      34.021  28.379  26.975  1.00  0.00     0.002 C 
BRANCH   2   3
ATOM      3  C   UNL A   1      33.623  28.522  25.500  1.00  0.00     0.021 C 
BRANCH   3   4
ATOM      4  C   UNL A   1      32.976  27.259  24.927  1.00  0.00     0.116 C 
BRANCH   4   5
ATOM      5  N   UNL A   1      32.340  27.528  23.647  1.00  0.00    -0.351 N 
ATOM      6  C   UNL A   1      31.775  26.728  22.692  1.00  0.00     0.266 C 
ATOM      7  O   UNL A   1      31.275  27.301  21.721  1.00  0.00    -0.268 OA
ATOM      8  H   UNL A   1      32.309  28.487  23.419  1.00  0.00     0.163 HD
BRANCH   6   9
ATOM      9  C   UNL A   1      31.707  25.250  22.827  1.00  0.00     0.155 A 
ATOM     10  N   UNL A   1      32.983  21.828  23.432  1.00  0.00    -0.121 NA
ATOM     11  C   UNL A   1      32.246  22.842  23.177  1.00  0.00     0.211 A 
ATOM     12  N   UNL A   1      30.964  23.194  23.502  1.00  0.00    -0.300 N 
ATOM     13  S   UNL A   1      32.988  24.182  22.301  1.00  0.00    -0.086 S 
ATOM     14  C   UNL A   1      30.688  24.532  23.350  1.00  0.00     0.214 A 
ATOM     15  H   UNL A   1      30.296  22.542  23.818  1.00  0.00     0.172 HD
BRANCH  10  16
ATOM     16  N   UNL A   1      32.370  20.794  24.120  1.00  0.00    -0.152 NA
ATOM     17  C   UNL A   1      32.826  18.984  25.678  1.00  0.00     0.069 C 
ATOM     18  C   UNL A   1      33.217  20.238  24.939  1.00  0.00     0.067 C 
BRANCH  18  19
ATOM     19  C   UNL A   1      34.588  20.741  25.220  1.00  0.00     0.001 A 
ATOM     20  C   UNL A   1      35.713  20.011  24.776  1.00  0.00     0.014 A 
ATOM     21  C   UNL A   1      34.724  21.979  25.849  1.00  0.00     0.060 A 
ATOM     22  C   UNL A   1      36.996  20.552  24.910  1.00  0.00     0.051 A 
ATOM     23  C   UNL A   1      35.994  22.499  25.921  1.00  0.00     0.166 A 
ATOM     24  C   UNL A   1      37.096  21.817  25.453  1.00  0.00     0.165 A 
ATOM     25  O   UNL A   1      36.309  23.738  26.382  1.00  0.00    -0.454 OA
ATOM     26  O   UNL A   1      38.233  22.558  25.553  1.00  0.00    -0.454 OA
ATOM     27  C   UNL A   1      37.674  23.840  25.932  1.00  0.00     0.468 C 
ENDBRANCH  18  19
ENDBRANCH  10  16
BRANCH  14  28
ATOM     28  O   UNL A   1      29.497  25.017  23.793  1.00  0.00    -0.493 OA
ATOM     29  H   UNL A   1      29.113  25.766  23.380  1.00  0.00     0.295 HD
ENDBRANCH  14  28
ENDBRANCH   6   9
ENDBRANCH   4   5
ENDBRANCH   3   4
ENDBRANCH   2   3
ENDBRANCH   1   2
BRANCH   1  30
ATOM     30  C   UNL A   1      34.200  30.908  27.595  1.00  0.00     0.021 C 
BRANCH  30  31
ATOM     31  C   UNL A   1      35.145  32.015  28.028  1.00  0.00     0.116 C 
BRANCH  31  32
ATOM     32  N   UNL A   1      34.741  32.614  29.304  1.00  0.00    -0.352 N 
ATOM     33  C   UNL A   1      35.068  32.205  30.587  1.00  0.00     0.251 C 
ATOM     34  H   UNL A   1      34.162  33.408  29.241  1.00  0.00     0.163 HD
ATOM     35  O   UNL A   1      34.395  32.533  31.547  1.00  0.00    -0.269 OA
BRANCH  33  36
ATOM     36  C   UNL A   1      36.277  31.381  30.751  1.00  0.00     0.039 A 
ATOM     37  C   UNL A   1      36.230  29.991  30.887  1.00  0.00     0.014 A 
ATOM     38  C   UNL A   1      37.490  32.059  30.710  1.00  0.00     0.014 A 
ATOM     39  C   UNL A   1      37.434  29.289  30.915  1.00  0.00     0.010 A 
ATOM     40  C   UNL A   1      38.640  31.358  30.506  1.00  0.00     0.010 A 
ATOM     41  C   UNL A   1      38.635  29.987  30.712  1.00  0.00    -0.014 A 
BRANCH  41  42
ATOM     42  C   UNL A   1      39.922  29.319  30.606  1.00  0.00     0.031 A 
ATOM     43  C   UNL A   1      40.625  29.159  31.902  1.00  0.00     0.074 A 
ATOM     44  C   UNL A   1      40.293  28.666  29.481  1.00  0.00     0.049 A 
ATOM     45  N   UNL A   1      41.678  29.787  32.306  1.00  0.00    -0.248 NA
ATOM     46  C   UNL A   1      39.985  28.338  32.947  1.00  0.00     0.031 C 
ATOM     47  C   UNL A   1      39.528  28.478  28.237  1.00  0.00     0.029 A 
ATOM     48  N   UNL A   1      41.395  27.908  29.254  1.00  0.00    -0.354 N 
ATOM     49  C   UNL A   1      41.986  29.239  33.545  1.00  0.00     0.074 A 
ATOM     50  C   UNL A   1      40.798  28.551  33.984  1.00  0.00     0.031 C 
ATOM     51  C   UNL A   1      40.069  27.472  27.514  1.00  0.00     0.029 A 
ATOM     52  C   UNL A   1      41.315  27.075  28.142  1.00  0.00     0.049 A 
ATOM     53  H   UNL A   1      42.192  27.944  29.833  1.00  0.00     0.167 HD
ATOM     54  C   UNL A   1      43.280  29.129  33.962  1.00  0.00     0.031 A 
ATOM     55  C   UNL A   1      42.200  26.112  27.776  1.00  0.00     0.031 A 
ATOM     56  C   UNL A   1      44.166  29.915  33.136  1.00  0.00     0.049 A 
ATOM     57  C   UNL A   1      43.481  26.445  28.448  1.00  0.00     0.074 A 
ATOM     58  C   UNL A   1      44.253  31.253  32.800  1.00  0.00     0.029 A 
ATOM     59  N   UNL A   1      44.877  29.238  32.170  1.00  0.00    -0.354 N 
ATOM     60  N   UNL A   1      44.152  27.536  28.197  1.00  0.00    -0.248 NA
ATOM     61  C   UNL A   1      43.744  25.837  29.743  1.00  0.00     0.031 C 
ATOM     62  C   UNL A   1      44.579  31.260  31.411  1.00  0.00     0.029 A 
ATOM     63  C   UNL A   1      44.765  29.939  30.996  1.00  0.00     0.049 A 
ATOM     64  H   UNL A   1      45.376  28.400  32.299  1.00  0.00     0.167 HD
ATOM     65  C   UNL A   1      44.565  27.994  29.442  1.00  0.00     0.074 A 
ATOM     66  C   UNL A   1      44.366  26.858  30.344  1.00  0.00     0.031 C 
ATOM     67  C   UNL A   1      44.750  29.328  29.681  1.00  0.00     0.031 A 
BRANCH  54  68
ATOM     68  C   UNL A   1      43.789  27.980  34.801  1.00  0.00    -0.014 A 
ATOM     69  C   UNL A   1      44.603  28.265  35.916  1.00  0.00     0.010 A 
ATOM     70  C   UNL A   1      43.734  26.634  34.382  1.00  0.00     0.010 A 
ATOM     71  C   UNL A   1      45.382  27.270  36.522  1.00  0.00     0.020 A 
ATOM     72  C   UNL A   1      44.470  25.627  35.005  1.00  0.00     0.020 A 
ATOM     73  C   UNL A   1      45.318  25.959  36.051  1.00  0.00     0.054 A 
BRANCH  73  74
ATOM     74  S   UNL A   1      46.398  24.700  36.771  1.00  0.00     0.124 S 
ATOM     75  O   UNL A   1      47.288  25.507  37.599  1.00  0.00    -0.237 OA
ATOM     76  O   UNL A   1      45.450  23.855  37.490  1.00  0.00    -0.237 OA
ATOM     77  O   UNL A   1      47.019  24.076  35.603  1.00  0.00    -0.744 OA
ENDBRANCH  73  74
ENDBRANCH  54  68
BRANCH  55  78
ATOM     78  C   UNL A   1      41.906  24.776  27.189  1.00  0.00    -0.014 A 
ATOM     79  C   UNL A   1      42.608  24.288  26.070  1.00  0.00     0.010 A 
ATOM     80  C   UNL A   1      41.118  23.855  27.912  1.00  0.00     0.010 A 
ATOM     81  C   UNL A   1      42.563  22.923  25.720  1.00  0.00     0.020 A 
ATOM     82  C   UNL A   1      41.067  22.496  27.569  1.00  0.00     0.020 A 
ATOM     83  C   UNL A   1      41.806  22.031  26.486  1.00  0.00     0.054 A 
BRANCH  83  84
ATOM     84  S   UNL A   1      41.879  20.247  26.130  1.00  0.00     0.124 S 
ATOM     85  O   UNL A   1      43.032  20.151  25.241  1.00  0.00    -0.237 OA
ATOM     86  O   UNL A   1      42.054  19.663  27.456  1.00  0.00    -0.237 OA
ATOM     87  O   UNL A   1      40.588  19.968  25.501  1.00  0.00    -0.744 OA
ENDBRANCH  83  84
ENDBRANCH  55  78
BRANCH  67  88
ATOM     88  C   UNL A   1      44.728  30.281  28.502  1.00  0.00    -0.014 A 
ATOM     89  C   UNL A   1      43.552  30.678  27.831  1.00  0.00     0.010 A 
ATOM     90  C   UNL A   1      45.931  30.929  28.171  1.00  0.00     0.010 A 
ATOM     91  C   UNL A   1      43.587  31.681  26.846  1.00  0.00     0.020 A 
ATOM     92  C   UNL A   1      45.969  31.936  27.203  1.00  0.00     0.020 A 
ATOM     93  C   UNL A   1      44.799  32.304  26.538  1.00  0.00     0.054 A 
BRANCH  93  94
ATOM     94  S   UNL A   1      44.839  33.631  25.299  1.00  0.00     0.124 S 
ATOM     95  O   UNL A   1      43.965  34.643  25.885  1.00  0.00    -0.237 OA
ATOM     96  O   UNL A   1      46.257  33.981  25.240  1.00  0.00    -0.237 OA
ATOM     97  O   UNL A   1      44.319  32.994  24.088  1.00  0.00    -0.744 OA
ENDBRANCH  93  94
ENDBRANCH  67  88
ENDBRANCH  41  42
ENDBRANCH  33  36
ENDBRANCH  31  32
ENDBRANCH  30  31
ENDBRANCH   1  30
TORSDOF 19
ENDMDL
MODEL 3
REMARK VINA RESULT:     -11.3      3.032      8.414
REMARK SMILES C/C(=N/N=c1\[nH]c(O)c(C(=O)NCCCCCCNC(=O)c2ccc(-c3c4nc(c(-c5ccc(S(=O)(=O)[O-])cc5)c5ccc([nH]5)c(-c5ccc(S(=O)(=O)[O-])cc5)c5nc(c(-c6ccc(S(=O)(=O)[O-])cc6)c6ccc3[nH]6)C=C5)C=C4)cc2)s1)c1ccc2c(c1)OCO2
REMARK SMILES IDX 16 1 15 2 14 3 13 4 12 5 10 6 11 7 9 9 4 10 5 11 6 12 82 13
REMARK SMILES IDX 7 14 3 16 1 17 2 18 83 19 84 20 88 21 85 22 87 23 86 24
REMARK SMILES IDX 89 25 91 26 90 27 8 28 17 30 18 31 19 32 20 33 21 35 22 36
REMARK SMILES IDX 23 37 81 38 24 39 80 40 25 41 26 42 27 43 74 44 28 45 79 46
REMARK SMILES IDX 73 47 75 48 29 49 78 50 72 51 71 52 30 54 60 55 41 56 59 57
REMARK SMILES IDX 42 58 45 59 58 60 76 61 43 62 44 63 57 65 77 66 46 67 31 68
REMARK SMILES IDX 32 69 40 70 33 71 39 72 34 73 35 74 36 75 37 76 38 77 61 78
REMARK SMILES IDX 62 79 70 80 63 81 69 82 64 83 65 84 66 85 67 86 68 87 47 88
REMARK SMILES IDX 48 89 56 90 49 91 55 92 50 93 51 94 52 95 53 96 54 97
REMARK H PARENT 12 8 6 15 8 29 19 34 75 53 45 64
REMARK Flexibility Score: inf
ROOT
ATOM      1  C   UNL A   1      33.312  30.869  27.289  1.00  0.00     0.002 C 
ENDROOT
BRANCH   1   2
ATOM      2  C   UNL A   1      33.073  29.357  27.129  1.00  0.00     0.002 C 
BRANCH   2   3
ATOM      3  C   UNL A   1      32.825  28.879  25.692  1.00  0.00     0.021 C 
BRANCH   3   4
ATOM      4  C   UNL A   1      31.389  28.408  25.455  1.00  0.00     0.116 C 
BRANCH   4   5
ATOM      5  N   UNL A   1      30.954  28.703  24.099  1.00  0.00    -0.351 N 
ATOM      6  C   UNL A   1      30.669  27.923  23.013  1.00  0.00     0.266 C 
ATOM      7  O   UNL A   1      30.276  28.510  22.003  1.00  0.00    -0.268 OA
ATOM      8  H   UNL A   1      30.841  29.667  23.926  1.00  0.00     0.163 HD
BRANCH   6   9
ATOM      9  C   UNL A   1      30.768  26.441  23.047  1.00  0.00     0.155 A 
ATOM     10  N   UNL A   1      32.421  23.151  23.428  1.00  0.00    -0.121 NA
ATOM     11  C   UNL A   1      31.574  24.090  23.237  1.00  0.00     0.211 A 
ATOM     12  N   UNL A   1      30.261  24.273  23.574  1.00  0.00    -0.300 N 
ATOM     13  S   UNL A   1      32.160  25.562  22.459  1.00  0.00    -0.086 S 
ATOM     14  C   UNL A   1      29.836  25.578  23.512  1.00  0.00     0.214 A 
ATOM     15  H   UNL A   1      29.671  23.531  23.841  1.00  0.00     0.172 HD
BRANCH  10  16
ATOM     16  N   UNL A   1      31.928  22.009  24.039  1.00  0.00    -0.152 NA
ATOM     17  C   UNL A   1      32.614  20.085  25.358  1.00  0.00     0.069 C 
ATOM     18  C   UNL A   1      32.868  21.433  24.734  1.00  0.00     0.067 C 
BRANCH  18  19
ATOM     19  C   UNL A   1      34.220  22.002  24.975  1.00  0.00     0.001 A 
ATOM     20  C   UNL A   1      34.357  23.234  25.654  1.00  0.00     0.014 A 
ATOM     21  C   UNL A   1      35.333  21.253  24.595  1.00  0.00     0.060 A 
ATOM     22  C   UNL A   1      35.627  23.699  26.010  1.00  0.00     0.051 A 
ATOM     23  C   UNL A   1      36.561  21.718  25.002  1.00  0.00     0.166 A 
ATOM     24  C   UNL A   1      36.705  22.896  25.702  1.00  0.00     0.165 A 
ATOM     25  O   UNL A   1      37.741  21.066  24.836  1.00  0.00    -0.454 OA
ATOM     26  O   UNL A   1      37.998  23.113  26.070  1.00  0.00    -0.454 OA
ATOM     27  C   UNL A   1      38.587  21.840  25.708  1.00  0.00     0.468 C 
ENDBRANCH  18  19
ENDBRANCH  10  16
BRANCH  14  28
ATOM     28  O   UNL A   1      28.598  25.896  23.979  1.00  0.00    -0.493 OA
ATOM     29  H   UNL A   1      27.888  25.293  23.870  1.00  0.00     0.295 HD
ENDBRANCH  14  28
ENDBRANCH   6   9
ENDBRANCH   4   5
ENDBRANCH   3   4
ENDBRANCH   2   3
ENDBRANCH   1   2
BRANCH   1  30
ATOM     30  C   UNL A   1      32.056  31.754  27.318  1.00  0.00     0.021 C 
BRANCH  30  31
ATOM     31  C   UNL A   1      32.284  33.131  26.719  1.00  0.00     0.116 C 
BRANCH  31  32
ATOM     32  N   UNL A   1      32.194  34.190  27.729  1.00  0.00    -0.352 N 
ATOM     33  C   UNL A   1      32.958  34.354  28.873  1.00  0.00     0.251 C 
ATOM     34  H   UNL A   1      31.502  34.873  27.573  1.00  0.00     0.163 HD
ATOM     35  O   UNL A   1      32.565  35.030  29.806  1.00  0.00    -0.269 OA
BRANCH  33  36
ATOM     36  C   UNL A   1      34.277  33.701  28.909  1.00  0.00     0.039 A 
ATOM     37  C   UNL A   1      35.271  33.953  27.960  1.00  0.00     0.014 A 
ATOM     38  C   UNL A   1      34.508  32.848  29.982  1.00  0.00     0.014 A 
ATOM     39  C   UNL A   1      36.527  33.379  28.149  1.00  0.00     0.010 A 
ATOM     40  C   UNL A   1      35.786  32.483  30.282  1.00  0.00     0.010 A 
ATOM     41  C   UNL A   1      36.774  32.652  29.324  1.00  0.00    -0.014 A 
BRANCH  41  42
ATOM     42  C   UNL A   1      38.086  32.123  29.658  1.00  0.00     0.031 A 
ATOM     43  C   UNL A   1      38.236  30.672  29.389  1.00  0.00     0.074 A 
ATOM     44  C   UNL A   1      39.136  32.936  29.915  1.00  0.00     0.049 A 
ATOM     45  N   UNL A   1      38.311  29.718  30.255  1.00  0.00    -0.248 NA
ATOM     46  C   UNL A   1      38.105  30.202  27.997  1.00  0.00     0.031 C 
ATOM     47  C   UNL A   1      39.183  34.408  29.886  1.00  0.00     0.029 A 
ATOM     48  N   UNL A   1      40.436  32.615  30.132  1.00  0.00    -0.354 N 
ATOM     49  C   UNL A   1      38.513  28.559  29.516  1.00  0.00     0.074 A 
ATOM     50  C   UNL A   1      38.135  28.878  28.162  1.00  0.00     0.031 C 
ATOM     51  C   UNL A   1      40.467  34.824  29.824  1.00  0.00     0.029 A 
ATOM     52  C   UNL A   1      41.331  33.673  29.998  1.00  0.00     0.049 A 
ATOM     53  H   UNL A   1      40.725  31.702  30.366  1.00  0.00     0.167 HD
ATOM     54  C   UNL A   1      39.265  27.534  30.008  1.00  0.00     0.031 A 
ATOM     55  C   UNL A   1      42.688  33.602  30.010  1.00  0.00     0.031 A 
ATOM     56  C   UNL A   1      39.505  27.691  31.424  1.00  0.00     0.049 A 
ATOM     57  C   UNL A   1      43.034  32.327  30.688  1.00  0.00     0.074 A 
ATOM     58  C   UNL A   1      38.699  27.807  32.540  1.00  0.00     0.029 A 
ATOM     59  N   UNL A   1      40.734  28.193  31.792  1.00  0.00    -0.354 N 
ATOM     60  N   UNL A   1      42.742  32.086  31.937  1.00  0.00    -0.248 NA
ATOM     61  C   UNL A   1      43.233  31.150  29.856  1.00  0.00     0.031 C 
ATOM     62  C   UNL A   1      39.328  28.807  33.341  1.00  0.00     0.029 A 
ATOM     63  C   UNL A   1      40.524  29.180  32.722  1.00  0.00     0.049 A 
ATOM     64  H   UNL A   1      41.607  27.897  31.449  1.00  0.00     0.167 HD
ATOM     65  C   UNL A   1      42.283  30.775  31.947  1.00  0.00     0.074 A 
ATOM     66  C   UNL A   1      42.698  30.222  30.657  1.00  0.00     0.031 C 
ATOM     67  C   UNL A   1      41.363  30.354  32.868  1.00  0.00     0.031 A 
BRANCH  54  68
ATOM     68  C   UNL A   1      40.148  26.661  29.146  1.00  0.00    -0.014 A 
ATOM     69  C   UNL A   1      41.544  26.852  29.198  1.00  0.00     0.010 A 
ATOM     70  C   UNL A   1      39.653  25.865  28.092  1.00  0.00     0.010 A 
ATOM     71  C   UNL A   1      42.386  26.341  28.200  1.00  0.00     0.020 A 
ATOM     72  C   UNL A   1      40.487  25.315  27.117  1.00  0.00     0.020 A 
ATOM     73  C   UNL A   1      41.846  25.587  27.158  1.00  0.00     0.054 A 
BRANCH  73  74
ATOM     74  S   UNL A   1      42.920  25.015  25.821  1.00  0.00     0.124 S 
ATOM     75  O   UNL A   1      42.393  25.753  24.678  1.00  0.00    -0.237 OA
ATOM     76  O   UNL A   1      44.241  25.425  26.290  1.00  0.00    -0.237 OA
ATOM     77  O   UNL A   1      42.695  23.571  25.798  1.00  0.00    -0.744 OA
ENDBRANCH  73  74
ENDBRANCH  54  68
BRANCH  55  78
ATOM     78  C   UNL A   1      43.650  34.374  29.177  1.00  0.00    -0.014 A 
ATOM     79  C   UNL A   1      44.913  34.758  29.668  1.00  0.00     0.010 A 
ATOM     80  C   UNL A   1      43.432  34.492  27.787  1.00  0.00     0.010 A 
ATOM     81  C   UNL A   1      45.932  35.192  28.797  1.00  0.00     0.020 A 
ATOM     82  C   UNL A   1      44.440  34.924  26.915  1.00  0.00     0.020 A 
ATOM     83  C   UNL A   1      45.694  35.254  27.420  1.00  0.00     0.054 A 
BRANCH  83  84
ATOM     84  S   UNL A   1      47.058  35.658  26.284  1.00  0.00     0.124 S 
ATOM     85  O   UNL A   1      46.962  34.595  25.288  1.00  0.00    -0.237 OA
ATOM     86  O   UNL A   1      46.700  36.994  25.816  1.00  0.00    -0.237 OA
ATOM     87  O   UNL A   1      48.245  35.602  27.136  1.00  0.00    -0.744 OA
ENDBRANCH  83  84
ENDBRANCH  55  78
BRANCH  67  88
ATOM     88  C   UNL A   1      41.028  31.274  34.026  1.00  0.00    -0.014 A 
ATOM     89  C   UNL A   1      40.008  32.247  33.989  1.00  0.00     0.010 A 
ATOM     90  C   UNL A   1      41.663  31.025  35.254  1.00  0.00     0.010 A 
ATOM     91  C   UNL A   1      39.649  32.961  35.146  1.00  0.00     0.020 A 
ATOM     92  C   UNL A   1      41.302  31.721  36.411  1.00  0.00     0.020 A 
ATOM     93  C   UNL A   1      40.302  32.692  36.352  1.00  0.00     0.054 A 
BRANCH  93  94
ATOM     94  S   UNL A   1      39.811  33.579  37.859  1.00  0.00     0.124 S 
ATOM     95  O   UNL A   1      40.676  34.755  37.834  1.00  0.00    -0.237 OA
ATOM     96  O   UNL A   1      38.390  33.839  37.638  1.00  0.00    -0.237 OA
ATOM     97  O   UNL A   1      40.096  32.627  38.933  1.00  0.00    -0.744 OA
ENDBRANCH  93  94
ENDBRANCH  67  88
ENDBRANCH  41  42
ENDBRANCH  33  36
ENDBRANCH  31  32
ENDBRANCH  30  31
ENDBRANCH   1  30
TORSDOF 19
ENDMDL
