MODEL 1
REMARK VINA RESULT:     -10.7      0.000      0.000
REMARK SMILES CC(C)(C)OC(=O)N[C@@H](C(=O)NCCCCCCNC(=O)c1ccc(-c2c3nc(c(-c4ccc(S(=O)(=O)[O-])cc4)c4ccc([nH]4)c(-c4ccc(S(=O)(=O)[O-])cc4)c4nc(c(-c5ccc(S(=O)(=O)[O-])cc5)c5ccc2[nH]5)C=C4)C=C3)cc1)[C@H](O)c1ccccc1F
REMARK SMILES IDX 15 1 14 2 13 3 12 4 10 5 11 6 9 8 8 9 6 10 7 11 5 13 2 14
REMARK SMILES IDX 1 15 3 16 4 17 82 18 84 19 85 20 89 21 86 22 88 23 90 24
REMARK SMILES IDX 87 25 83 26 16 28 17 29 18 30 19 31 20 32 21 34 22 35 23 36
REMARK SMILES IDX 81 37 24 38 80 39 25 40 26 41 27 42 74 43 28 44 79 45 73 46
REMARK SMILES IDX 75 47 29 48 78 49 72 50 71 51 30 53 60 54 41 55 59 56 42 57
REMARK SMILES IDX 45 58 58 59 76 60 43 61 44 62 57 64 77 65 46 66 31 67 32 68
REMARK SMILES IDX 40 69 33 70 39 71 34 72 35 73 36 74 37 75 38 76 61 77 62 78
REMARK SMILES IDX 70 79 63 80 69 81 64 82 65 83 66 84 67 85 68 86 47 87 48 88
REMARK SMILES IDX 56 89 49 90 55 91 50 92 51 93 52 94 53 95 54 96
REMARK H PARENT 12 7 8 12 83 27 19 33 75 52 45 63
REMARK Flexibility Score: inf
ROOT
ATOM      1  C   UNL A   1      33.233  22.554  23.748  1.00  0.00     0.002 C 
ENDROOT
BRANCH   1   2
ATOM      2  C   UNL A   1      31.776  23.021  23.868  1.00  0.00     0.021 C 
BRANCH   2   3
ATOM      3  C   UNL A   1      31.636  24.544  23.874  1.00  0.00     0.116 C 
BRANCH   3   4
ATOM      4  N   UNL A   1      30.238  24.920  23.861  1.00  0.00    -0.354 N 
ATOM      5  C   UNL A   1      29.650  26.054  24.343  1.00  0.00     0.245 C 
ATOM      6  O   UNL A   1      28.418  26.072  24.411  1.00  0.00    -0.273 OA
ATOM      7  H   UNL A   1      29.626  24.269  23.447  1.00  0.00     0.163 HD
BRANCH   5   8
ATOM      8  C   UNL A   1      30.520  27.251  24.779  1.00  0.00     0.208 C 
BRANCH   8   9
ATOM      9  N   UNL A   1      31.120  27.868  23.583  1.00  0.00    -0.307 N 
ATOM     10  C   UNL A   1      30.831  29.099  23.071  1.00  0.00     0.408 C 
ATOM     11  O   UNL A   1      31.436  29.531  22.100  1.00  0.00    -0.225 OA
ATOM     12  H   UNL A   1      31.798  27.338  23.106  1.00  0.00     0.168 HD
BRANCH  10  13
ATOM     13  O   UNL A   1      29.810  29.715  23.712  1.00  0.00    -0.444 OA
BRANCH  13  14
ATOM     14  C   UNL A   1      28.598  30.098  23.005  1.00  0.00     0.106 C 
ATOM     15  C   UNL A   1      29.048  30.394  21.564  1.00  0.00     0.056 C 
ATOM     16  C   UNL A   1      27.986  31.383  23.581  1.00  0.00     0.056 C 
ATOM     17  C   UNL A   1      27.595  28.943  22.980  1.00  0.00     0.056 C 
ENDBRANCH  13  14
ENDBRANCH  10  13
ENDBRANCH   8   9
BRANCH   8  18
ATOM     18  C   UNL A   1      31.653  26.884  25.788  1.00  0.00     0.179 C 
BRANCH  18  19
ATOM     19  C   UNL A   1      32.461  28.063  26.278  1.00  0.00     0.019 A 
ATOM     20  C   UNL A   1      31.800  29.235  26.687  1.00  0.00     0.009 A 
ATOM     21  C   UNL A   1      33.854  28.031  26.360  1.00  0.00     0.129 A 
ATOM     22  C   UNL A   1      32.518  30.330  27.174  1.00  0.00     0.001 A 
ATOM     23  C   UNL A   1      34.577  29.122  26.838  1.00  0.00     0.039 A 
ATOM     24  F   UNL A   1      34.523  26.929  25.998  1.00  0.00    -0.207 F 
ATOM     25  C   UNL A   1      33.908  30.274  27.249  1.00  0.00     0.003 A 
ENDBRANCH  18  19
BRANCH  18  26
ATOM     26  O   UNL A   1      31.291  26.058  26.896  1.00  0.00    -0.386 OA
ATOM     27  H   UNL A   1      32.046  25.505  27.148  1.00  0.00     0.211 HD
ENDBRANCH  18  26
ENDBRANCH   8  18
ENDBRANCH   5   8
ENDBRANCH   3   4
ENDBRANCH   2   3
ENDBRANCH   1   2
BRANCH   1  28
ATOM     28  C   UNL A   1      34.243  23.420  24.509  1.00  0.00     0.002 C 
BRANCH  28  29
ATOM     29  C   UNL A   1      35.710  23.060  24.256  1.00  0.00     0.021 C 
BRANCH  29  30
ATOM     30  C   UNL A   1      36.678  23.621  25.294  1.00  0.00     0.116 C 
BRANCH  30  31
ATOM     31  N   UNL A   1      37.720  22.663  25.627  1.00  0.00    -0.352 N 
ATOM     32  C   UNL A   1      38.958  22.873  26.178  1.00  0.00     0.251 C 
ATOM     33  H   UNL A   1      37.505  21.724  25.426  1.00  0.00     0.163 HD
ATOM     34  O   UNL A   1      39.789  21.969  26.162  1.00  0.00    -0.269 OA
BRANCH  32  35
ATOM     35  C   UNL A   1      39.294  24.182  26.775  1.00  0.00     0.039 A 
ATOM     36  C   UNL A   1      38.860  24.457  28.073  1.00  0.00     0.014 A 
ATOM     37  C   UNL A   1      40.014  25.143  26.058  1.00  0.00     0.014 A 
ATOM     38  C   UNL A   1      39.193  25.674  28.669  1.00  0.00     0.010 A 
ATOM     39  C   UNL A   1      40.415  26.322  26.683  1.00  0.00     0.010 A 
ATOM     40  C   UNL A   1      40.005  26.602  27.993  1.00  0.00    -0.014 A 
BRANCH  40  41
ATOM     41  C   UNL A   1      40.454  27.843  28.677  1.00  0.00     0.031 A 
ATOM     42  C   UNL A   1      41.844  27.964  29.235  1.00  0.00     0.074 A 
ATOM     43  C   UNL A   1      39.580  28.858  28.824  1.00  0.00     0.049 A 
ATOM     44  N   UNL A   1      42.413  28.995  29.808  1.00  0.00    -0.248 NA
ATOM     45  C   UNL A   1      42.700  26.770  29.164  1.00  0.00     0.031 C 
ATOM     46  C   UNL A   1      38.182  28.835  28.387  1.00  0.00     0.029 A 
ATOM     47  N   UNL A   1      39.737  30.105  29.372  1.00  0.00    -0.354 N 
ATOM     48  C   UNL A   1      43.686  28.573  30.174  1.00  0.00     0.074 A 
ATOM     49  C   UNL A   1      43.783  27.175  29.810  1.00  0.00     0.031 C 
ATOM     50  C   UNL A   1      37.623  30.028  28.643  1.00  0.00     0.029 A 
ATOM     51  C   UNL A   1      38.607  30.883  29.299  1.00  0.00     0.049 A 
ATOM     52  H   UNL A   1      40.579  30.414  29.778  1.00  0.00     0.167 HD
ATOM     53  C   UNL A   1      44.687  29.286  30.746  1.00  0.00     0.031 A 
ATOM     54  C   UNL A   1      38.380  32.146  29.709  1.00  0.00     0.031 A 
ATOM     55  C   UNL A   1      44.574  30.673  31.122  1.00  0.00     0.049 A 
ATOM     56  C   UNL A   1      39.503  32.923  30.331  1.00  0.00     0.074 A 
ATOM     57  C   UNL A   1      45.548  31.505  31.647  1.00  0.00     0.029 A 
ATOM     58  N   UNL A   1      43.412  31.428  31.033  1.00  0.00    -0.354 N 
ATOM     59  N   UNL A   1      40.733  32.538  30.580  1.00  0.00    -0.248 NA
ATOM     60  C   UNL A   1      39.215  34.312  30.709  1.00  0.00     0.031 C 
ATOM     61  C   UNL A   1      44.957  32.738  31.943  1.00  0.00     0.029 A 
ATOM     62  C   UNL A   1      43.634  32.703  31.531  1.00  0.00     0.049 A 
ATOM     63  H   UNL A   1      42.556  31.104  30.670  1.00  0.00     0.167 HD
ATOM     64  C   UNL A   1      41.371  33.642  31.133  1.00  0.00     0.074 A 
ATOM     65  C   UNL A   1      40.397  34.717  31.152  1.00  0.00     0.031 C 
ATOM     66  C   UNL A   1      42.647  33.755  31.582  1.00  0.00     0.031 A 
BRANCH  53  67
ATOM     67  C   UNL A   1      45.982  28.560  31.025  1.00  0.00    -0.014 A 
ATOM     68  C   UNL A   1      47.058  28.600  30.118  1.00  0.00     0.010 A 
ATOM     69  C   UNL A   1      46.127  27.828  32.218  1.00  0.00     0.010 A 
ATOM     70  C   UNL A   1      48.223  27.868  30.365  1.00  0.00     0.020 A 
ATOM     71  C   UNL A   1      47.304  27.123  32.486  1.00  0.00     0.020 A 
ATOM     72  C   UNL A   1      48.335  27.126  31.545  1.00  0.00     0.054 A 
BRANCH  72  73
ATOM     73  S   UNL A   1      49.849  26.169  31.831  1.00  0.00     0.124 S 
ATOM     74  O   UNL A   1      50.440  26.135  30.495  1.00  0.00    -0.237 OA
ATOM     75  O   UNL A   1      50.562  26.985  32.812  1.00  0.00    -0.237 OA
ATOM     76  O   UNL A   1      49.362  24.885  32.329  1.00  0.00    -0.744 OA
ENDBRANCH  72  73
ENDBRANCH  53  67
BRANCH  54  77
ATOM     77  C   UNL A   1      37.030  32.742  29.517  1.00  0.00    -0.014 A 
ATOM     78  C   UNL A   1      36.114  32.811  30.580  1.00  0.00     0.010 A 
ATOM     79  C   UNL A   1      36.684  33.313  28.277  1.00  0.00     0.010 A 
ATOM     80  C   UNL A   1      34.880  33.446  30.411  1.00  0.00     0.020 A 
ATOM     81  C   UNL A   1      35.465  33.975  28.113  1.00  0.00     0.020 A 
ATOM     82  C   UNL A   1      34.569  34.036  29.182  1.00  0.00     0.054 A 
BRANCH  82  83
ATOM     83  S   UNL A   1      33.010  34.947  29.018  1.00  0.00     0.124 S 
ATOM     84  O   UNL A   1      32.284  34.139  28.043  1.00  0.00    -0.237 OA
ATOM     85  O   UNL A   1      32.485  34.919  30.381  1.00  0.00    -0.237 OA
ATOM     86  O   UNL A   1      33.431  36.266  28.548  1.00  0.00    -0.744 OA
ENDBRANCH  82  83
ENDBRANCH  54  77
BRANCH  66  87
ATOM     87  C   UNL A   1      43.063  35.099  32.129  1.00  0.00    -0.014 A 
ATOM     88  C   UNL A   1      42.853  35.437  33.478  1.00  0.00     0.010 A 
ATOM     89  C   UNL A   1      43.683  36.033  31.280  1.00  0.00     0.010 A 
ATOM     90  C   UNL A   1      43.199  36.705  33.952  1.00  0.00     0.020 A 
ATOM     91  C   UNL A   1      44.065  37.290  31.759  1.00  0.00     0.020 A 
ATOM     92  C   UNL A   1      43.798  37.626  33.087  1.00  0.00     0.054 A 
BRANCH  92  93
ATOM     93  S   UNL A   1      44.237  39.266  33.725  1.00  0.00     0.124 S 
ATOM     94  O   UNL A   1      44.735  38.948  35.060  1.00  0.00    -0.237 OA
ATOM     95  O   UNL A   1      45.245  39.721  32.771  1.00  0.00    -0.237 OA
ATOM     96  O   UNL A   1      42.976  40.001  33.690  1.00  0.00    -0.744 OA
ENDBRANCH  92  93
ENDBRANCH  66  87
ENDBRANCH  40  41
ENDBRANCH  32  35
ENDBRANCH  30  31
ENDBRANCH  29  30
ENDBRANCH  28  29
ENDBRANCH   1  28
TORSDOF 22
ENDMDL
MODEL 2
REMARK VINA RESULT:     -10.4      2.991      9.628
REMARK SMILES CC(C)(C)OC(=O)N[C@@H](C(=O)NCCCCCCNC(=O)c1ccc(-c2c3nc(c(-c4ccc(S(=O)(=O)[O-])cc4)c4ccc([nH]4)c(-c4ccc(S(=O)(=O)[O-])cc4)c4nc(c(-c5ccc(S(=O)(=O)[O-])cc5)c5ccc2[nH]5)C=C4)C=C3)cc1)[C@H](O)c1ccccc1F
REMARK SMILES IDX 15 1 14 2 13 3 12 4 10 5 11 6 9 8 8 9 6 10 7 11 5 13 2 14
REMARK SMILES IDX 1 15 3 16 4 17 82 18 84 19 85 20 89 21 86 22 88 23 90 24
REMARK SMILES IDX 87 25 83 26 16 28 17 29 18 30 19 31 20 32 21 34 22 35 23 36
REMARK SMILES IDX 81 37 24 38 80 39 25 40 26 41 27 42 74 43 28 44 79 45 73 46
REMARK SMILES IDX 75 47 29 48 78 49 72 50 71 51 30 53 60 54 41 55 59 56 42 57
REMARK SMILES IDX 45 58 58 59 76 60 43 61 44 62 57 64 77 65 46 66 31 67 32 68
REMARK SMILES IDX 40 69 33 70 39 71 34 72 35 73 36 74 37 75 38 76 61 77 62 78
REMARK SMILES IDX 70 79 63 80 69 81 64 82 65 83 66 84 67 85 68 86 47 87 48 88
REMARK SMILES IDX 56 89 49 90 55 91 50 92 51 93 52 94 53 95 54 96
REMARK H PARENT 12 7 8 12 83 27 19 33 75 52 45 63
REMARK Flexibility Score: inf
ROOT
ATOM      1  C   UNL A   1      31.397  27.074  25.585  1.00  0.00     0.002 C 
ENDROOT
BRANCH   1   2
ATOM      2  C   UNL A   1      31.147  25.561  25.627  1.00  0.00     0.021 C 
BRANCH   2   3
ATOM      3  C   UNL A   1      32.178  24.762  24.829  1.00  0.00     0.116 C 
BRANCH   3   4
ATOM      4  N   UNL A   1      31.521  23.751  24.028  1.00  0.00    -0.354 N 
ATOM      5  C   UNL A   1      32.047  22.618  23.478  1.00  0.00     0.245 C 
ATOM      6  O   UNL A   1      31.353  22.007  22.659  1.00  0.00    -0.273 OA
ATOM      7  H   UNL A   1      30.563  23.900  23.856  1.00  0.00     0.163 HD
BRANCH   5   8
ATOM      8  C   UNL A   1      33.458  22.143  23.882  1.00  0.00     0.208 C 
BRANCH   8   9
ATOM      9  N   UNL A   1      33.454  21.792  25.313  1.00  0.00    -0.307 N 
ATOM     10  C   UNL A   1      32.971  20.644  25.869  1.00  0.00     0.408 C 
ATOM     11  O   UNL A   1      33.073  20.437  27.070  1.00  0.00    -0.225 OA
ATOM     12  H   UNL A   1      33.838  22.455  25.932  1.00  0.00     0.168 HD
BRANCH  10  13
ATOM     13  O   UNL A   1      32.356  19.838  24.971  1.00  0.00    -0.444 OA
BRANCH  13  14
ATOM     14  C   UNL A   1      32.966  18.591  24.537  1.00  0.00     0.106 C 
ATOM     15  C   UNL A   1      32.478  18.385  23.092  1.00  0.00     0.056 C 
ATOM     16  C   UNL A   1      32.480  17.399  25.373  1.00  0.00     0.056 C 
ATOM     17  C   UNL A   1      34.492  18.705  24.529  1.00  0.00     0.056 C 
ENDBRANCH  13  14
ENDBRANCH  10  13
ENDBRANCH   8   9
BRANCH   8  18
ATOM     18  C   UNL A   1      34.585  23.189  23.615  1.00  0.00     0.179 C 
BRANCH  18  19
ATOM     19  C   UNL A   1      35.835  22.985  24.439  1.00  0.00     0.019 A 
ATOM     20  C   UNL A   1      36.645  21.860  24.206  1.00  0.00     0.009 A 
ATOM     21  C   UNL A   1      36.235  23.891  25.424  1.00  0.00     0.129 A 
ATOM     22  C   UNL A   1      37.822  21.662  24.931  1.00  0.00     0.001 A 
ATOM     23  C   UNL A   1      37.406  23.696  26.155  1.00  0.00     0.039 A 
ATOM     24  F   UNL A   1      35.504  24.986  25.667  1.00  0.00    -0.207 F 
ATOM     25  C   UNL A   1      38.203  22.580  25.906  1.00  0.00     0.003 A 
ENDBRANCH  18  19
BRANCH  18  26
ATOM     26  O   UNL A   1      34.943  23.422  22.252  1.00  0.00    -0.386 OA
ATOM     27  H   UNL A   1      34.440  24.177  21.910  1.00  0.00     0.211 HD
ENDBRANCH  18  26
ENDBRANCH   8  18
ENDBRANCH   5   8
ENDBRANCH   3   4
ENDBRANCH   2   3
ENDBRANCH   1   2
BRANCH   1  28
ATOM     28  C   UNL A   1      32.326  27.533  24.455  1.00  0.00     0.002 C 
BRANCH  28  29
ATOM     29  C   UNL A   1      33.780  27.760  24.878  1.00  0.00     0.021 C 
BRANCH  29  30
ATOM     30  C   UNL A   1      33.967  27.980  26.376  1.00  0.00     0.116 C 
BRANCH  30  31
ATOM     31  N   UNL A   1      33.612  29.335  26.767  1.00  0.00    -0.352 N 
ATOM     32  C   UNL A   1      34.281  30.216  27.576  1.00  0.00     0.251 C 
ATOM     33  H   UNL A   1      32.765  29.670  26.395  1.00  0.00     0.163 HD
ATOM     34  O   UNL A   1      33.708  31.225  27.980  1.00  0.00    -0.269 OA
BRANCH  32  35
ATOM     35  C   UNL A   1      35.680  29.949  27.972  1.00  0.00     0.039 A 
ATOM     36  C   UNL A   1      35.941  29.565  29.289  1.00  0.00     0.014 A 
ATOM     37  C   UNL A   1      36.732  30.094  27.062  1.00  0.00     0.014 A 
ATOM     38  C   UNL A   1      37.250  29.276  29.677  1.00  0.00     0.010 A 
ATOM     39  C   UNL A   1      38.025  29.726  27.429  1.00  0.00     0.010 A 
ATOM     40  C   UNL A   1      38.299  29.318  28.741  1.00  0.00    -0.014 A 
BRANCH  40  41
ATOM     41  C   UNL A   1      39.669  28.895  29.131  1.00  0.00     0.031 A 
ATOM     42  C   UNL A   1      40.583  29.820  29.884  1.00  0.00     0.074 A 
ATOM     43  C   UNL A   1      40.101  27.672  28.768  1.00  0.00     0.049 A 
ATOM     44  N   UNL A   1      41.785  29.589  30.350  1.00  0.00    -0.248 NA
ATOM     45  C   UNL A   1      40.100  31.188  30.125  1.00  0.00     0.031 C 
ATOM     46  C   UNL A   1      39.333  26.708  27.976  1.00  0.00     0.029 A 
ATOM     47  N   UNL A   1      41.283  27.026  29.022  1.00  0.00    -0.354 N 
ATOM     48  C   UNL A   1      42.204  30.781  30.930  1.00  0.00     0.074 A 
ATOM     49  C   UNL A   1      41.152  31.748  30.704  1.00  0.00     0.031 C 
ATOM     50  C   UNL A   1      40.046  25.579  27.847  1.00  0.00     0.029 A 
ATOM     51  C   UNL A   1      41.335  25.752  28.510  1.00  0.00     0.049 A 
ATOM     52  H   UNL A   1      42.025  27.435  29.525  1.00  0.00     0.167 HD
ATOM     53  C   UNL A   1      43.353  31.042  31.602  1.00  0.00     0.031 A 
ATOM     54  C   UNL A   1      42.306  24.820  28.565  1.00  0.00     0.031 A 
ATOM     55  C   UNL A   1      44.404  30.076  31.805  1.00  0.00     0.049 A 
ATOM     56  C   UNL A   1      43.566  25.124  29.321  1.00  0.00     0.074 A 
ATOM     57  C   UNL A   1      45.576  30.220  32.526  1.00  0.00     0.029 A 
ATOM     58  N   UNL A   1      44.420  28.796  31.270  1.00  0.00    -0.354 N 
ATOM     59  N   UNL A   1      43.905  26.225  29.949  1.00  0.00    -0.248 NA
ATOM     60  C   UNL A   1      44.566  24.051  29.395  1.00  0.00     0.031 C 
ATOM     61  C   UNL A   1      46.333  29.053  32.366  1.00  0.00     0.029 A 
ATOM     62  C   UNL A   1      45.600  28.152  31.611  1.00  0.00     0.049 A 
ATOM     63  H   UNL A   1      43.699  28.402  30.727  1.00  0.00     0.167 HD
ATOM     64  C   UNL A   1      45.154  25.976  30.505  1.00  0.00     0.074 A 
ATOM     65  C   UNL A   1      45.494  24.607  30.162  1.00  0.00     0.031 C 
ATOM     66  C   UNL A   1      45.946  26.803  31.232  1.00  0.00     0.031 A 
BRANCH  53  67
ATOM     67  C   UNL A   1      43.538  32.442  32.137  1.00  0.00    -0.014 A 
ATOM     68  C   UNL A   1      43.173  32.781  33.454  1.00  0.00     0.010 A 
ATOM     69  C   UNL A   1      44.090  33.437  31.310  1.00  0.00     0.010 A 
ATOM     70  C   UNL A   1      43.292  34.097  33.909  1.00  0.00     0.020 A 
ATOM     71  C   UNL A   1      44.244  34.747  31.771  1.00  0.00     0.020 A 
ATOM     72  C   UNL A   1      43.819  35.075  33.060  1.00  0.00     0.054 A 
BRANCH  72  73
ATOM     73  S   UNL A   1      43.945  36.779  33.668  1.00  0.00     0.124 S 
ATOM     74  O   UNL A   1      44.308  37.506  32.454  1.00  0.00    -0.237 OA
ATOM     75  O   UNL A   1      42.599  37.038  34.175  1.00  0.00    -0.237 OA
ATOM     76  O   UNL A   1      44.989  36.709  34.688  1.00  0.00    -0.744 OA
ENDBRANCH  72  73
ENDBRANCH  53  67
BRANCH  54  77
ATOM     77  C   UNL A   1      42.094  23.509  27.892  1.00  0.00    -0.014 A 
ATOM     78  C   UNL A   1      42.470  23.318  26.552  1.00  0.00     0.010 A 
ATOM     79  C   UNL A   1      41.581  22.420  28.621  1.00  0.00     0.010 A 
ATOM     80  C   UNL A   1      42.343  22.061  25.954  1.00  0.00     0.020 A 
ATOM     81  C   UNL A   1      41.481  21.155  28.037  1.00  0.00     0.020 A 
ATOM     82  C   UNL A   1      41.862  20.983  26.705  1.00  0.00     0.054 A 
BRANCH  82  83
ATOM     83  S   UNL A   1      41.807  19.339  25.942  1.00  0.00     0.124 S 
ATOM     84  O   UNL A   1      40.397  19.212  25.589  1.00  0.00    -0.237 OA
ATOM     85  O   UNL A   1      42.731  19.483  24.820  1.00  0.00    -0.237 OA
ATOM     86  O   UNL A   1      42.268  18.451  27.008  1.00  0.00    -0.744 OA
ENDBRANCH  82  83
ENDBRANCH  54  77
BRANCH  66  87
ATOM     87  C   UNL A   1      47.262  26.242  31.714  1.00  0.00    -0.014 A 
ATOM     88  C   UNL A   1      48.418  26.298  30.914  1.00  0.00     0.010 A 
ATOM     89  C   UNL A   1      47.343  25.658  32.991  1.00  0.00     0.010 A 
ATOM     90  C   UNL A   1      49.614  25.728  31.358  1.00  0.00     0.020 A 
ATOM     91  C   UNL A   1      48.547  25.118  33.454  1.00  0.00     0.020 A 
ATOM     92  C   UNL A   1      49.669  25.136  32.624  1.00  0.00     0.054 A 
BRANCH  92  93
ATOM     93  S   UNL A   1      51.232  24.400  33.177  1.00  0.00     0.124 S 
ATOM     94  O   UNL A   1      50.901  23.968  34.532  1.00  0.00    -0.237 OA
ATOM     95  O   UNL A   1      51.441  23.328  32.208  1.00  0.00    -0.237 OA
ATOM     96  O   UNL A   1      52.184  25.505  33.091  1.00  0.00    -0.744 OA
ENDBRANCH  92  93
ENDBRANCH  66  87
ENDBRANCH  40  41
ENDBRANCH  32  35
ENDBRANCH  30  31
ENDBRANCH  29  30
ENDBRANCH  28  29
ENDBRANCH   1  28
TORSDOF 22
ENDMDL
MODEL 3
REMARK VINA RESULT:     -10.4      3.903      9.154
REMARK SMILES CC(C)(C)OC(=O)N[C@@H](C(=O)NCCCCCCNC(=O)c1ccc(-c2c3nc(c(-c4ccc(S(=O)(=O)[O-])cc4)c4ccc([nH]4)c(-c4ccc(S(=O)(=O)[O-])cc4)c4nc(c(-c5ccc(S(=O)(=O)[O-])cc5)c5ccc2[nH]5)C=C4)C=C3)cc1)[C@H](O)c1ccccc1F
REMARK SMILES IDX 15 1 14 2 13 3 12 4 10 5 11 6 9 8 8 9 6 10 7 11 5 13 2 14
REMARK SMILES IDX 1 15 3 16 4 17 82 18 84 19 85 20 89 21 86 22 88 23 90 24
REMARK SMILES IDX 87 25 83 26 16 28 17 29 18 30 19 31 20 32 21 34 22 35 23 36
REMARK SMILES IDX 81 37 24 38 80 39 25 40 26 41 27 42 74 43 28 44 79 45 73 46
REMARK SMILES IDX 75 47 29 48 78 49 72 50 71 51 30 53 60 54 41 55 59 56 42 57
REMARK SMILES IDX 45 58 58 59 76 60 43 61 44 62 57 64 77 65 46 66 31 67 32 68
REMARK SMILES IDX 40 69 33 70 39 71 34 72 35 73 36 74 37 75 38 76 61 77 62 78
REMARK SMILES IDX 70 79 63 80 69 81 64 82 65 83 66 84 67 85 68 86 47 87 48 88
REMARK SMILES IDX 56 89 49 90 55 91 50 92 51 93 52 94 53 95 54 96
REMARK H PARENT 12 7 8 12 83 27 19 33 75 52 45 63
REMARK Flexibility Score: inf
ROOT
ATOM      1  C   UNL A   1      36.243  22.646  24.313  1.00  0.00     0.002 C 
ENDROOT
BRANCH   1   2
ATOM      2  C   UNL A   1      35.524  23.998  24.226  1.00  0.00     0.021 C 
BRANCH   2   3
ATOM      3  C   UNL A   1      34.127  23.895  23.613  1.00  0.00     0.116 C 
BRANCH   3   4
ATOM      4  N   UNL A   1      34.061  24.654  22.382  1.00  0.00    -0.354 N 
ATOM      5  C   UNL A   1      33.361  25.795  22.115  1.00  0.00     0.245 C 
ATOM      6  O   UNL A   1      33.286  26.155  20.936  1.00  0.00    -0.273 OA
ATOM      7  H   UNL A   1      34.594  24.298  21.634  1.00  0.00     0.163 HD
BRANCH   5   8
ATOM      8  C   UNL A   1      32.699  26.584  23.263  1.00  0.00     0.208 C 
BRANCH   8   9
ATOM      9  N   UNL A   1      31.235  26.486  23.130  1.00  0.00    -0.307 N 
ATOM     10  C   UNL A   1      30.408  25.651  23.822  1.00  0.00     0.408 C 
ATOM     11  O   UNL A   1      29.196  25.698  23.666  1.00  0.00    -0.225 OA
ATOM     12  H   UNL A   1      30.810  27.085  22.474  1.00  0.00     0.168 HD
BRANCH  10  13
ATOM     13  O   UNL A   1      31.075  24.781  24.615  1.00  0.00    -0.444 OA
BRANCH  13  14
ATOM     14  C   UNL A   1      31.101  24.946  26.060  1.00  0.00     0.106 C 
ATOM     15  C   UNL A   1      29.997  24.017  26.593  1.00  0.00     0.056 C 
ATOM     16  C   UNL A   1      30.750  26.382  26.474  1.00  0.00     0.056 C 
ATOM     17  C   UNL A   1      32.445  24.494  26.636  1.00  0.00     0.056 C 
ENDBRANCH  13  14
ENDBRANCH  10  13
ENDBRANCH   8   9
BRANCH   8  18
ATOM     18  C   UNL A   1      33.108  28.089  23.324  1.00  0.00     0.179 C 
BRANCH  18  19
ATOM     19  C   UNL A   1      32.999  28.712  24.696  1.00  0.00     0.019 A 
ATOM     20  C   UNL A   1      34.018  28.495  25.640  1.00  0.00     0.009 A 
ATOM     21  C   UNL A   1      31.923  29.520  25.064  1.00  0.00     0.129 A 
ATOM     22  C   UNL A   1      33.960  29.083  26.905  1.00  0.00     0.001 A 
ATOM     23  C   UNL A   1      31.855  30.106  26.327  1.00  0.00     0.039 A 
ATOM     24  F   UNL A   1      30.938  29.768  24.191  1.00  0.00    -0.207 F 
ATOM     25  C   UNL A   1      32.877  29.889  27.250  1.00  0.00     0.003 A 
ENDBRANCH  18  19
BRANCH  18  26
ATOM     26  O   UNL A   1      34.360  28.443  22.735  1.00  0.00    -0.386 OA
ATOM     27  H   UNL A   1      34.560  29.371  22.932  1.00  0.00     0.211 HD
ENDBRANCH  18  26
ENDBRANCH   8  18
ENDBRANCH   5   8
ENDBRANCH   3   4
ENDBRANCH   2   3
ENDBRANCH   1   2
BRANCH   1  28
ATOM     28  C   UNL A   1      37.432  22.619  25.280  1.00  0.00     0.002 C 
BRANCH  28  29
ATOM     29  C   UNL A   1      37.574  23.870  26.151  1.00  0.00     0.021 C 
BRANCH  29  30
ATOM     30  C   UNL A   1      38.912  23.976  26.878  1.00  0.00     0.116 C 
BRANCH  30  31
ATOM     31  N   UNL A   1      39.958  24.479  26.003  1.00  0.00    -0.352 N 
ATOM     32  C   UNL A   1      40.693  25.633  26.090  1.00  0.00     0.251 C 
ATOM     33  H   UNL A   1      40.171  23.905  25.232  1.00  0.00     0.163 HD
ATOM     34  O   UNL A   1      41.362  26.000  25.128  1.00  0.00    -0.269 OA
BRANCH  32  35
ATOM     35  C   UNL A   1      40.670  26.438  27.330  1.00  0.00     0.039 A 
ATOM     36  C   UNL A   1      41.538  27.526  27.438  1.00  0.00     0.014 A 
ATOM     37  C   UNL A   1      39.816  26.114  28.389  1.00  0.00     0.014 A 
ATOM     38  C   UNL A   1      41.511  28.319  28.585  1.00  0.00     0.010 A 
ATOM     39  C   UNL A   1      39.733  26.955  29.498  1.00  0.00     0.010 A 
ATOM     40  C   UNL A   1      40.583  28.063  29.610  1.00  0.00    -0.014 A 
BRANCH  40  41
ATOM     41  C   UNL A   1      40.479  28.980  30.774  1.00  0.00     0.031 A 
ATOM     42  C   UNL A   1      39.431  30.056  30.826  1.00  0.00     0.074 A 
ATOM     43  C   UNL A   1      41.368  28.858  31.779  1.00  0.00     0.049 A 
ATOM     44  N   UNL A   1      39.168  30.901  31.791  1.00  0.00    -0.248 NA
ATOM     45  C   UNL A   1      38.585  30.223  29.635  1.00  0.00     0.031 C 
ATOM     46  C   UNL A   1      42.475  27.899  31.814  1.00  0.00     0.029 A 
ATOM     47  N   UNL A   1      41.478  29.536  32.967  1.00  0.00    -0.354 N 
ATOM     48  C   UNL A   1      38.134  31.704  31.322  1.00  0.00     0.074 A 
ATOM     49  C   UNL A   1      37.861  31.282  29.965  1.00  0.00     0.031 C 
ATOM     50  C   UNL A   1      43.123  28.020  32.982  1.00  0.00     0.029 A 
ATOM     51  C   UNL A   1      42.507  29.090  33.761  1.00  0.00     0.049 A 
ATOM     52  H   UNL A   1      40.877  30.271  33.226  1.00  0.00     0.167 HD
ATOM     53  C   UNL A   1      37.465  32.692  31.967  1.00  0.00     0.031 A 
ATOM     54  C   UNL A   1      42.915  29.490  34.981  1.00  0.00     0.031 A 
ATOM     55  C   UNL A   1      37.758  33.117  33.312  1.00  0.00     0.049 A 
ATOM     56  C   UNL A   1      42.155  30.577  35.682  1.00  0.00     0.074 A 
ATOM     57  C   UNL A   1      37.098  34.062  34.079  1.00  0.00     0.029 A 
ATOM     58  N   UNL A   1      38.809  32.642  34.084  1.00  0.00    -0.354 N 
ATOM     59  N   UNL A   1      41.116  31.260  35.262  1.00  0.00    -0.248 NA
ATOM     60  C   UNL A   1      42.609  30.934  37.032  1.00  0.00     0.031 C 
ATOM     61  C   UNL A   1      37.794  34.210  35.284  1.00  0.00     0.029 A 
ATOM     62  C   UNL A   1      38.841  33.302  35.304  1.00  0.00     0.049 A 
ATOM     63  H   UNL A   1      39.440  31.939  33.806  1.00  0.00     0.167 HD
ATOM     64  C   UNL A   1      40.783  32.121  36.300  1.00  0.00     0.074 A 
ATOM     65  C   UNL A   1      41.714  31.849  37.379  1.00  0.00     0.031 C 
ATOM     66  C   UNL A   1      39.796  33.051  36.357  1.00  0.00     0.031 A 
BRANCH  53  67
ATOM     67  C   UNL A   1      36.369  33.396  31.203  1.00  0.00    -0.014 A 
ATOM     68  C   UNL A   1      36.588  33.916  29.913  1.00  0.00     0.010 A 
ATOM     69  C   UNL A   1      35.095  33.538  31.784  1.00  0.00     0.010 A 
ATOM     70  C   UNL A   1      35.580  34.622  29.250  1.00  0.00     0.020 A 
ATOM     71  C   UNL A   1      34.072  34.212  31.111  1.00  0.00     0.020 A 
ATOM     72  C   UNL A   1      34.329  34.773  29.858  1.00  0.00     0.054 A 
BRANCH  72  73
ATOM     73  S   UNL A   1      33.045  35.710  28.985  1.00  0.00     0.124 S 
ATOM     74  O   UNL A   1      33.838  36.682  28.236  1.00  0.00    -0.237 OA
ATOM     75  O   UNL A   1      32.390  34.682  28.180  1.00  0.00    -0.237 OA
ATOM     76  O   UNL A   1      32.229  36.269  30.060  1.00  0.00    -0.744 OA
ENDBRANCH  72  73
ENDBRANCH  53  67
BRANCH  54  77
ATOM     77  C   UNL A   1      44.092  28.830  35.606  1.00  0.00    -0.014 A 
ATOM     78  C   UNL A   1      45.379  29.378  35.476  1.00  0.00     0.010 A 
ATOM     79  C   UNL A   1      43.914  27.683  36.403  1.00  0.00     0.010 A 
ATOM     80  C   UNL A   1      46.466  28.795  36.136  1.00  0.00     0.020 A 
ATOM     81  C   UNL A   1      44.991  27.116  37.088  1.00  0.00     0.020 A 
ATOM     82  C   UNL A   1      46.262  27.676  36.950  1.00  0.00     0.054 A 
BRANCH  82  83
ATOM     83  S   UNL A   1      47.666  27.004  37.880  1.00  0.00     0.124 S 
ATOM     84  O   UNL A   1      47.676  27.847  39.071  1.00  0.00    -0.237 OA
ATOM     85  O   UNL A   1      47.266  25.614  38.091  1.00  0.00    -0.237 OA
ATOM     86  O   UNL A   1      48.797  27.188  36.973  1.00  0.00    -0.744 OA
ENDBRANCH  82  83
ENDBRANCH  54  77
BRANCH  66  87
ATOM     87  C   UNL A   1      39.670  33.840  37.637  1.00  0.00    -0.014 A 
ATOM     88  C   UNL A   1      39.017  33.307  38.763  1.00  0.00     0.010 A 
ATOM     89  C   UNL A   1      40.224  35.130  37.716  1.00  0.00     0.010 A 
ATOM     90  C   UNL A   1      38.867  34.073  39.923  1.00  0.00     0.020 A 
ATOM     91  C   UNL A   1      40.109  35.886  38.887  1.00  0.00     0.020 A 
ATOM     92  C   UNL A   1      39.410  35.361  39.974  1.00  0.00     0.054 A 
BRANCH  92  93
ATOM     93  S   UNL A   1      39.201  36.335  41.489  1.00  0.00     0.124 S 
ATOM     94  O   UNL A   1      39.033  37.686  40.960  1.00  0.00    -0.237 OA
ATOM     95  O   UNL A   1      38.008  35.742  42.089  1.00  0.00    -0.237 OA
ATOM     96  O   UNL A   1      40.442  36.104  42.224  1.00  0.00    -0.744 OA
ENDBRANCH  92  93
ENDBRANCH  66  87
ENDBRANCH  40  41
ENDBRANCH  32  35
ENDBRANCH  30  31
ENDBRANCH  29  30
ENDBRANCH  28  29
ENDBRANCH   1  28
TORSDOF 22
ENDMDL
