MODEL 1
REMARK VINA RESULT:     -11.4      0.000      0.000
REMARK SMILES O=C(COc1ccccc1/C=C1\C(=O)Nc2ccccc21)NCCCCCCNC(=O)c1ccc(-c2c3nc(c(-c4ccc(S(=O)(=O)[O-])cc4)c4ccc([nH]4)c(-c4ccc(S(=O)(=O)[O-])cc4)c4nc(c(-c5ccc(S(=O)(=O)[O-])cc5)c5ccc2[nH]5)C=C4)C=C3)cc1
REMARK SMILES IDX 25 1 24 2 23 3 22 4 1 5 2 6 3 8 4 9 5 10 6 11 10 12 7 13
REMARK SMILES IDX 9 14 8 15 11 16 12 17 13 18 21 19 14 20 15 21 16 22 20 23
REMARK SMILES IDX 17 25 19 26 18 27 26 28 27 29 28 30 29 31 30 32 31 34 32 35
REMARK SMILES IDX 33 36 91 37 34 38 90 39 35 40 36 41 37 42 84 43 38 44 89 45
REMARK SMILES IDX 83 46 85 47 39 48 88 49 82 50 81 51 40 53 70 54 51 55 69 56
REMARK SMILES IDX 52 57 55 58 68 59 86 60 53 61 54 62 67 64 87 65 56 66 41 67
REMARK SMILES IDX 42 68 50 69 43 70 49 71 44 72 45 73 46 74 47 75 48 76 71 77
REMARK SMILES IDX 72 78 80 79 73 80 79 81 74 82 75 83 76 84 77 85 78 86 57 87
REMARK SMILES IDX 58 88 66 89 59 90 65 91 60 92 61 93 62 94 63 95 64 96
REMARK H PARENT 22 7 15 24 29 33 85 52 55 63
REMARK Flexibility Score: inf
ROOT
ATOM      1  C   UNL A   1      34.030  26.405  24.379  1.00  0.00     0.002 C 
ENDROOT
BRANCH   1   2
ATOM      2  C   UNL A   1      34.087  25.360  25.495  1.00  0.00     0.021 C 
BRANCH   2   3
ATOM      3  C   UNL A   1      35.380  24.574  25.611  1.00  0.00     0.116 C 
BRANCH   3   4
ATOM      4  N   UNL A   1      35.257  23.149  25.436  1.00  0.00    -0.353 N 
ATOM      5  O   UNL A   1      35.566  23.073  23.150  1.00  0.00    -0.271 OA
ATOM      6  C   UNL A   1      35.577  22.518  24.243  1.00  0.00     0.257 C 
ATOM      7  H   UNL A   1      34.933  22.604  26.189  1.00  0.00     0.163 HD
BRANCH   6   8
ATOM      8  C   UNL A   1      35.993  21.056  24.424  1.00  0.00     0.329 C 
BRANCH   8   9
ATOM      9  O   UNL A   1      35.089  20.507  25.384  1.00  0.00    -0.483 OA
BRANCH   9  10
ATOM     10  C   UNL A   1      34.216  19.567  24.898  1.00  0.00     0.127 A 
ATOM     11  C   UNL A   1      34.792  18.333  24.564  1.00  0.00     0.047 A 
ATOM     12  C   UNL A   1      32.917  19.923  24.466  1.00  0.00     0.017 A 
ATOM     13  C   UNL A   1      34.116  17.456  23.725  1.00  0.00     0.004 A 
ATOM     14  C   UNL A   1      32.334  19.077  23.517  1.00  0.00     0.012 A 
ATOM     15  C   UNL A   1      32.909  17.850  23.164  1.00  0.00     0.001 A 
BRANCH  12  16
ATOM     16  C   UNL A   1      32.228  21.152  24.942  1.00  0.00     0.026 C 
ATOM     17  C   UNL A   1      31.825  22.259  24.279  1.00  0.00     0.050 C 
ATOM     18  C   UNL A   1      32.007  22.642  22.820  1.00  0.00     0.256 C 
ATOM     19  C   UNL A   1      31.106  23.401  24.895  1.00  0.00     0.011 A 
ATOM     20  O   UNL A   1      32.426  21.983  21.891  1.00  0.00    -0.269 OA
ATOM     21  N   UNL A   1      31.553  23.947  22.721  1.00  0.00    -0.321 N 
ATOM     22  C   UNL A   1      31.006  24.390  23.914  1.00  0.00     0.049 A 
ATOM     23  C   UNL A   1      30.513  23.615  26.127  1.00  0.00     0.011 A 
ATOM     24  H   UNL A   1      31.613  24.493  21.904  1.00  0.00     0.170 HD
ATOM     25  C   UNL A   1      30.385  25.608  24.122  1.00  0.00     0.027 A 
ATOM     26  C   UNL A   1      29.872  24.841  26.367  1.00  0.00     0.001 A 
ATOM     27  C   UNL A   1      29.816  25.832  25.375  1.00  0.00     0.002 A 
ENDBRANCH  12  16
ENDBRANCH   9  10
ENDBRANCH   8   9
ENDBRANCH   6   8
ENDBRANCH   3   4
ENDBRANCH   2   3
ENDBRANCH   1   2
BRANCH   1  28
ATOM     28  C   UNL A   1      33.619  27.828  24.771  1.00  0.00     0.002 C 
BRANCH  28  29
ATOM     29  C   UNL A   1      32.755  27.984  26.024  1.00  0.00     0.021 C 
BRANCH  29  30
ATOM     30  C   UNL A   1      33.461  28.479  27.282  1.00  0.00     0.116 C 
BRANCH  30  31
ATOM     31  N   UNL A   1      33.509  29.925  27.396  1.00  0.00    -0.352 N 
ATOM     32  C   UNL A   1      34.543  30.727  27.818  1.00  0.00     0.251 C 
ATOM     33  H   UNL A   1      32.686  30.399  27.134  1.00  0.00     0.163 HD
ATOM     34  O   UNL A   1      34.376  31.940  27.921  1.00  0.00    -0.269 OA
BRANCH  32  35
ATOM     35  C   UNL A   1      35.844  30.125  28.189  1.00  0.00     0.039 A 
ATOM     36  C   UNL A   1      36.861  30.077  27.230  1.00  0.00     0.014 A 
ATOM     37  C   UNL A   1      36.069  29.619  29.472  1.00  0.00     0.014 A 
ATOM     38  C   UNL A   1      38.125  29.589  27.578  1.00  0.00     0.010 A 
ATOM     39  C   UNL A   1      37.345  29.189  29.833  1.00  0.00     0.010 A 
ATOM     40  C   UNL A   1      38.388  29.175  28.893  1.00  0.00    -0.014 A 
BRANCH  40  41
ATOM     41  C   UNL A   1      39.743  28.731  29.313  1.00  0.00     0.031 A 
ATOM     42  C   UNL A   1      40.656  29.682  30.041  1.00  0.00     0.074 A 
ATOM     43  C   UNL A   1      40.185  27.506  28.964  1.00  0.00     0.049 A 
ATOM     44  N   UNL A   1      41.908  29.523  30.382  1.00  0.00    -0.248 NA
ATOM     45  C   UNL A   1      40.094  30.993  30.412  1.00  0.00     0.031 C 
ATOM     46  C   UNL A   1      39.413  26.501  28.229  1.00  0.00     0.029 A 
ATOM     47  N   UNL A   1      41.402  26.902  29.165  1.00  0.00    -0.354 N 
ATOM     48  C   UNL A   1      42.295  30.719  30.974  1.00  0.00     0.074 A 
ATOM     49  C   UNL A   1      41.153  31.605  30.925  1.00  0.00     0.031 C 
ATOM     50  C   UNL A   1      40.169  25.405  28.052  1.00  0.00     0.029 A 
ATOM     51  C   UNL A   1      41.492  25.641  28.621  1.00  0.00     0.049 A 
ATOM     52  H   UNL A   1      42.142  27.331  29.654  1.00  0.00     0.167 HD
ATOM     53  C   UNL A   1      43.491  31.047  31.518  1.00  0.00     0.031 A 
ATOM     54  C   UNL A   1      42.527  24.779  28.571  1.00  0.00     0.031 A 
ATOM     55  C   UNL A   1      44.614  30.153  31.604  1.00  0.00     0.049 A 
ATOM     56  C   UNL A   1      43.842  25.169  29.193  1.00  0.00     0.074 A 
ATOM     57  C   UNL A   1      45.839  30.369  32.211  1.00  0.00     0.029 A 
ATOM     58  N   UNL A   1      44.650  28.874  31.073  1.00  0.00    -0.354 N 
ATOM     59  N   UNL A   1      44.163  26.280  29.810  1.00  0.00    -0.248 NA
ATOM     60  C   UNL A   1      44.932  24.184  29.117  1.00  0.00     0.031 C 
ATOM     61  C   UNL A   1      46.633  29.237  32.009  1.00  0.00     0.029 A 
ATOM     62  C   UNL A   1      45.885  28.298  31.318  1.00  0.00     0.049 A 
ATOM     63  H   UNL A   1      43.909  28.440  30.592  1.00  0.00     0.167 HD
ATOM     64  C   UNL A   1      45.480  26.113  30.227  1.00  0.00     0.074 A 
ATOM     65  C   UNL A   1      45.893  24.793  29.798  1.00  0.00     0.031 C 
ATOM     66  C   UNL A   1      46.273  26.975  30.906  1.00  0.00     0.031 A 
BRANCH  53  67
ATOM     67  C   UNL A   1      43.660  32.438  32.068  1.00  0.00    -0.014 A 
ATOM     68  C   UNL A   1      43.259  32.756  33.377  1.00  0.00     0.010 A 
ATOM     69  C   UNL A   1      44.308  33.417  31.291  1.00  0.00     0.010 A 
ATOM     70  C   UNL A   1      43.485  34.034  33.894  1.00  0.00     0.020 A 
ATOM     71  C   UNL A   1      44.556  34.689  31.812  1.00  0.00     0.020 A 
ATOM     72  C   UNL A   1      44.134  34.992  33.108  1.00  0.00     0.054 A 
BRANCH  72  73
ATOM     73  S   UNL A   1      44.466  36.626  33.825  1.00  0.00     0.124 S 
ATOM     74  O   UNL A   1      45.848  36.859  33.413  1.00  0.00    -0.237 OA
ATOM     75  O   UNL A   1      43.468  37.471  33.174  1.00  0.00    -0.237 OA
ATOM     76  O   UNL A   1      44.269  36.423  35.257  1.00  0.00    -0.744 OA
ENDBRANCH  72  73
ENDBRANCH  53  67
BRANCH  54  77
ATOM     77  C   UNL A   1      42.376  23.457  27.903  1.00  0.00    -0.014 A 
ATOM     78  C   UNL A   1      41.823  22.366  28.598  1.00  0.00     0.010 A 
ATOM     79  C   UNL A   1      42.816  23.273  26.580  1.00  0.00     0.010 A 
ATOM     80  C   UNL A   1      41.751  21.107  27.996  1.00  0.00     0.020 A 
ATOM     81  C   UNL A   1      42.720  22.021  25.966  1.00  0.00     0.020 A 
ATOM     82  C   UNL A   1      42.206  20.940  26.686  1.00  0.00     0.054 A 
BRANCH  82  83
ATOM     83  S   UNL A   1      42.097  19.300  25.918  1.00  0.00     0.124 S 
ATOM     84  O   UNL A   1      40.663  19.174  25.678  1.00  0.00    -0.237 OA
ATOM     85  O   UNL A   1      42.929  19.449  24.726  1.00  0.00    -0.237 OA
ATOM     86  O   UNL A   1      42.642  18.410  26.942  1.00  0.00    -0.744 OA
ENDBRANCH  82  83
ENDBRANCH  54  77
BRANCH  66  87
ATOM     87  C   UNL A   1      47.653  26.507  31.279  1.00  0.00    -0.014 A 
ATOM     88  C   UNL A   1      47.914  25.932  32.534  1.00  0.00     0.010 A 
ATOM     89  C   UNL A   1      48.687  26.577  30.326  1.00  0.00     0.010 A 
ATOM     90  C   UNL A   1      49.191  25.452  32.837  1.00  0.00     0.020 A 
ATOM     91  C   UNL A   1      49.958  26.079  30.618  1.00  0.00     0.020 A 
ATOM     92  C   UNL A   1      50.205  25.527  31.877  1.00  0.00     0.054 A 
BRANCH  92  93
ATOM     93  S   UNL A   1      51.837  24.842  32.271  1.00  0.00     0.124 S 
ATOM     94  O   UNL A   1      52.694  25.522  31.303  1.00  0.00    -0.237 OA
ATOM     95  O   UNL A   1      52.025  25.238  33.664  1.00  0.00    -0.237 OA
ATOM     96  O   UNL A   1      51.671  23.407  32.055  1.00  0.00    -0.744 OA
ENDBRANCH  92  93
ENDBRANCH  66  87
ENDBRANCH  40  41
ENDBRANCH  32  35
ENDBRANCH  30  31
ENDBRANCH  29  30
ENDBRANCH  28  29
ENDBRANCH   1  28
TORSDOF 19
ENDMDL
MODEL 2
REMARK VINA RESULT:     -10.9      0.582      7.959
REMARK SMILES O=C(COc1ccccc1/C=C1\C(=O)Nc2ccccc21)NCCCCCCNC(=O)c1ccc(-c2c3nc(c(-c4ccc(S(=O)(=O)[O-])cc4)c4ccc([nH]4)c(-c4ccc(S(=O)(=O)[O-])cc4)c4nc(c(-c5ccc(S(=O)(=O)[O-])cc5)c5ccc2[nH]5)C=C4)C=C3)cc1
REMARK SMILES IDX 25 1 24 2 23 3 22 4 1 5 2 6 3 8 4 9 5 10 6 11 10 12 7 13
REMARK SMILES IDX 9 14 8 15 11 16 12 17 13 18 21 19 14 20 15 21 16 22 20 23
REMARK SMILES IDX 17 25 19 26 18 27 26 28 27 29 28 30 29 31 30 32 31 34 32 35
REMARK SMILES IDX 33 36 91 37 34 38 90 39 35 40 36 41 37 42 84 43 38 44 89 45
REMARK SMILES IDX 83 46 85 47 39 48 88 49 82 50 81 51 40 53 70 54 51 55 69 56
REMARK SMILES IDX 52 57 55 58 68 59 86 60 53 61 54 62 67 64 87 65 56 66 41 67
REMARK SMILES IDX 42 68 50 69 43 70 49 71 44 72 45 73 46 74 47 75 48 76 71 77
REMARK SMILES IDX 72 78 80 79 73 80 79 81 74 82 75 83 76 84 77 85 78 86 57 87
REMARK SMILES IDX 58 88 66 89 59 90 65 91 60 92 61 93 62 94 63 95 64 96
REMARK H PARENT 22 7 15 24 29 33 85 52 55 63
REMARK Flexibility Score: inf
ROOT
ATOM      1  C   UNL A   1      34.029  26.097  24.490  1.00  0.00     0.002 C 
ENDROOT
BRANCH   1   2
ATOM      2  C   UNL A   1      34.156  25.207  25.728  1.00  0.00     0.021 C 
BRANCH   2   3
ATOM      3  C   UNL A   1      35.403  24.345  25.809  1.00  0.00     0.116 C 
BRANCH   3   4
ATOM      4  N   UNL A   1      35.241  22.982  25.371  1.00  0.00    -0.353 N 
ATOM      5  O   UNL A   1      36.149  23.207  23.260  1.00  0.00    -0.271 OA
ATOM      6  C   UNL A   1      35.830  22.501  24.211  1.00  0.00     0.257 C 
ATOM      7  H   UNL A   1      34.694  22.370  25.914  1.00  0.00     0.163 HD
BRANCH   6   8
ATOM      8  C   UNL A   1      36.089  20.992  24.244  1.00  0.00     0.329 C 
BRANCH   8   9
ATOM      9  O   UNL A   1      35.239  20.470  25.267  1.00  0.00    -0.483 OA
BRANCH   9  10
ATOM     10  C   UNL A   1      34.364  19.496  24.862  1.00  0.00     0.127 A 
ATOM     11  C   UNL A   1      34.951  18.268  24.524  1.00  0.00     0.047 A 
ATOM     12  C   UNL A   1      33.031  19.806  24.505  1.00  0.00     0.017 A 
ATOM     13  C   UNL A   1      34.247  17.351  23.752  1.00  0.00     0.004 A 
ATOM     14  C   UNL A   1      32.412  18.920  23.617  1.00  0.00     0.012 A 
ATOM     15  C   UNL A   1      32.996  17.699  23.259  1.00  0.00     0.001 A 
BRANCH  12  16
ATOM     16  C   UNL A   1      32.340  21.030  24.992  1.00  0.00     0.026 C 
ATOM     17  C   UNL A   1      31.897  22.124  24.332  1.00  0.00     0.050 C 
ATOM     18  C   UNL A   1      32.022  22.494  22.863  1.00  0.00     0.256 C 
ATOM     19  C   UNL A   1      31.182  23.261  24.961  1.00  0.00     0.011 A 
ATOM     20  O   UNL A   1      32.419  21.831  21.927  1.00  0.00    -0.269 OA
ATOM     21  N   UNL A   1      31.545  23.790  22.767  1.00  0.00    -0.321 N 
ATOM     22  C   UNL A   1      31.033  24.238  23.974  1.00  0.00     0.049 A 
ATOM     23  C   UNL A   1      30.629  23.480  26.210  1.00  0.00     0.011 A 
ATOM     24  H   UNL A   1      31.568  24.328  21.942  1.00  0.00     0.170 HD
ATOM     25  C   UNL A   1      30.402  25.449  24.191  1.00  0.00     0.027 A 
ATOM     26  C   UNL A   1      29.979  24.698  26.460  1.00  0.00     0.001 A 
ATOM     27  C   UNL A   1      29.873  25.678  25.461  1.00  0.00     0.002 A 
ENDBRANCH  12  16
ENDBRANCH   9  10
ENDBRANCH   8   9
ENDBRANCH   6   8
ENDBRANCH   3   4
ENDBRANCH   2   3
ENDBRANCH   1   2
BRANCH   1  28
ATOM     28  C   UNL A   1      33.584  27.546  24.709  1.00  0.00     0.002 C 
BRANCH  28  29
ATOM     29  C   UNL A   1      32.837  27.857  26.007  1.00  0.00     0.021 C 
BRANCH  29  30
ATOM     30  C   UNL A   1      33.690  28.260  27.206  1.00  0.00     0.116 C 
BRANCH  30  31
ATOM     31  N   UNL A   1      33.526  29.648  27.600  1.00  0.00    -0.352 N 
ATOM     32  C   UNL A   1      34.451  30.509  28.142  1.00  0.00     0.251 C 
ATOM     33  H   UNL A   1      32.627  30.025  27.460  1.00  0.00     0.163 HD
ATOM     34  O   UNL A   1      34.110  31.638  28.485  1.00  0.00    -0.269 OA
BRANCH  32  35
ATOM     35  C   UNL A   1      35.848  30.063  28.349  1.00  0.00     0.039 A 
ATOM     36  C   UNL A   1      36.736  30.108  27.270  1.00  0.00     0.014 A 
ATOM     37  C   UNL A   1      36.286  29.612  29.597  1.00  0.00     0.014 A 
ATOM     38  C   UNL A   1      38.080  29.771  27.458  1.00  0.00     0.010 A 
ATOM     39  C   UNL A   1      37.638  29.333  29.797  1.00  0.00     0.010 A 
ATOM     40  C   UNL A   1      38.550  29.416  28.733  1.00  0.00    -0.014 A 
BRANCH  40  41
ATOM     41  C   UNL A   1      39.988  29.133  28.981  1.00  0.00     0.031 A 
ATOM     42  C   UNL A   1      40.568  27.795  28.609  1.00  0.00     0.074 A 
ATOM     43  C   UNL A   1      40.749  30.045  29.620  1.00  0.00     0.049 A 
ATOM     44  N   UNL A   1      41.761  27.317  28.853  1.00  0.00    -0.248 NA
ATOM     45  C   UNL A   1      39.684  26.860  27.891  1.00  0.00     0.031 C 
ATOM     46  C   UNL A   1      40.300  31.367  30.064  1.00  0.00     0.029 A 
ATOM     47  N   UNL A   1      42.061  29.990  30.024  1.00  0.00    -0.354 N 
ATOM     48  C   UNL A   1      41.761  26.021  28.352  1.00  0.00     0.074 A 
ATOM     49  C   UNL A   1      40.442  25.776  27.812  1.00  0.00     0.031 C 
ATOM     50  C   UNL A   1      41.320  32.000  30.667  1.00  0.00     0.029 A 
ATOM     51  C   UNL A   1      42.482  31.118  30.692  1.00  0.00     0.049 A 
ATOM     52  H   UNL A   1      42.646  29.217  29.852  1.00  0.00     0.167 HD
ATOM     53  C   UNL A   1      42.772  25.120  28.337  1.00  0.00     0.031 A 
ATOM     54  C   UNL A   1      43.664  31.403  31.273  1.00  0.00     0.031 A 
ATOM     55  C   UNL A   1      44.095  25.377  28.836  1.00  0.00     0.049 A 
ATOM     56  C   UNL A   1      44.772  30.383  31.231  1.00  0.00     0.074 A 
ATOM     57  C   UNL A   1      45.206  24.553  28.788  1.00  0.00     0.029 A 
ATOM     58  N   UNL A   1      44.488  26.544  29.472  1.00  0.00    -0.354 N 
ATOM     59  N   UNL A   1      44.771  29.189  30.689  1.00  0.00    -0.248 NA
ATOM     60  C   UNL A   1      46.042  30.754  31.873  1.00  0.00     0.031 C 
ATOM     61  C   UNL A   1      46.261  25.204  29.434  1.00  0.00     0.029 A 
ATOM     62  C   UNL A   1      45.819  26.452  29.841  1.00  0.00     0.049 A 
ATOM     63  H   UNL A   1      43.907  27.321  29.637  1.00  0.00     0.167 HD
ATOM     64  C   UNL A   1      46.050  28.682  30.893  1.00  0.00     0.074 A 
ATOM     65  C   UNL A   1      46.799  29.698  31.602  1.00  0.00     0.031 C 
ATOM     66  C   UNL A   1      46.557  27.482  30.525  1.00  0.00     0.031 A 
BRANCH  53  67
ATOM     67  C   UNL A   1      42.495  23.758  27.758  1.00  0.00    -0.014 A 
ATOM     68  C   UNL A   1      42.664  23.501  26.387  1.00  0.00     0.010 A 
ATOM     69  C   UNL A   1      42.142  22.699  28.617  1.00  0.00     0.010 A 
ATOM     70  C   UNL A   1      42.466  22.214  25.880  1.00  0.00     0.020 A 
ATOM     71  C   UNL A   1      41.966  21.406  28.117  1.00  0.00     0.020 A 
ATOM     72  C   UNL A   1      42.121  21.174  26.749  1.00  0.00     0.054 A 
BRANCH  72  73
ATOM     73  S   UNL A   1      41.927  19.502  26.072  1.00  0.00     0.124 S 
ATOM     74  O   UNL A   1      40.510  19.483  25.719  1.00  0.00    -0.237 OA
ATOM     75  O   UNL A   1      42.854  19.503  24.944  1.00  0.00    -0.237 OA
ATOM     76  O   UNL A   1      42.303  18.632  27.183  1.00  0.00    -0.744 OA
ENDBRANCH  72  73
ENDBRANCH  53  67
BRANCH  54  77
ATOM     77  C   UNL A   1      43.873  32.709  31.957  1.00  0.00    -0.014 A 
ATOM     78  C   UNL A   1      43.579  32.851  33.325  1.00  0.00     0.010 A 
ATOM     79  C   UNL A   1      44.334  33.826  31.237  1.00  0.00     0.010 A 
ATOM     80  C   UNL A   1      43.703  34.095  33.950  1.00  0.00     0.020 A 
ATOM     81  C   UNL A   1      44.485  35.065  31.866  1.00  0.00     0.020 A 
ATOM     82  C   UNL A   1      44.149  35.196  33.214  1.00  0.00     0.054 A 
BRANCH  82  83
ATOM     83  S   UNL A   1      44.312  36.801  34.044  1.00  0.00     0.124 S 
ATOM     84  O   UNL A   1      45.373  37.436  33.268  1.00  0.00    -0.237 OA
ATOM     85  O   UNL A   1      42.980  37.379  33.886  1.00  0.00    -0.237 OA
ATOM     86  O   UNL A   1      44.669  36.439  35.415  1.00  0.00    -0.744 OA
ENDBRANCH  82  83
ENDBRANCH  54  77
BRANCH  66  87
ATOM     87  C   UNL A   1      48.006  27.214  30.829  1.00  0.00    -0.014 A 
ATOM     88  C   UNL A   1      48.395  26.572  32.016  1.00  0.00     0.010 A 
ATOM     89  C   UNL A   1      48.984  27.543  29.871  1.00  0.00     0.010 A 
ATOM     90  C   UNL A   1      49.743  26.283  32.251  1.00  0.00     0.020 A 
ATOM     91  C   UNL A   1      50.327  27.234  30.092  1.00  0.00     0.020 A 
ATOM     92  C   UNL A   1      50.700  26.614  31.287  1.00  0.00     0.054 A 
BRANCH  92  93
ATOM     93  S   UNL A   1      52.433  26.171  31.585  1.00  0.00     0.124 S 
ATOM     94  O   UNL A   1      53.034  26.391  30.272  1.00  0.00    -0.237 OA
ATOM     95  O   UNL A   1      52.833  27.116  32.625  1.00  0.00    -0.237 OA
ATOM     96  O   UNL A   1      52.365  24.776  32.013  1.00  0.00    -0.744 OA
ENDBRANCH  92  93
ENDBRANCH  66  87
ENDBRANCH  40  41
ENDBRANCH  32  35
ENDBRANCH  30  31
ENDBRANCH  29  30
ENDBRANCH  28  29
ENDBRANCH   1  28
TORSDOF 19
ENDMDL
MODEL 3
REMARK VINA RESULT:     -10.8      3.001      3.666
REMARK SMILES O=C(COc1ccccc1/C=C1\C(=O)Nc2ccccc21)NCCCCCCNC(=O)c1ccc(-c2c3nc(c(-c4ccc(S(=O)(=O)[O-])cc4)c4ccc([nH]4)c(-c4ccc(S(=O)(=O)[O-])cc4)c4nc(c(-c5ccc(S(=O)(=O)[O-])cc5)c5ccc2[nH]5)C=C4)C=C3)cc1
REMARK SMILES IDX 25 1 24 2 23 3 22 4 1 5 2 6 3 8 4 9 5 10 6 11 10 12 7 13
REMARK SMILES IDX 9 14 8 15 11 16 12 17 13 18 21 19 14 20 15 21 16 22 20 23
REMARK SMILES IDX 17 25 19 26 18 27 26 28 27 29 28 30 29 31 30 32 31 34 32 35
REMARK SMILES IDX 33 36 91 37 34 38 90 39 35 40 36 41 37 42 84 43 38 44 89 45
REMARK SMILES IDX 83 46 85 47 39 48 88 49 82 50 81 51 40 53 70 54 51 55 69 56
REMARK SMILES IDX 52 57 55 58 68 59 86 60 53 61 54 62 67 64 87 65 56 66 41 67
REMARK SMILES IDX 42 68 50 69 43 70 49 71 44 72 45 73 46 74 47 75 48 76 71 77
REMARK SMILES IDX 72 78 80 79 73 80 79 81 74 82 75 83 76 84 77 85 78 86 57 87
REMARK SMILES IDX 58 88 66 89 59 90 65 91 60 92 61 93 62 94 63 95 64 96
REMARK H PARENT 22 7 15 24 29 33 85 52 55 63
REMARK Flexibility Score: inf
ROOT
ATOM      1  C   UNL A   1      33.590  27.577  24.816  1.00  0.00     0.002 C 
ENDROOT
BRANCH   1   2
ATOM      2  C   UNL A   1      33.639  26.280  25.627  1.00  0.00     0.021 C 
BRANCH   2   3
ATOM      3  C   UNL A   1      34.831  25.375  25.372  1.00  0.00     0.116 C 
BRANCH   3   4
ATOM      4  N   UNL A   1      34.521  23.979  25.194  1.00  0.00    -0.353 N 
ATOM      5  O   UNL A   1      35.539  23.677  23.144  1.00  0.00    -0.271 OA
ATOM      6  C   UNL A   1      35.096  23.214  24.190  1.00  0.00     0.257 C 
ATOM      7  H   UNL A   1      33.880  23.553  25.807  1.00  0.00     0.163 HD
BRANCH   6   8
ATOM      8  C   UNL A   1      35.165  21.723  24.529  1.00  0.00     0.329 C 
BRANCH   8   9
ATOM      9  O   UNL A   1      33.937  21.413  25.189  1.00  0.00    -0.483 OA
BRANCH   9  10
ATOM     10  C   UNL A   1      33.131  20.515  24.539  1.00  0.00     0.127 A 
ATOM     11  C   UNL A   1      33.306  19.175  24.913  1.00  0.00     0.047 A 
ATOM     12  C   UNL A   1      32.425  20.874  23.367  1.00  0.00     0.017 A 
ATOM     13  C   UNL A   1      32.848  18.158  24.084  1.00  0.00     0.004 A 
ATOM     14  C   UNL A   1      32.105  19.825  22.498  1.00  0.00     0.012 A 
ATOM     15  C   UNL A   1      32.291  18.484  22.855  1.00  0.00     0.001 A 
BRANCH  12  16
ATOM     16  C   UNL A   1      32.089  22.286  23.039  1.00  0.00     0.026 C 
ATOM     17  C   UNL A   1      31.442  23.235  23.752  1.00  0.00     0.050 C 
ATOM     18  C   UNL A   1      30.778  23.147  25.115  1.00  0.00     0.256 C 
ATOM     19  C   UNL A   1      31.216  24.629  23.297  1.00  0.00     0.011 A 
ATOM     20  O   UNL A   1      30.801  22.251  25.933  1.00  0.00    -0.269 OA
ATOM     21  N   UNL A   1      30.125  24.356  25.288  1.00  0.00    -0.321 N 
ATOM     22  C   UNL A   1      30.392  25.234  24.249  1.00  0.00     0.049 A 
ATOM     23  C   UNL A   1      31.685  25.385  22.237  1.00  0.00     0.011 A 
ATOM     24  H   UNL A   1      29.543  24.566  26.053  1.00  0.00     0.170 HD
ATOM     25  C   UNL A   1      29.970  26.548  24.164  1.00  0.00     0.027 A 
ATOM     26  C   UNL A   1      31.277  26.723  22.127  1.00  0.00     0.001 A 
ATOM     27  C   UNL A   1      30.420  27.297  23.079  1.00  0.00     0.002 A 
ENDBRANCH  12  16
ENDBRANCH   9  10
ENDBRANCH   8   9
ENDBRANCH   6   8
ENDBRANCH   3   4
ENDBRANCH   2   3
ENDBRANCH   1   2
BRANCH   1  28
ATOM     28  C   UNL A   1      33.937  28.876  25.549  1.00  0.00     0.002 C 
BRANCH  28  29
ATOM     29  C   UNL A   1      34.275  28.768  27.038  1.00  0.00     0.021 C 
BRANCH  29  30
ATOM     30  C   UNL A   1      35.422  29.637  27.542  1.00  0.00     0.116 C 
BRANCH  30  31
ATOM     31  N   UNL A   1      35.253  30.094  28.910  1.00  0.00    -0.352 N 
ATOM     32  C   UNL A   1      36.201  30.257  29.892  1.00  0.00     0.251 C 
ATOM     33  H   UNL A   1      34.329  30.316  29.171  1.00  0.00     0.163 HD
ATOM     34  O   UNL A   1      35.859  30.585  31.026  1.00  0.00    -0.269 OA
BRANCH  32  35
ATOM     35  C   UNL A   1      37.629  29.999  29.595  1.00  0.00     0.039 A 
ATOM     36  C   UNL A   1      38.494  29.706  30.654  1.00  0.00     0.014 A 
ATOM     37  C   UNL A   1      38.114  30.034  28.285  1.00  0.00     0.014 A 
ATOM     38  C   UNL A   1      39.828  29.377  30.394  1.00  0.00     0.010 A 
ATOM     39  C   UNL A   1      39.427  29.648  28.023  1.00  0.00     0.010 A 
ATOM     40  C   UNL A   1      40.297  29.310  29.073  1.00  0.00    -0.014 A 
BRANCH  40  41
ATOM     41  C   UNL A   1      41.686  28.882  28.760  1.00  0.00     0.031 A 
ATOM     42  C   UNL A   1      42.797  29.896  28.729  1.00  0.00     0.074 A 
ATOM     43  C   UNL A   1      41.932  27.601  28.419  1.00  0.00     0.049 A 
ATOM     44  N   UNL A   1      44.044  29.742  28.362  1.00  0.00    -0.248 NA
ATOM     45  C   UNL A   1      42.458  31.271  29.139  1.00  0.00     0.031 C 
ATOM     46  C   UNL A   1      40.937  26.525  28.377  1.00  0.00     0.029 A 
ATOM     47  N   UNL A   1      43.095  26.987  28.024  1.00  0.00    -0.354 N 
ATOM     48  C   UNL A   1      44.627  30.999  28.464  1.00  0.00     0.074 A 
ATOM     49  C   UNL A   1      43.595  31.912  28.902  1.00  0.00     0.031 C 
ATOM     50  C   UNL A   1      41.534  25.386  27.990  1.00  0.00     0.029 A 
ATOM     51  C   UNL A   1      42.942  25.654  27.716  1.00  0.00     0.049 A 
ATOM     52  H   UNL A   1      43.959  27.456  27.966  1.00  0.00     0.167 HD
ATOM     53  C   UNL A   1      45.910  31.359  28.222  1.00  0.00     0.031 A 
ATOM     54  C   UNL A   1      43.830  24.754  27.250  1.00  0.00     0.031 A 
ATOM     55  C   UNL A   1      46.947  30.444  27.826  1.00  0.00     0.049 A 
ATOM     56  C   UNL A   1      45.252  25.182  26.998  1.00  0.00     0.074 A 
ATOM     57  C   UNL A   1      48.294  30.703  27.638  1.00  0.00     0.029 A 
ATOM     58  N   UNL A   1      46.756  29.098  27.560  1.00  0.00    -0.354 N 
ATOM     59  N   UNL A   1      45.798  26.362  27.169  1.00  0.00    -0.248 NA
ATOM     60  C   UNL A   1      46.178  24.154  26.500  1.00  0.00     0.031 C 
ATOM     61  C   UNL A   1      48.910  29.522  27.215  1.00  0.00     0.029 A 
ATOM     62  C   UNL A   1      47.957  28.518  27.187  1.00  0.00     0.049 A 
ATOM     63  H   UNL A   1      45.895  28.625  27.625  1.00  0.00     0.167 HD
ATOM     64  C   UNL A   1      47.139  26.208  26.832  1.00  0.00     0.074 A 
ATOM     65  C   UNL A   1      47.323  24.823  26.455  1.00  0.00     0.031 C 
ATOM     66  C   UNL A   1      48.129  27.132  26.838  1.00  0.00     0.031 A 
BRANCH  53  67
ATOM     67  C   UNL A   1      46.278  32.810  28.376  1.00  0.00    -0.014 A 
ATOM     68  C   UNL A   1      46.148  33.713  27.306  1.00  0.00     0.010 A 
ATOM     69  C   UNL A   1      46.680  33.292  29.637  1.00  0.00     0.010 A 
ATOM     70  C   UNL A   1      46.431  35.068  27.488  1.00  0.00     0.020 A 
ATOM     71  C   UNL A   1      46.941  34.652  29.828  1.00  0.00     0.020 A 
ATOM     72  C   UNL A   1      46.824  35.530  28.749  1.00  0.00     0.054 A 
BRANCH  72  73
ATOM     73  S   UNL A   1      47.129  37.305  28.970  1.00  0.00     0.124 S 
ATOM     74  O   UNL A   1      46.917  37.816  27.618  1.00  0.00    -0.237 OA
ATOM     75  O   UNL A   1      46.116  37.685  29.950  1.00  0.00    -0.237 OA
ATOM     76  O   UNL A   1      48.508  37.363  29.448  1.00  0.00    -0.744 OA
ENDBRANCH  72  73
ENDBRANCH  53  67
BRANCH  54  77
ATOM     77  C   UNL A   1      43.410  23.352  26.977  1.00  0.00    -0.014 A 
ATOM     78  C   UNL A   1      43.143  22.469  28.039  1.00  0.00     0.010 A 
ATOM     79  C   UNL A   1      43.309  22.881  25.655  1.00  0.00     0.010 A 
ATOM     80  C   UNL A   1      42.822  21.132  27.785  1.00  0.00     0.020 A 
ATOM     81  C   UNL A   1      42.962  21.552  25.398  1.00  0.00     0.020 A 
ATOM     82  C   UNL A   1      42.741  20.680  26.465  1.00  0.00     0.054 A 
BRANCH  82  83
ATOM     83  S   UNL A   1      42.315  18.944  26.155  1.00  0.00     0.124 S 
ATOM     84  O   UNL A   1      40.909  19.041  25.774  1.00  0.00    -0.237 OA
ATOM     85  O   UNL A   1      43.238  18.576  25.084  1.00  0.00    -0.237 OA
ATOM     86  O   UNL A   1      42.573  18.297  27.440  1.00  0.00    -0.744 OA
ENDBRANCH  82  83
ENDBRANCH  54  77
BRANCH  66  87
ATOM     87  C   UNL A   1      49.515  26.673  26.477  1.00  0.00    -0.014 A 
ATOM     88  C   UNL A   1      50.363  26.092  27.434  1.00  0.00     0.010 A 
ATOM     89  C   UNL A   1      49.942  26.758  25.139  1.00  0.00     0.010 A 
ATOM     90  C   UNL A   1      51.625  25.621  27.063  1.00  0.00     0.020 A 
ATOM     91  C   UNL A   1      51.194  26.267  24.760  1.00  0.00     0.020 A 
ATOM     92  C   UNL A   1      52.032  25.710  25.728  1.00  0.00     0.054 A 
BRANCH  92  93
ATOM     93  S   UNL A   1      53.649  25.035  25.258  1.00  0.00     0.124 S 
ATOM     94  O   UNL A   1      53.413  23.596  25.343  1.00  0.00    -0.237 OA
ATOM     95  O   UNL A   1      53.840  25.562  23.910  1.00  0.00    -0.237 OA
ATOM     96  O   UNL A   1      54.556  25.577  26.266  1.00  0.00    -0.744 OA
ENDBRANCH  92  93
ENDBRANCH  66  87
ENDBRANCH  40  41
ENDBRANCH  32  35
ENDBRANCH  30  31
ENDBRANCH  29  30
ENDBRANCH  28  29
ENDBRANCH   1  28
TORSDOF 19
ENDMDL
