MODEL 1
REMARK VINA RESULT:     -10.8      0.000      0.000
REMARK SMILES C[C@@H]1CCCCN1S(=O)(=O)c1ccc(CCC(=O)NCCCCCCNC(=O)c2ccc(-c3c4nc(c(-c5ccc(S(=O)(=O)[O-])cc5)c5ccc([nH]5)c(-c5ccc(S(=O)(=O)[O-])cc5)c5nc(c(-c6ccc(S(=O)(=O)[O-])cc6)c6ccc3[nH]6)C=C5)C=C4)cc2)cc1
REMARK SMILES IDX 22 1 21 2 20 3 19 4 17 5 18 6 16 8 15 9 14 10 11 11 12 12
REMARK SMILES IDX 90 13 13 14 89 15 8 16 9 17 10 18 7 19 1 20 2 21 3 22 4 23
REMARK SMILES IDX 6 24 5 25 23 26 24 27 25 28 26 29 27 30 28 32 29 33 30 34
REMARK SMILES IDX 88 35 31 36 87 37 32 38 33 39 34 40 81 41 35 42 86 43 80 44
REMARK SMILES IDX 82 45 36 46 85 47 79 48 78 49 37 51 67 52 48 53 66 54 49 55
REMARK SMILES IDX 52 56 65 57 83 58 50 59 51 60 64 62 84 63 53 64 38 65 39 66
REMARK SMILES IDX 47 67 40 68 46 69 41 70 42 71 43 72 44 73 45 74 68 75 69 76
REMARK SMILES IDX 77 77 70 78 76 79 71 80 72 81 73 82 74 83 75 84 54 85 55 86
REMARK SMILES IDX 63 87 56 88 62 89 57 90 58 91 59 92 60 93 61 94
REMARK H PARENT 19 7 26 31 82 50 52 61
REMARK Flexibility Score: inf
ROOT
ATOM      1  C   UNL A   1      39.230  22.249  26.478  1.00  0.00     0.002 C 
ENDROOT
BRANCH   1   2
ATOM      2  C   UNL A   1      38.244  22.198  25.306  1.00  0.00     0.021 C 
BRANCH   2   3
ATOM      3  C   UNL A   1      36.893  21.540  25.599  1.00  0.00     0.116 C 
BRANCH   3   4
ATOM      4  N   UNL A   1      35.955  22.502  26.165  1.00  0.00    -0.356 N 
ATOM      5  C   UNL A   1      34.594  22.543  26.127  1.00  0.00     0.220 C 
ATOM      6  O   UNL A   1      34.029  23.547  26.571  1.00  0.00    -0.275 OA
ATOM      7  H   UNL A   1      36.375  23.244  26.655  1.00  0.00     0.163 HD
BRANCH   5   8
ATOM      8  C   UNL A   1      33.779  21.381  25.593  1.00  0.00     0.105 C 
BRANCH   8   9
ATOM      9  C   UNL A   1      33.647  21.402  24.063  1.00  0.00     0.045 C 
BRANCH   9  10
ATOM     10  C   UNL A   1      32.773  22.533  23.576  1.00  0.00    -0.047 A 
ATOM     11  C   UNL A   1      31.376  24.896  23.029  1.00  0.00     0.082 A 
ATOM     12  C   UNL A   1      30.791  23.909  23.832  1.00  0.00     0.022 A 
ATOM     13  C   UNL A   1      32.606  24.653  22.412  1.00  0.00     0.022 A 
ATOM     14  C   UNL A   1      31.492  22.732  24.108  1.00  0.00     0.005 A 
ATOM     15  C   UNL A   1      33.286  23.462  22.662  1.00  0.00     0.005 A 
BRANCH  11  16
ATOM     16  S   UNL A   1      30.816  26.580  23.193  1.00  0.00     0.243 S 
ATOM     17  O   UNL A   1      29.485  26.541  23.759  1.00  0.00    -0.207 OA
ATOM     18  O   UNL A   1      31.006  27.203  21.896  1.00  0.00    -0.207 OA
BRANCH  16  19
ATOM     19  N   UNL A   1      31.846  27.374  24.279  1.00  0.00    -0.195 NA
ATOM     20  C   UNL A   1      31.388  26.027  26.389  1.00  0.00     0.026 C 
ATOM     21  C   UNL A   1      32.426  26.656  25.459  1.00  0.00     0.070 C 
ATOM     22  C   UNL A   1      33.316  27.617  26.286  1.00  0.00     0.020 C 
ATOM     23  C   UNL A   1      33.698  28.884  25.533  1.00  0.00     0.003 C 
ATOM     24  C   UNL A   1      31.326  28.716  24.652  1.00  0.00     0.103 C 
ATOM     25  C   UNL A   1      32.451  29.640  25.098  1.00  0.00     0.017 C 
ENDBRANCH  16  19
ENDBRANCH  11  16
ENDBRANCH   9  10
ENDBRANCH   8   9
ENDBRANCH   5   8
ENDBRANCH   3   4
ENDBRANCH   2   3
ENDBRANCH   1   2
BRANCH   1  26
ATOM     26  C   UNL A   1      40.691  21.918  26.142  1.00  0.00     0.002 C 
BRANCH  26  27
ATOM     27  C   UNL A   1      41.735  22.189  27.235  1.00  0.00     0.021 C 
BRANCH  27  28
ATOM     28  C   UNL A   1      42.641  23.407  27.026  1.00  0.00     0.116 C 
BRANCH  28  29
ATOM     29  N   UNL A   1      42.162  24.300  25.983  1.00  0.00    -0.352 N 
ATOM     30  C   UNL A   1      41.563  25.535  26.059  1.00  0.00     0.251 C 
ATOM     31  H   UNL A   1      42.289  23.962  25.066  1.00  0.00     0.163 HD
ATOM     32  O   UNL A   1      41.153  26.056  25.022  1.00  0.00    -0.269 OA
BRANCH  30  33
ATOM     33  C   UNL A   1      41.367  26.247  27.350  1.00  0.00     0.039 A 
ATOM     34  C   UNL A   1      42.177  27.353  27.628  1.00  0.00     0.014 A 
ATOM     35  C   UNL A   1      40.465  25.813  28.321  1.00  0.00     0.014 A 
ATOM     36  C   UNL A   1      42.034  28.059  28.832  1.00  0.00     0.010 A 
ATOM     37  C   UNL A   1      40.292  26.553  29.503  1.00  0.00     0.010 A 
ATOM     38  C   UNL A   1      41.056  27.695  29.773  1.00  0.00    -0.014 A 
BRANCH  38  39
ATOM     39  C   UNL A   1      40.795  28.549  30.975  1.00  0.00     0.031 A 
ATOM     40  C   UNL A   1      41.616  28.452  32.240  1.00  0.00     0.074 A 
ATOM     41  C   UNL A   1      39.758  29.414  30.950  1.00  0.00     0.049 A 
ATOM     42  N   UNL A   1      41.561  29.204  33.315  1.00  0.00    -0.248 NA
ATOM     43  C   UNL A   1      42.592  27.357  32.335  1.00  0.00     0.031 C 
ATOM     44  C   UNL A   1      38.789  29.545  29.858  1.00  0.00     0.029 A 
ATOM     45  N   UNL A   1      39.352  30.361  31.863  1.00  0.00    -0.354 N 
ATOM     46  C   UNL A   1      42.484  28.673  34.209  1.00  0.00     0.074 A 
ATOM     47  C   UNL A   1      43.043  27.497  33.575  1.00  0.00     0.031 C 
ATOM     48  C   UNL A   1      37.951  30.557  30.130  1.00  0.00     0.029 A 
ATOM     49  C   UNL A   1      38.304  31.136  31.423  1.00  0.00     0.049 A 
ATOM     50  H   UNL A   1      39.771  30.472  32.746  1.00  0.00     0.167 HD
ATOM     51  C   UNL A   1      42.859  29.132  35.431  1.00  0.00     0.031 A 
ATOM     52  C   UNL A   1      37.710  32.215  31.969  1.00  0.00     0.031 A 
ATOM     53  C   UNL A   1      42.336  30.318  36.063  1.00  0.00     0.049 A 
ATOM     54  C   UNL A   1      38.207  32.764  33.277  1.00  0.00     0.074 A 
ATOM     55  C   UNL A   1      42.730  30.904  37.256  1.00  0.00     0.029 A 
ATOM     56  N   UNL A   1      41.314  31.104  35.558  1.00  0.00    -0.354 N 
ATOM     57  N   UNL A   1      39.163  32.312  34.051  1.00  0.00    -0.248 NA
ATOM     58  C   UNL A   1      37.558  33.989  33.768  1.00  0.00     0.031 C 
ATOM     59  C   UNL A   1      41.925  32.026  37.487  1.00  0.00     0.029 A 
ATOM     60  C   UNL A   1      41.058  32.163  36.417  1.00  0.00     0.049 A 
ATOM     61  H   UNL A   1      40.839  30.936  34.712  1.00  0.00     0.167 HD
ATOM     62  C   UNL A   1      39.248  33.214  35.107  1.00  0.00     0.074 A 
ATOM     63  C   UNL A   1      38.262  34.245  34.862  1.00  0.00     0.031 C 
ATOM     64  C   UNL A   1      40.073  33.186  36.182  1.00  0.00     0.031 A 
BRANCH  51  65
ATOM     65  C   UNL A   1      43.927  28.361  36.170  1.00  0.00    -0.014 A 
ATOM     66  C   UNL A   1      45.285  28.691  36.020  1.00  0.00     0.010 A 
ATOM     67  C   UNL A   1      43.566  27.351  37.081  1.00  0.00     0.010 A 
ATOM     68  C   UNL A   1      46.268  27.999  36.733  1.00  0.00     0.020 A 
ATOM     69  C   UNL A   1      44.544  26.673  37.817  1.00  0.00     0.020 A 
ATOM     70  C   UNL A   1      45.890  26.991  37.624  1.00  0.00     0.054 A 
BRANCH  70  71
ATOM     71  S   UNL A   1      47.184  26.129  38.562  1.00  0.00     0.124 S 
ATOM     72  O   UNL A   1      47.250  24.845  37.869  1.00  0.00    -0.237 OA
ATOM     73  O   UNL A   1      48.343  26.999  38.386  1.00  0.00    -0.237 OA
ATOM     74  O   UNL A   1      46.649  26.078  39.921  1.00  0.00    -0.744 OA
ENDBRANCH  70  71
ENDBRANCH  51  65
BRANCH  52  75
ATOM     75  C   UNL A   1      36.613  32.905  31.238  1.00  0.00    -0.014 A 
ATOM     76  C   UNL A   1      36.911  33.757  30.159  1.00  0.00     0.010 A 
ATOM     77  C   UNL A   1      35.273  32.716  31.617  1.00  0.00     0.010 A 
ATOM     78  C   UNL A   1      35.888  34.432  29.489  1.00  0.00     0.020 A 
ATOM     79  C   UNL A   1      34.246  33.371  30.931  1.00  0.00     0.020 A 
ATOM     80  C   UNL A   1      34.561  34.236  29.882  1.00  0.00     0.054 A 
BRANCH  80  81
ATOM     81  S   UNL A   1      33.243  35.090  28.973  1.00  0.00     0.124 S 
ATOM     82  O   UNL A   1      32.316  35.438  30.045  1.00  0.00    -0.237 OA
ATOM     83  O   UNL A   1      33.952  36.209  28.359  1.00  0.00    -0.237 OA
ATOM     84  O   UNL A   1      32.767  34.075  28.036  1.00  0.00    -0.744 OA
ENDBRANCH  80  81
ENDBRANCH  52  75
BRANCH  64  85
ATOM     85  C   UNL A   1      39.962  34.323  37.163  1.00  0.00    -0.014 A 
ATOM     86  C   UNL A   1      39.070  34.267  38.249  1.00  0.00     0.010 A 
ATOM     87  C   UNL A   1      40.761  35.469  36.994  1.00  0.00     0.010 A 
ATOM     88  C   UNL A   1      38.936  35.358  39.113  1.00  0.00     0.020 A 
ATOM     89  C   UNL A   1      40.649  36.552  37.871  1.00  0.00     0.020 A 
ATOM     90  C   UNL A   1      39.718  36.499  38.912  1.00  0.00     0.054 A 
BRANCH  90  91
ATOM     91  S   UNL A   1      39.528  37.906  40.040  1.00  0.00     0.124 S 
ATOM     92  O   UNL A   1      40.745  38.670  39.779  1.00  0.00    -0.237 OA
ATOM     93  O   UNL A   1      38.287  38.526  39.580  1.00  0.00    -0.237 OA
ATOM     94  O   UNL A   1      39.453  37.284  41.359  1.00  0.00    -0.744 OA
ENDBRANCH  90  91
ENDBRANCH  64  85
ENDBRANCH  38  39
ENDBRANCH  30  33
ENDBRANCH  28  29
ENDBRANCH  27  28
ENDBRANCH  26  27
ENDBRANCH   1  26
TORSDOF 20
ENDMDL
MODEL 2
REMARK VINA RESULT:     -10.4      1.227      1.993
REMARK SMILES C[C@@H]1CCCCN1S(=O)(=O)c1ccc(CCC(=O)NCCCCCCNC(=O)c2ccc(-c3c4nc(c(-c5ccc(S(=O)(=O)[O-])cc5)c5ccc([nH]5)c(-c5ccc(S(=O)(=O)[O-])cc5)c5nc(c(-c6ccc(S(=O)(=O)[O-])cc6)c6ccc3[nH]6)C=C5)C=C4)cc2)cc1
REMARK SMILES IDX 22 1 21 2 20 3 19 4 17 5 18 6 16 8 15 9 14 10 11 11 12 12
REMARK SMILES IDX 90 13 13 14 89 15 8 16 9 17 10 18 7 19 1 20 2 21 3 22 4 23
REMARK SMILES IDX 6 24 5 25 23 26 24 27 25 28 26 29 27 30 28 32 29 33 30 34
REMARK SMILES IDX 88 35 31 36 87 37 32 38 33 39 34 40 81 41 35 42 86 43 80 44
REMARK SMILES IDX 82 45 36 46 85 47 79 48 78 49 37 51 67 52 48 53 66 54 49 55
REMARK SMILES IDX 52 56 65 57 83 58 50 59 51 60 64 62 84 63 53 64 38 65 39 66
REMARK SMILES IDX 47 67 40 68 46 69 41 70 42 71 43 72 44 73 45 74 68 75 69 76
REMARK SMILES IDX 77 77 70 78 76 79 71 80 72 81 73 82 74 83 75 84 54 85 55 86
REMARK SMILES IDX 63 87 56 88 62 89 57 90 58 91 59 92 60 93 61 94
REMARK H PARENT 19 7 26 31 82 50 52 61
REMARK Flexibility Score: inf
ROOT
ATOM      1  C   UNL A   1      42.090  21.652  26.830  1.00  0.00     0.002 C 
ENDROOT
BRANCH   1   2
ATOM      2  C   UNL A   1      40.996  20.708  26.321  1.00  0.00     0.021 C 
BRANCH   2   3
ATOM      3  C   UNL A   1      39.667  21.368  25.946  1.00  0.00     0.116 C 
BRANCH   3   4
ATOM      4  N   UNL A   1      39.484  22.623  26.664  1.00  0.00    -0.356 N 
ATOM      5  C   UNL A   1      38.567  23.616  26.498  1.00  0.00     0.220 C 
ATOM      6  O   UNL A   1      38.708  24.655  27.151  1.00  0.00    -0.275 OA
ATOM      7  H   UNL A   1      40.131  22.778  27.389  1.00  0.00     0.163 HD
BRANCH   5   8
ATOM      8  C   UNL A   1      37.379  23.454  25.569  1.00  0.00     0.105 C 
BRANCH   8   9
ATOM      9  C   UNL A   1      36.324  22.482  26.118  1.00  0.00     0.045 C 
BRANCH   9  10
ATOM     10  C   UNL A   1      34.920  22.877  25.729  1.00  0.00    -0.047 A 
ATOM     11  C   UNL A   1      32.492  24.074  25.019  1.00  0.00     0.082 A 
ATOM     12  C   UNL A   1      32.731  23.717  26.352  1.00  0.00     0.022 A 
ATOM     13  C   UNL A   1      33.417  23.731  24.029  1.00  0.00     0.022 A 
ATOM     14  C   UNL A   1      33.947  23.124  26.705  1.00  0.00     0.005 A 
ATOM     15  C   UNL A   1      34.612  23.107  24.381  1.00  0.00     0.005 A 
BRANCH  11  16
ATOM     16  S   UNL A   1      31.300  25.353  24.674  1.00  0.00     0.243 S 
ATOM     17  O   UNL A   1      30.670  25.708  25.927  1.00  0.00    -0.207 OA
ATOM     18  O   UNL A   1      30.470  24.858  23.590  1.00  0.00    -0.207 OA
BRANCH  16  19
ATOM     19  N   UNL A   1      32.133  26.704  24.081  1.00  0.00    -0.195 NA
ATOM     20  C   UNL A   1      33.501  27.318  26.138  1.00  0.00     0.026 C 
ATOM     21  C   UNL A   1      33.475  27.083  24.627  1.00  0.00     0.070 C 
ATOM     22  C   UNL A   1      34.000  28.357  23.918  1.00  0.00     0.020 C 
ATOM     23  C   UNL A   1      33.259  28.678  22.627  1.00  0.00     0.003 C 
ATOM     24  C   UNL A   1      31.241  27.885  23.941  1.00  0.00     0.103 C 
ATOM     25  C   UNL A   1      31.773  28.858  22.898  1.00  0.00     0.017 C 
ENDBRANCH  16  19
ENDBRANCH  11  16
ENDBRANCH   9  10
ENDBRANCH   8   9
ENDBRANCH   5   8
ENDBRANCH   3   4
ENDBRANCH   2   3
ENDBRANCH   1   2
BRANCH   1  26
ATOM     26  C   UNL A   1      43.228  21.954  25.845  1.00  0.00     0.002 C 
BRANCH  26  27
ATOM     27  C   UNL A   1      44.481  22.634  26.417  1.00  0.00     0.021 C 
BRANCH  27  28
ATOM     28  C   UNL A   1      44.376  24.137  26.696  1.00  0.00     0.116 C 
BRANCH  28  29
ATOM     29  N   UNL A   1      43.611  24.851  25.685  1.00  0.00    -0.352 N 
ATOM     30  C   UNL A   1      42.708  25.882  25.799  1.00  0.00     0.251 C 
ATOM     31  H   UNL A   1      43.767  24.543  24.762  1.00  0.00     0.163 HD
ATOM     32  O   UNL A   1      42.111  26.256  24.791  1.00  0.00    -0.269 OA
BRANCH  30  33
ATOM     33  C   UNL A   1      42.409  26.538  27.101  1.00  0.00     0.039 A 
ATOM     34  C   UNL A   1      43.080  27.726  27.415  1.00  0.00     0.014 A 
ATOM     35  C   UNL A   1      41.549  25.981  28.046  1.00  0.00     0.014 A 
ATOM     36  C   UNL A   1      42.834  28.383  28.630  1.00  0.00     0.010 A 
ATOM     37  C   UNL A   1      41.271  26.670  29.239  1.00  0.00     0.010 A 
ATOM     38  C   UNL A   1      41.891  27.888  29.544  1.00  0.00    -0.014 A 
BRANCH  38  39
ATOM     39  C   UNL A   1      41.511  28.679  30.758  1.00  0.00     0.031 A 
ATOM     40  C   UNL A   1      42.284  28.606  32.055  1.00  0.00     0.074 A 
ATOM     41  C   UNL A   1      40.410  29.460  30.712  1.00  0.00     0.049 A 
ATOM     42  N   UNL A   1      42.123  29.317  33.148  1.00  0.00    -0.248 NA
ATOM     43  C   UNL A   1      43.340  27.590  32.162  1.00  0.00     0.031 C 
ATOM     44  C   UNL A   1      39.481  29.549  29.582  1.00  0.00     0.029 A 
ATOM     45  N   UNL A   1      39.891  30.342  31.632  1.00  0.00    -0.354 N 
ATOM     46  C   UNL A   1      43.048  28.833  34.066  1.00  0.00     0.074 A 
ATOM     47  C   UNL A   1      43.725  27.726  33.424  1.00  0.00     0.031 C 
ATOM     48  C   UNL A   1      38.554  30.483  29.845  1.00  0.00     0.029 A 
ATOM     49  C   UNL A   1      38.804  31.045  31.168  1.00  0.00     0.049 A 
ATOM     50  H   UNL A   1      40.263  30.458  32.536  1.00  0.00     0.167 HD
ATOM     51  C   UNL A   1      43.333  29.280  35.316  1.00  0.00     0.031 A 
ATOM     52  C   UNL A   1      38.103  32.055  31.719  1.00  0.00     0.031 A 
ATOM     53  C   UNL A   1      42.691  30.400  35.958  1.00  0.00     0.049 A 
ATOM     54  C   UNL A   1      38.499  32.601  33.062  1.00  0.00     0.074 A 
ATOM     55  C   UNL A   1      42.986  30.977  37.183  1.00  0.00     0.029 A 
ATOM     56  N   UNL A   1      41.631  31.118  35.431  1.00  0.00    -0.354 N 
ATOM     57  N   UNL A   1      39.454  32.200  33.865  1.00  0.00    -0.248 NA
ATOM     58  C   UNL A   1      37.734  33.754  33.559  1.00  0.00     0.031 C 
ATOM     59  C   UNL A   1      42.083  32.023  37.411  1.00  0.00     0.029 A 
ATOM     60  C   UNL A   1      41.255  32.126  36.307  1.00  0.00     0.049 A 
ATOM     61  H   UNL A   1      41.207  30.941  34.560  1.00  0.00     0.167 HD
ATOM     62  C   UNL A   1      39.422  33.072  34.949  1.00  0.00     0.074 A 
ATOM     63  C   UNL A   1      38.368  34.029  34.690  1.00  0.00     0.031 C 
ATOM     64  C   UNL A   1      40.201  33.075  36.058  1.00  0.00     0.031 A 
BRANCH  51  65
ATOM     65  C   UNL A   1      44.427  28.573  36.079  1.00  0.00    -0.014 A 
ATOM     66  C   UNL A   1      45.758  29.021  36.009  1.00  0.00     0.010 A 
ATOM     67  C   UNL A   1      44.113  27.500  36.935  1.00  0.00     0.010 A 
ATOM     68  C   UNL A   1      46.762  28.386  36.745  1.00  0.00     0.020 A 
ATOM     69  C   UNL A   1      45.110  26.878  37.694  1.00  0.00     0.020 A 
ATOM     70  C   UNL A   1      46.431  27.315  37.580  1.00  0.00     0.054 A 
BRANCH  70  71
ATOM     71  S   UNL A   1      47.748  26.529  38.550  1.00  0.00     0.124 S 
ATOM     72  O   UNL A   1      47.925  27.483  39.642  1.00  0.00    -0.237 OA
ATOM     73  O   UNL A   1      47.153  25.249  38.925  1.00  0.00    -0.237 OA
ATOM     74  O   UNL A   1      48.864  26.442  37.611  1.00  0.00    -0.744 OA
ENDBRANCH  70  71
ENDBRANCH  51  65
BRANCH  52  75
ATOM     75  C   UNL A   1      36.986  32.680  30.960  1.00  0.00    -0.014 A 
ATOM     76  C   UNL A   1      35.656  32.300  31.220  1.00  0.00     0.010 A 
ATOM     77  C   UNL A   1      37.245  33.650  29.976  1.00  0.00     0.010 A 
ATOM     78  C   UNL A   1      34.606  32.859  30.489  1.00  0.00     0.020 A 
ATOM     79  C   UNL A   1      36.193  34.229  29.261  1.00  0.00     0.020 A 
ATOM     80  C   UNL A   1      34.882  33.819  29.512  1.00  0.00     0.054 A 
BRANCH  80  81
ATOM     81  S   UNL A   1      33.501  34.564  28.600  1.00  0.00     0.124 S 
ATOM     82  O   UNL A   1      34.150  35.694  27.942  1.00  0.00    -0.237 OA
ATOM     83  O   UNL A   1      33.075  33.479  27.722  1.00  0.00    -0.237 OA
ATOM     84  O   UNL A   1      32.550  34.913  29.653  1.00  0.00    -0.744 OA
ENDBRANCH  80  81
ENDBRANCH  52  75
BRANCH  64  85
ATOM     85  C   UNL A   1      39.958  34.167  37.066  1.00  0.00    -0.014 A 
ATOM     86  C   UNL A   1      40.556  35.433  36.930  1.00  0.00     0.010 A 
ATOM     87  C   UNL A   1      39.121  33.923  38.170  1.00  0.00     0.010 A 
ATOM     88  C   UNL A   1      40.368  36.415  37.908  1.00  0.00     0.020 A 
ATOM     89  C   UNL A   1      38.910  34.910  39.137  1.00  0.00     0.020 A 
ATOM     90  C   UNL A   1      39.555  36.143  39.012  1.00  0.00     0.054 A 
BRANCH  90  91
ATOM     91  S   UNL A   1      39.327  37.426  40.273  1.00  0.00     0.124 S 
ATOM     92  O   UNL A   1      38.458  38.377  39.584  1.00  0.00    -0.237 OA
ATOM     93  O   UNL A   1      38.705  36.693  41.374  1.00  0.00    -0.237 OA
ATOM     94  O   UNL A   1      40.683  37.898  40.536  1.00  0.00    -0.744 OA
ENDBRANCH  90  91
ENDBRANCH  64  85
ENDBRANCH  38  39
ENDBRANCH  30  33
ENDBRANCH  28  29
ENDBRANCH  27  28
ENDBRANCH  26  27
ENDBRANCH   1  26
TORSDOF 20
ENDMDL
MODEL 3
REMARK VINA RESULT:     -10.2      5.075     12.534
REMARK SMILES C[C@@H]1CCCCN1S(=O)(=O)c1ccc(CCC(=O)NCCCCCCNC(=O)c2ccc(-c3c4nc(c(-c5ccc(S(=O)(=O)[O-])cc5)c5ccc([nH]5)c(-c5ccc(S(=O)(=O)[O-])cc5)c5nc(c(-c6ccc(S(=O)(=O)[O-])cc6)c6ccc3[nH]6)C=C5)C=C4)cc2)cc1
REMARK SMILES IDX 22 1 21 2 20 3 19 4 17 5 18 6 16 8 15 9 14 10 11 11 12 12
REMARK SMILES IDX 90 13 13 14 89 15 8 16 9 17 10 18 7 19 1 20 2 21 3 22 4 23
REMARK SMILES IDX 6 24 5 25 23 26 24 27 25 28 26 29 27 30 28 32 29 33 30 34
REMARK SMILES IDX 88 35 31 36 87 37 32 38 33 39 34 40 81 41 35 42 86 43 80 44
REMARK SMILES IDX 82 45 36 46 85 47 79 48 78 49 37 51 67 52 48 53 66 54 49 55
REMARK SMILES IDX 52 56 65 57 83 58 50 59 51 60 64 62 84 63 53 64 38 65 39 66
REMARK SMILES IDX 47 67 40 68 46 69 41 70 42 71 43 72 44 73 45 74 68 75 69 76
REMARK SMILES IDX 77 77 70 78 76 79 71 80 72 81 73 82 74 83 75 84 54 85 55 86
REMARK SMILES IDX 63 87 56 88 62 89 57 90 58 91 59 92 60 93 61 94
REMARK H PARENT 19 7 26 31 82 50 52 61
REMARK Flexibility Score: inf
ROOT
ATOM      1  C   UNL A   1      34.434  34.153  30.772  1.00  0.00     0.002 C 
ENDROOT
BRANCH   1   2
ATOM      2  C   UNL A   1      34.017  34.757  32.116  1.00  0.00     0.021 C 
BRANCH   2   3
ATOM      3  C   UNL A   1      33.782  33.758  33.252  1.00  0.00     0.116 C 
BRANCH   3   4
ATOM      4  N   UNL A   1      34.754  33.945  34.322  1.00  0.00    -0.356 N 
ATOM      5  C   UNL A   1      35.900  33.267  34.609  1.00  0.00     0.220 C 
ATOM      6  O   UNL A   1      36.486  33.533  35.663  1.00  0.00    -0.275 OA
ATOM      7  H   UNL A   1      34.548  34.684  34.938  1.00  0.00     0.163 HD
BRANCH   5   8
ATOM      8  C   UNL A   1      36.473  32.236  33.655  1.00  0.00     0.105 C 
BRANCH   8   9
ATOM      9  C   UNL A   1      37.745  32.725  32.947  1.00  0.00     0.045 C 
BRANCH   9  10
ATOM     10  C   UNL A   1      38.977  31.978  33.396  1.00  0.00    -0.047 A 
ATOM     11  C   UNL A   1      41.006  30.509  34.645  1.00  0.00     0.082 A 
ATOM     12  C   UNL A   1      41.032  31.908  34.685  1.00  0.00     0.022 A 
ATOM     13  C   UNL A   1      40.031  29.852  33.888  1.00  0.00     0.022 A 
ATOM     14  C   UNL A   1      40.015  32.640  34.065  1.00  0.00     0.005 A 
ATOM     15  C   UNL A   1      39.040  30.587  33.242  1.00  0.00     0.005 A 
BRANCH  11  16
ATOM     16  S   UNL A   1      41.869  29.597  35.910  1.00  0.00     0.243 S 
ATOM     17  O   UNL A   1      41.234  28.301  36.020  1.00  0.00    -0.207 OA
ATOM     18  O   UNL A   1      41.908  30.457  37.079  1.00  0.00    -0.207 OA
BRANCH  16  19
ATOM     19  N   UNL A   1      43.471  29.378  35.403  1.00  0.00    -0.195 NA
ATOM     20  C   UNL A   1      43.078  28.093  33.241  1.00  0.00     0.026 C 
ATOM     21  C   UNL A   1      43.807  29.235  33.951  1.00  0.00     0.070 C 
ATOM     22  C   UNL A   1      45.333  29.036  33.773  1.00  0.00     0.020 C 
ATOM     23  C   UNL A   1      46.139  29.413  35.008  1.00  0.00     0.003 C 
ATOM     24  C   UNL A   1      44.180  28.371  36.235  1.00  0.00     0.103 C 
ATOM     25  C   UNL A   1      45.685  28.595  36.208  1.00  0.00     0.017 C 
ENDBRANCH  16  19
ENDBRANCH  11  16
ENDBRANCH   9  10
ENDBRANCH   8   9
ENDBRANCH   5   8
ENDBRANCH   3   4
ENDBRANCH   2   3
ENDBRANCH   1   2
BRANCH   1  26
ATOM     26  C   UNL A   1      34.291  35.071  29.550  1.00  0.00     0.002 C 
BRANCH  26  27
ATOM     27  C   UNL A   1      34.292  34.397  28.169  1.00  0.00     0.021 C 
BRANCH  27  28
ATOM     28  C   UNL A   1      35.098  33.100  28.044  1.00  0.00     0.116 C 
BRANCH  28  29
ATOM     29  N   UNL A   1      34.260  31.921  27.887  1.00  0.00    -0.352 N 
ATOM     30  C   UNL A   1      34.573  30.583  27.913  1.00  0.00     0.251 C 
ATOM     31  H   UNL A   1      33.306  32.115  27.736  1.00  0.00     0.163 HD
ATOM     32  O   UNL A   1      33.690  29.766  27.653  1.00  0.00    -0.269 OA
BRANCH  30  33
ATOM     33  C   UNL A   1      35.944  30.091  28.215  1.00  0.00     0.039 A 
ATOM     34  C   UNL A   1      36.889  30.079  27.183  1.00  0.00     0.014 A 
ATOM     35  C   UNL A   1      36.303  29.575  29.460  1.00  0.00     0.014 A 
ATOM     36  C   UNL A   1      38.195  29.624  27.415  1.00  0.00     0.010 A 
ATOM     37  C   UNL A   1      37.626  29.167  29.700  1.00  0.00     0.010 A 
ATOM     38  C   UNL A   1      38.598  29.200  28.692  1.00  0.00    -0.014 A 
BRANCH  38  39
ATOM     39  C   UNL A   1      40.032  28.876  28.974  1.00  0.00     0.031 A 
ATOM     40  C   UNL A   1      40.658  27.551  28.606  1.00  0.00     0.074 A 
ATOM     41  C   UNL A   1      40.794  29.784  29.622  1.00  0.00     0.049 A 
ATOM     42  N   UNL A   1      41.915  27.181  28.700  1.00  0.00    -0.248 NA
ATOM     43  C   UNL A   1      39.768  26.493  28.107  1.00  0.00     0.031 C 
ATOM     44  C   UNL A   1      40.316  31.061  30.160  1.00  0.00     0.029 A 
ATOM     45  N   UNL A   1      42.136  29.783  29.927  1.00  0.00    -0.354 N 
ATOM     46  C   UNL A   1      41.963  25.856  28.280  1.00  0.00     0.074 A 
ATOM     47  C   UNL A   1      40.599  25.467  27.989  1.00  0.00     0.031 C 
ATOM     48  C   UNL A   1      41.356  31.747  30.660  1.00  0.00     0.029 A 
ATOM     49  C   UNL A   1      42.571  30.955  30.501  1.00  0.00     0.049 A 
ATOM     50  H   UNL A   1      42.728  29.017  29.749  1.00  0.00     0.167 HD
ATOM     51  C   UNL A   1      43.039  25.043  28.122  1.00  0.00     0.031 A 
ATOM     52  C   UNL A   1      43.809  31.372  30.833  1.00  0.00     0.031 A 
ATOM     53  C   UNL A   1      44.406  25.425  28.377  1.00  0.00     0.049 A 
ATOM     54  C   UNL A   1      44.997  30.494  30.557  1.00  0.00     0.074 A 
ATOM     55  C   UNL A   1      45.562  24.694  28.151  1.00  0.00     0.029 A 
ATOM     56  N   UNL A   1      44.807  26.639  28.907  1.00  0.00    -0.354 N 
ATOM     57  N   UNL A   1      45.028  29.286  30.050  1.00  0.00    -0.248 NA
ATOM     58  C   UNL A   1      46.319  31.053  30.875  1.00  0.00     0.031 C 
ATOM     59  C   UNL A   1      46.658  25.454  28.575  1.00  0.00     0.029 A 
ATOM     60  C   UNL A   1      46.189  26.675  29.024  1.00  0.00     0.049 A 
ATOM     61  H   UNL A   1      44.200  27.371  29.163  1.00  0.00     0.167 HD
ATOM     62  C   UNL A   1      46.376  28.952  29.963  1.00  0.00     0.074 A 
ATOM     63  C   UNL A   1      47.126  30.090  30.451  1.00  0.00     0.031 C 
ATOM     64  C   UNL A   1      46.938  27.801  29.517  1.00  0.00     0.031 A 
BRANCH  51  65
ATOM     65  C   UNL A   1      42.790  23.645  27.608  1.00  0.00    -0.014 A 
ATOM     66  C   UNL A   1      42.774  23.378  26.228  1.00  0.00     0.010 A 
ATOM     67  C   UNL A   1      42.648  22.575  28.512  1.00  0.00     0.010 A 
ATOM     68  C   UNL A   1      42.579  22.077  25.758  1.00  0.00     0.020 A 
ATOM     69  C   UNL A   1      42.479  21.267  28.046  1.00  0.00     0.020 A 
ATOM     70  C   UNL A   1      42.428  21.030  26.671  1.00  0.00     0.054 A 
BRANCH  70  71
ATOM     71  S   UNL A   1      42.209  19.345  26.034  1.00  0.00     0.124 S 
ATOM     72  O   UNL A   1      42.635  18.536  27.174  1.00  0.00    -0.237 OA
ATOM     73  O   UNL A   1      40.781  19.298  25.731  1.00  0.00    -0.237 OA
ATOM     74  O   UNL A   1      43.091  19.297  24.871  1.00  0.00    -0.744 OA
ENDBRANCH  70  71
ENDBRANCH  51  65
BRANCH  52  75
ATOM     75  C   UNL A   1      44.002  32.733  31.402  1.00  0.00    -0.014 A 
ATOM     76  C   UNL A   1      44.123  33.845  30.547  1.00  0.00     0.010 A 
ATOM     77  C   UNL A   1      44.070  32.924  32.792  1.00  0.00     0.010 A 
ATOM     78  C   UNL A   1      44.336  35.121  31.073  1.00  0.00     0.020 A 
ATOM     79  C   UNL A   1      44.258  34.203  33.322  1.00  0.00     0.020 A 
ATOM     80  C   UNL A   1      44.405  35.291  32.458  1.00  0.00     0.054 A 
BRANCH  80  81
ATOM     81  S   UNL A   1      44.642  36.962  33.125  1.00  0.00     0.124 S 
ATOM     82  O   UNL A   1      43.571  37.704  32.467  1.00  0.00    -0.237 OA
ATOM     83  O   UNL A   1      44.481  36.758  34.562  1.00  0.00    -0.237 OA
ATOM     84  O   UNL A   1      45.997  37.306  32.701  1.00  0.00    -0.744 OA
ENDBRANCH  80  81
ENDBRANCH  52  75
BRANCH  64  85
ATOM     85  C   UNL A   1      48.442  27.729  29.510  1.00  0.00    -0.014 A 
ATOM     86  C   UNL A   1      49.187  28.099  28.375  1.00  0.00     0.010 A 
ATOM     87  C   UNL A   1      49.123  27.279  30.656  1.00  0.00     0.010 A 
ATOM     88  C   UNL A   1      50.579  27.966  28.366  1.00  0.00     0.020 A 
ATOM     89  C   UNL A   1      50.517  27.169  30.660  1.00  0.00     0.020 A 
ATOM     90  C   UNL A   1      51.234  27.490  29.505  1.00  0.00     0.054 A 
BRANCH  90  91
ATOM     91  S   UNL A   1      53.040  27.320  29.474  1.00  0.00     0.124 S 
ATOM     92  O   UNL A   1      53.334  27.467  28.051  1.00  0.00    -0.237 OA
ATOM     93  O   UNL A   1      53.485  28.423  30.324  1.00  0.00    -0.237 OA
ATOM     94  O   UNL A   1      53.271  25.987  30.025  1.00  0.00    -0.744 OA
ENDBRANCH  90  91
ENDBRANCH  64  85
ENDBRANCH  38  39
ENDBRANCH  30  33
ENDBRANCH  28  29
ENDBRANCH  27  28
ENDBRANCH  26  27
ENDBRANCH   1  26
TORSDOF 20
ENDMDL
