MODEL 1
REMARK VINA RESULT:      -8.9      0.000      0.000
REMARK SMILES CC(C)[C@@H](NC(=O)[C@@H]1CC[C@H]2CCCC[C@@H]2[NH2+]1)C(=O)NCCCCCCNC(=O)c1ccc(-c2c3nc(c(-c4ccc(S(=O)(=O)[O-])cc4)c4ccc([nH]4)c(-c4ccc(S(=O)(=O)[O-])cc4)c4nc(c(-c5ccc(S(=O)(=O)[O-])cc5)c5ccc2[nH]5)C=C4)C=C3)cc1
REMARK SMILES IDX 24 1 23 2 22 3 21 4 20 5 18 6 19 7 4 9 2 10 1 11 3 12 5 13
REMARK SMILES IDX 6 14 7 16 8 17 9 18 17 19 10 20 16 21 11 24 15 25 12 26
REMARK SMILES IDX 14 27 13 28 25 29 26 30 27 31 28 32 29 34 30 35 31 36 89 37
REMARK SMILES IDX 32 38 88 39 33 40 34 41 35 42 82 43 36 44 87 45 81 46 83 47
REMARK SMILES IDX 37 48 86 49 80 50 79 51 38 53 68 54 49 55 67 56 50 57 53 58
REMARK SMILES IDX 66 59 84 60 51 61 52 62 65 64 85 65 54 66 39 67 40 68 48 69
REMARK SMILES IDX 41 70 47 71 42 72 43 73 44 74 45 75 46 76 69 77 70 78 78 79
REMARK SMILES IDX 71 80 77 81 72 82 73 83 74 84 75 85 76 86 55 87 56 88 64 89
REMARK SMILES IDX 57 90 63 91 58 92 59 93 60 94 61 95 62 96
REMARK H PARENT 20 8 5 15 17 22 17 23 27 33 83 52 53 63
REMARK Flexibility Score: inf
ROOT
ATOM      1  C   UNL A   1      37.195  33.123  28.814  1.00  0.00     0.002 C 
ENDROOT
BRANCH   1   2
ATOM      2  C   UNL A   1      37.515  34.156  29.896  1.00  0.00     0.002 C 
BRANCH   2   3
ATOM      3  C   UNL A   1      37.988  33.624  31.254  1.00  0.00     0.021 C 
BRANCH   3   4
ATOM      4  C   UNL A   1      37.234  32.417  31.800  1.00  0.00     0.116 C 
BRANCH   4   5
ATOM      5  N   UNL A   1      36.252  32.770  32.814  1.00  0.00    -0.354 N 
ATOM      6  C   UNL A   1      36.347  32.992  34.155  1.00  0.00     0.242 C 
ATOM      7  O   UNL A   1      35.334  33.447  34.705  1.00  0.00    -0.273 OA
ATOM      8  H   UNL A   1      35.338  32.869  32.461  1.00  0.00     0.163 HD
BRANCH   6   9
ATOM      9  C   UNL A   1      37.621  32.729  35.005  1.00  0.00     0.174 C 
BRANCH   9  10
ATOM     10  C   UNL A   1      37.651  33.662  36.261  1.00  0.00     0.015 C 
ATOM     11  C   UNL A   1      37.480  32.935  37.600  1.00  0.00     0.010 C 
ATOM     12  C   UNL A   1      38.937  34.503  36.335  1.00  0.00     0.010 C 
ENDBRANCH   9  10
BRANCH   9  13
ATOM     13  N   UNL A   1      37.902  31.312  35.347  1.00  0.00    -0.339 N 
ATOM     14  C   UNL A   1      39.038  30.554  35.136  1.00  0.00     0.278 C 
ATOM     15  H   UNL A   1      37.163  30.840  35.793  1.00  0.00     0.164 HD
ATOM     16  O   UNL A   1      39.372  29.806  36.060  1.00  0.00    -0.268 OA
BRANCH  14  17
ATOM     17  C   UNL A   1      39.761  30.582  33.752  1.00  0.00     0.272 C 
ATOM     18  C   UNL A   1      39.410  29.318  32.970  1.00  0.00     0.076 C 
ATOM     19  N   UNL A   1      41.215  30.830  33.869  1.00  0.00    -0.333 N 
ATOM     20  C   UNL A   1      40.368  28.143  33.016  1.00  0.00     0.016 C 
ATOM     21  C   UNL A   1      42.095  29.648  33.881  1.00  0.00     0.186 C 
ATOM     22  H   UNL A   1      41.371  31.339  34.739  1.00  0.00     0.347 HD
ATOM     23  H   UNL A   1      41.467  31.342  33.023  1.00  0.00     0.347 HD
ATOM     24  C   UNL A   1      41.373  28.319  34.132  1.00  0.00     0.048 C 
ATOM     25  C   UNL A   1      43.233  29.852  34.886  1.00  0.00     0.065 C 
ATOM     26  C   UNL A   1      42.327  27.123  34.169  1.00  0.00     0.010 C 
ATOM     27  C   UNL A   1      44.176  28.646  34.922  1.00  0.00     0.006 C 
ATOM     28  C   UNL A   1      43.432  27.342  35.193  1.00  0.00     0.001 C 
ENDBRANCH  14  17
ENDBRANCH   9  13
ENDBRANCH   6   9
ENDBRANCH   4   5
ENDBRANCH   3   4
ENDBRANCH   2   3
ENDBRANCH   1   2
BRANCH   1  29
ATOM     29  C   UNL A   1      35.756  33.086  28.304  1.00  0.00     0.021 C 
BRANCH  29  30
ATOM     30  C   UNL A   1      34.780  32.347  29.202  1.00  0.00     0.116 C 
BRANCH  30  31
ATOM     31  N   UNL A   1      34.086  31.281  28.505  1.00  0.00    -0.352 N 
ATOM     32  C   UNL A   1      34.599  30.125  27.970  1.00  0.00     0.251 C 
ATOM     33  H   UNL A   1      33.115  31.404  28.401  1.00  0.00     0.163 HD
ATOM     34  O   UNL A   1      33.895  29.411  27.266  1.00  0.00    -0.269 OA
BRANCH  32  35
ATOM     35  C   UNL A   1      36.012  29.767  28.226  1.00  0.00     0.039 A 
ATOM     36  C   UNL A   1      36.933  29.876  27.182  1.00  0.00     0.014 A 
ATOM     37  C   UNL A   1      36.426  29.336  29.489  1.00  0.00     0.014 A 
ATOM     38  C   UNL A   1      38.279  29.596  27.421  1.00  0.00     0.010 A 
ATOM     39  C   UNL A   1      37.779  29.147  29.747  1.00  0.00     0.010 A 
ATOM     40  C   UNL A   1      38.717  29.260  28.712  1.00  0.00    -0.014 A 
BRANCH  40  41
ATOM     41  C   UNL A   1      40.151  29.008  28.997  1.00  0.00     0.031 A 
ATOM     42  C   UNL A   1      40.762  27.674  28.663  1.00  0.00     0.074 A 
ATOM     43  C   UNL A   1      40.885  29.960  29.608  1.00  0.00     0.049 A 
ATOM     44  N   UNL A   1      41.980  27.248  28.877  1.00  0.00    -0.248 NA
ATOM     45  C   UNL A   1      39.882  26.676  28.030  1.00  0.00     0.031 C 
ATOM     46  C   UNL A   1      40.390  31.275  30.023  1.00  0.00     0.029 A 
ATOM     47  N   UNL A   1      42.202  29.966  29.992  1.00  0.00    -0.354 N 
ATOM     48  C   UNL A   1      42.006  25.934  28.425  1.00  0.00     0.074 A 
ATOM     49  C   UNL A   1      40.670  25.613  27.977  1.00  0.00     0.031 C 
ATOM     50  C   UNL A   1      41.398  31.971  30.572  1.00  0.00     0.029 A 
ATOM     51  C   UNL A   1      42.596  31.139  30.592  1.00  0.00     0.049 A 
ATOM     52  H   UNL A   1      42.807  29.202  29.853  1.00  0.00     0.167 HD
ATOM     53  C   UNL A   1      43.054  25.079  28.367  1.00  0.00     0.031 A 
ATOM     54  C   UNL A   1      43.787  31.502  31.105  1.00  0.00     0.031 A 
ATOM     55  C   UNL A   1      44.384  25.411  28.805  1.00  0.00     0.049 A 
ATOM     56  C   UNL A   1      44.935  30.531  31.037  1.00  0.00     0.074 A 
ATOM     57  C   UNL A   1      45.530  24.640  28.736  1.00  0.00     0.029 A 
ATOM     58  N   UNL A   1      44.745  26.613  29.397  1.00  0.00    -0.354 N 
ATOM     59  N   UNL A   1      44.959  29.318  30.538  1.00  0.00    -0.248 NA
ATOM     60  C   UNL A   1      46.219  30.984  31.587  1.00  0.00     0.031 C 
ATOM     61  C   UNL A   1      46.570  25.351  29.342  1.00  0.00     0.029 A 
ATOM     62  C   UNL A   1      46.090  26.592  29.725  1.00  0.00     0.049 A 
ATOM     63  H   UNL A   1      44.135  27.368  29.560  1.00  0.00     0.167 HD
ATOM     64  C   UNL A   1      46.267  28.872  30.690  1.00  0.00     0.074 A 
ATOM     65  C   UNL A   1      47.006  29.954  31.311  1.00  0.00     0.031 C 
ATOM     66  C   UNL A   1      46.808  27.677  30.346  1.00  0.00     0.031 A 
BRANCH  53  67
ATOM     67  C   UNL A   1      42.801  23.697  27.820  1.00  0.00    -0.014 A 
ATOM     68  C   UNL A   1      42.358  22.653  28.651  1.00  0.00     0.010 A 
ATOM     69  C   UNL A   1      42.974  23.449  26.446  1.00  0.00     0.010 A 
ATOM     70  C   UNL A   1      42.135  21.376  28.128  1.00  0.00     0.020 A 
ATOM     71  C   UNL A   1      42.720  22.181  25.913  1.00  0.00     0.020 A 
ATOM     72  C   UNL A   1      42.319  21.148  26.761  1.00  0.00     0.054 A 
BRANCH  72  73
ATOM     73  S   UNL A   1      42.000  19.487  26.107  1.00  0.00     0.124 S 
ATOM     74  O   UNL A   1      42.829  19.473  24.904  1.00  0.00    -0.237 OA
ATOM     75  O   UNL A   1      42.456  18.623  27.193  1.00  0.00    -0.237 OA
ATOM     76  O   UNL A   1      40.559  19.477  25.870  1.00  0.00    -0.744 OA
ENDBRANCH  72  73
ENDBRANCH  53  67
BRANCH  54  77
ATOM     77  C   UNL A   1      43.954  32.850  31.716  1.00  0.00    -0.014 A 
ATOM     78  C   UNL A   1      44.310  33.955  30.925  1.00  0.00     0.010 A 
ATOM     79  C   UNL A   1      43.737  33.037  33.094  1.00  0.00     0.010 A 
ATOM     80  C   UNL A   1      44.466  35.220  31.502  1.00  0.00     0.020 A 
ATOM     81  C   UNL A   1      43.860  34.305  33.669  1.00  0.00     0.020 A 
ATOM     82  C   UNL A   1      44.235  35.387  32.871  1.00  0.00     0.054 A 
BRANCH  82  83
ATOM     83  S   UNL A   1      44.393  37.047  33.587  1.00  0.00     0.124 S 
ATOM     84  O   UNL A   1      44.402  37.891  32.396  1.00  0.00    -0.237 OA
ATOM     85  O   UNL A   1      43.200  37.142  34.423  1.00  0.00    -0.237 OA
ATOM     86  O   UNL A   1      45.655  36.983  34.319  1.00  0.00    -0.744 OA
ENDBRANCH  82  83
ENDBRANCH  54  77
BRANCH  66  87
ATOM     87  C   UNL A   1      48.280  27.484  30.600  1.00  0.00    -0.014 A 
ATOM     88  C   UNL A   1      48.747  26.914  31.797  1.00  0.00     0.010 A 
ATOM     89  C   UNL A   1      49.205  27.828  29.596  1.00  0.00     0.010 A 
ATOM     90  C   UNL A   1      50.116  26.720  31.999  1.00  0.00     0.020 A 
ATOM     91  C   UNL A   1      50.571  27.607  29.782  1.00  0.00     0.020 A 
ATOM     92  C   UNL A   1      51.019  27.067  30.989  1.00  0.00     0.054 A 
BRANCH  92  93
ATOM     93  S   UNL A   1      52.787  26.764  31.258  1.00  0.00     0.124 S 
ATOM     94  O   UNL A   1      53.158  27.878  32.127  1.00  0.00    -0.237 OA
ATOM     95  O   UNL A   1      52.792  25.446  31.889  1.00  0.00    -0.237 OA
ATOM     96  O   UNL A   1      53.355  26.806  29.914  1.00  0.00    -0.744 OA
ENDBRANCH  92  93
ENDBRANCH  66  87
ENDBRANCH  40  41
ENDBRANCH  32  35
ENDBRANCH  30  31
ENDBRANCH  29  30
ENDBRANCH   1  29
TORSDOF 19
ENDMDL
MODEL 2
REMARK VINA RESULT:      -8.6      4.963     11.418
REMARK SMILES CC(C)[C@@H](NC(=O)[C@@H]1CC[C@H]2CCCC[C@@H]2[NH2+]1)C(=O)NCCCCCCNC(=O)c1ccc(-c2c3nc(c(-c4ccc(S(=O)(=O)[O-])cc4)c4ccc([nH]4)c(-c4ccc(S(=O)(=O)[O-])cc4)c4nc(c(-c5ccc(S(=O)(=O)[O-])cc5)c5ccc2[nH]5)C=C4)C=C3)cc1
REMARK SMILES IDX 24 1 23 2 22 3 21 4 20 5 18 6 19 7 4 9 2 10 1 11 3 12 5 13
REMARK SMILES IDX 6 14 7 16 8 17 9 18 17 19 10 20 16 21 11 24 15 25 12 26
REMARK SMILES IDX 14 27 13 28 25 29 26 30 27 31 28 32 29 34 30 35 31 36 89 37
REMARK SMILES IDX 32 38 88 39 33 40 34 41 35 42 82 43 36 44 87 45 81 46 83 47
REMARK SMILES IDX 37 48 86 49 80 50 79 51 38 53 68 54 49 55 67 56 50 57 53 58
REMARK SMILES IDX 66 59 84 60 51 61 52 62 65 64 85 65 54 66 39 67 40 68 48 69
REMARK SMILES IDX 41 70 47 71 42 72 43 73 44 74 45 75 46 76 69 77 70 78 78 79
REMARK SMILES IDX 71 80 77 81 72 82 73 83 74 84 75 85 76 86 55 87 56 88 64 89
REMARK SMILES IDX 57 90 63 91 58 92 59 93 60 94 61 95 62 96
REMARK H PARENT 20 8 5 15 17 22 17 23 27 33 83 52 53 63
REMARK Flexibility Score: inf
ROOT
ATOM      1  C   UNL A   1      37.501  20.797  24.686  1.00  0.00     0.002 C 
ENDROOT
BRANCH   1   2
ATOM      2  C   UNL A   1      37.889  22.219  25.097  1.00  0.00     0.002 C 
BRANCH   2   3
ATOM      3  C   UNL A   1      36.931  23.348  24.701  1.00  0.00     0.021 C 
BRANCH   3   4
ATOM      4  C   UNL A   1      36.173  24.016  25.842  1.00  0.00     0.116 C 
BRANCH   4   5
ATOM      5  N   UNL A   1      35.633  23.064  26.801  1.00  0.00    -0.354 N 
ATOM      6  C   UNL A   1      34.521  22.277  26.795  1.00  0.00     0.242 C 
ATOM      7  O   UNL A   1      34.440  21.442  27.707  1.00  0.00    -0.273 OA
ATOM      8  H   UNL A   1      36.180  22.970  27.615  1.00  0.00     0.163 HD
BRANCH   6   9
ATOM      9  C   UNL A   1      33.391  22.354  25.732  1.00  0.00     0.174 C 
BRANCH   9  10
ATOM     10  C   UNL A   1      33.640  21.321  24.583  1.00  0.00     0.015 C 
ATOM     11  C   UNL A   1      34.059  19.926  25.058  1.00  0.00     0.010 C 
ATOM     12  C   UNL A   1      32.418  21.165  23.661  1.00  0.00     0.010 C 
ENDBRANCH   9  10
BRANCH   9  13
ATOM     13  N   UNL A   1      32.000  22.300  26.247  1.00  0.00    -0.339 N 
ATOM     14  C   UNL A   1      30.986  23.236  26.170  1.00  0.00     0.278 C 
ATOM     15  H   UNL A   1      31.764  21.468  26.716  1.00  0.00     0.164 HD
ATOM     16  O   UNL A   1      29.857  22.796  25.929  1.00  0.00    -0.268 OA
BRANCH  14  17
ATOM     17  C   UNL A   1      31.270  24.738  26.491  1.00  0.00     0.272 C 
ATOM     18  C   UNL A   1      30.050  25.577  26.117  1.00  0.00     0.076 C 
ATOM     19  N   UNL A   1      32.536  25.221  25.897  1.00  0.00    -0.333 N 
ATOM     20  C   UNL A   1      30.027  26.267  24.766  1.00  0.00     0.016 C 
ATOM     21  C   UNL A   1      32.444  25.908  24.597  1.00  0.00     0.186 C 
ATOM     22  H   UNL A   1      33.148  24.414  25.777  1.00  0.00     0.347 HD
ATOM     23  H   UNL A   1      32.882  25.928  26.547  1.00  0.00     0.347 HD
ATOM     24  C   UNL A   1      31.109  25.713  23.867  1.00  0.00     0.048 C 
ATOM     25  C   UNL A   1      33.620  25.502  23.704  1.00  0.00     0.065 C 
ATOM     26  C   UNL A   1      31.068  26.415  22.507  1.00  0.00     0.010 C 
ATOM     27  C   UNL A   1      33.564  26.202  22.343  1.00  0.00     0.006 C 
ATOM     28  C   UNL A   1      32.234  25.973  21.634  1.00  0.00     0.001 C 
ENDBRANCH  14  17
ENDBRANCH   9  13
ENDBRANCH   6   9
ENDBRANCH   4   5
ENDBRANCH   3   4
ENDBRANCH   2   3
ENDBRANCH   1   2
BRANCH   1  29
ATOM     29  C   UNL A   1      38.328  19.660  25.283  1.00  0.00     0.021 C 
BRANCH  29  30
ATOM     30  C   UNL A   1      39.573  20.102  26.030  1.00  0.00     0.116 C 
BRANCH  30  31
ATOM     31  N   UNL A   1      40.579  19.058  26.094  1.00  0.00    -0.352 N 
ATOM     32  C   UNL A   1      41.943  19.182  26.194  1.00  0.00     0.251 C 
ATOM     33  H   UNL A   1      40.237  18.136  26.061  1.00  0.00     0.163 HD
ATOM     34  O   UNL A   1      42.658  18.195  26.067  1.00  0.00    -0.269 OA
BRANCH  32  35
ATOM     35  C   UNL A   1      42.540  20.517  26.425  1.00  0.00     0.039 A 
ATOM     36  C   UNL A   1      42.997  21.248  25.326  1.00  0.00     0.014 A 
ATOM     37  C   UNL A   1      42.639  21.046  27.714  1.00  0.00     0.014 A 
ATOM     38  C   UNL A   1      43.510  22.531  25.520  1.00  0.00     0.010 A 
ATOM     39  C   UNL A   1      43.065  22.357  27.894  1.00  0.00     0.010 A 
ATOM     40  C   UNL A   1      43.520  23.107  26.801  1.00  0.00    -0.014 A 
BRANCH  40  41
ATOM     41  C   UNL A   1      44.015  24.489  27.020  1.00  0.00     0.031 A 
ATOM     42  C   UNL A   1      43.053  25.579  27.409  1.00  0.00     0.074 A 
ATOM     43  C   UNL A   1      45.316  24.770  26.813  1.00  0.00     0.049 A 
ATOM     44  N   UNL A   1      43.284  26.853  27.599  1.00  0.00    -0.248 NA
ATOM     45  C   UNL A   1      41.641  25.196  27.579  1.00  0.00     0.031 C 
ATOM     46  C   UNL A   1      46.334  23.804  26.389  1.00  0.00     0.029 A 
ATOM     47  N   UNL A   1      46.007  25.949  26.926  1.00  0.00    -0.354 N 
ATOM     48  C   UNL A   1      42.050  27.421  27.891  1.00  0.00     0.074 A 
ATOM     49  C   UNL A   1      41.065  26.368  27.798  1.00  0.00     0.031 C 
ATOM     50  C   UNL A   1      47.523  24.424  26.311  1.00  0.00     0.029 A 
ATOM     51  C   UNL A   1      47.345  25.836  26.632  1.00  0.00     0.049 A 
ATOM     52  H   UNL A   1      45.583  26.797  27.192  1.00  0.00     0.167 HD
ATOM     53  C   UNL A   1      41.766  28.702  28.228  1.00  0.00     0.031 A 
ATOM     54  C   UNL A   1      48.320  26.766  26.617  1.00  0.00     0.031 A 
ATOM     55  C   UNL A   1      42.755  29.741  28.330  1.00  0.00     0.049 A 
ATOM     56  C   UNL A   1      47.978  28.184  26.988  1.00  0.00     0.074 A 
ATOM     57  C   UNL A   1      42.584  31.057  28.721  1.00  0.00     0.029 A 
ATOM     58  N   UNL A   1      44.102  29.584  28.034  1.00  0.00    -0.354 N 
ATOM     59  N   UNL A   1      46.817  28.687  27.333  1.00  0.00    -0.248 NA
ATOM     60  C   UNL A   1      49.080  29.154  26.981  1.00  0.00     0.031 C 
ATOM     61  C   UNL A   1      43.814  31.710  28.604  1.00  0.00     0.029 A 
ATOM     62  C   UNL A   1      44.767  30.786  28.206  1.00  0.00     0.049 A 
ATOM     63  H   UNL A   1      44.523  28.742  27.745  1.00  0.00     0.167 HD
ATOM     64  C   UNL A   1      47.054  30.029  27.611  1.00  0.00     0.074 A 
ATOM     65  C   UNL A   1      48.473  30.251  27.410  1.00  0.00     0.031 C 
ATOM     66  C   UNL A   1      46.179  30.989  27.999  1.00  0.00     0.031 A 
BRANCH  53  67
ATOM     67  C   UNL A   1      40.325  29.050  28.502  1.00  0.00    -0.014 A 
ATOM     68  C   UNL A   1      39.824  29.103  29.815  1.00  0.00     0.010 A 
ATOM     69  C   UNL A   1      39.469  29.366  27.431  1.00  0.00     0.010 A 
ATOM     70  C   UNL A   1      38.483  29.421  30.050  1.00  0.00     0.020 A 
ATOM     71  C   UNL A   1      38.135  29.716  27.665  1.00  0.00     0.020 A 
ATOM     72  C   UNL A   1      37.646  29.724  28.972  1.00  0.00     0.054 A 
BRANCH  72  73
ATOM     73  S   UNL A   1      35.917  30.155  29.309  1.00  0.00     0.124 S 
ATOM     74  O   UNL A   1      35.770  29.740  30.702  1.00  0.00    -0.237 OA
ATOM     75  O   UNL A   1      35.897  31.597  29.079  1.00  0.00    -0.237 OA
ATOM     76  O   UNL A   1      35.166  29.362  28.340  1.00  0.00    -0.744 OA
ENDBRANCH  72  73
ENDBRANCH  53  67
BRANCH  54  77
ATOM     77  C   UNL A   1      49.710  26.379  26.250  1.00  0.00    -0.014 A 
ATOM     78  C   UNL A   1      50.173  26.537  24.933  1.00  0.00     0.010 A 
ATOM     79  C   UNL A   1      50.586  25.866  27.225  1.00  0.00     0.010 A 
ATOM     80  C   UNL A   1      51.480  26.173  24.591  1.00  0.00     0.020 A 
ATOM     81  C   UNL A   1      51.902  25.531  26.896  1.00  0.00     0.020 A 
ATOM     82  C   UNL A   1      52.337  25.675  25.577  1.00  0.00     0.054 A 
BRANCH  82  83
ATOM     83  S   UNL A   1      54.043  25.257  25.122  1.00  0.00     0.124 S 
ATOM     84  O   UNL A   1      53.974  23.805  24.990  1.00  0.00    -0.237 OA
ATOM     85  O   UNL A   1      54.225  25.999  23.877  1.00  0.00    -0.237 OA
ATOM     86  O   UNL A   1      54.828  25.747  26.252  1.00  0.00    -0.744 OA
ENDBRANCH  82  83
ENDBRANCH  54  77
BRANCH  66  87
ATOM     87  C   UNL A   1      46.732  32.364  28.267  1.00  0.00    -0.014 A 
ATOM     88  C   UNL A   1      47.223  32.721  29.535  1.00  0.00     0.010 A 
ATOM     89  C   UNL A   1      46.814  33.293  27.212  1.00  0.00     0.010 A 
ATOM     90  C   UNL A   1      47.757  33.994  29.752  1.00  0.00     0.020 A 
ATOM     91  C   UNL A   1      47.376  34.555  27.418  1.00  0.00     0.020 A 
ATOM     92  C   UNL A   1      47.830  34.902  28.691  1.00  0.00     0.054 A 
BRANCH  92  93
ATOM     93  S   UNL A   1      48.568  36.532  28.989  1.00  0.00     0.124 S 
ATOM     94  O   UNL A   1      49.902  36.178  29.470  1.00  0.00    -0.237 OA
ATOM     95  O   UNL A   1      48.520  37.151  27.667  1.00  0.00    -0.237 OA
ATOM     96  O   UNL A   1      47.687  37.136  29.985  1.00  0.00    -0.744 OA
ENDBRANCH  92  93
ENDBRANCH  66  87
ENDBRANCH  40  41
ENDBRANCH  32  35
ENDBRANCH  30  31
ENDBRANCH  29  30
ENDBRANCH   1  29
TORSDOF 19
ENDMDL
MODEL 3
REMARK VINA RESULT:      -8.6      4.408      7.657
REMARK SMILES CC(C)[C@@H](NC(=O)[C@@H]1CC[C@H]2CCCC[C@@H]2[NH2+]1)C(=O)NCCCCCCNC(=O)c1ccc(-c2c3nc(c(-c4ccc(S(=O)(=O)[O-])cc4)c4ccc([nH]4)c(-c4ccc(S(=O)(=O)[O-])cc4)c4nc(c(-c5ccc(S(=O)(=O)[O-])cc5)c5ccc2[nH]5)C=C4)C=C3)cc1
REMARK SMILES IDX 24 1 23 2 22 3 21 4 20 5 18 6 19 7 4 9 2 10 1 11 3 12 5 13
REMARK SMILES IDX 6 14 7 16 8 17 9 18 17 19 10 20 16 21 11 24 15 25 12 26
REMARK SMILES IDX 14 27 13 28 25 29 26 30 27 31 28 32 29 34 30 35 31 36 89 37
REMARK SMILES IDX 32 38 88 39 33 40 34 41 35 42 82 43 36 44 87 45 81 46 83 47
REMARK SMILES IDX 37 48 86 49 80 50 79 51 38 53 68 54 49 55 67 56 50 57 53 58
REMARK SMILES IDX 66 59 84 60 51 61 52 62 65 64 85 65 54 66 39 67 40 68 48 69
REMARK SMILES IDX 41 70 47 71 42 72 43 73 44 74 45 75 46 76 69 77 70 78 78 79
REMARK SMILES IDX 71 80 77 81 72 82 73 83 74 84 75 85 76 86 55 87 56 88 64 89
REMARK SMILES IDX 57 90 63 91 58 92 59 93 60 94 61 95 62 96
REMARK H PARENT 20 8 5 15 17 22 17 23 27 33 83 52 53 63
REMARK Flexibility Score: inf
ROOT
ATOM      1  C   UNL A   1      35.226  31.366  27.602  1.00  0.00     0.002 C 
ENDROOT
BRANCH   1   2
ATOM      2  C   UNL A   1      35.074  29.843  27.576  1.00  0.00     0.002 C 
BRANCH   2   3
ATOM      3  C   UNL A   1      33.714  29.283  27.145  1.00  0.00     0.021 C 
BRANCH   3   4
ATOM      4  C   UNL A   1      32.899  30.157  26.199  1.00  0.00     0.116 C 
BRANCH   4   5
ATOM      5  N   UNL A   1      32.995  29.736  24.809  1.00  0.00    -0.354 N 
ATOM      6  C   UNL A   1      32.217  28.932  24.032  1.00  0.00     0.242 C 
ATOM      7  O   UNL A   1      32.489  28.915  22.823  1.00  0.00    -0.273 OA
ATOM      8  H   UNL A   1      33.775  30.107  24.337  1.00  0.00     0.163 HD
BRANCH   6   9
ATOM      9  C   UNL A   1      31.034  28.073  24.557  1.00  0.00     0.174 C 
BRANCH   9  10
ATOM     10  C   UNL A   1      29.973  27.842  23.430  1.00  0.00     0.015 C 
ATOM     11  C   UNL A   1      28.935  26.758  23.743  1.00  0.00     0.010 C 
ATOM     12  C   UNL A   1      29.220  29.132  23.062  1.00  0.00     0.010 C 
ENDBRANCH   9  10
BRANCH   9  13
ATOM     13  N   UNL A   1      31.395  26.815  25.258  1.00  0.00    -0.339 N 
ATOM     14  C   UNL A   1      32.454  25.952  25.048  1.00  0.00     0.278 C 
ATOM     15  H   UNL A   1      30.785  26.556  25.985  1.00  0.00     0.164 HD
ATOM     16  O   UNL A   1      33.000  25.505  26.061  1.00  0.00    -0.268 OA
BRANCH  14  17
ATOM     17  C   UNL A   1      32.831  25.501  23.601  1.00  0.00     0.272 C 
ATOM     18  C   UNL A   1      31.762  24.547  23.072  1.00  0.00     0.076 C 
ATOM     19  N   UNL A   1      34.209  24.970  23.507  1.00  0.00    -0.333 N 
ATOM     20  C   UNL A   1      31.997  23.053  23.187  1.00  0.00     0.016 C 
ATOM     21  C   UNL A   1      34.368  23.508  23.598  1.00  0.00     0.186 C 
ATOM     22  H   UNL A   1      34.752  25.387  24.262  1.00  0.00     0.347 HD
ATOM     23  H   UNL A   1      34.524  25.214  22.567  1.00  0.00     0.347 HD
ATOM     24  C   UNL A   1      33.138  22.765  24.136  1.00  0.00     0.048 C 
ATOM     25  C   UNL A   1      35.616  23.166  24.418  1.00  0.00     0.065 C 
ATOM     26  C   UNL A   1      33.358  21.254  24.246  1.00  0.00     0.010 C 
ATOM     27  C   UNL A   1      35.821  21.653  24.530  1.00  0.00     0.006 C 
ATOM     28  C   UNL A   1      34.589  20.946  25.086  1.00  0.00     0.001 C 
ENDBRANCH  14  17
ENDBRANCH   9  13
ENDBRANCH   6   9
ENDBRANCH   4   5
ENDBRANCH   3   4
ENDBRANCH   2   3
ENDBRANCH   1   2
BRANCH   1  29
ATOM     29  C   UNL A   1      34.978  32.057  28.942  1.00  0.00     0.021 C 
BRANCH  29  30
ATOM     30  C   UNL A   1      36.178  32.094  29.871  1.00  0.00     0.116 C 
BRANCH  30  31
ATOM     31  N   UNL A   1      36.010  31.229  31.024  1.00  0.00    -0.352 N 
ATOM     32  C   UNL A   1      36.837  30.231  31.478  1.00  0.00     0.251 C 
ATOM     33  H   UNL A   1      35.193  31.377  31.552  1.00  0.00     0.163 HD
ATOM     34  O   UNL A   1      36.461  29.484  32.373  1.00  0.00    -0.269 OA
BRANCH  32  35
ATOM     35  C   UNL A   1      38.168  30.048  30.858  1.00  0.00     0.039 A 
ATOM     36  C   UNL A   1      39.271  29.830  31.687  1.00  0.00     0.014 A 
ATOM     37  C   UNL A   1      38.326  30.082  29.470  1.00  0.00     0.014 A 
ATOM     38  C   UNL A   1      40.524  29.599  31.117  1.00  0.00     0.010 A 
ATOM     39  C   UNL A   1      39.555  29.762  28.904  1.00  0.00     0.010 A 
ATOM     40  C   UNL A   1      40.670  29.533  29.722  1.00  0.00    -0.014 A 
BRANCH  40  41
ATOM     41  C   UNL A   1      41.984  29.239  29.098  1.00  0.00     0.031 A 
ATOM     42  C   UNL A   1      42.269  27.863  28.559  1.00  0.00     0.074 A 
ATOM     43  C   UNL A   1      42.935  30.193  29.069  1.00  0.00     0.049 A 
ATOM     44  N   UNL A   1      43.369  27.400  28.023  1.00  0.00    -0.248 NA
ATOM     45  C   UNL A   1      41.189  26.867  28.663  1.00  0.00     0.031 C 
ATOM     46  C   UNL A   1      42.789  31.551  29.603  1.00  0.00     0.029 A 
ATOM     47  N   UNL A   1      44.214  30.168  28.576  1.00  0.00    -0.354 N 
ATOM     48  C   UNL A   1      43.118  26.062  27.743  1.00  0.00     0.074 A 
ATOM     49  C   UNL A   1      41.786  25.771  28.221  1.00  0.00     0.031 C 
ATOM     50  C   UNL A   1      43.922  32.236  29.377  1.00  0.00     0.029 A 
ATOM     51  C   UNL A   1      44.888  31.356  28.728  1.00  0.00     0.049 A 
ATOM     52  H   UNL A   1      44.613  29.373  28.154  1.00  0.00     0.167 HD
ATOM     53  C   UNL A   1      43.919  25.162  27.125  1.00  0.00     0.031 A 
ATOM     54  C   UNL A   1      46.146  31.699  28.387  1.00  0.00     0.031 A 
ATOM     55  C   UNL A   1      45.240  25.463  26.643  1.00  0.00     0.049 A 
ATOM     56  C   UNL A   1      47.019  30.679  27.708  1.00  0.00     0.074 A 
ATOM     57  C   UNL A   1      46.112  24.642  25.950  1.00  0.00     0.029 A 
ATOM     58  N   UNL A   1      45.884  26.682  26.806  1.00  0.00    -0.354 N 
ATOM     59  N   UNL A   1      46.738  29.439  27.386  1.00  0.00    -0.248 NA
ATOM     60  C   UNL A   1      48.372  31.110  27.333  1.00  0.00     0.031 C 
ATOM     61  C   UNL A   1      47.304  25.344  25.748  1.00  0.00     0.029 A 
ATOM     62  C   UNL A   1      47.151  26.625  26.253  1.00  0.00     0.049 A 
ATOM     63  H   UNL A   1      45.496  27.471  27.250  1.00  0.00     0.167 HD
ATOM     64  C   UNL A   1      47.871  28.949  26.746  1.00  0.00     0.074 A 
ATOM     65  C   UNL A   1      48.833  30.033  26.712  1.00  0.00     0.031 C 
ATOM     66  C   UNL A   1      48.096  27.714  26.232  1.00  0.00     0.031 A 
BRANCH  53  67
ATOM     67  C   UNL A   1      43.389  23.762  26.944  1.00  0.00    -0.014 A 
ATOM     68  C   UNL A   1      43.274  22.879  28.033  1.00  0.00     0.010 A 
ATOM     69  C   UNL A   1      42.966  23.335  25.672  1.00  0.00     0.010 A 
ATOM     70  C   UNL A   1      42.788  21.582  27.846  1.00  0.00     0.020 A 
ATOM     71  C   UNL A   1      42.448  22.050  25.487  1.00  0.00     0.020 A 
ATOM     72  C   UNL A   1      42.379  21.175  26.573  1.00  0.00     0.054 A 
BRANCH  72  73
ATOM     73  S   UNL A   1      41.730  19.494  26.365  1.00  0.00     0.124 S 
ATOM     74  O   UNL A   1      42.099  18.871  27.633  1.00  0.00    -0.237 OA
ATOM     75  O   UNL A   1      40.301  19.725  26.170  1.00  0.00    -0.237 OA
ATOM     76  O   UNL A   1      42.442  18.989  25.193  1.00  0.00    -0.744 OA
ENDBRANCH  72  73
ENDBRANCH  53  67
BRANCH  54  77
ATOM     77  C   UNL A   1      46.645  33.073  28.672  1.00  0.00    -0.014 A 
ATOM     78  C   UNL A   1      47.218  33.382  29.917  1.00  0.00     0.010 A 
ATOM     79  C   UNL A   1      46.565  34.077  27.689  1.00  0.00     0.010 A 
ATOM     80  C   UNL A   1      47.685  34.673  30.183  1.00  0.00     0.020 A 
ATOM     81  C   UNL A   1      47.060  35.360  27.938  1.00  0.00     0.020 A 
ATOM     82  C   UNL A   1      47.607  35.653  29.189  1.00  0.00     0.054 A 
BRANCH  82  83
ATOM     83  S   UNL A   1      48.266  37.307  29.538  1.00  0.00     0.124 S 
ATOM     84  O   UNL A   1      47.186  38.169  29.068  1.00  0.00    -0.237 OA
ATOM     85  O   UNL A   1      48.462  37.267  30.985  1.00  0.00    -0.237 OA
ATOM     86  O   UNL A   1      49.496  37.357  28.752  1.00  0.00    -0.744 OA
ENDBRANCH  82  83
ENDBRANCH  54  77
BRANCH  66  87
ATOM     87  C   UNL A   1      49.420  27.475  25.556  1.00  0.00    -0.014 A 
ATOM     88  C   UNL A   1      50.518  26.953  26.261  1.00  0.00     0.010 A 
ATOM     89  C   UNL A   1      49.547  27.726  24.176  1.00  0.00     0.010 A 
ATOM     90  C   UNL A   1      51.729  26.715  25.606  1.00  0.00     0.020 A 
ATOM     91  C   UNL A   1      50.746  27.459  23.512  1.00  0.00     0.020 A 
ATOM     92  C   UNL A   1      51.834  26.969  24.235  1.00  0.00     0.054 A 
BRANCH  92  93
ATOM     93  S   UNL A   1      53.403  26.608  23.400  1.00  0.00     0.124 S 
ATOM     94  O   UNL A   1      54.057  27.914  23.404  1.00  0.00    -0.237 OA
ATOM     95  O   UNL A   1      54.004  25.601  24.271  1.00  0.00    -0.237 OA
ATOM     96  O   UNL A   1      52.993  26.121  22.085  1.00  0.00    -0.744 OA
ENDBRANCH  92  93
ENDBRANCH  66  87
ENDBRANCH  40  41
ENDBRANCH  32  35
ENDBRANCH  30  31
ENDBRANCH  29  30
ENDBRANCH   1  29
TORSDOF 19
ENDMDL
