MODEL 1
REMARK VINA RESULT:     -12.9      0.000      0.000
REMARK SMILES CN1C(=O)C[C@@H](C(=O)NCCCCCCNC(=O)c2ccc(-c3c4nc(c(-c5ccc(S(=O)(=O)[O-])cc5)c5ccc([nH]5)c(-c5ccc(S(=O)(=O)[O-])cc5)c5nc(c(-c6ccc(S(=O)(=O)[O-])cc6)c6ccc3[nH]6)C=C5)C=C4)cc2)C12CCN(C(=O)c1cccc3ccccc13)CC2
REMARK SMILES IDX 13 1 12 2 11 3 10 4 9 5 7 6 8 7 6 9 1 10 2 11 3 12 79 13
REMARK SMILES IDX 4 14 5 15 80 16 96 17 81 18 95 19 82 20 83 21 84 22 85 23
REMARK SMILES IDX 86 24 94 25 87 26 89 27 93 28 88 29 90 30 92 31 91 32 14 33
REMARK SMILES IDX 15 34 16 35 17 36 18 38 19 39 20 40 78 41 21 42 77 43 22 44
REMARK SMILES IDX 23 45 24 46 71 47 25 48 76 49 70 50 72 51 26 52 75 53 69 54
REMARK SMILES IDX 68 55 27 57 57 58 38 59 56 60 39 61 42 62 55 63 73 64 40 65
REMARK SMILES IDX 41 66 54 68 74 69 43 70 28 71 29 72 37 73 30 74 36 75 31 76
REMARK SMILES IDX 32 77 33 78 34 79 35 80 58 81 59 82 67 83 60 84 66 85 61 86
REMARK SMILES IDX 62 87 63 88 64 89 65 90 44 91 45 92 53 93 46 94 52 95 47 96
REMARK SMILES IDX 48 97 49 98 50 99 51 100
REMARK H PARENT 9 8 16 37 72 56 42 67
REMARK Flexibility Score: inf
ROOT
ATOM      1  C   UNL A   1      40.402  21.861  27.420  1.00  0.00     0.002 C 
ENDROOT
BRANCH   1   2
ATOM      2  C   UNL A   1      39.375  22.263  26.364  1.00  0.00     0.002 C 
BRANCH   2   3
ATOM      3  C   UNL A   1      38.949  23.726  26.431  1.00  0.00     0.021 C 
BRANCH   3   4
ATOM      4  C   UNL A   1      37.456  23.974  26.181  1.00  0.00     0.116 C 
BRANCH   4   5
ATOM      5  N   UNL A   1      37.010  23.541  24.868  1.00  0.00    -0.356 N 
ATOM      6  C   UNL A   1      36.084  22.641  24.454  1.00  0.00     0.226 C 
ATOM      7  O   UNL A   1      35.932  22.544  23.229  1.00  0.00    -0.275 OA
ATOM      8  H   UNL A   1      37.474  23.995  24.128  1.00  0.00     0.163 HD
BRANCH   6   9
ATOM      9  C   UNL A   1      35.252  21.732  25.367  1.00  0.00     0.113 C 
ATOM     10  C   UNL A   1      32.449  19.855  23.745  1.00  0.00     0.147 C 
ATOM     11  N   UNL A   1      33.607  20.307  24.495  1.00  0.00    -0.339 N 
ATOM     12  C   UNL A   1      34.726  19.504  24.669  1.00  0.00     0.223 C 
ATOM     13  C   UNL A   1      33.726  21.633  25.123  1.00  0.00     0.058 C 
ATOM     14  O   UNL A   1      34.870  18.362  24.277  1.00  0.00    -0.275 OA
ATOM     15  C   UNL A   1      35.777  20.297  25.391  1.00  0.00     0.116 C 
ATOM     16  C   UNL A   1      33.168  22.783  24.267  1.00  0.00     0.051 C 
ATOM     17  C   UNL A   1      32.915  21.610  26.454  1.00  0.00     0.051 C 
ATOM     18  C   UNL A   1      33.198  24.127  24.989  1.00  0.00     0.122 C 
ATOM     19  C   UNL A   1      32.740  22.990  27.099  1.00  0.00     0.122 C 
ATOM     20  N   UNL A   1      32.320  24.002  26.126  1.00  0.00    -0.338 N 
ATOM     21  C   UNL A   1      31.084  24.628  26.254  1.00  0.00     0.254 C 
ATOM     22  O   UNL A   1      30.258  24.271  27.095  1.00  0.00    -0.269 OA
BRANCH  21  23
ATOM     23  C   UNL A   1      30.756  25.875  25.504  1.00  0.00     0.047 A 
ATOM     24  C   UNL A   1      30.176  25.619  24.248  1.00  0.00     0.014 A 
ATOM     25  C   UNL A   1      31.185  27.194  25.844  1.00  0.00    -0.006 A 
ATOM     26  C   UNL A   1      30.085  26.621  23.292  1.00  0.00     0.001 A 
ATOM     27  C   UNL A   1      31.124  28.190  24.832  1.00  0.00    -0.018 A 
ATOM     28  C   UNL A   1      31.666  27.612  27.108  1.00  0.00     0.009 A 
ATOM     29  C   UNL A   1      30.596  27.883  23.569  1.00  0.00     0.009 A 
ATOM     30  C   UNL A   1      31.592  29.491  25.079  1.00  0.00     0.009 A 
ATOM     31  C   UNL A   1      32.018  28.940  27.374  1.00  0.00     0.001 A 
ATOM     32  C   UNL A   1      32.014  29.873  26.349  1.00  0.00     0.001 A 
ENDBRANCH  21  23
ENDBRANCH   6   9
ENDBRANCH   4   5
ENDBRANCH   3   4
ENDBRANCH   2   3
ENDBRANCH   1   2
BRANCH   1  33
ATOM     33  C   UNL A   1      41.859  21.979  26.968  1.00  0.00     0.021 C 
BRANCH  33  34
ATOM     34  C   UNL A   1      42.509  23.327  27.265  1.00  0.00     0.116 C 
BRANCH  34  35
ATOM     35  N   UNL A   1      42.596  24.155  26.076  1.00  0.00    -0.352 N 
ATOM     36  C   UNL A   1      42.299  25.487  25.939  1.00  0.00     0.251 C 
ATOM     37  H   UNL A   1      42.909  23.701  25.260  1.00  0.00     0.163 HD
ATOM     38  O   UNL A   1      42.197  25.988  24.825  1.00  0.00    -0.269 OA
BRANCH  36  39
ATOM     39  C   UNL A   1      42.093  26.303  27.152  1.00  0.00     0.039 A 
ATOM     40  C   UNL A   1      42.916  27.408  27.375  1.00  0.00     0.014 A 
ATOM     41  C   UNL A   1      41.076  25.982  28.055  1.00  0.00     0.014 A 
ATOM     42  C   UNL A   1      42.687  28.221  28.487  1.00  0.00     0.010 A 
ATOM     43  C   UNL A   1      40.802  26.834  29.118  1.00  0.00     0.010 A 
ATOM     44  C   UNL A   1      41.611  27.957  29.351  1.00  0.00    -0.014 A 
BRANCH  44  45
ATOM     45  C   UNL A   1      41.323  28.832  30.516  1.00  0.00     0.031 A 
ATOM     46  C   UNL A   1      42.141  28.698  31.773  1.00  0.00     0.074 A 
ATOM     47  C   UNL A   1      40.296  29.702  30.463  1.00  0.00     0.049 A 
ATOM     48  N   UNL A   1      41.999  29.315  32.917  1.00  0.00    -0.248 NA
ATOM     49  C   UNL A   1      43.248  27.727  31.749  1.00  0.00     0.031 C 
ATOM     50  C   UNL A   1      39.413  29.904  29.310  1.00  0.00     0.029 A 
ATOM     51  N   UNL A   1      39.815  30.578  31.404  1.00  0.00    -0.354 N 
ATOM     52  C   UNL A   1      42.985  28.798  33.750  1.00  0.00     0.074 A 
ATOM     53  C   UNL A   1      43.684  27.779  32.999  1.00  0.00     0.031 C 
ATOM     54  C   UNL A   1      38.516  30.860  29.606  1.00  0.00     0.029 A 
ATOM     55  C   UNL A   1      38.728  31.305  30.979  1.00  0.00     0.049 A 
ATOM     56  H   UNL A   1      40.211  30.676  32.300  1.00  0.00     0.167 HD
ATOM     57  C   UNL A   1      43.296  29.155  35.018  1.00  0.00     0.031 A 
ATOM     58  C   UNL A   1      37.977  32.219  31.626  1.00  0.00     0.031 A 
ATOM     59  C   UNL A   1      42.604  30.177  35.758  1.00  0.00     0.049 A 
ATOM     60  C   UNL A   1      38.325  32.575  33.047  1.00  0.00     0.074 A 
ATOM     61  C   UNL A   1      42.870  30.644  37.033  1.00  0.00     0.029 A 
ATOM     62  N   UNL A   1      41.511  30.891  35.290  1.00  0.00    -0.354 N 
ATOM     63  N   UNL A   1      39.297  32.115  33.798  1.00  0.00    -0.248 NA
ATOM     64  C   UNL A   1      37.480  33.582  33.705  1.00  0.00     0.031 C 
ATOM     65  C   UNL A   1      41.902  31.598  37.359  1.00  0.00     0.029 A 
ATOM     66  C   UNL A   1      41.078  31.778  36.260  1.00  0.00     0.049 A 
ATOM     67  H   UNL A   1      41.104  30.784  34.400  1.00  0.00     0.167 HD
ATOM     68  C   UNL A   1      39.203  32.804  35.002  1.00  0.00     0.074 A 
ATOM     69  C   UNL A   1      38.088  33.720  34.875  1.00  0.00     0.031 C 
ATOM     70  C   UNL A   1      39.973  32.692  36.113  1.00  0.00     0.031 A 
BRANCH  57  71
ATOM     71  C   UNL A   1      44.436  28.436  35.691  1.00  0.00    -0.014 A 
ATOM     72  C   UNL A   1      44.220  27.252  36.419  1.00  0.00     0.010 A 
ATOM     73  C   UNL A   1      45.750  28.918  35.544  1.00  0.00     0.010 A 
ATOM     74  C   UNL A   1      45.290  26.583  37.017  1.00  0.00     0.020 A 
ATOM     75  C   UNL A   1      46.828  28.233  36.114  1.00  0.00     0.020 A 
ATOM     76  C   UNL A   1      46.589  27.077  36.859  1.00  0.00     0.054 A 
BRANCH  76  77
ATOM     77  S   UNL A   1      47.961  26.162  37.612  1.00  0.00     0.124 S 
ATOM     78  O   UNL A   1      47.759  26.433  39.034  1.00  0.00    -0.237 OA
ATOM     79  O   UNL A   1      47.699  24.788  37.191  1.00  0.00    -0.237 OA
ATOM     80  O   UNL A   1      49.151  26.775  37.026  1.00  0.00    -0.744 OA
ENDBRANCH  76  77
ENDBRANCH  57  71
BRANCH  58  81
ATOM     81  C   UNL A   1      36.825  32.867  30.938  1.00  0.00    -0.014 A 
ATOM     82  C   UNL A   1      37.038  33.787  29.897  1.00  0.00     0.010 A 
ATOM     83  C   UNL A   1      35.505  32.576  31.332  1.00  0.00     0.010 A 
ATOM     84  C   UNL A   1      35.958  34.428  29.284  1.00  0.00     0.020 A 
ATOM     85  C   UNL A   1      34.420  33.190  30.698  1.00  0.00     0.020 A 
ATOM     86  C   UNL A   1      34.655  34.125  29.689  1.00  0.00     0.054 A 
BRANCH  86  87
ATOM     87  S   UNL A   1      33.267  34.951  28.862  1.00  0.00     0.124 S 
ATOM     88  O   UNL A   1      32.384  35.256  29.982  1.00  0.00    -0.237 OA
ATOM     89  O   UNL A   1      33.915  36.100  28.234  1.00  0.00    -0.237 OA
ATOM     90  O   UNL A   1      32.774  33.940  27.931  1.00  0.00    -0.744 OA
ENDBRANCH  86  87
ENDBRANCH  58  81
BRANCH  70  91
ATOM     91  C   UNL A   1      39.676  33.616  37.265  1.00  0.00    -0.014 A 
ATOM     92  C   UNL A   1      38.861  33.216  38.337  1.00  0.00     0.010 A 
ATOM     93  C   UNL A   1      40.287  34.884  37.305  1.00  0.00     0.010 A 
ATOM     94  C   UNL A   1      38.638  34.077  39.415  1.00  0.00     0.020 A 
ATOM     95  C   UNL A   1      40.094  35.735  38.395  1.00  0.00     0.020 A 
ATOM     96  C   UNL A   1      39.261  35.329  39.438  1.00  0.00     0.054 A 
BRANCH  96  97
ATOM     97  S   UNL A   1      39.003  36.404  40.877  1.00  0.00     0.124 S 
ATOM     98  O   UNL A   1      37.962  35.688  41.609  1.00  0.00    -0.237 OA
ATOM     99  O   UNL A   1      40.320  36.416  41.507  1.00  0.00    -0.237 OA
ATOM    100  O   UNL A   1      38.588  37.676  40.290  1.00  0.00    -0.744 OA
ENDBRANCH  96  97
ENDBRANCH  70  91
ENDBRANCH  44  45
ENDBRANCH  36  39
ENDBRANCH  34  35
ENDBRANCH  33  34
ENDBRANCH   1  33
TORSDOF 17
ENDMDL
MODEL 2
REMARK VINA RESULT:     -12.7      5.903      8.032
REMARK SMILES CN1C(=O)C[C@@H](C(=O)NCCCCCCNC(=O)c2ccc(-c3c4nc(c(-c5ccc(S(=O)(=O)[O-])cc5)c5ccc([nH]5)c(-c5ccc(S(=O)(=O)[O-])cc5)c5nc(c(-c6ccc(S(=O)(=O)[O-])cc6)c6ccc3[nH]6)C=C5)C=C4)cc2)C12CCN(C(=O)c1cccc3ccccc13)CC2
REMARK SMILES IDX 13 1 12 2 11 3 10 4 9 5 7 6 8 7 6 9 1 10 2 11 3 12 79 13
REMARK SMILES IDX 4 14 5 15 80 16 96 17 81 18 95 19 82 20 83 21 84 22 85 23
REMARK SMILES IDX 86 24 94 25 87 26 89 27 93 28 88 29 90 30 92 31 91 32 14 33
REMARK SMILES IDX 15 34 16 35 17 36 18 38 19 39 20 40 78 41 21 42 77 43 22 44
REMARK SMILES IDX 23 45 24 46 71 47 25 48 76 49 70 50 72 51 26 52 75 53 69 54
REMARK SMILES IDX 68 55 27 57 57 58 38 59 56 60 39 61 42 62 55 63 73 64 40 65
REMARK SMILES IDX 41 66 54 68 74 69 43 70 28 71 29 72 37 73 30 74 36 75 31 76
REMARK SMILES IDX 32 77 33 78 34 79 35 80 58 81 59 82 67 83 60 84 66 85 61 86
REMARK SMILES IDX 62 87 63 88 64 89 65 90 44 91 45 92 53 93 46 94 52 95 47 96
REMARK SMILES IDX 48 97 49 98 50 99 51 100
REMARK H PARENT 9 8 16 37 72 56 42 67
REMARK Flexibility Score: inf
ROOT
ATOM      1  C   UNL A   1      40.421  22.221  27.433  1.00  0.00     0.002 C 
ENDROOT
BRANCH   1   2
ATOM      2  C   UNL A   1      39.338  22.573  26.417  1.00  0.00     0.002 C 
BRANCH   2   3
ATOM      3  C   UNL A   1      38.807  23.998  26.538  1.00  0.00     0.021 C 
BRANCH   3   4
ATOM      4  C   UNL A   1      37.321  24.164  26.197  1.00  0.00     0.116 C 
BRANCH   4   5
ATOM      5  N   UNL A   1      36.969  23.656  24.881  1.00  0.00    -0.356 N 
ATOM      6  C   UNL A   1      36.116  22.691  24.457  1.00  0.00     0.226 C 
ATOM      7  O   UNL A   1      36.036  22.538  23.232  1.00  0.00    -0.275 OA
ATOM      8  H   UNL A   1      37.450  24.105  24.148  1.00  0.00     0.163 HD
BRANCH   6   9
ATOM      9  C   UNL A   1      35.283  21.776  25.363  1.00  0.00     0.113 C 
ATOM     10  C   UNL A   1      32.488  19.902  23.723  1.00  0.00     0.147 C 
ATOM     11  N   UNL A   1      33.643  20.353  24.479  1.00  0.00    -0.339 N 
ATOM     12  C   UNL A   1      34.763  19.551  24.650  1.00  0.00     0.223 C 
ATOM     13  C   UNL A   1      33.758  21.675  25.115  1.00  0.00     0.058 C 
ATOM     14  O   UNL A   1      34.911  18.411  24.252  1.00  0.00    -0.275 OA
ATOM     15  C   UNL A   1      35.811  20.342  25.380  1.00  0.00     0.116 C 
ATOM     16  C   UNL A   1      33.200  22.828  24.265  1.00  0.00     0.051 C 
ATOM     17  C   UNL A   1      32.944  21.642  26.444  1.00  0.00     0.051 C 
ATOM     18  C   UNL A   1      33.226  24.168  24.995  1.00  0.00     0.122 C 
ATOM     19  C   UNL A   1      32.764  23.018  27.096  1.00  0.00     0.122 C 
ATOM     20  N   UNL A   1      32.345  24.035  26.129  1.00  0.00    -0.338 N 
ATOM     21  C   UNL A   1      31.108  24.657  26.258  1.00  0.00     0.254 C 
ATOM     22  O   UNL A   1      30.280  24.293  27.094  1.00  0.00    -0.269 OA
BRANCH  21  23
ATOM     23  C   UNL A   1      30.778  25.908  25.514  1.00  0.00     0.047 A 
ATOM     24  C   UNL A   1      30.179  25.659  24.266  1.00  0.00     0.014 A 
ATOM     25  C   UNL A   1      31.223  27.223  25.851  1.00  0.00    -0.006 A 
ATOM     26  C   UNL A   1      30.082  26.664  23.313  1.00  0.00     0.001 A 
ATOM     27  C   UNL A   1      31.155  28.221  24.841  1.00  0.00    -0.018 A 
ATOM     28  C   UNL A   1      31.723  27.636  27.109  1.00  0.00     0.009 A 
ATOM     29  C   UNL A   1      30.608  27.921  23.585  1.00  0.00     0.009 A 
ATOM     30  C   UNL A   1      31.637  29.519  25.084  1.00  0.00     0.009 A 
ATOM     31  C   UNL A   1      32.089  28.960  27.372  1.00  0.00     0.001 A 
ATOM     32  C   UNL A   1      32.079  29.895  26.348  1.00  0.00     0.001 A 
ENDBRANCH  21  23
ENDBRANCH   6   9
ENDBRANCH   4   5
ENDBRANCH   3   4
ENDBRANCH   2   3
ENDBRANCH   1   2
BRANCH   1  33
ATOM     33  C   UNL A   1      40.829  20.746  27.444  1.00  0.00     0.021 C 
BRANCH  33  34
ATOM     34  C   UNL A   1      40.648  20.027  26.111  1.00  0.00     0.116 C 
BRANCH  34  35
ATOM     35  N   UNL A   1      41.770  19.154  25.815  1.00  0.00    -0.352 N 
ATOM     36  C   UNL A   1      43.063  19.496  25.517  1.00  0.00     0.251 C 
ATOM     37  H   UNL A   1      41.575  18.188  25.829  1.00  0.00     0.163 HD
ATOM     38  O   UNL A   1      43.836  18.661  25.062  1.00  0.00    -0.269 OA
BRANCH  36  39
ATOM     39  C   UNL A   1      43.507  20.887  25.744  1.00  0.00     0.039 A 
ATOM     40  C   UNL A   1      43.395  21.813  24.706  1.00  0.00     0.014 A 
ATOM     41  C   UNL A   1      44.016  21.272  26.988  1.00  0.00     0.014 A 
ATOM     42  C   UNL A   1      43.753  23.143  24.932  1.00  0.00     0.010 A 
ATOM     43  C   UNL A   1      44.299  22.610  27.233  1.00  0.00     0.010 A 
ATOM     44  C   UNL A   1      44.181  23.558  26.204  1.00  0.00    -0.014 A 
BRANCH  44  45
ATOM     45  C   UNL A   1      44.527  24.976  26.479  1.00  0.00     0.031 A 
ATOM     46  C   UNL A   1      45.947  25.445  26.312  1.00  0.00     0.074 A 
ATOM     47  C   UNL A   1      43.580  25.821  26.930  1.00  0.00     0.049 A 
ATOM     48  N   UNL A   1      46.463  26.619  26.571  1.00  0.00    -0.248 NA
ATOM     49  C   UNL A   1      46.922  24.460  25.812  1.00  0.00     0.031 C 
ATOM     50  C   UNL A   1      42.174  25.477  27.159  1.00  0.00     0.029 A 
ATOM     51  N   UNL A   1      43.657  27.145  27.284  1.00  0.00    -0.354 N 
ATOM     52  C   UNL A   1      47.818  26.510  26.280  1.00  0.00     0.074 A 
ATOM     53  C   UNL A   1      48.056  25.142  25.877  1.00  0.00     0.031 C 
ATOM     54  C   UNL A   1      41.519  26.569  27.590  1.00  0.00     0.029 A 
ATOM     55  C   UNL A   1      42.462  27.674  27.713  1.00  0.00     0.049 A 
ATOM     56  H   UNL A   1      44.490  27.668  27.235  1.00  0.00     0.167 HD
ATOM     57  C   UNL A   1      48.774  27.467  26.322  1.00  0.00     0.031 A 
ATOM     58  C   UNL A   1      42.163  28.908  28.168  1.00  0.00     0.031 A 
ATOM     59  C   UNL A   1      48.529  28.830  26.714  1.00  0.00     0.049 A 
ATOM     60  C   UNL A   1      43.252  29.945  28.235  1.00  0.00     0.074 A 
ATOM     61  C   UNL A   1      49.422  29.887  26.749  1.00  0.00     0.029 A 
ATOM     62  N   UNL A   1      47.305  29.325  27.139  1.00  0.00    -0.354 N 
ATOM     63  N   UNL A   1      44.515  29.837  27.901  1.00  0.00    -0.248 NA
ATOM     64  C   UNL A   1      42.871  31.276  28.731  1.00  0.00     0.031 C 
ATOM     65  C   UNL A   1      48.751  31.007  27.250  1.00  0.00     0.029 A 
ATOM     66  C   UNL A   1      47.425  30.666  27.459  1.00  0.00     0.049 A 
ATOM     67  H   UNL A   1      46.475  28.800  27.203  1.00  0.00     0.167 HD
ATOM     68  C   UNL A   1      45.071  31.095  28.111  1.00  0.00     0.074 A 
ATOM     69  C   UNL A   1      44.003  31.950  28.588  1.00  0.00     0.031 C 
ATOM     70  C   UNL A   1      46.349  31.506  27.922  1.00  0.00     0.031 A 
BRANCH  57  71
ATOM     71  C   UNL A   1      50.176  27.077  25.934  1.00  0.00    -0.014 A 
ATOM     72  C   UNL A   1      50.650  27.279  24.624  1.00  0.00     0.010 A 
ATOM     73  C   UNL A   1      51.052  26.557  26.904  1.00  0.00     0.010 A 
ATOM     74  C   UNL A   1      51.960  26.934  24.284  1.00  0.00     0.020 A 
ATOM     75  C   UNL A   1      52.374  26.241  26.576  1.00  0.00     0.020 A 
ATOM     76  C   UNL A   1      52.815  26.419  25.264  1.00  0.00     0.054 A 
BRANCH  76  77
ATOM     77  S   UNL A   1      54.522  26.022  24.801  1.00  0.00     0.124 S 
ATOM     78  O   UNL A   1      55.287  26.820  25.756  1.00  0.00    -0.237 OA
ATOM     79  O   UNL A   1      54.579  24.576  25.003  1.00  0.00    -0.237 OA
ATOM     80  O   UNL A   1      54.617  26.458  23.410  1.00  0.00    -0.744 OA
ENDBRANCH  76  77
ENDBRANCH  57  71
BRANCH  58  81
ATOM     81  C   UNL A   1      40.772  29.234  28.592  1.00  0.00    -0.014 A 
ATOM     82  C   UNL A   1      40.444  29.338  29.954  1.00  0.00     0.010 A 
ATOM     83  C   UNL A   1      39.762  29.430  27.630  1.00  0.00     0.010 A 
ATOM     84  C   UNL A   1      39.130  29.599  30.351  1.00  0.00     0.020 A 
ATOM     85  C   UNL A   1      38.452  29.724  28.022  1.00  0.00     0.020 A 
ATOM     86  C   UNL A   1      38.142  29.790  29.381  1.00  0.00     0.054 A 
BRANCH  86  87
ATOM     87  S   UNL A   1      36.447  30.152  29.919  1.00  0.00     0.124 S 
ATOM     88  O   UNL A   1      35.662  29.704  28.773  1.00  0.00    -0.237 OA
ATOM     89  O   UNL A   1      36.321  29.343  31.128  1.00  0.00    -0.237 OA
ATOM     90  O   UNL A   1      36.461  31.595  30.143  1.00  0.00    -0.744 OA
ENDBRANCH  86  87
ENDBRANCH  58  81
BRANCH  70  91
ATOM     91  C   UNL A   1      46.661  32.957  28.177  1.00  0.00    -0.014 A 
ATOM     92  C   UNL A   1      47.133  33.399  29.425  1.00  0.00     0.010 A 
ATOM     93  C   UNL A   1      46.546  33.883  27.122  1.00  0.00     0.010 A 
ATOM     94  C   UNL A   1      47.458  34.744  29.622  1.00  0.00     0.020 A 
ATOM     95  C   UNL A   1      46.899  35.221  27.305  1.00  0.00     0.020 A 
ATOM     96  C   UNL A   1      47.343  35.645  28.558  1.00  0.00     0.054 A 
BRANCH  96  97
ATOM     97  S   UNL A   1      47.827  37.373  28.824  1.00  0.00     0.124 S 
ATOM     98  O   UNL A   1      49.284  37.284  28.829  1.00  0.00    -0.237 OA
ATOM     99  O   UNL A   1      47.242  38.049  27.669  1.00  0.00    -0.237 OA
ATOM    100  O   UNL A   1      47.218  37.711  30.109  1.00  0.00    -0.744 OA
ENDBRANCH  96  97
ENDBRANCH  70  91
ENDBRANCH  44  45
ENDBRANCH  36  39
ENDBRANCH  34  35
ENDBRANCH  33  34
ENDBRANCH   1  33
TORSDOF 17
ENDMDL
MODEL 3
REMARK VINA RESULT:     -12.6      0.441      7.763
REMARK SMILES CN1C(=O)C[C@@H](C(=O)NCCCCCCNC(=O)c2ccc(-c3c4nc(c(-c5ccc(S(=O)(=O)[O-])cc5)c5ccc([nH]5)c(-c5ccc(S(=O)(=O)[O-])cc5)c5nc(c(-c6ccc(S(=O)(=O)[O-])cc6)c6ccc3[nH]6)C=C5)C=C4)cc2)C12CCN(C(=O)c1cccc3ccccc13)CC2
REMARK SMILES IDX 13 1 12 2 11 3 10 4 9 5 7 6 8 7 6 9 1 10 2 11 3 12 79 13
REMARK SMILES IDX 4 14 5 15 80 16 96 17 81 18 95 19 82 20 83 21 84 22 85 23
REMARK SMILES IDX 86 24 94 25 87 26 89 27 93 28 88 29 90 30 92 31 91 32 14 33
REMARK SMILES IDX 15 34 16 35 17 36 18 38 19 39 20 40 78 41 21 42 77 43 22 44
REMARK SMILES IDX 23 45 24 46 71 47 25 48 76 49 70 50 72 51 26 52 75 53 69 54
REMARK SMILES IDX 68 55 27 57 57 58 38 59 56 60 39 61 42 62 55 63 73 64 40 65
REMARK SMILES IDX 41 66 54 68 74 69 43 70 28 71 29 72 37 73 30 74 36 75 31 76
REMARK SMILES IDX 32 77 33 78 34 79 35 80 58 81 59 82 67 83 60 84 66 85 61 86
REMARK SMILES IDX 62 87 63 88 64 89 65 90 44 91 45 92 53 93 46 94 52 95 47 96
REMARK SMILES IDX 48 97 49 98 50 99 51 100
REMARK H PARENT 9 8 16 37 72 56 42 67
REMARK Flexibility Score: inf
ROOT
ATOM      1  C   UNL A   1      40.412  22.395  27.621  1.00  0.00     0.002 C 
ENDROOT
BRANCH   1   2
ATOM      2  C   UNL A   1      39.391  22.596  26.503  1.00  0.00     0.002 C 
BRANCH   2   3
ATOM      3  C   UNL A   1      38.848  24.019  26.402  1.00  0.00     0.021 C 
BRANCH   3   4
ATOM      4  C   UNL A   1      37.339  24.115  26.145  1.00  0.00     0.116 C 
BRANCH   4   5
ATOM      5  N   UNL A   1      36.945  23.634  24.832  1.00  0.00    -0.356 N 
ATOM      6  C   UNL A   1      36.052  22.702  24.416  1.00  0.00     0.226 C 
ATOM      7  O   UNL A   1      35.942  22.566  23.191  1.00  0.00    -0.275 OA
ATOM      8  H   UNL A   1      37.423  24.076  24.094  1.00  0.00     0.163 HD
BRANCH   6   9
ATOM      9  C   UNL A   1      35.209  21.803  25.330  1.00  0.00     0.113 C 
ATOM     10  C   UNL A   1      32.388  19.953  23.708  1.00  0.00     0.147 C 
ATOM     11  N   UNL A   1      33.550  20.395  24.458  1.00  0.00    -0.339 N 
ATOM     12  C   UNL A   1      34.661  19.580  24.633  1.00  0.00     0.223 C 
ATOM     13  C   UNL A   1      33.683  21.720  25.085  1.00  0.00     0.058 C 
ATOM     14  O   UNL A   1      34.794  18.436  24.243  1.00  0.00    -0.275 OA
ATOM     15  C   UNL A   1      35.720  20.363  25.355  1.00  0.00     0.116 C 
ATOM     16  C   UNL A   1      33.138  22.874  24.228  1.00  0.00     0.051 C 
ATOM     17  C   UNL A   1      32.871  21.706  26.416  1.00  0.00     0.051 C 
ATOM     18  C   UNL A   1      33.181  24.219  24.948  1.00  0.00     0.122 C 
ATOM     19  C   UNL A   1      32.710  23.089  27.059  1.00  0.00     0.122 C 
ATOM     20  N   UNL A   1      32.301  24.104  26.085  1.00  0.00    -0.338 N 
ATOM     21  C   UNL A   1      31.072  24.743  26.212  1.00  0.00     0.254 C 
ATOM     22  O   UNL A   1      30.242  24.395  27.053  1.00  0.00    -0.269 OA
BRANCH  21  23
ATOM     23  C   UNL A   1      30.757  25.993  25.460  1.00  0.00     0.047 A 
ATOM     24  C   UNL A   1      30.116  25.743  24.233  1.00  0.00     0.014 A 
ATOM     25  C   UNL A   1      31.247  27.299  25.766  1.00  0.00    -0.006 A 
ATOM     26  C   UNL A   1      30.021  26.738  23.269  1.00  0.00     0.001 A 
ATOM     27  C   UNL A   1      31.179  28.285  24.745  1.00  0.00    -0.018 A 
ATOM     28  C   UNL A   1      31.794  27.713  27.004  1.00  0.00     0.009 A 
ATOM     29  C   UNL A   1      30.588  27.984  23.509  1.00  0.00     0.009 A 
ATOM     30  C   UNL A   1      31.703  29.571  24.956  1.00  0.00     0.009 A 
ATOM     31  C   UNL A   1      32.204  29.031  27.238  1.00  0.00     0.001 A 
ATOM     32  C   UNL A   1      32.191  29.952  26.202  1.00  0.00     0.001 A 
ENDBRANCH  21  23
ENDBRANCH   6   9
ENDBRANCH   4   5
ENDBRANCH   3   4
ENDBRANCH   2   3
ENDBRANCH   1   2
BRANCH   1  33
ATOM     33  C   UNL A   1      41.861  22.271  27.145  1.00  0.00     0.021 C 
BRANCH  33  34
ATOM     34  C   UNL A   1      42.691  23.541  27.302  1.00  0.00     0.116 C 
BRANCH  34  35
ATOM     35  N   UNL A   1      42.572  24.408  26.143  1.00  0.00    -0.352 N 
ATOM     36  C   UNL A   1      42.114  25.699  26.086  1.00  0.00     0.251 C 
ATOM     37  H   UNL A   1      42.856  24.017  25.285  1.00  0.00     0.163 HD
ATOM     38  O   UNL A   1      41.852  26.217  25.006  1.00  0.00    -0.269 OA
BRANCH  36  39
ATOM     39  C   UNL A   1      41.932  26.451  27.344  1.00  0.00     0.039 A 
ATOM     40  C   UNL A   1      42.769  27.534  27.616  1.00  0.00     0.014 A 
ATOM     41  C   UNL A   1      40.924  26.089  28.243  1.00  0.00     0.014 A 
ATOM     42  C   UNL A   1      42.561  28.288  28.773  1.00  0.00     0.010 A 
ATOM     43  C   UNL A   1      40.672  26.886  29.354  1.00  0.00     0.010 A 
ATOM     44  C   UNL A   1      41.494  27.988  29.635  1.00  0.00    -0.014 A 
BRANCH  44  45
ATOM     45  C   UNL A   1      41.230  28.801  30.849  1.00  0.00     0.031 A 
ATOM     46  C   UNL A   1      40.103  29.799  30.851  1.00  0.00     0.074 A 
ATOM     47  C   UNL A   1      42.034  28.682  31.924  1.00  0.00     0.049 A 
ATOM     48  N   UNL A   1      39.759  30.651  31.781  1.00  0.00    -0.248 NA
ATOM     49  C   UNL A   1      39.268  29.865  29.639  1.00  0.00     0.031 C 
ATOM     50  C   UNL A   1      43.176  27.769  32.033  1.00  0.00     0.029 A 
ATOM     51  N   UNL A   1      42.019  29.336  33.131  1.00  0.00    -0.354 N 
ATOM     52  C   UNL A   1      38.682  31.361  31.264  1.00  0.00     0.074 A 
ATOM     53  C   UNL A   1      38.463  30.879  29.918  1.00  0.00     0.031 C 
ATOM     54  C   UNL A   1      43.733  27.906  33.248  1.00  0.00     0.029 A 
ATOM     55  C   UNL A   1      43.022  28.944  33.986  1.00  0.00     0.049 A 
ATOM     56  H   UNL A   1      41.352  30.022  33.362  1.00  0.00     0.167 HD
ATOM     57  C   UNL A   1      37.928  32.313  31.863  1.00  0.00     0.031 A 
ATOM     58  C   UNL A   1      43.341  29.381  35.220  1.00  0.00     0.031 A 
ATOM     59  C   UNL A   1      38.143  32.781  33.206  1.00  0.00     0.049 A 
ATOM     60  C   UNL A   1      42.506  30.463  35.851  1.00  0.00     0.074 A 
ATOM     61  C   UNL A   1      37.408  33.712  33.920  1.00  0.00     0.029 A 
ATOM     62  N   UNL A   1      39.168  32.357  34.039  1.00  0.00    -0.354 N 
ATOM     63  N   UNL A   1      41.457  31.082  35.367  1.00  0.00    -0.248 NA
ATOM     64  C   UNL A   1      42.892  30.898  37.201  1.00  0.00     0.031 C 
ATOM     65  C   UNL A   1      38.022  33.892  35.162  1.00  0.00     0.029 A 
ATOM     66  C   UNL A   1      39.097  33.022  35.250  1.00  0.00     0.049 A 
ATOM     67  H   UNL A   1      39.845  31.682  33.803  1.00  0.00     0.167 HD
ATOM     68  C   UNL A   1      41.035  31.952  36.367  1.00  0.00     0.074 A 
ATOM     69  C   UNL A   1      41.935  31.769  37.487  1.00  0.00     0.031 C 
ATOM     70  C   UNL A   1      39.994  32.821  36.360  1.00  0.00     0.031 A 
BRANCH  57  71
ATOM     71  C   UNL A   1      36.796  32.914  31.070  1.00  0.00    -0.014 A 
ATOM     72  C   UNL A   1      35.460  32.762  31.483  1.00  0.00     0.010 A 
ATOM     73  C   UNL A   1      37.075  33.690  29.931  1.00  0.00     0.010 A 
ATOM     74  C   UNL A   1      34.422  33.345  30.752  1.00  0.00     0.020 A 
ATOM     75  C   UNL A   1      36.042  34.302  29.214  1.00  0.00     0.020 A 
ATOM     76  C   UNL A   1      34.720  34.114  29.623  1.00  0.00     0.054 A 
BRANCH  76  77
ATOM     77  S   UNL A   1      33.354  34.891  28.719  1.00  0.00     0.124 S 
ATOM     78  O   UNL A   1      33.038  33.875  27.717  1.00  0.00    -0.237 OA
ATOM     79  O   UNL A   1      32.348  35.080  29.761  1.00  0.00    -0.237 OA
ATOM     80  O   UNL A   1      33.941  36.121  28.192  1.00  0.00    -0.744 OA
ENDBRANCH  76  77
ENDBRANCH  57  71
BRANCH  58  81
ATOM     81  C   UNL A   1      44.503  28.794  35.947  1.00  0.00    -0.014 A 
ATOM     82  C   UNL A   1      44.333  27.680  36.786  1.00  0.00     0.010 A 
ATOM     83  C   UNL A   1      45.786  29.357  35.812  1.00  0.00     0.010 A 
ATOM     84  C   UNL A   1      45.414  27.158  37.502  1.00  0.00     0.020 A 
ATOM     85  C   UNL A   1      46.877  28.817  36.500  1.00  0.00     0.020 A 
ATOM     86  C   UNL A   1      46.680  27.732  37.354  1.00  0.00     0.054 A 
BRANCH  86  87
ATOM     87  S   UNL A   1      48.075  27.023  38.275  1.00  0.00     0.124 S 
ATOM     88  O   UNL A   1      47.550  26.981  39.636  1.00  0.00    -0.237 OA
ATOM     89  O   UNL A   1      48.255  25.728  37.624  1.00  0.00    -0.237 OA
ATOM     90  O   UNL A   1      49.155  27.980  38.049  1.00  0.00    -0.744 OA
ENDBRANCH  86  87
ENDBRANCH  58  81
BRANCH  70  91
ATOM     91  C   UNL A   1      39.732  33.606  37.618  1.00  0.00    -0.014 A 
ATOM     92  C   UNL A   1      38.879  33.120  38.623  1.00  0.00     0.010 A 
ATOM     93  C   UNL A   1      40.412  34.822  37.825  1.00  0.00     0.010 A 
ATOM     94  C   UNL A   1      38.688  33.848  39.801  1.00  0.00     0.020 A 
ATOM     95  C   UNL A   1      40.249  35.537  39.013  1.00  0.00     0.020 A 
ATOM     96  C   UNL A   1      39.379  35.050  39.989  1.00  0.00     0.054 A 
BRANCH  96  97
ATOM     97  S   UNL A   1      39.159  35.946  41.551  1.00  0.00     0.124 S 
ATOM     98  O   UNL A   1      39.333  37.334  41.134  1.00  0.00    -0.237 OA
ATOM     99  O   UNL A   1      37.802  35.573  41.944  1.00  0.00    -0.237 OA
ATOM    100  O   UNL A   1      40.217  35.416  42.408  1.00  0.00    -0.744 OA
ENDBRANCH  96  97
ENDBRANCH  70  91
ENDBRANCH  44  45
ENDBRANCH  36  39
ENDBRANCH  34  35
ENDBRANCH  33  34
ENDBRANCH   1  33
TORSDOF 17
ENDMDL
