MODEL 1
REMARK VINA RESULT:     -11.3      0.000      0.000
REMARK SMILES C[C@@H](C(=O)NCCCCCCNC(=O)c1ccc(-c2c3nc(c(-c4ccc(S(=O)(=O)[O-])cc4)c4ccc([nH]4)c(-c4ccc(S(=O)(=O)[O-])cc4)c4nc(c(-c5ccc(S(=O)(=O)[O-])cc5)c5ccc2[nH]5)C=C4)C=C3)cc1)c1ccc(C[C@H]2CCCC2=O)cc1I
REMARK SMILES IDX 8 1 7 2 6 3 5 4 3 5 4 6 2 8 1 9 75 10 76 11 87 12 77 13
REMARK SMILES IDX 86 14 88 15 78 16 79 17 80 18 81 19 84 20 82 21 83 22 85 23
REMARK SMILES IDX 9 24 10 25 11 26 12 27 13 28 14 30 15 31 16 32 74 33 17 34
REMARK SMILES IDX 73 35 18 36 19 37 20 38 67 39 21 40 72 41 66 42 68 43 22 44
REMARK SMILES IDX 71 45 65 46 64 47 23 49 53 50 34 51 52 52 35 53 38 54 51 55
REMARK SMILES IDX 69 56 36 57 37 58 50 60 70 61 39 62 24 63 25 64 33 65 26 66
REMARK SMILES IDX 32 67 27 68 28 69 29 70 30 71 31 72 54 73 55 74 63 75 56 76
REMARK SMILES IDX 62 77 57 78 58 79 59 80 60 81 61 82 40 83 41 84 49 85 42 86
REMARK SMILES IDX 48 87 43 88 44 89 45 90 46 91 47 92
REMARK H PARENT 5 7 12 29 68 48 38 59
REMARK Flexibility Score: inf
ROOT
ATOM      1  C   UNL A   1      35.251  22.953  26.389  1.00  0.00     0.002 C 
ENDROOT
BRANCH   1   2
ATOM      2  C   UNL A   1      34.497  21.635  26.621  1.00  0.00     0.021 C 
BRANCH   2   3
ATOM      3  C   UNL A   1      33.139  21.566  25.919  1.00  0.00     0.116 C 
BRANCH   3   4
ATOM      4  N   UNL A   1      33.300  21.766  24.495  1.00  0.00    -0.356 N 
ATOM      5  C   UNL A   1      32.627  22.589  23.642  1.00  0.00     0.227 C 
ATOM      6  O   UNL A   1      32.872  22.454  22.440  1.00  0.00    -0.274 OA
ATOM      7  H   UNL A   1      34.005  21.222  24.076  1.00  0.00     0.163 HD
BRANCH   5   8
ATOM      8  C   UNL A   1      31.655  23.650  24.196  1.00  0.00     0.106 C 
ATOM      9  C   UNL A   1      30.449  23.897  23.278  1.00  0.00     0.023 C 
BRANCH   8  10
ATOM     10  C   UNL A   1      32.372  24.973  24.473  1.00  0.00    -0.022 A 
ATOM     11  C   UNL A   1      32.652  25.301  25.816  1.00  0.00     0.006 A 
ATOM     12  C   UNL A   1      32.749  25.900  23.486  1.00  0.00     0.017 A 
ATOM     13  C   UNL A   1      33.277  26.494  26.166  1.00  0.00     0.004 A 
ATOM     14  C   UNL A   1      33.357  27.115  23.845  1.00  0.00     0.018 A 
ATOM     15  I   UNL A   1      32.458  25.601  21.425  1.00  0.00    -0.044 I 
ATOM     16  C   UNL A   1      33.609  27.429  25.187  1.00  0.00    -0.046 A 
BRANCH  16  17
ATOM     17  C   UNL A   1      34.203  28.760  25.575  1.00  0.00     0.047 C 
BRANCH  17  18
ATOM     18  C   UNL A   1      34.042  29.172  27.045  1.00  0.00     0.060 C 
ATOM     19  C   UNL A   1      35.306  29.660  27.758  1.00  0.00     0.012 C 
ATOM     20  C   UNL A   1      33.104  30.343  27.230  1.00  0.00     0.136 C 
ATOM     21  C   UNL A   1      35.265  31.183  27.719  1.00  0.00     0.009 C 
ATOM     22  C   UNL A   1      33.793  31.561  27.789  1.00  0.00     0.076 C 
ATOM     23  O   UNL A   1      31.906  30.301  26.972  1.00  0.00    -0.299 OA
ENDBRANCH  17  18
ENDBRANCH  16  17
ENDBRANCH   8  10
ENDBRANCH   5   8
ENDBRANCH   3   4
ENDBRANCH   2   3
ENDBRANCH   1   2
BRANCH   1  24
ATOM     24  C   UNL A   1      36.743  22.799  26.074  1.00  0.00     0.002 C 
BRANCH  24  25
ATOM     25  C   UNL A   1      37.531  24.111  26.038  1.00  0.00     0.021 C 
BRANCH  25  26
ATOM     26  C   UNL A   1      38.884  24.055  26.740  1.00  0.00     0.116 C 
BRANCH  26  27
ATOM     27  N   UNL A   1      39.953  24.582  25.906  1.00  0.00    -0.352 N 
ATOM     28  C   UNL A   1      40.758  25.674  26.115  1.00  0.00     0.251 C 
ATOM     29  H   UNL A   1      40.123  24.085  25.072  1.00  0.00     0.163 HD
ATOM     30  O   UNL A   1      41.471  26.099  25.209  1.00  0.00    -0.269 OA
BRANCH  28  31
ATOM     31  C   UNL A   1      40.743  26.349  27.429  1.00  0.00     0.039 A 
ATOM     32  C   UNL A   1      41.697  27.333  27.697  1.00  0.00     0.014 A 
ATOM     33  C   UNL A   1      39.773  26.028  28.383  1.00  0.00     0.014 A 
ATOM     34  C   UNL A   1      41.625  28.057  28.889  1.00  0.00     0.010 A 
ATOM     35  C   UNL A   1      39.664  26.793  29.541  1.00  0.00     0.010 A 
ATOM     36  C   UNL A   1      40.579  27.827  29.799  1.00  0.00    -0.014 A 
BRANCH  36  37
ATOM     37  C   UNL A   1      40.382  28.698  30.986  1.00  0.00     0.031 A 
ATOM     38  C   UNL A   1      39.327  29.770  30.980  1.00  0.00     0.074 A 
ATOM     39  C   UNL A   1      41.224  28.581  32.033  1.00  0.00     0.049 A 
ATOM     40  N   UNL A   1      39.078  30.680  31.887  1.00  0.00    -0.248 NA
ATOM     41  C   UNL A   1      38.453  29.846  29.798  1.00  0.00     0.031 C 
ATOM     42  C   UNL A   1      42.318  27.609  32.137  1.00  0.00     0.029 A 
ATOM     43  N   UNL A   1      41.310  29.295  33.203  1.00  0.00    -0.354 N 
ATOM     44  C   UNL A   1      38.039  31.450  31.377  1.00  0.00     0.074 A 
ATOM     45  C   UNL A   1      37.720  30.918  30.070  1.00  0.00     0.031 C 
ATOM     46  C   UNL A   1      42.957  27.785  33.305  1.00  0.00     0.029 A 
ATOM     47  C   UNL A   1      42.354  28.909  34.013  1.00  0.00     0.049 A 
ATOM     48  H   UNL A   1      40.683  30.016  33.440  1.00  0.00     0.167 HD
ATOM     49  C   UNL A   1      37.406  32.500  31.951  1.00  0.00     0.031 A 
ATOM     50  C   UNL A   1      42.800  29.419  35.178  1.00  0.00     0.031 A 
ATOM     51  C   UNL A   1      37.716  33.010  33.261  1.00  0.00     0.049 A 
ATOM     52  C   UNL A   1      42.087  30.600  35.782  1.00  0.00     0.074 A 
ATOM     53  C   UNL A   1      37.064  34.008  33.967  1.00  0.00     0.029 A 
ATOM     54  N   UNL A   1      38.768  32.583  34.054  1.00  0.00    -0.354 N 
ATOM     55  N   UNL A   1      41.031  31.239  35.335  1.00  0.00    -0.248 NA
ATOM     56  C   UNL A   1      42.621  31.129  37.044  1.00  0.00     0.031 C 
ATOM     57  C   UNL A   1      37.766  34.233  35.152  1.00  0.00     0.029 A 
ATOM     58  C   UNL A   1      38.816  33.332  35.218  1.00  0.00     0.049 A 
ATOM     59  H   UNL A   1      39.390  31.854  33.825  1.00  0.00     0.167 HD
ATOM     60  C   UNL A   1      40.770  32.234  36.270  1.00  0.00     0.074 A 
ATOM     61  C   UNL A   1      41.757  32.096  37.319  1.00  0.00     0.031 C 
ATOM     62  C   UNL A   1      39.804  33.184  36.255  1.00  0.00     0.031 A 
BRANCH  49  63
ATOM     63  C   UNL A   1      36.319  33.192  31.175  1.00  0.00    -0.014 A 
ATOM     64  C   UNL A   1      35.011  33.292  31.681  1.00  0.00     0.010 A 
ATOM     65  C   UNL A   1      36.640  33.849  29.973  1.00  0.00     0.010 A 
ATOM     66  C   UNL A   1      34.042  34.028  30.992  1.00  0.00     0.020 A 
ATOM     67  C   UNL A   1      35.680  34.606  29.294  1.00  0.00     0.020 A 
ATOM     68  C   UNL A   1      34.385  34.686  29.807  1.00  0.00     0.054 A 
BRANCH  68  69
ATOM     69  S   UNL A   1      33.124  35.692  28.976  1.00  0.00     0.124 S 
ATOM     70  O   UNL A   1      32.499  34.718  28.085  1.00  0.00    -0.237 OA
ATOM     71  O   UNL A   1      32.296  36.147  30.090  1.00  0.00    -0.237 OA
ATOM     72  O   UNL A   1      33.898  36.737  28.311  1.00  0.00    -0.744 OA
ENDBRANCH  68  69
ENDBRANCH  49  63
BRANCH  50  73
ATOM     73  C   UNL A   1      44.009  28.848  35.836  1.00  0.00    -0.014 A 
ATOM     74  C   UNL A   1      43.899  27.790  36.756  1.00  0.00     0.010 A 
ATOM     75  C   UNL A   1      45.281  29.386  35.564  1.00  0.00     0.010 A 
ATOM     76  C   UNL A   1      45.032  27.307  37.418  1.00  0.00     0.020 A 
ATOM     77  C   UNL A   1      46.419  28.883  36.199  1.00  0.00     0.020 A 
ATOM     78  C   UNL A   1      46.284  27.859  37.137  1.00  0.00     0.054 A 
BRANCH  78  79
ATOM     79  S   UNL A   1      47.743  27.211  37.999  1.00  0.00     0.124 S 
ATOM     80  O   UNL A   1      47.583  25.770  37.822  1.00  0.00    -0.237 OA
ATOM     81  O   UNL A   1      48.844  27.822  37.260  1.00  0.00    -0.237 OA
ATOM     82  O   UNL A   1      47.575  27.696  39.367  1.00  0.00    -0.744 OA
ENDBRANCH  78  79
ENDBRANCH  50  73
BRANCH  62  83
ATOM     83  C   UNL A   1      39.753  34.146  37.410  1.00  0.00    -0.014 A 
ATOM     84  C   UNL A   1      40.320  35.428  37.308  1.00  0.00     0.010 A 
ATOM     85  C   UNL A   1      39.059  33.794  38.583  1.00  0.00     0.010 A 
ATOM     86  C   UNL A   1      40.208  36.337  38.363  1.00  0.00     0.020 A 
ATOM     87  C   UNL A   1      38.918  34.711  39.629  1.00  0.00     0.020 A 
ATOM     88  C   UNL A   1      39.501  35.975  39.514  1.00  0.00     0.054 A 
BRANCH  88  89
ATOM     89  S   UNL A   1      39.307  37.200  40.837  1.00  0.00     0.124 S 
ATOM     90  O   UNL A   1      38.428  38.186  40.213  1.00  0.00    -0.237 OA
ATOM     91  O   UNL A   1      38.707  36.415  41.913  1.00  0.00    -0.237 OA
ATOM     92  O   UNL A   1      40.672  37.655  41.091  1.00  0.00    -0.744 OA
ENDBRANCH  88  89
ENDBRANCH  62  83
ENDBRANCH  36  37
ENDBRANCH  28  31
ENDBRANCH  26  27
ENDBRANCH  25  26
ENDBRANCH  24  25
ENDBRANCH   1  24
TORSDOF 19
ENDMDL
MODEL 2
REMARK VINA RESULT:     -11.2      0.471      8.115
REMARK SMILES C[C@@H](C(=O)NCCCCCCNC(=O)c1ccc(-c2c3nc(c(-c4ccc(S(=O)(=O)[O-])cc4)c4ccc([nH]4)c(-c4ccc(S(=O)(=O)[O-])cc4)c4nc(c(-c5ccc(S(=O)(=O)[O-])cc5)c5ccc2[nH]5)C=C4)C=C3)cc1)c1ccc(C[C@H]2CCCC2=O)cc1I
REMARK SMILES IDX 8 1 7 2 6 3 5 4 3 5 4 6 2 8 1 9 75 10 76 11 87 12 77 13
REMARK SMILES IDX 86 14 88 15 78 16 79 17 80 18 81 19 84 20 82 21 83 22 85 23
REMARK SMILES IDX 9 24 10 25 11 26 12 27 13 28 14 30 15 31 16 32 74 33 17 34
REMARK SMILES IDX 73 35 18 36 19 37 20 38 67 39 21 40 72 41 66 42 68 43 22 44
REMARK SMILES IDX 71 45 65 46 64 47 23 49 53 50 34 51 52 52 35 53 38 54 51 55
REMARK SMILES IDX 69 56 36 57 37 58 50 60 70 61 39 62 24 63 25 64 33 65 26 66
REMARK SMILES IDX 32 67 27 68 28 69 29 70 30 71 31 72 54 73 55 74 63 75 56 76
REMARK SMILES IDX 62 77 57 78 58 79 59 80 60 81 61 82 40 83 41 84 49 85 42 86
REMARK SMILES IDX 48 87 43 88 44 89 45 90 46 91 47 92
REMARK H PARENT 5 7 12 29 68 48 38 59
REMARK Flexibility Score: inf
ROOT
ATOM      1  C   UNL A   1      35.090  22.886  26.508  1.00  0.00     0.002 C 
ENDROOT
BRANCH   1   2
ATOM      2  C   UNL A   1      34.400  21.527  26.698  1.00  0.00     0.021 C 
BRANCH   2   3
ATOM      3  C   UNL A   1      33.164  21.330  25.818  1.00  0.00     0.116 C 
BRANCH   3   4
ATOM      4  N   UNL A   1      33.467  21.674  24.445  1.00  0.00    -0.356 N 
ATOM      5  C   UNL A   1      32.878  22.582  23.616  1.00  0.00     0.227 C 
ATOM      6  O   UNL A   1      33.245  22.570  22.438  1.00  0.00    -0.274 OA
ATOM      7  H   UNL A   1      34.216  21.174  24.047  1.00  0.00     0.163 HD
BRANCH   5   8
ATOM      8  C   UNL A   1      31.846  23.582  24.173  1.00  0.00     0.106 C 
ATOM      9  C   UNL A   1      30.626  23.759  23.258  1.00  0.00     0.023 C 
BRANCH   8  10
ATOM     10  C   UNL A   1      32.484  24.946  24.450  1.00  0.00    -0.022 A 
ATOM     11  C   UNL A   1      32.770  25.277  25.791  1.00  0.00     0.006 A 
ATOM     12  C   UNL A   1      32.781  25.904  23.466  1.00  0.00     0.017 A 
ATOM     13  C   UNL A   1      33.325  26.504  26.142  1.00  0.00     0.004 A 
ATOM     14  C   UNL A   1      33.319  27.151  23.826  1.00  0.00     0.018 A 
ATOM     15  I   UNL A   1      32.468  25.608  21.408  1.00  0.00    -0.044 I 
ATOM     16  C   UNL A   1      33.578  27.468  25.167  1.00  0.00    -0.046 A 
BRANCH  16  17
ATOM     17  C   UNL A   1      34.095  28.830  25.558  1.00  0.00     0.047 C 
BRANCH  17  18
ATOM     18  C   UNL A   1      33.978  29.199  27.043  1.00  0.00     0.060 C 
ATOM     19  C   UNL A   1      35.285  29.530  27.768  1.00  0.00     0.012 C 
ATOM     20  C   UNL A   1      33.162  30.450  27.277  1.00  0.00     0.136 C 
ATOM     21  C   UNL A   1      35.398  31.050  27.787  1.00  0.00     0.009 C 
ATOM     22  C   UNL A   1      33.971  31.571  27.879  1.00  0.00     0.076 C 
ATOM     23  O   UNL A   1      31.965  30.538  27.024  1.00  0.00    -0.299 OA
ENDBRANCH  17  18
ENDBRANCH  16  17
ENDBRANCH   8  10
ENDBRANCH   5   8
ENDBRANCH   3   4
ENDBRANCH   2   3
ENDBRANCH   1   2
BRANCH   1  24
ATOM     24  C   UNL A   1      36.566  22.811  26.103  1.00  0.00     0.002 C 
BRANCH  24  25
ATOM     25  C   UNL A   1      37.284  24.160  26.037  1.00  0.00     0.021 C 
BRANCH  25  26
ATOM     26  C   UNL A   1      38.599  24.216  26.807  1.00  0.00     0.116 C 
BRANCH  26  27
ATOM     27  N   UNL A   1      39.728  24.515  25.938  1.00  0.00    -0.352 N 
ATOM     28  C   UNL A   1      40.673  25.504  26.053  1.00  0.00     0.251 C 
ATOM     29  H   UNL A   1      39.827  23.924  25.156  1.00  0.00     0.163 HD
ATOM     30  O   UNL A   1      41.434  25.744  25.119  1.00  0.00    -0.269 OA
BRANCH  28  31
ATOM     31  C   UNL A   1      40.752  26.295  27.299  1.00  0.00     0.039 A 
ATOM     32  C   UNL A   1      41.759  27.253  27.432  1.00  0.00     0.014 A 
ATOM     33  C   UNL A   1      39.817  26.108  28.321  1.00  0.00     0.014 A 
ATOM     34  C   UNL A   1      41.777  28.084  28.553  1.00  0.00     0.010 A 
ATOM     35  C   UNL A   1      39.798  26.979  29.407  1.00  0.00     0.010 A 
ATOM     36  C   UNL A   1      40.768  27.987  29.526  1.00  0.00    -0.014 A 
BRANCH  36  37
ATOM     37  C   UNL A   1      40.668  28.970  30.636  1.00  0.00     0.031 A 
ATOM     38  C   UNL A   1      41.504  28.810  31.876  1.00  0.00     0.074 A 
ATOM     39  C   UNL A   1      39.749  29.955  30.560  1.00  0.00     0.049 A 
ATOM     40  N   UNL A   1      41.480  29.515  32.978  1.00  0.00    -0.248 NA
ATOM     41  C   UNL A   1      42.477  27.705  31.892  1.00  0.00     0.031 C 
ATOM     42  C   UNL A   1      38.846  30.187  29.428  1.00  0.00     0.029 A 
ATOM     43  N   UNL A   1      39.404  30.934  31.459  1.00  0.00    -0.354 N 
ATOM     44  C   UNL A   1      42.412  28.927  33.825  1.00  0.00     0.074 A 
ATOM     45  C   UNL A   1      42.967  27.792  33.122  1.00  0.00     0.031 C 
ATOM     46  C   UNL A   1      38.059  31.240  29.698  1.00  0.00     0.029 A 
ATOM     47  C   UNL A   1      38.363  31.731  31.038  1.00  0.00     0.049 A 
ATOM     48  H   UNL A   1      39.859  31.055  32.323  1.00  0.00     0.167 HD
ATOM     49  C   UNL A   1      42.774  29.306  35.074  1.00  0.00     0.031 A 
ATOM     50  C   UNL A   1      37.705  32.725  31.667  1.00  0.00     0.031 A 
ATOM     51  C   UNL A   1      42.233  30.449  35.759  1.00  0.00     0.049 A 
ATOM     52  C   UNL A   1      38.119  33.109  33.063  1.00  0.00     0.074 A 
ATOM     53  C   UNL A   1      42.609  30.968  36.986  1.00  0.00     0.029 A 
ATOM     54  N   UNL A   1      41.193  31.238  35.293  1.00  0.00    -0.354 N 
ATOM     55  N   UNL A   1      39.083  32.613  33.800  1.00  0.00    -0.248 NA
ATOM     56  C   UNL A   1      37.358  34.186  33.711  1.00  0.00     0.031 C 
ATOM     57  C   UNL A   1      41.749  32.025  37.295  1.00  0.00     0.029 A 
ATOM     58  C   UNL A   1      40.880  32.206  36.232  1.00  0.00     0.049 A 
ATOM     59  H   UNL A   1      40.744  31.128  34.424  1.00  0.00     0.167 HD
ATOM     60  C   UNL A   1      39.052  33.328  34.992  1.00  0.00     0.074 A 
ATOM     61  C   UNL A   1      37.996  34.308  34.868  1.00  0.00     0.031 C 
ATOM     62  C   UNL A   1      39.825  33.178  36.095  1.00  0.00     0.031 A 
BRANCH  49  63
ATOM     63  C   UNL A   1      43.798  28.478  35.803  1.00  0.00    -0.014 A 
ATOM     64  C   UNL A   1      45.172  28.759  35.699  1.00  0.00     0.010 A 
ATOM     65  C   UNL A   1      43.369  27.478  36.694  1.00  0.00     0.010 A 
ATOM     66  C   UNL A   1      46.098  28.045  36.466  1.00  0.00     0.020 A 
ATOM     67  C   UNL A   1      44.290  26.779  37.481  1.00  0.00     0.020 A 
ATOM     68  C   UNL A   1      45.650  27.065  37.356  1.00  0.00     0.054 A 
BRANCH  68  69
ATOM     69  S   UNL A   1      46.871  26.208  38.390  1.00  0.00     0.124 S 
ATOM     70  O   UNL A   1      47.153  25.014  37.597  1.00  0.00    -0.237 OA
ATOM     71  O   UNL A   1      47.958  27.180  38.470  1.00  0.00    -0.237 OA
ATOM     72  O   UNL A   1      46.158  25.969  39.642  1.00  0.00    -0.744 OA
ENDBRANCH  68  69
ENDBRANCH  49  63
BRANCH  50  73
ATOM     73  C   UNL A   1      36.553  33.401  31.006  1.00  0.00    -0.014 A 
ATOM     74  C   UNL A   1      36.702  34.017  29.750  1.00  0.00     0.010 A 
ATOM     75  C   UNL A   1      35.303  33.457  31.649  1.00  0.00     0.010 A 
ATOM     76  C   UNL A   1      35.634  34.707  29.169  1.00  0.00     0.020 A 
ATOM     77  C   UNL A   1      34.224  34.118  31.056  1.00  0.00     0.020 A 
ATOM     78  C   UNL A   1      34.403  34.756  29.828  1.00  0.00     0.054 A 
BRANCH  78  79
ATOM     79  S   UNL A   1      33.026  35.647  29.051  1.00  0.00     0.124 S 
ATOM     80  O   UNL A   1      32.234  36.048  30.210  1.00  0.00    -0.237 OA
ATOM     81  O   UNL A   1      33.708  36.727  28.344  1.00  0.00    -0.237 OA
ATOM     82  O   UNL A   1      32.411  34.639  28.190  1.00  0.00    -0.744 OA
ENDBRANCH  78  79
ENDBRANCH  50  73
BRANCH  62  83
ATOM     83  C   UNL A   1      39.570  34.100  37.256  1.00  0.00    -0.014 A 
ATOM     84  C   UNL A   1      38.867  33.656  38.390  1.00  0.00     0.010 A 
ATOM     85  C   UNL A   1      40.110  35.399  37.249  1.00  0.00     0.010 A 
ATOM     86  C   UNL A   1      38.695  34.500  39.490  1.00  0.00     0.020 A 
ATOM     87  C   UNL A   1      39.966  36.236  38.359  1.00  0.00     0.020 A 
ATOM     88  C   UNL A   1      39.253  35.782  39.470  1.00  0.00     0.054 A 
BRANCH  88  89
ATOM     89  S   UNL A   1      39.077  36.829  40.940  1.00  0.00     0.124 S 
ATOM     90  O   UNL A   1      40.455  36.918  41.417  1.00  0.00    -0.237 OA
ATOM     91  O   UNL A   1      38.522  38.062  40.390  1.00  0.00    -0.237 OA
ATOM     92  O   UNL A   1      38.169  36.072  41.800  1.00  0.00    -0.744 OA
ENDBRANCH  88  89
ENDBRANCH  62  83
ENDBRANCH  36  37
ENDBRANCH  28  31
ENDBRANCH  26  27
ENDBRANCH  25  26
ENDBRANCH  24  25
ENDBRANCH   1  24
TORSDOF 19
ENDMDL
MODEL 3
REMARK VINA RESULT:     -10.9      2.887      8.609
REMARK SMILES C[C@@H](C(=O)NCCCCCCNC(=O)c1ccc(-c2c3nc(c(-c4ccc(S(=O)(=O)[O-])cc4)c4ccc([nH]4)c(-c4ccc(S(=O)(=O)[O-])cc4)c4nc(c(-c5ccc(S(=O)(=O)[O-])cc5)c5ccc2[nH]5)C=C4)C=C3)cc1)c1ccc(C[C@H]2CCCC2=O)cc1I
REMARK SMILES IDX 8 1 7 2 6 3 5 4 3 5 4 6 2 8 1 9 75 10 76 11 87 12 77 13
REMARK SMILES IDX 86 14 88 15 78 16 79 17 80 18 81 19 84 20 82 21 83 22 85 23
REMARK SMILES IDX 9 24 10 25 11 26 12 27 13 28 14 30 15 31 16 32 74 33 17 34
REMARK SMILES IDX 73 35 18 36 19 37 20 38 67 39 21 40 72 41 66 42 68 43 22 44
REMARK SMILES IDX 71 45 65 46 64 47 23 49 53 50 34 51 52 52 35 53 38 54 51 55
REMARK SMILES IDX 69 56 36 57 37 58 50 60 70 61 39 62 24 63 25 64 33 65 26 66
REMARK SMILES IDX 32 67 27 68 28 69 29 70 30 71 31 72 54 73 55 74 63 75 56 76
REMARK SMILES IDX 62 77 57 78 58 79 59 80 60 81 61 82 40 83 41 84 49 85 42 86
REMARK SMILES IDX 48 87 43 88 44 89 45 90 46 91 47 92
REMARK H PARENT 5 7 12 29 68 48 38 59
REMARK Flexibility Score: inf
ROOT
ATOM      1  C   UNL A   1      34.069  21.623  26.701  1.00  0.00     0.002 C 
ENDROOT
BRANCH   1   2
ATOM      2  C   UNL A   1      33.628  20.325  26.010  1.00  0.00     0.021 C 
BRANCH   2   3
ATOM      3  C   UNL A   1      32.886  20.546  24.689  1.00  0.00     0.116 C 
BRANCH   3   4
ATOM      4  N   UNL A   1      33.657  21.410  23.820  1.00  0.00    -0.356 N 
ATOM      5  C   UNL A   1      33.389  22.668  23.370  1.00  0.00     0.227 C 
ATOM      6  O   UNL A   1      34.156  23.121  22.515  1.00  0.00    -0.274 OA
ATOM      7  H   UNL A   1      34.507  21.029  23.504  1.00  0.00     0.163 HD
BRANCH   5   8
ATOM      8  C   UNL A   1      32.207  23.465  23.958  1.00  0.00     0.106 C 
ATOM      9  C   UNL A   1      30.953  23.418  23.074  1.00  0.00     0.023 C 
BRANCH   8  10
ATOM     10  C   UNL A   1      32.595  24.922  24.224  1.00  0.00    -0.022 A 
ATOM     11  C   UNL A   1      32.862  25.297  25.557  1.00  0.00     0.006 A 
ATOM     12  C   UNL A   1      32.679  25.920  23.239  1.00  0.00     0.017 A 
ATOM     13  C   UNL A   1      33.196  26.604  25.899  1.00  0.00     0.004 A 
ATOM     14  C   UNL A   1      32.992  27.244  23.591  1.00  0.00     0.018 A 
ATOM     15  I   UNL A   1      32.354  25.576  21.190  1.00  0.00    -0.044 I 
ATOM     16  C   UNL A   1      33.235  27.600  24.924  1.00  0.00    -0.046 A 
BRANCH  16  17
ATOM     17  C   UNL A   1      33.508  29.032  25.309  1.00  0.00     0.047 C 
BRANCH  17  18
ATOM     18  C   UNL A   1      33.428  29.359  26.806  1.00  0.00     0.060 C 
ATOM     19  C   UNL A   1      34.759  29.443  27.558  1.00  0.00     0.012 C 
ATOM     20  C   UNL A   1      32.825  30.718  27.082  1.00  0.00     0.136 C 
ATOM     21  C   UNL A   1      35.120  30.922  27.639  1.00  0.00     0.009 C 
ATOM     22  C   UNL A   1      33.796  31.667  27.737  1.00  0.00     0.076 C 
ATOM     23  O   UNL A   1      31.663  31.012  26.821  1.00  0.00    -0.299 OA
ENDBRANCH  17  18
ENDBRANCH  16  17
ENDBRANCH   8  10
ENDBRANCH   5   8
ENDBRANCH   3   4
ENDBRANCH   2   3
ENDBRANCH   1   2
BRANCH   1  24
ATOM     24  C   UNL A   1      35.537  22.005  26.485  1.00  0.00     0.002 C 
BRANCH  24  25
ATOM     25  C   UNL A   1      35.775  23.476  26.136  1.00  0.00     0.021 C 
BRANCH  25  26
ATOM     26  C   UNL A   1      37.029  23.735  25.307  1.00  0.00     0.116 C 
BRANCH  26  27
ATOM     27  N   UNL A   1      38.106  22.816  25.646  1.00  0.00    -0.352 N 
ATOM     28  C   UNL A   1      39.301  23.072  26.271  1.00  0.00     0.251 C 
ATOM     29  H   UNL A   1      37.955  21.876  25.391  1.00  0.00     0.163 HD
ATOM     30  O   UNL A   1      40.183  22.218  26.293  1.00  0.00    -0.269 OA
BRANCH  28  31
ATOM     31  C   UNL A   1      39.527  24.392  26.897  1.00  0.00     0.039 A 
ATOM     32  C   UNL A   1      39.024  24.632  28.177  1.00  0.00     0.014 A 
ATOM     33  C   UNL A   1      40.256  25.381  26.229  1.00  0.00     0.014 A 
ATOM     34  C   UNL A   1      39.326  25.832  28.825  1.00  0.00     0.010 A 
ATOM     35  C   UNL A   1      40.610  26.549  26.899  1.00  0.00     0.010 A 
ATOM     36  C   UNL A   1      40.163  26.779  28.210  1.00  0.00    -0.014 A 
BRANCH  36  37
ATOM     37  C   UNL A   1      40.638  27.980  28.943  1.00  0.00     0.031 A 
ATOM     38  C   UNL A   1      41.972  27.974  29.638  1.00  0.00     0.074 A 
ATOM     39  C   UNL A   1      39.817  29.045  29.061  1.00  0.00     0.049 A 
ATOM     40  N   UNL A   1      42.504  28.894  30.401  1.00  0.00    -0.248 NA
ATOM     41  C   UNL A   1      42.807  26.773  29.476  1.00  0.00     0.031 C 
ATOM     42  C   UNL A   1      38.480  29.154  28.470  1.00  0.00     0.029 A 
ATOM     43  N   UNL A   1      39.975  30.233  29.733  1.00  0.00    -0.354 N 
ATOM     44  C   UNL A   1      43.721  28.377  30.828  1.00  0.00     0.074 A 
ATOM     45  C   UNL A   1      43.839  27.051  30.262  1.00  0.00     0.031 C 
ATOM     46  C   UNL A   1      37.945  30.340  28.800  1.00  0.00     0.029 A 
ATOM     47  C   UNL A   1      38.876  31.058  29.664  1.00  0.00     0.049 A 
ATOM     48  H   UNL A   1      40.798  30.471  30.218  1.00  0.00     0.167 HD
ATOM     49  C   UNL A   1      44.656  28.959  31.616  1.00  0.00     0.031 A 
ATOM     50  C   UNL A   1      38.628  32.246  30.252  1.00  0.00     0.031 A 
ATOM     51  C   UNL A   1      44.540  30.287  32.158  1.00  0.00     0.049 A 
ATOM     52  C   UNL A   1      39.680  32.858  31.138  1.00  0.00     0.074 A 
ATOM     53  C   UNL A   1      45.479  30.999  32.886  1.00  0.00     0.029 A 
ATOM     54  N   UNL A   1      43.420  31.096  32.053  1.00  0.00    -0.354 N 
ATOM     55  N   UNL A   1      40.874  32.401  31.434  1.00  0.00    -0.248 NA
ATOM     56  C   UNL A   1      39.355  34.145  31.769  1.00  0.00     0.031 C 
ATOM     57  C   UNL A   1      44.900  32.206  33.282  1.00  0.00     0.029 A 
ATOM     58  C   UNL A   1      43.624  32.276  32.746  1.00  0.00     0.049 A 
ATOM     59  H   UNL A   1      42.600  30.866  31.558  1.00  0.00     0.167 HD
ATOM     60  C   UNL A   1      41.444  33.351  32.272  1.00  0.00     0.074 A 
ATOM     61  C   UNL A   1      40.480  34.420  32.415  1.00  0.00     0.031 C 
ATOM     62  C   UNL A   1      42.656  33.334  32.879  1.00  0.00     0.031 A 
BRANCH  49  63
ATOM     63  C   UNL A   1      45.891  28.172  31.962  1.00  0.00    -0.014 A 
ATOM     64  C   UNL A   1      45.938  27.352  33.102  1.00  0.00     0.010 A 
ATOM     65  C   UNL A   1      46.978  28.167  31.069  1.00  0.00     0.010 A 
ATOM     66  C   UNL A   1      47.057  26.549  33.348  1.00  0.00     0.020 A 
ATOM     67  C   UNL A   1      48.088  27.348  31.299  1.00  0.00     0.020 A 
ATOM     68  C   UNL A   1      48.121  26.547  32.441  1.00  0.00     0.054 A 
BRANCH  68  69
ATOM     69  S   UNL A   1      49.525  25.440  32.751  1.00  0.00     0.124 S 
ATOM     70  O   UNL A   1      48.920  24.418  33.602  1.00  0.00    -0.237 OA
ATOM     71  O   UNL A   1      49.887  25.003  31.405  1.00  0.00    -0.237 OA
ATOM     72  O   UNL A   1      50.505  26.299  33.410  1.00  0.00    -0.744 OA
ENDBRANCH  68  69
ENDBRANCH  49  63
BRANCH  50  73
ATOM     73  C   UNL A   1      37.313  32.920  30.062  1.00  0.00    -0.014 A 
ATOM     74  C   UNL A   1      37.103  33.804  28.989  1.00  0.00     0.010 A 
ATOM     75  C   UNL A   1      36.267  32.698  30.978  1.00  0.00     0.010 A 
ATOM     76  C   UNL A   1      35.888  34.483  28.859  1.00  0.00     0.020 A 
ATOM     77  C   UNL A   1      35.040  33.350  30.832  1.00  0.00     0.020 A 
ATOM     78  C   UNL A   1      34.865  34.254  29.783  1.00  0.00     0.054 A 
BRANCH  78  79
ATOM     79  S   UNL A   1      33.292  35.136  29.590  1.00  0.00     0.124 S 
ATOM     80  O   UNL A   1      32.641  34.366  28.533  1.00  0.00    -0.237 OA
ATOM     81  O   UNL A   1      32.697  35.017  30.918  1.00  0.00    -0.237 OA
ATOM     82  O   UNL A   1      33.703  36.488  29.218  1.00  0.00    -0.744 OA
ENDBRANCH  78  79
ENDBRANCH  50  73
BRANCH  62  83
ATOM     83  C   UNL A   1      43.019  34.509  33.746  1.00  0.00    -0.014 A 
ATOM     84  C   UNL A   1      42.725  34.512  35.120  1.00  0.00     0.010 A 
ATOM     85  C   UNL A   1      43.736  35.588  33.195  1.00  0.00     0.010 A 
ATOM     86  C   UNL A   1      43.128  35.578  35.927  1.00  0.00     0.020 A 
ATOM     87  C   UNL A   1      44.167  36.643  34.004  1.00  0.00     0.020 A 
ATOM     88  C   UNL A   1      43.853  36.634  35.365  1.00  0.00     0.054 A 
BRANCH  88  89
ATOM     89  S   UNL A   1      44.427  37.969  36.449  1.00  0.00     0.124 S 
ATOM     90  O   UNL A   1      43.533  37.835  37.597  1.00  0.00    -0.237 OA
ATOM     91  O   UNL A   1      45.820  37.606  36.692  1.00  0.00    -0.237 OA
ATOM     92  O   UNL A   1      44.234  39.176  35.647  1.00  0.00    -0.744 OA
ENDBRANCH  88  89
ENDBRANCH  62  83
ENDBRANCH  36  37
ENDBRANCH  28  31
ENDBRANCH  26  27
ENDBRANCH  25  26
ENDBRANCH  24  25
ENDBRANCH   1  24
TORSDOF 19
ENDMDL
