MODEL 1
REMARK VINA RESULT:      -9.7      0.000      0.000
REMARK SMILES C[C@@H](C(=O)NCCCCCCNC(=O)c1ccc(-c2c3nc(c(-c4ccc(S(=O)(=O)[O-])cc4)c4ccc([nH]4)c(-c4ccc(S(=O)(=O)[O-])cc4)c4nc(c(-c5ccc(S(=O)(=O)[O-])cc5)c5ccc2[nH]5)C=C4)C=C3)cc1)c1cccn(C(F)F)c1=O
REMARK SMILES IDX 9 1 8 2 7 3 6 4 5 5 3 6 4 7 2 9 1 10 75 11 76 12 83 13 77 14
REMARK SMILES IDX 79 15 84 16 78 17 80 18 81 19 82 20 10 21 11 22 12 23 13 24
REMARK SMILES IDX 14 26 15 27 16 28 74 29 17 30 73 31 18 32 19 33 20 34 67 35
REMARK SMILES IDX 21 36 72 37 66 38 68 39 22 40 71 41 65 42 64 43 23 45 53 46
REMARK SMILES IDX 34 47 52 48 35 49 38 50 51 51 69 52 36 53 37 54 50 56 70 57
REMARK SMILES IDX 39 58 24 59 25 60 33 61 26 62 32 63 27 64 28 65 29 66 30 67
REMARK SMILES IDX 31 68 54 69 55 70 63 71 56 72 62 73 57 74 58 75 59 76 60 77
REMARK SMILES IDX 61 78 40 79 41 80 49 81 42 82 48 83 43 84 44 85 45 86 46 87
REMARK SMILES IDX 47 88
REMARK H PARENT 5 8 12 25 68 44 38 55
REMARK Flexibility Score: inf
ROOT
ATOM      1  C   UNL A   1      33.282  26.830  24.968  1.00  0.00     0.002 C 
ENDROOT
BRANCH   1   2
ATOM      2  C   UNL A   1      32.770  27.131  23.556  1.00  0.00     0.002 C 
BRANCH   2   3
ATOM      3  C   UNL A   1      33.573  26.484  22.417  1.00  0.00     0.021 C 
BRANCH   3   4
ATOM      4  C   UNL A   1      32.748  25.572  21.506  1.00  0.00     0.116 C 
BRANCH   4   5
ATOM      5  N   UNL A   1      31.616  25.019  22.223  1.00  0.00    -0.356 N 
ATOM      6  C   UNL A   1      31.438  23.787  22.776  1.00  0.00     0.227 C 
ATOM      7  O   UNL A   1      30.316  23.542  23.230  1.00  0.00    -0.274 OA
ATOM      8  H   UNL A   1      30.854  25.634  22.326  1.00  0.00     0.163 HD
BRANCH   6   9
ATOM      9  C   UNL A   1      32.607  22.786  22.833  1.00  0.00     0.111 C 
ATOM     10  C   UNL A   1      32.148  21.325  22.828  1.00  0.00     0.023 C 
BRANCH   9  11
ATOM     11  C   UNL A   1      33.460  23.058  24.061  1.00  0.00     0.030 A 
ATOM     12  C   UNL A   1      32.980  23.102  25.319  1.00  0.00     0.012 A 
ATOM     13  C   UNL A   1      34.935  23.259  23.855  1.00  0.00     0.258 A 
ATOM     14  C   UNL A   1      33.835  23.334  26.450  1.00  0.00     0.019 A 
ATOM     15  N   UNL A   1      35.694  23.455  24.998  1.00  0.00    -0.258 N 
ATOM     16  O   UNL A   1      35.415  23.229  22.724  1.00  0.00    -0.269 OA
ATOM     17  C   UNL A   1      35.147  23.494  26.266  1.00  0.00     0.095 A 
BRANCH  15  18
ATOM     18  C   UNL A   1      37.116  23.616  24.840  1.00  0.00     0.451 C 
ATOM     19  F   UNL A   1      37.657  24.073  26.002  1.00  0.00    -0.185 F 
ATOM     20  F   UNL A   1      37.687  22.400  24.616  1.00  0.00    -0.185 F 
ENDBRANCH  15  18
ENDBRANCH   9  11
ENDBRANCH   6   9
ENDBRANCH   4   5
ENDBRANCH   3   4
ENDBRANCH   2   3
ENDBRANCH   1   2
BRANCH   1  21
ATOM     21  C   UNL A   1      32.789  27.788  26.055  1.00  0.00     0.021 C 
BRANCH  21  22
ATOM     22  C   UNL A   1      33.876  28.309  26.990  1.00  0.00     0.116 C 
BRANCH  22  23
ATOM     23  N   UNL A   1      33.673  29.704  27.341  1.00  0.00    -0.352 N 
ATOM     24  C   UNL A   1      34.493  30.550  28.043  1.00  0.00     0.251 C 
ATOM     25  H   UNL A   1      32.827  30.099  27.030  1.00  0.00     0.163 HD
ATOM     26  O   UNL A   1      34.066  31.646  28.409  1.00  0.00    -0.269 OA
BRANCH  24  27
ATOM     27  C   UNL A   1      35.878  30.150  28.373  1.00  0.00     0.039 A 
ATOM     28  C   UNL A   1      36.871  30.286  27.398  1.00  0.00     0.014 A 
ATOM     29  C   UNL A   1      36.196  29.609  29.623  1.00  0.00     0.014 A 
ATOM     30  C   UNL A   1      38.184  29.911  27.687  1.00  0.00     0.010 A 
ATOM     31  C   UNL A   1      37.519  29.302  29.933  1.00  0.00     0.010 A 
ATOM     32  C   UNL A   1      38.524  29.431  28.963  1.00  0.00    -0.014 A 
BRANCH  32  33
ATOM     33  C   UNL A   1      39.917  29.025  29.284  1.00  0.00     0.031 A 
ATOM     34  C   UNL A   1      40.837  29.983  29.993  1.00  0.00     0.074 A 
ATOM     35  C   UNL A   1      40.367  27.814  28.902  1.00  0.00     0.049 A 
ATOM     36  N   UNL A   1      42.087  29.819  30.346  1.00  0.00    -0.248 NA
ATOM     37  C   UNL A   1      40.290  31.308  30.329  1.00  0.00     0.031 C 
ATOM     38  C   UNL A   1      39.587  26.809  28.176  1.00  0.00     0.029 A 
ATOM     39  N   UNL A   1      41.592  27.220  29.075  1.00  0.00    -0.354 N 
ATOM     40  C   UNL A   1      42.480  31.023  30.920  1.00  0.00     0.074 A 
ATOM     41  C   UNL A   1      41.353  31.923  30.826  1.00  0.00     0.031 C 
ATOM     42  C   UNL A   1      40.341  25.712  27.999  1.00  0.00     0.029 A 
ATOM     43  C   UNL A   1      41.665  25.944  28.567  1.00  0.00     0.049 A 
ATOM     44  H   UNL A   1      42.348  27.665  29.523  1.00  0.00     0.167 HD
ATOM     45  C   UNL A   1      43.667  31.346  31.490  1.00  0.00     0.031 A 
ATOM     46  C   UNL A   1      42.681  25.060  28.563  1.00  0.00     0.031 A 
ATOM     47  C   UNL A   1      44.779  30.441  31.603  1.00  0.00     0.049 A 
ATOM     48  C   UNL A   1      43.984  25.437  29.214  1.00  0.00     0.074 A 
ATOM     49  C   UNL A   1      45.999  30.648  32.224  1.00  0.00     0.029 A 
ATOM     50  N   UNL A   1      44.808  29.155  31.082  1.00  0.00    -0.354 N 
ATOM     51  N   UNL A   1      44.313  26.557  29.813  1.00  0.00    -0.248 NA
ATOM     52  C   UNL A   1      45.047  24.422  29.200  1.00  0.00     0.031 C 
ATOM     53  C   UNL A   1      46.783  29.504  32.038  1.00  0.00     0.029 A 
ATOM     54  C   UNL A   1      46.031  28.565  31.350  1.00  0.00     0.049 A 
ATOM     55  H   UNL A   1      44.068  28.726  30.595  1.00  0.00     0.167 HD
ATOM     56  C   UNL A   1      45.610  26.368  30.280  1.00  0.00     0.074 A 
ATOM     57  C   UNL A   1      46.000  25.025  29.901  1.00  0.00     0.031 C 
ATOM     58  C   UNL A   1      46.404  27.227  30.966  1.00  0.00     0.031 A 
BRANCH  45  59
ATOM     59  C   UNL A   1      43.823  32.746  32.024  1.00  0.00    -0.014 A 
ATOM     60  C   UNL A   1      44.359  33.777  31.229  1.00  0.00     0.010 A 
ATOM     61  C   UNL A   1      43.403  33.043  33.333  1.00  0.00     0.010 A 
ATOM     62  C   UNL A   1      44.521  35.063  31.750  1.00  0.00     0.020 A 
ATOM     63  C   UNL A   1      43.535  34.336  33.849  1.00  0.00     0.020 A 
ATOM     64  C   UNL A   1      44.114  35.333  33.061  1.00  0.00     0.054 A 
BRANCH  64  65
ATOM     65  S   UNL A   1      44.328  37.012  33.711  1.00  0.00     0.124 S 
ATOM     66  O   UNL A   1      45.158  36.773  34.890  1.00  0.00    -0.237 OA
ATOM     67  O   UNL A   1      44.990  37.703  32.608  1.00  0.00    -0.237 OA
ATOM     68  O   UNL A   1      42.964  37.453  33.989  1.00  0.00    -0.744 OA
ENDBRANCH  64  65
ENDBRANCH  45  59
BRANCH  46  69
ATOM     69  C   UNL A   1      42.492  23.714  27.958  1.00  0.00    -0.014 A 
ATOM     70  C   UNL A   1      42.859  23.480  26.621  1.00  0.00     0.010 A 
ATOM     71  C   UNL A   1      41.956  22.657  28.715  1.00  0.00     0.010 A 
ATOM     72  C   UNL A   1      42.677  22.219  26.046  1.00  0.00     0.020 A 
ATOM     73  C   UNL A   1      41.797  21.388  28.152  1.00  0.00     0.020 A 
ATOM     74  C   UNL A   1      42.148  21.180  26.816  1.00  0.00     0.054 A 
BRANCH  74  75
ATOM     75  S   UNL A   1      41.967  19.538  26.065  1.00  0.00     0.124 S 
ATOM     76  O   UNL A   1      42.458  18.663  27.124  1.00  0.00    -0.237 OA
ATOM     77  O   UNL A   1      40.532  19.470  25.799  1.00  0.00    -0.237 OA
ATOM     78  O   UNL A   1      42.809  19.614  24.873  1.00  0.00    -0.744 OA
ENDBRANCH  74  75
ENDBRANCH  46  69
BRANCH  58  79
ATOM     79  C   UNL A   1      47.759  26.726  31.391  1.00  0.00    -0.014 A 
ATOM     80  C   UNL A   1      48.877  26.827  30.544  1.00  0.00     0.010 A 
ATOM     81  C   UNL A   1      47.922  26.182  32.677  1.00  0.00     0.010 A 
ATOM     82  C   UNL A   1      50.124  26.357  30.961  1.00  0.00     0.020 A 
ATOM     83  C   UNL A   1      49.172  25.736  33.110  1.00  0.00     0.020 A 
ATOM     84  C   UNL A   1      50.263  25.811  32.242  1.00  0.00     0.054 A 
BRANCH  84  85
ATOM     85  S   UNL A   1      51.898  25.235  32.775  1.00  0.00     0.124 S 
ATOM     86  O   UNL A   1      52.759  26.338  32.357  1.00  0.00    -0.237 OA
ATOM     87  O   UNL A   1      51.730  25.080  34.218  1.00  0.00    -0.237 OA
ATOM     88  O   UNL A   1      52.083  23.986  32.038  1.00  0.00    -0.744 OA
ENDBRANCH  84  85
ENDBRANCH  58  79
ENDBRANCH  32  33
ENDBRANCH  24  27
ENDBRANCH  22  23
ENDBRANCH  21  22
ENDBRANCH   1  21
TORSDOF 18
ENDMDL
MODEL 2
REMARK VINA RESULT:      -9.7      4.601     10.350
REMARK SMILES C[C@@H](C(=O)NCCCCCCNC(=O)c1ccc(-c2c3nc(c(-c4ccc(S(=O)(=O)[O-])cc4)c4ccc([nH]4)c(-c4ccc(S(=O)(=O)[O-])cc4)c4nc(c(-c5ccc(S(=O)(=O)[O-])cc5)c5ccc2[nH]5)C=C4)C=C3)cc1)c1cccn(C(F)F)c1=O
REMARK SMILES IDX 9 1 8 2 7 3 6 4 5 5 3 6 4 7 2 9 1 10 75 11 76 12 83 13 77 14
REMARK SMILES IDX 79 15 84 16 78 17 80 18 81 19 82 20 10 21 11 22 12 23 13 24
REMARK SMILES IDX 14 26 15 27 16 28 74 29 17 30 73 31 18 32 19 33 20 34 67 35
REMARK SMILES IDX 21 36 72 37 66 38 68 39 22 40 71 41 65 42 64 43 23 45 53 46
REMARK SMILES IDX 34 47 52 48 35 49 38 50 51 51 69 52 36 53 37 54 50 56 70 57
REMARK SMILES IDX 39 58 24 59 25 60 33 61 26 62 32 63 27 64 28 65 29 66 30 67
REMARK SMILES IDX 31 68 54 69 55 70 63 71 56 72 62 73 57 74 58 75 59 76 60 77
REMARK SMILES IDX 61 78 40 79 41 80 49 81 42 82 48 83 43 84 44 85 45 86 46 87
REMARK SMILES IDX 47 88
REMARK H PARENT 5 8 12 25 68 44 38 55
REMARK Flexibility Score: inf
ROOT
ATOM      1  C   UNL A   1      41.535  22.221  28.171  1.00  0.00     0.002 C 
ENDROOT
BRANCH   1   2
ATOM      2  C   UNL A   1      40.468  21.841  27.138  1.00  0.00     0.002 C 
BRANCH   2   3
ATOM      3  C   UNL A   1      39.525  22.979  26.723  1.00  0.00     0.021 C 
BRANCH   3   4
ATOM      4  C   UNL A   1      38.380  22.544  25.803  1.00  0.00     0.116 C 
BRANCH   4   5
ATOM      5  N   UNL A   1      37.098  22.767  26.442  1.00  0.00    -0.356 N 
ATOM      6  C   UNL A   1      35.834  22.664  25.942  1.00  0.00     0.227 C 
ATOM      7  O   UNL A   1      34.916  23.030  26.682  1.00  0.00    -0.274 OA
ATOM      8  H   UNL A   1      37.149  23.035  27.387  1.00  0.00     0.163 HD
BRANCH   6   9
ATOM      9  C   UNL A   1      35.602  22.094  24.531  1.00  0.00     0.111 C 
ATOM     10  C   UNL A   1      35.262  23.171  23.497  1.00  0.00     0.023 C 
BRANCH   9  11
ATOM     11  C   UNL A   1      34.502  21.047  24.571  1.00  0.00     0.030 A 
ATOM     12  C   UNL A   1      33.187  21.330  24.488  1.00  0.00     0.012 A 
ATOM     13  C   UNL A   1      34.914  19.606  24.679  1.00  0.00     0.258 A 
ATOM     14  C   UNL A   1      32.186  20.298  24.501  1.00  0.00     0.019 A 
ATOM     15  N   UNL A   1      33.891  18.671  24.662  1.00  0.00    -0.258 N 
ATOM     16  O   UNL A   1      36.103  19.303  24.760  1.00  0.00    -0.269 OA
ATOM     17  C   UNL A   1      32.557  19.018  24.579  1.00  0.00     0.095 A 
BRANCH  15  18
ATOM     18  C   UNL A   1      34.253  17.279  24.729  1.00  0.00     0.451 C 
ATOM     19  F   UNL A   1      33.199  16.554  25.194  1.00  0.00    -0.185 F 
ATOM     20  F   UNL A   1      34.498  16.815  23.473  1.00  0.00    -0.185 F 
ENDBRANCH  15  18
ENDBRANCH   9  11
ENDBRANCH   6   9
ENDBRANCH   4   5
ENDBRANCH   3   4
ENDBRANCH   2   3
ENDBRANCH   1   2
BRANCH   1  21
ATOM     21  C   UNL A   1      42.962  22.308  27.627  1.00  0.00     0.021 C 
BRANCH  21  22
ATOM     22  C   UNL A   1      43.512  23.725  27.495  1.00  0.00     0.116 C 
BRANCH  22  23
ATOM     23  N   UNL A   1      43.062  24.375  26.276  1.00  0.00    -0.352 N 
ATOM     24  C   UNL A   1      42.304  25.507  26.126  1.00  0.00     0.251 C 
ATOM     25  H   UNL A   1      43.343  23.941  25.438  1.00  0.00     0.163 HD
ATOM     26  O   UNL A   1      41.859  25.798  25.014  1.00  0.00    -0.269 OA
BRANCH  24  27
ATOM     27  C   UNL A   1      42.006  26.370  27.289  1.00  0.00     0.039 A 
ATOM     28  C   UNL A   1      42.781  27.515  27.497  1.00  0.00     0.014 A 
ATOM     29  C   UNL A   1      40.991  26.040  28.194  1.00  0.00     0.014 A 
ATOM     30  C   UNL A   1      42.519  28.341  28.591  1.00  0.00     0.010 A 
ATOM     31  C   UNL A   1      40.686  26.902  29.243  1.00  0.00     0.010 A 
ATOM     32  C   UNL A   1      41.459  28.052  29.465  1.00  0.00    -0.014 A 
BRANCH  32  33
ATOM     33  C   UNL A   1      41.171  28.922  30.635  1.00  0.00     0.031 A 
ATOM     34  C   UNL A   1      42.005  28.808  31.884  1.00  0.00     0.074 A 
ATOM     35  C   UNL A   1      40.135  29.784  30.591  1.00  0.00     0.049 A 
ATOM     36  N   UNL A   1      41.900  29.467  33.010  1.00  0.00    -0.248 NA
ATOM     37  C   UNL A   1      43.083  27.806  31.876  1.00  0.00     0.031 C 
ATOM     38  C   UNL A   1      39.229  29.963  29.455  1.00  0.00     0.029 A 
ATOM     39  N   UNL A   1      39.673  30.674  31.527  1.00  0.00    -0.354 N 
ATOM     40  C   UNL A   1      42.877  28.942  33.849  1.00  0.00     0.074 A 
ATOM     41  C   UNL A   1      43.534  27.881  33.120  1.00  0.00     0.031 C 
ATOM     42  C   UNL A   1      38.343  30.929  29.748  1.00  0.00     0.029 A 
ATOM     43  C   UNL A   1      38.596  31.415  31.100  1.00  0.00     0.049 A 
ATOM     44  H   UNL A   1      40.076  30.774  32.421  1.00  0.00     0.167 HD
ATOM     45  C   UNL A   1      43.211  29.322  35.106  1.00  0.00     0.031 A 
ATOM     46  C   UNL A   1      37.895  32.380  31.726  1.00  0.00     0.031 A 
ATOM     47  C   UNL A   1      42.572  30.394  35.821  1.00  0.00     0.049 A 
ATOM     48  C   UNL A   1      38.293  32.793  33.117  1.00  0.00     0.074 A 
ATOM     49  C   UNL A   1      42.882  30.902  37.071  1.00  0.00     0.029 A 
ATOM     50  N   UNL A   1      41.491  31.124  35.349  1.00  0.00    -0.354 N 
ATOM     51  N   UNL A   1      39.266  32.333  33.867  1.00  0.00    -0.248 NA
ATOM     52  C   UNL A   1      37.507  33.868  33.737  1.00  0.00     0.031 C 
ATOM     53  C   UNL A   1      41.959  31.908  37.374  1.00  0.00     0.029 A 
ATOM     54  C   UNL A   1      41.109  32.065  36.291  1.00  0.00     0.049 A 
ATOM     55  H   UNL A   1      41.060  30.994  34.474  1.00  0.00     0.167 HD
ATOM     56  C   UNL A   1      39.231  33.086  35.035  1.00  0.00     0.074 A 
ATOM     57  C   UNL A   1      38.148  34.037  34.887  1.00  0.00     0.031 C 
ATOM     58  C   UNL A   1      40.028  33.004  36.129  1.00  0.00     0.031 A 
BRANCH  45  59
ATOM     59  C   UNL A   1      44.314  28.559  35.792  1.00  0.00    -0.014 A 
ATOM     60  C   UNL A   1      44.051  27.369  36.497  1.00  0.00     0.010 A 
ATOM     61  C   UNL A   1      45.639  29.023  35.711  1.00  0.00     0.010 A 
ATOM     62  C   UNL A   1      45.082  26.689  37.150  1.00  0.00     0.020 A 
ATOM     63  C   UNL A   1      46.679  28.330  36.337  1.00  0.00     0.020 A 
ATOM     64  C   UNL A   1      46.390  27.178  37.071  1.00  0.00     0.054 A 
BRANCH  64  65
ATOM     65  S   UNL A   1      47.712  26.272  37.921  1.00  0.00     0.124 S 
ATOM     66  O   UNL A   1      48.245  27.294  38.820  1.00  0.00    -0.237 OA
ATOM     67  O   UNL A   1      46.989  25.181  38.569  1.00  0.00    -0.237 OA
ATOM     68  O   UNL A   1      48.606  25.867  36.840  1.00  0.00    -0.744 OA
ENDBRANCH  64  65
ENDBRANCH  45  59
BRANCH  46  69
ATOM     69  C   UNL A   1      36.769  33.053  31.024  1.00  0.00    -0.014 A 
ATOM     70  C   UNL A   1      35.440  32.803  31.413  1.00  0.00     0.010 A 
ATOM     71  C   UNL A   1      37.015  33.954  29.973  1.00  0.00     0.010 A 
ATOM     72  C   UNL A   1      34.379  33.428  30.752  1.00  0.00     0.020 A 
ATOM     73  C   UNL A   1      35.958  34.601  29.327  1.00  0.00     0.020 A 
ATOM     74  C   UNL A   1      34.644  34.324  29.713  1.00  0.00     0.054 A 
BRANCH  74  75
ATOM     75  S   UNL A   1      33.253  35.161  28.903  1.00  0.00     0.124 S 
ATOM     76  O   UNL A   1      32.713  34.103  28.056  1.00  0.00    -0.237 OA
ATOM     77  O   UNL A   1      32.419  35.555  30.036  1.00  0.00    -0.237 OA
ATOM     78  O   UNL A   1      33.889  36.270  28.195  1.00  0.00    -0.744 OA
ENDBRANCH  74  75
ENDBRANCH  46  69
BRANCH  58  79
ATOM     79  C   UNL A   1      39.788  33.996  37.236  1.00  0.00    -0.014 A 
ATOM     80  C   UNL A   1      39.028  33.659  38.370  1.00  0.00     0.010 A 
ATOM     81  C   UNL A   1      40.369  35.274  37.155  1.00  0.00     0.010 A 
ATOM     82  C   UNL A   1      38.820  34.597  39.384  1.00  0.00     0.020 A 
ATOM     83  C   UNL A   1      40.188  36.206  38.180  1.00  0.00     0.020 A 
ATOM     84  C   UNL A   1      39.400  35.866  39.282  1.00  0.00     0.054 A 
BRANCH  84  85
ATOM     85  S   UNL A   1      39.143  37.057  40.625  1.00  0.00     0.124 S 
ATOM     86  O   UNL A   1      38.287  38.053  39.987  1.00  0.00    -0.237 OA
ATOM     87  O   UNL A   1      38.502  36.245  41.656  1.00  0.00    -0.237 OA
ATOM     88  O   UNL A   1      40.494  37.511  40.948  1.00  0.00    -0.744 OA
ENDBRANCH  84  85
ENDBRANCH  58  79
ENDBRANCH  32  33
ENDBRANCH  24  27
ENDBRANCH  22  23
ENDBRANCH  21  22
ENDBRANCH   1  21
TORSDOF 18
ENDMDL
MODEL 3
REMARK VINA RESULT:      -9.5      2.788      3.506
REMARK SMILES C[C@@H](C(=O)NCCCCCCNC(=O)c1ccc(-c2c3nc(c(-c4ccc(S(=O)(=O)[O-])cc4)c4ccc([nH]4)c(-c4ccc(S(=O)(=O)[O-])cc4)c4nc(c(-c5ccc(S(=O)(=O)[O-])cc5)c5ccc2[nH]5)C=C4)C=C3)cc1)c1cccn(C(F)F)c1=O
REMARK SMILES IDX 9 1 8 2 7 3 6 4 5 5 3 6 4 7 2 9 1 10 75 11 76 12 83 13 77 14
REMARK SMILES IDX 79 15 84 16 78 17 80 18 81 19 82 20 10 21 11 22 12 23 13 24
REMARK SMILES IDX 14 26 15 27 16 28 74 29 17 30 73 31 18 32 19 33 20 34 67 35
REMARK SMILES IDX 21 36 72 37 66 38 68 39 22 40 71 41 65 42 64 43 23 45 53 46
REMARK SMILES IDX 34 47 52 48 35 49 38 50 51 51 69 52 36 53 37 54 50 56 70 57
REMARK SMILES IDX 39 58 24 59 25 60 33 61 26 62 32 63 27 64 28 65 29 66 30 67
REMARK SMILES IDX 31 68 54 69 55 70 63 71 56 72 62 73 57 74 58 75 59 76 60 77
REMARK SMILES IDX 61 78 40 79 41 80 49 81 42 82 48 83 43 84 44 85 45 86 46 87
REMARK SMILES IDX 47 88
REMARK H PARENT 5 8 12 25 68 44 38 55
REMARK Flexibility Score: inf
ROOT
ATOM      1  C   UNL A   1      31.760  28.296  25.153  1.00  0.00     0.002 C 
ENDROOT
BRANCH   1   2
ATOM      2  C   UNL A   1      31.011  27.018  24.761  1.00  0.00     0.002 C 
BRANCH   2   3
ATOM      3  C   UNL A   1      31.297  26.501  23.343  1.00  0.00     0.021 C 
BRANCH   3   4
ATOM      4  C   UNL A   1      30.988  25.015  23.141  1.00  0.00     0.116 C 
BRANCH   4   5
ATOM      5  N   UNL A   1      32.034  24.376  22.367  1.00  0.00    -0.356 N 
ATOM      6  C   UNL A   1      33.199  23.793  22.768  1.00  0.00     0.227 C 
ATOM      7  O   UNL A   1      33.969  23.427  21.876  1.00  0.00    -0.274 OA
ATOM      8  H   UNL A   1      31.876  24.360  21.395  1.00  0.00     0.163 HD
BRANCH   6   9
ATOM      9  C   UNL A   1      33.493  23.601  24.267  1.00  0.00     0.111 C 
ATOM     10  C   UNL A   1      34.325  24.737  24.867  1.00  0.00     0.023 C 
BRANCH   9  11
ATOM     11  C   UNL A   1      34.193  22.271  24.490  1.00  0.00     0.030 A 
ATOM     12  C   UNL A   1      35.514  22.141  24.715  1.00  0.00     0.012 A 
ATOM     13  C   UNL A   1      33.347  21.028  24.486  1.00  0.00     0.258 A 
ATOM     14  C   UNL A   1      36.123  20.861  24.949  1.00  0.00     0.019 A 
ATOM     15  N   UNL A   1      34.005  19.836  24.741  1.00  0.00    -0.258 N 
ATOM     16  O   UNL A   1      32.137  21.099  24.282  1.00  0.00    -0.269 OA
ATOM     17  C   UNL A   1      35.367  19.762  24.964  1.00  0.00     0.095 A 
BRANCH  15  18
ATOM     18  C   UNL A   1      33.219  18.630  24.780  1.00  0.00     0.451 C 
ATOM     19  F   UNL A   1      34.017  17.555  24.534  1.00  0.00    -0.185 F 
ATOM     20  F   UNL A   1      32.730  18.450  26.038  1.00  0.00    -0.185 F 
ENDBRANCH  15  18
ENDBRANCH   9  11
ENDBRANCH   6   9
ENDBRANCH   4   5
ENDBRANCH   3   4
ENDBRANCH   2   3
ENDBRANCH   1   2
BRANCH   1  21
ATOM     21  C   UNL A   1      33.274  28.252  24.939  1.00  0.00     0.021 C 
BRANCH  21  22
ATOM     22  C   UNL A   1      34.102  28.761  26.115  1.00  0.00     0.116 C 
BRANCH  22  23
ATOM     23  N   UNL A   1      33.737  30.115  26.495  1.00  0.00    -0.352 N 
ATOM     24  C   UNL A   1      34.275  30.917  27.469  1.00  0.00     0.251 C 
ATOM     25  H   UNL A   1      33.000  30.515  25.980  1.00  0.00     0.163 HD
ATOM     26  O   UNL A   1      33.706  31.967  27.775  1.00  0.00    -0.269 OA
BRANCH  24  27
ATOM     27  C   UNL A   1      35.522  30.524  28.160  1.00  0.00     0.039 A 
ATOM     28  C   UNL A   1      36.739  31.036  27.700  1.00  0.00     0.014 A 
ATOM     29  C   UNL A   1      35.502  29.629  29.234  1.00  0.00     0.014 A 
ATOM     30  C   UNL A   1      37.929  30.675  28.336  1.00  0.00     0.010 A 
ATOM     31  C   UNL A   1      36.681  29.327  29.911  1.00  0.00     0.010 A 
ATOM     32  C   UNL A   1      37.909  29.830  29.457  1.00  0.00    -0.014 A 
BRANCH  32  33
ATOM     33  C   UNL A   1      39.168  29.436  30.142  1.00  0.00     0.031 A 
ATOM     34  C   UNL A   1      39.590  30.137  31.406  1.00  0.00     0.074 A 
ATOM     35  C   UNL A   1      39.950  28.477  29.608  1.00  0.00     0.049 A 
ATOM     36  N   UNL A   1      40.659  29.946  32.139  1.00  0.00    -0.248 NA
ATOM     37  C   UNL A   1      38.712  31.210  31.899  1.00  0.00     0.031 C 
ATOM     38  C   UNL A   1      39.671  27.748  28.368  1.00  0.00     0.029 A 
ATOM     39  N   UNL A   1      41.139  27.949  30.042  1.00  0.00    -0.354 N 
ATOM     40  C   UNL A   1      40.592  30.888  33.159  1.00  0.00     0.074 A 
ATOM     41  C   UNL A   1      39.405  31.679  32.926  1.00  0.00     0.031 C 
ATOM     42  C   UNL A   1      40.642  26.844  28.163  1.00  0.00     0.029 A 
ATOM     43  C   UNL A   1      41.629  26.950  29.233  1.00  0.00     0.049 A 
ATOM     44  H   UNL A   1      41.600  28.256  30.857  1.00  0.00     0.167 HD
ATOM     45  C   UNL A   1      41.433  31.067  34.207  1.00  0.00     0.031 A 
ATOM     46  C   UNL A   1      42.742  26.201  29.344  1.00  0.00     0.031 A 
ATOM     47  C   UNL A   1      42.601  30.263  34.450  1.00  0.00     0.049 A 
ATOM     48  C   UNL A   1      43.653  26.410  30.523  1.00  0.00     0.074 A 
ATOM     49  C   UNL A   1      43.478  30.319  35.519  1.00  0.00     0.029 A 
ATOM     50  N   UNL A   1      43.055  29.256  33.611  1.00  0.00    -0.354 N 
ATOM     51  N   UNL A   1      43.536  27.259  31.516  1.00  0.00    -0.248 NA
ATOM     52  C   UNL A   1      44.839  25.545  30.603  1.00  0.00     0.031 C 
ATOM     53  C   UNL A   1      44.489  29.377  35.303  1.00  0.00     0.029 A 
ATOM     54  C   UNL A   1      44.211  28.697  34.128  1.00  0.00     0.049 A 
ATOM     55  H   UNL A   1      42.619  28.979  32.773  1.00  0.00     0.167 HD
ATOM     56  C   UNL A   1      44.614  27.008  32.358  1.00  0.00     0.074 A 
ATOM     57  C   UNL A   1      45.365  25.921  31.762  1.00  0.00     0.031 C 
ATOM     58  C   UNL A   1      44.948  27.616  33.523  1.00  0.00     0.031 A 
BRANCH  45  59
ATOM     59  C   UNL A   1      41.122  32.189  35.164  1.00  0.00    -0.014 A 
ATOM     60  C   UNL A   1      40.291  31.987  36.282  1.00  0.00     0.010 A 
ATOM     61  C   UNL A   1      41.688  33.459  34.956  1.00  0.00     0.010 A 
ATOM     62  C   UNL A   1      39.991  33.046  37.143  1.00  0.00     0.020 A 
ATOM     63  C   UNL A   1      41.415  34.514  35.832  1.00  0.00     0.020 A 
ATOM     64  C   UNL A   1      40.551  34.306  36.909  1.00  0.00     0.054 A 
BRANCH  64  65
ATOM     65  S   UNL A   1      40.152  35.662  38.045  1.00  0.00     0.124 S 
ATOM     66  O   UNL A   1      41.394  35.792  38.803  1.00  0.00    -0.237 OA
ATOM     67  O   UNL A   1      39.852  36.765  37.138  1.00  0.00    -0.237 OA
ATOM     68  O   UNL A   1      39.011  35.154  38.803  1.00  0.00    -0.744 OA
ENDBRANCH  64  65
ENDBRANCH  45  59
BRANCH  46  69
ATOM     69  C   UNL A   1      43.036  25.152  28.330  1.00  0.00    -0.014 A 
ATOM     70  C   UNL A   1      42.557  23.841  28.507  1.00  0.00     0.010 A 
ATOM     71  C   UNL A   1      43.785  25.457  27.180  1.00  0.00     0.010 A 
ATOM     72  C   UNL A   1      42.836  22.851  27.561  1.00  0.00     0.020 A 
ATOM     73  C   UNL A   1      44.044  24.476  26.219  1.00  0.00     0.020 A 
ATOM     74  C   UNL A   1      43.577  23.175  26.422  1.00  0.00     0.054 A 
BRANCH  74  75
ATOM     75  S   UNL A   1      43.885  21.886  25.182  1.00  0.00     0.124 S 
ATOM     76  O   UNL A   1      42.813  20.937  25.458  1.00  0.00    -0.237 OA
ATOM     77  O   UNL A   1      43.772  22.624  23.926  1.00  0.00    -0.237 OA
ATOM     78  O   UNL A   1      45.233  21.422  25.501  1.00  0.00    -0.744 OA
ENDBRANCH  74  75
ENDBRANCH  46  69
BRANCH  58  79
ATOM     79  C   UNL A   1      46.156  27.093  34.254  1.00  0.00    -0.014 A 
ATOM     80  C   UNL A   1      47.442  27.602  34.003  1.00  0.00     0.010 A 
ATOM     81  C   UNL A   1      45.991  26.104  35.240  1.00  0.00     0.010 A 
ATOM     82  C   UNL A   1      48.547  27.101  34.696  1.00  0.00     0.020 A 
ATOM     83  C   UNL A   1      47.088  25.620  35.956  1.00  0.00     0.020 A 
ATOM     84  C   UNL A   1      48.363  26.110  35.666  1.00  0.00     0.054 A 
BRANCH  84  85
ATOM     85  S   UNL A   1      49.808  25.497  36.576  1.00  0.00     0.124 S 
ATOM     86  O   UNL A   1      49.521  25.944  37.936  1.00  0.00    -0.237 OA
ATOM     87  O   UNL A   1      49.735  24.054  36.359  1.00  0.00    -0.237 OA
ATOM     88  O   UNL A   1      50.934  26.163  35.925  1.00  0.00    -0.744 OA
ENDBRANCH  84  85
ENDBRANCH  58  79
ENDBRANCH  32  33
ENDBRANCH  24  27
ENDBRANCH  22  23
ENDBRANCH  21  22
ENDBRANCH   1  21
TORSDOF 18
ENDMDL
