MODEL 1
REMARK VINA RESULT:      -9.8      0.000      0.000
REMARK SMILES C[C@H]([NH3+])c1ccc(F)cc1OCC(C)(C)C(=O)NCCCCCCNC(=O)c1ccc(-c2c3nc(c(-c4ccc(S(=O)(=O)[O-])cc4)c4ccc([nH]4)c(-c4ccc(S(=O)(=O)[O-])cc4)c4nc(c(-c5ccc(S(=O)(=O)[O-])cc5)c5ccc2[nH]5)C=C4)C=C3)cc1
REMARK SMILES IDX 20 1 19 2 18 3 16 4 17 5 13 7 14 8 15 9 12 10 11 11 10 12
REMARK SMILES IDX 4 13 5 14 6 15 9 16 7 17 8 18 2 19 1 20 3 21 21 25 22 26
REMARK SMILES IDX 23 27 24 28 25 29 26 30 27 32 28 33 29 34 87 35 30 36 86 37
REMARK SMILES IDX 31 38 32 39 33 40 80 41 34 42 85 43 79 44 81 45 35 46 84 47
REMARK SMILES IDX 78 48 77 49 36 51 66 52 47 53 65 54 48 55 51 56 64 57 82 58
REMARK SMILES IDX 49 59 50 60 63 62 83 63 52 64 37 65 38 66 46 67 39 68 45 69
REMARK SMILES IDX 40 70 41 71 42 72 43 73 44 74 67 75 68 76 76 77 69 78 75 79
REMARK SMILES IDX 70 80 71 81 72 82 73 83 74 84 53 85 54 86 62 87 55 88 61 89
REMARK SMILES IDX 56 90 57 91 58 92 59 93 60 94
REMARK H PARENT 18 6 3 22 3 23 3 24 25 31 81 50 51 61
REMARK Flexibility Score: inf
ROOT
ATOM      1  C   UNL A   1      32.399  23.554  26.814  1.00  0.00     0.021 C 
ENDROOT
BRANCH   1   2
ATOM      2  C   UNL A   1      31.480  23.222  25.659  1.00  0.00     0.116 C 
BRANCH   2   3
ATOM      3  N   UNL A   1      32.200  22.677  24.513  1.00  0.00    -0.356 N 
ATOM      4  C   UNL A   1      32.597  23.287  23.348  1.00  0.00     0.229 C 
ATOM      5  O   UNL A   1      33.273  22.628  22.559  1.00  0.00    -0.274 OA
ATOM      6  H   UNL A   1      32.438  21.725  24.587  1.00  0.00     0.163 HD
BRANCH   4   7
ATOM      7  C   UNL A   1      32.165  24.737  23.071  1.00  0.00     0.077 C 
ATOM      8  C   UNL A   1      30.625  24.774  23.177  1.00  0.00     0.025 C 
ATOM      9  C   UNL A   1      32.700  25.110  21.661  1.00  0.00     0.025 C 
BRANCH   7  10
ATOM     10  C   UNL A   1      32.896  25.755  24.013  1.00  0.00     0.245 C 
BRANCH  10  11
ATOM     11  O   UNL A   1      32.896  27.119  23.640  1.00  0.00    -0.492 OA
BRANCH  11  12
ATOM     12  C   UNL A   1      32.660  28.187  24.454  1.00  0.00     0.131 A 
ATOM     13  C   UNL A   1      31.672  29.202  24.431  1.00  0.00     0.051 A 
ATOM     14  C   UNL A   1      31.585  30.046  25.572  1.00  0.00     0.017 A 
ATOM     15  C   UNL A   1      32.417  29.895  26.680  1.00  0.00     0.040 A 
ATOM     16  C   UNL A   1      33.544  28.107  25.548  1.00  0.00     0.086 A 
ATOM     17  C   UNL A   1      33.408  28.935  26.649  1.00  0.00     0.126 A 
ATOM     18  F   UNL A   1      34.221  28.779  27.702  1.00  0.00    -0.207 F 
BRANCH  13  19
ATOM     19  C   UNL A   1      30.632  29.436  23.339  1.00  0.00     0.212 C 
ATOM     20  C   UNL A   1      29.617  28.305  23.227  1.00  0.00     0.081 C 
BRANCH  19  21
ATOM     21  N   UNL A   1      31.245  29.654  22.016  1.00  0.00    -0.351 N 
ATOM     22  H   UNL A   1      32.191  30.017  22.135  1.00  0.00     0.345 HD
ATOM     23  H   UNL A   1      30.687  30.327  21.490  1.00  0.00     0.345 HD
ATOM     24  H   UNL A   1      31.281  28.771  21.508  1.00  0.00     0.345 HD
ENDBRANCH  19  21
ENDBRANCH  13  19
ENDBRANCH  11  12
ENDBRANCH  10  11
ENDBRANCH   7  10
ENDBRANCH   4   7
ENDBRANCH   2   3
ENDBRANCH   1   2
BRANCH   1  25
ATOM     25  C   UNL A   1      33.337  22.399  27.158  1.00  0.00     0.002 C 
BRANCH  25  26
ATOM     26  C   UNL A   1      34.782  22.582  26.673  1.00  0.00     0.002 C 
BRANCH  26  27
ATOM     27  C   UNL A   1      35.164  24.021  26.305  1.00  0.00     0.021 C 
BRANCH  27  28
ATOM     28  C   UNL A   1      36.384  24.127  25.401  1.00  0.00     0.116 C 
BRANCH  28  29
ATOM     29  N   UNL A   1      37.245  22.964  25.522  1.00  0.00    -0.352 N 
ATOM     30  C   UNL A   1      38.527  22.883  26.000  1.00  0.00     0.251 C 
ATOM     31  H   UNL A   1      36.852  22.113  25.219  1.00  0.00     0.163 HD
ATOM     32  O   UNL A   1      39.185  21.866  25.834  1.00  0.00    -0.269 OA
BRANCH  30  33
ATOM     33  C   UNL A   1      39.100  24.047  26.704  1.00  0.00     0.039 A 
ATOM     34  C   UNL A   1      39.916  24.928  25.995  1.00  0.00     0.014 A 
ATOM     35  C   UNL A   1      38.818  24.267  28.056  1.00  0.00     0.014 A 
ATOM     36  C   UNL A   1      40.420  26.058  26.636  1.00  0.00     0.010 A 
ATOM     37  C   UNL A   1      39.254  25.434  28.668  1.00  0.00     0.010 A 
ATOM     38  C   UNL A   1      40.072  26.334  27.969  1.00  0.00    -0.014 A 
BRANCH  38  39
ATOM     39  C   UNL A   1      40.567  27.552  28.653  1.00  0.00     0.031 A 
ATOM     40  C   UNL A   1      41.962  27.582  29.215  1.00  0.00     0.074 A 
ATOM     41  C   UNL A   1      39.745  28.608  28.810  1.00  0.00     0.049 A 
ATOM     42  N   UNL A   1      42.560  28.535  29.883  1.00  0.00    -0.248 NA
ATOM     43  C   UNL A   1      42.786  26.376  29.023  1.00  0.00     0.031 C 
ATOM     44  C   UNL A   1      38.360  28.682  28.339  1.00  0.00     0.029 A 
ATOM     45  N   UNL A   1      39.956  29.823  29.412  1.00  0.00    -0.354 N 
ATOM     46  C   UNL A   1      43.820  28.039  30.200  1.00  0.00     0.074 A 
ATOM     47  C   UNL A   1      43.879  26.683  29.704  1.00  0.00     0.031 C 
ATOM     48  C   UNL A   1      37.858  29.891  28.640  1.00  0.00     0.029 A 
ATOM     49  C   UNL A   1      38.865  30.658  29.364  1.00  0.00     0.049 A 
ATOM     50  H   UNL A   1      40.807  30.073  29.838  1.00  0.00     0.167 HD
ATOM     51  C   UNL A   1      44.844  28.666  30.826  1.00  0.00     0.031 A 
ATOM     52  C   UNL A   1      38.693  31.901  29.855  1.00  0.00     0.031 A 
ATOM     53  C   UNL A   1      44.779  30.019  31.312  1.00  0.00     0.049 A 
ATOM     54  C   UNL A   1      39.836  32.566  30.572  1.00  0.00     0.074 A 
ATOM     55  C   UNL A   1      45.774  30.762  31.919  1.00  0.00     0.029 A 
ATOM     56  N   UNL A   1      43.656  30.830  31.247  1.00  0.00    -0.354 N 
ATOM     57  N   UNL A   1      41.042  32.105  30.808  1.00  0.00    -0.248 NA
ATOM     58  C   UNL A   1      39.600  33.925  31.078  1.00  0.00     0.031 C 
ATOM     59  C   UNL A   1      45.236  32.003  32.277  1.00  0.00     0.029 A 
ATOM     60  C   UNL A   1      43.925  32.058  31.829  1.00  0.00     0.049 A 
ATOM     61  H   UNL A   1      42.793  30.572  30.848  1.00  0.00     0.167 HD
ATOM     62  C   UNL A   1      41.718  33.129  31.461  1.00  0.00     0.074 A 
ATOM     63  C   UNL A   1      40.792  34.238  31.569  1.00  0.00     0.031 C 
ATOM     64  C   UNL A   1      42.991  33.152  31.927  1.00  0.00     0.031 A 
BRANCH  51  65
ATOM     65  C   UNL A   1      46.119  27.890  31.028  1.00  0.00    -0.014 A 
ATOM     66  C   UNL A   1      47.092  27.811  30.014  1.00  0.00     0.010 A 
ATOM     67  C   UNL A   1      46.368  27.262  32.262  1.00  0.00     0.010 A 
ATOM     68  C   UNL A   1      48.269  27.085  30.215  1.00  0.00     0.020 A 
ATOM     69  C   UNL A   1      47.558  26.561  32.478  1.00  0.00     0.020 A 
ATOM     70  C   UNL A   1      48.494  26.464  31.447  1.00  0.00     0.054 A 
BRANCH  70  71
ATOM     71  S   UNL A   1      50.042  25.550  31.687  1.00  0.00     0.124 S 
ATOM     72  O   UNL A   1      50.375  25.159  30.319  1.00  0.00    -0.237 OA
ATOM     73  O   UNL A   1      50.917  26.556  32.284  1.00  0.00    -0.237 OA
ATOM     74  O   UNL A   1      49.663  24.452  32.573  1.00  0.00    -0.744 OA
ENDBRANCH  70  71
ENDBRANCH  51  65
BRANCH  52  75
ATOM     75  C   UNL A   1      37.391  32.600  29.675  1.00  0.00    -0.014 A 
ATOM     76  C   UNL A   1      37.205  33.507  28.616  1.00  0.00     0.010 A 
ATOM     77  C   UNL A   1      36.324  32.358  30.560  1.00  0.00     0.010 A 
ATOM     78  C   UNL A   1      35.987  34.174  28.459  1.00  0.00     0.020 A 
ATOM     79  C   UNL A   1      35.095  33.001  30.388  1.00  0.00     0.020 A 
ATOM     80  C   UNL A   1      34.939  33.915  29.346  1.00  0.00     0.054 A 
BRANCH  80  81
ATOM     81  S   UNL A   1      33.355  34.763  29.098  1.00  0.00     0.124 S 
ATOM     82  O   UNL A   1      32.830  34.830  30.458  1.00  0.00    -0.237 OA
ATOM     83  O   UNL A   1      33.768  36.037  28.515  1.00  0.00    -0.237 OA
ATOM     84  O   UNL A   1      32.631  33.876  28.190  1.00  0.00    -0.744 OA
ENDBRANCH  80  81
ENDBRANCH  52  75
BRANCH  64  85
ATOM     85  C   UNL A   1      43.476  34.429  32.562  1.00  0.00    -0.014 A 
ATOM     86  C   UNL A   1      44.089  35.439  31.801  1.00  0.00     0.010 A 
ATOM     87  C   UNL A   1      43.260  34.641  33.937  1.00  0.00     0.010 A 
ATOM     88  C   UNL A   1      44.506  36.626  32.411  1.00  0.00     0.020 A 
ATOM     89  C   UNL A   1      43.646  35.839  34.542  1.00  0.00     0.020 A 
ATOM     90  C   UNL A   1      44.280  36.818  33.776  1.00  0.00     0.054 A 
BRANCH  90  91
ATOM     91  S   UNL A   1      44.790  38.387  34.532  1.00  0.00     0.124 S 
ATOM     92  O   UNL A   1      45.221  37.958  35.860  1.00  0.00    -0.237 OA
ATOM     93  O   UNL A   1      45.856  38.837  33.640  1.00  0.00    -0.237 OA
ATOM     94  O   UNL A   1      43.575  39.198  34.502  1.00  0.00    -0.744 OA
ENDBRANCH  90  91
ENDBRANCH  64  85
ENDBRANCH  38  39
ENDBRANCH  30  33
ENDBRANCH  28  29
ENDBRANCH  27  28
ENDBRANCH  26  27
ENDBRANCH  25  26
ENDBRANCH   1  25
TORSDOF 21
ENDMDL
MODEL 2
REMARK VINA RESULT:      -9.7      2.551      9.080
REMARK SMILES C[C@H]([NH3+])c1ccc(F)cc1OCC(C)(C)C(=O)NCCCCCCNC(=O)c1ccc(-c2c3nc(c(-c4ccc(S(=O)(=O)[O-])cc4)c4ccc([nH]4)c(-c4ccc(S(=O)(=O)[O-])cc4)c4nc(c(-c5ccc(S(=O)(=O)[O-])cc5)c5ccc2[nH]5)C=C4)C=C3)cc1
REMARK SMILES IDX 20 1 19 2 18 3 16 4 17 5 13 7 14 8 15 9 12 10 11 11 10 12
REMARK SMILES IDX 4 13 5 14 6 15 9 16 7 17 8 18 2 19 1 20 3 21 21 25 22 26
REMARK SMILES IDX 23 27 24 28 25 29 26 30 27 32 28 33 29 34 87 35 30 36 86 37
REMARK SMILES IDX 31 38 32 39 33 40 80 41 34 42 85 43 79 44 81 45 35 46 84 47
REMARK SMILES IDX 78 48 77 49 36 51 66 52 47 53 65 54 48 55 51 56 64 57 82 58
REMARK SMILES IDX 49 59 50 60 63 62 83 63 52 64 37 65 38 66 46 67 39 68 45 69
REMARK SMILES IDX 40 70 41 71 42 72 43 73 44 74 67 75 68 76 76 77 69 78 75 79
REMARK SMILES IDX 70 80 71 81 72 82 73 83 74 84 53 85 54 86 62 87 55 88 61 89
REMARK SMILES IDX 56 90 57 91 58 92 59 93 60 94
REMARK H PARENT 18 6 3 22 3 23 3 24 25 31 81 50 51 61
REMARK Flexibility Score: inf
ROOT
ATOM      1  C   UNL A   1      33.574  26.766  22.540  1.00  0.00     0.021 C 
ENDROOT
BRANCH   1   2
ATOM      2  C   UNL A   1      33.602  25.405  23.201  1.00  0.00     0.116 C 
BRANCH   2   3
ATOM      3  N   UNL A   1      32.398  24.628  22.928  1.00  0.00    -0.356 N 
ATOM      4  C   UNL A   1      31.457  24.123  23.792  1.00  0.00     0.229 C 
ATOM      5  O   UNL A   1      30.474  23.566  23.305  1.00  0.00    -0.274 OA
ATOM      6  H   UNL A   1      32.234  24.437  21.976  1.00  0.00     0.163 HD
BRANCH   4   7
ATOM      7  C   UNL A   1      31.679  24.251  25.309  1.00  0.00     0.077 C 
ATOM      8  C   UNL A   1      30.984  23.039  25.967  1.00  0.00     0.025 C 
ATOM      9  C   UNL A   1      31.086  25.620  25.743  1.00  0.00     0.025 C 
BRANCH   7  10
ATOM     10  C   UNL A   1      33.200  24.390  25.667  1.00  0.00     0.245 C 
BRANCH  10  11
ATOM     11  O   UNL A   1      33.811  23.330  26.376  1.00  0.00    -0.492 OA
BRANCH  11  12
ATOM     12  C   UNL A   1      34.944  22.659  26.023  1.00  0.00     0.131 A 
ATOM     13  C   UNL A   1      35.163  21.340  25.555  1.00  0.00     0.051 A 
ATOM     14  C   UNL A   1      36.463  21.035  25.067  1.00  0.00     0.017 A 
ATOM     15  C   UNL A   1      37.490  21.976  25.032  1.00  0.00     0.040 A 
ATOM     16  C   UNL A   1      36.020  23.569  26.055  1.00  0.00     0.086 A 
ATOM     17  C   UNL A   1      37.264  23.235  25.549  1.00  0.00     0.126 A 
ATOM     18  F   UNL A   1      38.240  24.152  25.528  1.00  0.00    -0.207 F 
BRANCH  13  19
ATOM     19  C   UNL A   1      34.123  20.229  25.444  1.00  0.00     0.212 C 
ATOM     20  C   UNL A   1      33.217  20.377  24.227  1.00  0.00     0.081 C 
BRANCH  19  21
ATOM     21  N   UNL A   1      33.281  20.123  26.649  1.00  0.00    -0.351 N 
ATOM     22  H   UNL A   1      32.999  19.152  26.782  1.00  0.00     0.345 HD
ATOM     23  H   UNL A   1      32.452  20.706  26.537  1.00  0.00     0.345 HD
ATOM     24  H   UNL A   1      33.811  20.438  27.462  1.00  0.00     0.345 HD
ENDBRANCH  19  21
ENDBRANCH  13  19
ENDBRANCH  11  12
ENDBRANCH  10  11
ENDBRANCH   7  10
ENDBRANCH   4   7
ENDBRANCH   2   3
ENDBRANCH   1   2
BRANCH   1  25
ATOM     25  C   UNL A   1      32.621  27.731  23.242  1.00  0.00     0.002 C 
BRANCH  25  26
ATOM     26  C   UNL A   1      33.280  28.617  24.309  1.00  0.00     0.002 C 
BRANCH  26  27
ATOM     27  C   UNL A   1      34.298  27.902  25.205  1.00  0.00     0.021 C 
BRANCH  27  28
ATOM     28  C   UNL A   1      34.068  28.111  26.696  1.00  0.00     0.116 C 
BRANCH  28  29
ATOM     29  N   UNL A   1      33.700  29.484  26.994  1.00  0.00    -0.352 N 
ATOM     30  C   UNL A   1      34.376  30.418  27.736  1.00  0.00     0.251 C 
ATOM     31  H   UNL A   1      32.846  29.786  26.609  1.00  0.00     0.163 HD
ATOM     32  O   UNL A   1      33.826  31.458  28.069  1.00  0.00    -0.269 OA
BRANCH  30  33
ATOM     33  C   UNL A   1      35.769  30.139  28.135  1.00  0.00     0.039 A 
ATOM     34  C   UNL A   1      36.019  29.668  29.424  1.00  0.00     0.014 A 
ATOM     35  C   UNL A   1      36.818  30.334  27.231  1.00  0.00     0.014 A 
ATOM     36  C   UNL A   1      37.325  29.353  29.795  1.00  0.00     0.010 A 
ATOM     37  C   UNL A   1      38.104  29.943  27.576  1.00  0.00     0.010 A 
ATOM     38  C   UNL A   1      38.373  29.462  28.866  1.00  0.00    -0.014 A 
BRANCH  38  39
ATOM     39  C   UNL A   1      39.761  29.093  29.232  1.00  0.00     0.031 A 
ATOM     40  C   UNL A   1      40.642  30.090  29.934  1.00  0.00     0.074 A 
ATOM     41  C   UNL A   1      40.241  27.882  28.888  1.00  0.00     0.049 A 
ATOM     42  N   UNL A   1      41.893  29.971  30.296  1.00  0.00    -0.248 NA
ATOM     43  C   UNL A   1      40.048  31.400  30.250  1.00  0.00     0.031 C 
ATOM     44  C   UNL A   1      39.492  26.845  28.174  1.00  0.00     0.029 A 
ATOM     45  N   UNL A   1      41.475  27.318  29.092  1.00  0.00    -0.354 N 
ATOM     46  C   UNL A   1      42.238  31.190  30.868  1.00  0.00     0.074 A 
ATOM     47  C   UNL A   1      41.085  32.054  30.752  1.00  0.00     0.031 C 
ATOM     48  C   UNL A   1      40.271  25.761  28.031  1.00  0.00     0.029 A 
ATOM     49  C   UNL A   1      41.585  26.039  28.598  1.00  0.00     0.049 A 
ATOM     50  H   UNL A   1      42.211  27.784  29.549  1.00  0.00     0.167 HD
ATOM     51  C   UNL A   1      43.402  31.551  31.460  1.00  0.00     0.031 A 
ATOM     52  C   UNL A   1      42.631  25.190  28.597  1.00  0.00     0.031 A 
ATOM     53  C   UNL A   1      44.544  30.683  31.576  1.00  0.00     0.049 A 
ATOM     54  C   UNL A   1      43.923  25.623  29.235  1.00  0.00     0.074 A 
ATOM     55  C   UNL A   1      45.754  30.934  32.197  1.00  0.00     0.029 A 
ATOM     56  N   UNL A   1      44.617  29.397  31.061  1.00  0.00    -0.354 N 
ATOM     57  N   UNL A   1      44.210  26.759  29.826  1.00  0.00    -0.248 NA
ATOM     58  C   UNL A   1      45.028  24.656  29.216  1.00  0.00     0.031 C 
ATOM     59  C   UNL A   1      46.582  29.824  32.004  1.00  0.00     0.029 A 
ATOM     60  C   UNL A   1      45.863  28.853  31.324  1.00  0.00     0.049 A 
ATOM     61  H   UNL A   1      43.891  28.939  30.577  1.00  0.00     0.167 HD
ATOM     62  C   UNL A   1      45.518  26.630  30.279  1.00  0.00     0.074 A 
ATOM     63  C   UNL A   1      45.960  25.301  29.905  1.00  0.00     0.031 C 
ATOM     64  C   UNL A   1      46.286  27.528  30.946  1.00  0.00     0.031 A 
BRANCH  51  65
ATOM     65  C   UNL A   1      43.499  32.946  32.017  1.00  0.00    -0.014 A 
ATOM     66  C   UNL A   1      44.078  33.990  31.271  1.00  0.00     0.010 A 
ATOM     67  C   UNL A   1      42.969  33.230  33.289  1.00  0.00     0.010 A 
ATOM     68  C   UNL A   1      44.163  35.280  31.803  1.00  0.00     0.020 A 
ATOM     69  C   UNL A   1      43.023  34.526  33.812  1.00  0.00     0.020 A 
ATOM     70  C   UNL A   1      43.635  35.539  33.071  1.00  0.00     0.054 A 
BRANCH  70  71
ATOM     71  S   UNL A   1      43.737  37.227  33.724  1.00  0.00     0.124 S 
ATOM     72  O   UNL A   1      43.678  38.026  32.501  1.00  0.00    -0.237 OA
ATOM     73  O   UNL A   1      42.559  37.309  34.585  1.00  0.00    -0.237 OA
ATOM     74  O   UNL A   1      45.019  37.254  34.422  1.00  0.00    -0.744 OA
ENDBRANCH  70  71
ENDBRANCH  51  65
BRANCH  52  75
ATOM     75  C   UNL A   1      42.495  23.842  27.981  1.00  0.00    -0.014 A 
ATOM     76  C   UNL A   1      42.239  22.712  28.779  1.00  0.00     0.010 A 
ATOM     77  C   UNL A   1      42.615  23.680  26.587  1.00  0.00     0.010 A 
ATOM     78  C   UNL A   1      42.129  21.445  28.199  1.00  0.00     0.020 A 
ATOM     79  C   UNL A   1      42.475  22.419  26.002  1.00  0.00     0.020 A 
ATOM     80  C   UNL A   1      42.246  21.307  26.813  1.00  0.00     0.054 A 
BRANCH  80  81
ATOM     81  S   UNL A   1      42.058  19.659  26.080  1.00  0.00     0.124 S 
ATOM     82  O   UNL A   1      40.635  19.629  25.761  1.00  0.00    -0.237 OA
ATOM     83  O   UNL A   1      42.964  19.719  24.935  1.00  0.00    -0.237 OA
ATOM     84  O   UNL A   1      42.480  18.759  27.151  1.00  0.00    -0.744 OA
ENDBRANCH  80  81
ENDBRANCH  52  75
BRANCH  64  85
ATOM     85  C   UNL A   1      47.669  27.093  31.352  1.00  0.00    -0.014 A 
ATOM     86  C   UNL A   1      48.789  27.366  30.547  1.00  0.00     0.010 A 
ATOM     87  C   UNL A   1      47.855  26.451  32.591  1.00  0.00     0.010 A 
ATOM     88  C   UNL A   1      50.066  26.974  30.961  1.00  0.00     0.020 A 
ATOM     89  C   UNL A   1      49.133  26.088  33.022  1.00  0.00     0.020 A 
ATOM     90  C   UNL A   1      50.229  26.340  32.195  1.00  0.00     0.054 A 
BRANCH  90  91
ATOM     91  S   UNL A   1      51.903  25.885  32.727  1.00  0.00     0.124 S 
ATOM     92  O   UNL A   1      52.227  24.795  31.810  1.00  0.00    -0.237 OA
ATOM     93  O   UNL A   1      52.650  27.123  32.521  1.00  0.00    -0.237 OA
ATOM     94  O   UNL A   1      51.728  25.492  34.124  1.00  0.00    -0.744 OA
ENDBRANCH  90  91
ENDBRANCH  64  85
ENDBRANCH  38  39
ENDBRANCH  30  33
ENDBRANCH  28  29
ENDBRANCH  27  28
ENDBRANCH  26  27
ENDBRANCH  25  26
ENDBRANCH   1  25
TORSDOF 21
ENDMDL
MODEL 3
REMARK VINA RESULT:      -9.7      4.255     11.256
REMARK SMILES C[C@H]([NH3+])c1ccc(F)cc1OCC(C)(C)C(=O)NCCCCCCNC(=O)c1ccc(-c2c3nc(c(-c4ccc(S(=O)(=O)[O-])cc4)c4ccc([nH]4)c(-c4ccc(S(=O)(=O)[O-])cc4)c4nc(c(-c5ccc(S(=O)(=O)[O-])cc5)c5ccc2[nH]5)C=C4)C=C3)cc1
REMARK SMILES IDX 20 1 19 2 18 3 16 4 17 5 13 7 14 8 15 9 12 10 11 11 10 12
REMARK SMILES IDX 4 13 5 14 6 15 9 16 7 17 8 18 2 19 1 20 3 21 21 25 22 26
REMARK SMILES IDX 23 27 24 28 25 29 26 30 27 32 28 33 29 34 87 35 30 36 86 37
REMARK SMILES IDX 31 38 32 39 33 40 80 41 34 42 85 43 79 44 81 45 35 46 84 47
REMARK SMILES IDX 78 48 77 49 36 51 66 52 47 53 65 54 48 55 51 56 64 57 82 58
REMARK SMILES IDX 49 59 50 60 63 62 83 63 52 64 37 65 38 66 46 67 39 68 45 69
REMARK SMILES IDX 40 70 41 71 42 72 43 73 44 74 67 75 68 76 76 77 69 78 75 79
REMARK SMILES IDX 70 80 71 81 72 82 73 83 74 84 53 85 54 86 62 87 55 88 61 89
REMARK SMILES IDX 56 90 57 91 58 92 59 93 60 94
REMARK H PARENT 18 6 3 22 3 23 3 24 25 31 81 50 51 61
REMARK Flexibility Score: inf
ROOT
ATOM      1  C   UNL A   1      37.254  33.934  31.699  1.00  0.00     0.021 C 
ENDROOT
BRANCH   1   2
ATOM      2  C   UNL A   1      38.372  33.637  32.675  1.00  0.00     0.116 C 
BRANCH   2   3
ATOM      3  N   UNL A   1      38.663  34.769  33.548  1.00  0.00    -0.356 N 
ATOM      4  C   UNL A   1      39.130  34.790  34.840  1.00  0.00     0.229 C 
ATOM      5  O   UNL A   1      39.378  35.887  35.340  1.00  0.00    -0.274 OA
ATOM      6  H   UNL A   1      38.499  35.654  33.150  1.00  0.00     0.163 HD
BRANCH   4   7
ATOM      7  C   UNL A   1      39.297  33.466  35.604  1.00  0.00     0.077 C 
ATOM      8  C   UNL A   1      37.882  33.000  36.008  1.00  0.00     0.025 C 
ATOM      9  C   UNL A   1      40.227  33.752  36.815  1.00  0.00     0.025 C 
BRANCH   7  10
ATOM     10  C   UNL A   1      40.106  32.410  34.773  1.00  0.00     0.245 C 
BRANCH  10  11
ATOM     11  O   UNL A   1      39.999  31.051  35.148  1.00  0.00    -0.492 OA
BRANCH  11  12
ATOM     12  C   UNL A   1      40.685  30.001  34.614  1.00  0.00     0.131 A 
ATOM     13  C   UNL A   1      40.369  29.082  33.583  1.00  0.00     0.051 A 
ATOM     14  C   UNL A   1      41.418  28.238  33.125  1.00  0.00     0.017 A 
ATOM     15  C   UNL A   1      42.709  28.300  33.645  1.00  0.00     0.040 A 
ATOM     16  C   UNL A   1      41.975  29.987  35.181  1.00  0.00     0.086 A 
ATOM     17  C   UNL A   1      42.972  29.164  34.688  1.00  0.00     0.126 A 
ATOM     18  F   UNL A   1      44.206  29.234  35.203  1.00  0.00    -0.207 F 
BRANCH  13  19
ATOM     19  C   UNL A   1      39.035  28.956  32.852  1.00  0.00     0.212 C 
ATOM     20  C   UNL A   1      37.960  29.884  33.407  1.00  0.00     0.081 C 
BRANCH  19  21
ATOM     21  N   UNL A   1      38.518  27.576  32.857  1.00  0.00    -0.351 N 
ATOM     22  H   UNL A   1      38.454  27.234  31.899  1.00  0.00     0.345 HD
ATOM     23  H   UNL A   1      37.593  27.561  33.286  1.00  0.00     0.345 HD
ATOM     24  H   UNL A   1      39.150  26.978  33.390  1.00  0.00     0.345 HD
ENDBRANCH  19  21
ENDBRANCH  13  19
ENDBRANCH  11  12
ENDBRANCH  10  11
ENDBRANCH   7  10
ENDBRANCH   4   7
ENDBRANCH   2   3
ENDBRANCH   1   2
BRANCH   1  25
ATOM     25  C   UNL A   1      36.662  32.663  31.094  1.00  0.00     0.002 C 
BRANCH  25  26
ATOM     26  C   UNL A   1      35.128  32.637  31.034  1.00  0.00     0.002 C 
BRANCH  26  27
ATOM     27  C   UNL A   1      34.513  33.415  29.865  1.00  0.00     0.021 C 
BRANCH  27  28
ATOM     28  C   UNL A   1      34.888  32.874  28.492  1.00  0.00     0.116 C 
BRANCH  28  29
ATOM     29  N   UNL A   1      34.044  31.757  28.108  1.00  0.00    -0.352 N 
ATOM     30  C   UNL A   1      34.397  30.462  27.832  1.00  0.00     0.251 C 
ATOM     31  H   UNL A   1      33.082  31.958  28.035  1.00  0.00     0.163 HD
ATOM     32  O   UNL A   1      33.594  29.699  27.314  1.00  0.00    -0.269 OA
BRANCH  30  33
ATOM     33  C   UNL A   1      35.764  30.011  28.157  1.00  0.00     0.039 A 
ATOM     34  C   UNL A   1      36.765  30.149  27.196  1.00  0.00     0.014 A 
ATOM     35  C   UNL A   1      36.051  29.467  29.413  1.00  0.00     0.014 A 
ATOM     36  C   UNL A   1      38.070  29.774  27.510  1.00  0.00     0.010 A 
ATOM     37  C   UNL A   1      37.365  29.172  29.750  1.00  0.00     0.010 A 
ATOM     38  C   UNL A   1      38.386  29.309  28.797  1.00  0.00    -0.014 A 
BRANCH  38  39
ATOM     39  C   UNL A   1      39.775  28.944  29.160  1.00  0.00     0.031 A 
ATOM     40  C   UNL A   1      40.654  29.942  29.864  1.00  0.00     0.074 A 
ATOM     41  C   UNL A   1      40.258  27.734  28.813  1.00  0.00     0.049 A 
ATOM     42  N   UNL A   1      41.906  29.826  30.224  1.00  0.00    -0.248 NA
ATOM     43  C   UNL A   1      40.057  31.249  30.184  1.00  0.00     0.031 C 
ATOM     44  C   UNL A   1      39.512  26.697  28.098  1.00  0.00     0.029 A 
ATOM     45  N   UNL A   1      41.494  27.174  29.015  1.00  0.00    -0.354 N 
ATOM     46  C   UNL A   1      42.247  31.045  30.799  1.00  0.00     0.074 A 
ATOM     47  C   UNL A   1      41.092  31.905  30.686  1.00  0.00     0.031 C 
ATOM     48  C   UNL A   1      40.293  25.615  27.951  1.00  0.00     0.029 A 
ATOM     49  C   UNL A   1      41.608  25.897  28.518  1.00  0.00     0.049 A 
ATOM     50  H   UNL A   1      42.230  27.642  29.471  1.00  0.00     0.167 HD
ATOM     51  C   UNL A   1      43.411  31.407  31.389  1.00  0.00     0.031 A 
ATOM     52  C   UNL A   1      42.656  25.051  28.513  1.00  0.00     0.031 A 
ATOM     53  C   UNL A   1      44.556  30.543  31.502  1.00  0.00     0.049 A 
ATOM     54  C   UNL A   1      43.948  25.487  29.150  1.00  0.00     0.074 A 
ATOM     55  C   UNL A   1      45.766  30.797  32.121  1.00  0.00     0.029 A 
ATOM     56  N   UNL A   1      44.632  29.258  30.984  1.00  0.00    -0.354 N 
ATOM     57  N   UNL A   1      44.232  26.622  29.744  1.00  0.00    -0.248 NA
ATOM     58  C   UNL A   1      45.056  24.523  29.127  1.00  0.00     0.031 C 
ATOM     59  C   UNL A   1      46.597  29.689  31.925  1.00  0.00     0.029 A 
ATOM     60  C   UNL A   1      45.880  28.718  31.244  1.00  0.00     0.049 A 
ATOM     61  H   UNL A   1      43.908  28.800  30.500  1.00  0.00     0.167 HD
ATOM     62  C   UNL A   1      45.541  26.496  30.194  1.00  0.00     0.074 A 
ATOM     63  C   UNL A   1      45.986  25.169  29.817  1.00  0.00     0.031 C 
ATOM     64  C   UNL A   1      46.307  27.394  30.862  1.00  0.00     0.031 A 
BRANCH  51  65
ATOM     65  C   UNL A   1      43.505  32.802  31.950  1.00  0.00    -0.014 A 
ATOM     66  C   UNL A   1      43.807  33.901  31.123  1.00  0.00     0.010 A 
ATOM     67  C   UNL A   1      43.248  33.026  33.315  1.00  0.00     0.010 A 
ATOM     68  C   UNL A   1      43.892  35.189  31.658  1.00  0.00     0.020 A 
ATOM     69  C   UNL A   1      43.301  34.318  33.848  1.00  0.00     0.020 A 
ATOM     70  C   UNL A   1      43.639  35.388  33.018  1.00  0.00     0.054 A 
BRANCH  70  71
ATOM     71  S   UNL A   1      43.732  37.075  33.679  1.00  0.00     0.124 S 
ATOM     72  O   UNL A   1      43.916  37.864  32.463  1.00  0.00    -0.237 OA
ATOM     73  O   UNL A   1      42.439  37.231  34.340  1.00  0.00    -0.237 OA
ATOM     74  O   UNL A   1      44.886  37.035  34.574  1.00  0.00    -0.744 OA
ENDBRANCH  70  71
ENDBRANCH  51  65
BRANCH  52  75
ATOM     75  C   UNL A   1      42.524  23.704  27.894  1.00  0.00    -0.014 A 
ATOM     76  C   UNL A   1      42.083  22.606  28.655  1.00  0.00     0.010 A 
ATOM     77  C   UNL A   1      42.833  23.511  26.534  1.00  0.00     0.010 A 
ATOM     78  C   UNL A   1      41.975  21.339  28.075  1.00  0.00     0.020 A 
ATOM     79  C   UNL A   1      42.697  22.252  25.944  1.00  0.00     0.020 A 
ATOM     80  C   UNL A   1      42.282  21.170  26.722  1.00  0.00     0.054 A 
BRANCH  80  81
ATOM     81  S   UNL A   1      42.096  19.525  25.982  1.00  0.00     0.124 S 
ATOM     82  O   UNL A   1      42.572  18.655  27.053  1.00  0.00    -0.237 OA
ATOM     83  O   UNL A   1      40.663  19.465  25.706  1.00  0.00    -0.237 OA
ATOM     84  O   UNL A   1      42.949  19.585  24.797  1.00  0.00    -0.744 OA
ENDBRANCH  80  81
ENDBRANCH  52  75
BRANCH  64  85
ATOM     85  C   UNL A   1      47.692  26.963  31.266  1.00  0.00    -0.014 A 
ATOM     86  C   UNL A   1      47.921  26.255  32.459  1.00  0.00     0.010 A 
ATOM     87  C   UNL A   1      48.775  27.223  30.404  1.00  0.00     0.010 A 
ATOM     88  C   UNL A   1      49.213  25.844  32.798  1.00  0.00     0.020 A 
ATOM     89  C   UNL A   1      50.062  26.784  30.725  1.00  0.00     0.020 A 
ATOM     90  C   UNL A   1      50.274  26.110  31.927  1.00  0.00     0.054 A 
BRANCH  90  91
ATOM     91  S   UNL A   1      51.933  25.524  32.370  1.00  0.00     0.124 S 
ATOM     92  O   UNL A   1      51.663  24.160  32.818  1.00  0.00    -0.237 OA
ATOM     93  O   UNL A   1      52.658  25.639  31.108  1.00  0.00    -0.237 OA
ATOM     94  O   UNL A   1      52.360  26.450  33.417  1.00  0.00    -0.744 OA
ENDBRANCH  90  91
ENDBRANCH  64  85
ENDBRANCH  38  39
ENDBRANCH  30  33
ENDBRANCH  28  29
ENDBRANCH  27  28
ENDBRANCH  26  27
ENDBRANCH  25  26
ENDBRANCH   1  25
TORSDOF 21
ENDMDL
