MODEL 1
REMARK VINA RESULT:     -10.7      0.000      0.000
REMARK SMILES O=C(NCCCCCCNC(=O)c1ccc(-c2c3nc(c(-c4ccc(S(=O)(=O)[O-])cc4)c4ccc([nH]4)c(-c4ccc(S(=O)(=O)[O-])cc4)c4nc(c(-c5ccc(S(=O)(=O)[O-])cc5)c5ccc2[nH]5)C=C4)C=C3)cc1)C1=Cc2c(ccc(Cl)c2-c2ccccc2)O[C@H]1C(F)(F)F
REMARK SMILES IDX 7 1 6 2 5 3 4 4 3 5 1 6 2 7 73 9 74 10 89 11 75 12 88 13
REMARK SMILES IDX 76 14 81 15 77 16 79 17 78 18 80 19 90 20 91 21 92 22 93 23
REMARK SMILES IDX 82 24 83 25 87 26 84 27 86 28 85 29 8 30 9 31 10 32 11 33
REMARK SMILES IDX 12 35 13 36 14 37 72 38 15 39 71 40 16 41 17 42 18 43 65 44
REMARK SMILES IDX 19 45 70 46 64 47 66 48 20 49 69 50 63 51 62 52 21 54 51 55
REMARK SMILES IDX 32 56 50 57 33 58 36 59 49 60 67 61 34 62 35 63 48 65 68 66
REMARK SMILES IDX 37 67 22 68 23 69 31 70 24 71 30 72 25 73 26 74 27 75 28 76
REMARK SMILES IDX 29 77 52 78 53 79 61 80 54 81 60 82 55 83 56 84 57 85 58 86
REMARK SMILES IDX 59 87 38 88 39 89 47 90 40 91 46 92 41 93 42 94 43 95 44 96
REMARK SMILES IDX 45 97
REMARK H PARENT 3 8 10 34 66 53 36 64
REMARK Flexibility Score: inf
ROOT
ATOM      1  C   UNL A   1      35.341  22.461  26.961  1.00  0.00     0.002 C 
ENDROOT
BRANCH   1   2
ATOM      2  C   UNL A   1      33.943  21.836  27.060  1.00  0.00     0.002 C 
BRANCH   2   3
ATOM      3  C   UNL A   1      33.387  21.159  25.803  1.00  0.00     0.021 C 
BRANCH   3   4
ATOM      4  C   UNL A   1      31.928  21.450  25.463  1.00  0.00     0.116 C 
BRANCH   4   5
ATOM      5  N   UNL A   1      31.349  22.605  26.122  1.00  0.00    -0.352 N 
ATOM      6  O   UNL A   1      30.885  24.776  26.479  1.00  0.00    -0.270 OA
ATOM      7  C   UNL A   1      31.418  23.927  25.769  1.00  0.00     0.251 C 
ATOM      8  H   UNL A   1      30.832  22.412  26.937  1.00  0.00     0.163 HD
BRANCH   7   9
ATOM      9  C   UNL A   1      32.106  24.359  24.532  1.00  0.00     0.067 C 
ATOM     10  C   UNL A   1      32.844  25.474  24.583  1.00  0.00     0.026 C 
ATOM     11  C   UNL A   1      31.679  23.887  23.178  1.00  0.00     0.314 C 
ATOM     12  C   UNL A   1      32.058  26.575  23.959  1.00  0.00     0.027 A 
ATOM     13  O   UNL A   1      31.107  24.981  22.375  1.00  0.00    -0.475 OA
ATOM     14  C   UNL A   1      31.209  26.257  22.887  1.00  0.00     0.128 A 
ATOM     15  C   UNL A   1      32.058  27.852  24.580  1.00  0.00     0.011 A 
ATOM     16  C   UNL A   1      30.326  27.221  22.418  1.00  0.00     0.049 A 
ATOM     17  C   UNL A   1      31.127  28.788  24.120  1.00  0.00     0.049 A 
ATOM     18  C   UNL A   1      30.271  28.473  23.047  1.00  0.00     0.025 A 
ATOM     19  Cl  UNL A   1      30.929  30.316  24.895  1.00  0.00    -0.084 Cl
BRANCH  11  20
ATOM     20  C   UNL A   1      32.841  23.193  22.426  1.00  0.00     0.429 C 
ATOM     21  F   UNL A   1      32.511  21.973  21.936  1.00  0.00    -0.167 F 
ATOM     22  F   UNL A   1      33.249  23.938  21.368  1.00  0.00    -0.167 F 
ATOM     23  F   UNL A   1      33.923  23.004  23.219  1.00  0.00    -0.167 F 
ENDBRANCH  11  20
BRANCH  15  24
ATOM     24  C   UNL A   1      32.967  28.006  25.736  1.00  0.00    -0.016 A 
ATOM     25  C   UNL A   1      34.245  28.556  25.534  1.00  0.00     0.009 A 
ATOM     26  C   UNL A   1      32.403  28.062  27.025  1.00  0.00     0.009 A 
ATOM     27  C   UNL A   1      34.862  29.293  26.547  1.00  0.00     0.001 A 
ATOM     28  C   UNL A   1      33.017  28.811  28.029  1.00  0.00     0.001 A 
ATOM     29  C   UNL A   1      34.226  29.455  27.778  1.00  0.00     0.000 A 
ENDBRANCH  15  24
ENDBRANCH   7   9
ENDBRANCH   4   5
ENDBRANCH   3   4
ENDBRANCH   2   3
ENDBRANCH   1   2
BRANCH   1  30
ATOM     30  C   UNL A   1      35.477  23.736  26.124  1.00  0.00     0.021 C 
BRANCH  30  31
ATOM     31  C   UNL A   1      36.655  23.794  25.157  1.00  0.00     0.116 C 
BRANCH  31  32
ATOM     32  N   UNL A   1      37.681  22.804  25.443  1.00  0.00    -0.352 N 
ATOM     33  C   UNL A   1      38.879  22.926  26.101  1.00  0.00     0.251 C 
ATOM     34  H   UNL A   1      37.484  21.900  25.109  1.00  0.00     0.163 HD
ATOM     35  O   UNL A   1      39.655  21.967  26.106  1.00  0.00    -0.269 OA
BRANCH  33  36
ATOM     36  C   UNL A   1      39.270  24.184  26.781  1.00  0.00     0.039 A 
ATOM     37  C   UNL A   1      38.845  24.397  28.097  1.00  0.00     0.014 A 
ATOM     38  C   UNL A   1      40.011  25.176  26.132  1.00  0.00     0.014 A 
ATOM     39  C   UNL A   1      39.211  25.565  28.775  1.00  0.00     0.010 A 
ATOM     40  C   UNL A   1      40.447  26.300  26.836  1.00  0.00     0.010 A 
ATOM     41  C   UNL A   1      40.045  26.514  28.164  1.00  0.00    -0.014 A 
BRANCH  41  42
ATOM     42  C   UNL A   1      40.492  27.734  28.892  1.00  0.00     0.031 A 
ATOM     43  C   UNL A   1      41.841  27.770  29.563  1.00  0.00     0.074 A 
ATOM     44  C   UNL A   1      39.666  28.796  28.991  1.00  0.00     0.049 A 
ATOM     45  N   UNL A   1      42.379  28.719  30.286  1.00  0.00    -0.248 NA
ATOM     46  C   UNL A   1      42.691  26.575  29.421  1.00  0.00     0.031 C 
ATOM     47  C   UNL A   1      38.319  28.877  28.422  1.00  0.00     0.029 A 
ATOM     48  N   UNL A   1      39.836  30.010  29.611  1.00  0.00    -0.354 N 
ATOM     49  C   UNL A   1      43.618  28.236  30.690  1.00  0.00     0.074 A 
ATOM     50  C   UNL A   1      43.728  26.886  30.184  1.00  0.00     0.031 C 
ATOM     51  C   UNL A   1      37.796  30.084  28.698  1.00  0.00     0.029 A 
ATOM     52  C   UNL A   1      38.747  30.845  29.501  1.00  0.00     0.049 A 
ATOM     53  H   UNL A   1      40.658  30.260  30.090  1.00  0.00     0.167 HD
ATOM     54  C   UNL A   1      44.591  28.865  31.395  1.00  0.00     0.031 A 
ATOM     55  C   UNL A   1      38.531  32.080  29.997  1.00  0.00     0.031 A 
ATOM     56  C   UNL A   1      44.483  30.211  31.894  1.00  0.00     0.049 A 
ATOM     57  C   UNL A   1      39.615  32.749  30.798  1.00  0.00     0.074 A 
ATOM     58  C   UNL A   1      45.426  30.948  32.588  1.00  0.00     0.029 A 
ATOM     59  N   UNL A   1      43.368  31.023  31.752  1.00  0.00    -0.354 N 
ATOM     60  N   UNL A   1      40.801  32.293  31.122  1.00  0.00    -0.248 NA
ATOM     61  C   UNL A   1      39.338  34.106  31.289  1.00  0.00     0.031 C 
ATOM     62  C   UNL A   1      44.862  32.185  32.914  1.00  0.00     0.029 A 
ATOM     63  C   UNL A   1      43.592  32.246  32.363  1.00  0.00     0.049 A 
ATOM     64  H   UNL A   1      42.540  30.768  31.285  1.00  0.00     0.167 HD
ATOM     65  C   UNL A   1      41.422  33.317  31.830  1.00  0.00     0.074 A 
ATOM     66  C   UNL A   1      40.487  34.422  31.870  1.00  0.00     0.031 C 
ATOM     67  C   UNL A   1      42.654  33.339  32.395  1.00  0.00     0.031 A 
BRANCH  54  68
ATOM     68  C   UNL A   1      45.863  28.101  31.666  1.00  0.00    -0.014 A 
ATOM     69  C   UNL A   1      46.122  27.553  32.935  1.00  0.00     0.010 A 
ATOM     70  C   UNL A   1      46.787  27.884  30.627  1.00  0.00     0.010 A 
ATOM     71  C   UNL A   1      47.299  26.837  33.172  1.00  0.00     0.020 A 
ATOM     72  C   UNL A   1      47.949  27.140  30.851  1.00  0.00     0.020 A 
ATOM     73  C   UNL A   1      48.206  26.636  32.127  1.00  0.00     0.054 A 
BRANCH  73  74
ATOM     74  S   UNL A   1      49.710  25.678  32.459  1.00  0.00     0.124 S 
ATOM     75  O   UNL A   1      50.500  26.620  33.246  1.00  0.00    -0.237 OA
ATOM     76  O   UNL A   1      49.197  24.523  33.192  1.00  0.00    -0.237 OA
ATOM     77  O   UNL A   1      50.236  25.385  31.129  1.00  0.00    -0.744 OA
ENDBRANCH  73  74
ENDBRANCH  54  68
BRANCH  55  78
ATOM     78  C   UNL A   1      37.228  32.761  29.757  1.00  0.00    -0.014 A 
ATOM     79  C   UNL A   1      36.982  33.448  28.554  1.00  0.00     0.010 A 
ATOM     80  C   UNL A   1      36.219  32.725  30.738  1.00  0.00     0.010 A 
ATOM     81  C   UNL A   1      35.765  34.107  28.349  1.00  0.00     0.020 A 
ATOM     82  C   UNL A   1      34.990  33.354  30.523  1.00  0.00     0.020 A 
ATOM     83  C   UNL A   1      34.776  34.054  29.335  1.00  0.00     0.054 A 
BRANCH  83  84
ATOM     84  S   UNL A   1      33.191  34.885  29.033  1.00  0.00     0.124 S 
ATOM     85  O   UNL A   1      33.622  36.183  28.522  1.00  0.00    -0.237 OA
ATOM     86  O   UNL A   1      32.554  34.002  28.060  1.00  0.00    -0.237 OA
ATOM     87  O   UNL A   1      32.561  34.909  30.351  1.00  0.00    -0.744 OA
ENDBRANCH  83  84
ENDBRANCH  55  78
BRANCH  67  88
ATOM     88  C   UNL A   1      43.085  34.613  33.076  1.00  0.00    -0.014 A 
ATOM     89  C   UNL A   1      43.008  34.760  34.472  1.00  0.00     0.010 A 
ATOM     90  C   UNL A   1      43.630  35.657  32.307  1.00  0.00     0.010 A 
ATOM     91  C   UNL A   1      43.436  35.941  35.083  1.00  0.00     0.020 A 
ATOM     92  C   UNL A   1      44.089  36.827  32.917  1.00  0.00     0.020 A 
ATOM     93  C   UNL A   1      43.976  36.968  34.301  1.00  0.00     0.054 A 
BRANCH  93  94
ATOM     94  S   UNL A   1      44.566  38.472  35.123  1.00  0.00     0.124 S 
ATOM     95  O   UNL A   1      45.994  38.446  34.818  1.00  0.00    -0.237 OA
ATOM     96  O   UNL A   1      43.801  39.523  34.454  1.00  0.00    -0.237 OA
ATOM     97  O   UNL A   1      44.224  38.258  36.527  1.00  0.00    -0.744 OA
ENDBRANCH  93  94
ENDBRANCH  67  88
ENDBRANCH  41  42
ENDBRANCH  33  36
ENDBRANCH  31  32
ENDBRANCH  30  31
ENDBRANCH   1  30
TORSDOF 18
ENDMDL
MODEL 2
REMARK VINA RESULT:     -10.1      6.234     10.287
REMARK SMILES O=C(NCCCCCCNC(=O)c1ccc(-c2c3nc(c(-c4ccc(S(=O)(=O)[O-])cc4)c4ccc([nH]4)c(-c4ccc(S(=O)(=O)[O-])cc4)c4nc(c(-c5ccc(S(=O)(=O)[O-])cc5)c5ccc2[nH]5)C=C4)C=C3)cc1)C1=Cc2c(ccc(Cl)c2-c2ccccc2)O[C@H]1C(F)(F)F
REMARK SMILES IDX 7 1 6 2 5 3 4 4 3 5 1 6 2 7 73 9 74 10 89 11 75 12 88 13
REMARK SMILES IDX 76 14 81 15 77 16 79 17 78 18 80 19 90 20 91 21 92 22 93 23
REMARK SMILES IDX 82 24 83 25 87 26 84 27 86 28 85 29 8 30 9 31 10 32 11 33
REMARK SMILES IDX 12 35 13 36 14 37 72 38 15 39 71 40 16 41 17 42 18 43 65 44
REMARK SMILES IDX 19 45 70 46 64 47 66 48 20 49 69 50 63 51 62 52 21 54 51 55
REMARK SMILES IDX 32 56 50 57 33 58 36 59 49 60 67 61 34 62 35 63 48 65 68 66
REMARK SMILES IDX 37 67 22 68 23 69 31 70 24 71 30 72 25 73 26 74 27 75 28 76
REMARK SMILES IDX 29 77 52 78 53 79 61 80 54 81 60 82 55 83 56 84 57 85 58 86
REMARK SMILES IDX 59 87 38 88 39 89 47 90 40 91 46 92 41 93 42 94 43 95 44 96
REMARK SMILES IDX 45 97
REMARK H PARENT 3 8 10 34 66 53 36 64
REMARK Flexibility Score: inf
ROOT
ATOM      1  C   UNL A   1      39.905  35.299  37.302  1.00  0.00     0.002 C 
ENDROOT
BRANCH   1   2
ATOM      2  C   UNL A   1      40.422  34.734  35.972  1.00  0.00     0.002 C 
BRANCH   2   3
ATOM      3  C   UNL A   1      39.868  35.355  34.685  1.00  0.00     0.021 C 
BRANCH   3   4
ATOM      4  C   UNL A   1      38.838  34.528  33.920  1.00  0.00     0.116 C 
BRANCH   4   5
ATOM      5  N   UNL A   1      38.819  34.725  32.483  1.00  0.00    -0.352 N 
ATOM      6  O   UNL A   1      38.071  34.533  30.371  1.00  0.00    -0.270 OA
ATOM      7  C   UNL A   1      37.899  34.295  31.564  1.00  0.00     0.251 C 
ATOM      8  H   UNL A   1      39.573  35.241  32.116  1.00  0.00     0.163 HD
BRANCH   7   9
ATOM      9  C   UNL A   1      36.680  33.565  31.978  1.00  0.00     0.067 C 
ATOM     10  C   UNL A   1      36.729  32.228  32.003  1.00  0.00     0.026 C 
ATOM     11  C   UNL A   1      35.324  34.195  31.939  1.00  0.00     0.314 C 
ATOM     12  C   UNL A   1      36.040  31.719  30.784  1.00  0.00     0.027 A 
ATOM     13  O   UNL A   1      34.465  33.578  30.915  1.00  0.00    -0.475 OA
ATOM     14  C   UNL A   1      34.943  32.443  30.293  1.00  0.00     0.128 A 
ATOM     15  C   UNL A   1      36.623  30.639  30.070  1.00  0.00     0.011 A 
ATOM     16  C   UNL A   1      34.408  32.102  29.057  1.00  0.00     0.049 A 
ATOM     17  C   UNL A   1      36.096  30.346  28.809  1.00  0.00     0.049 A 
ATOM     18  C   UNL A   1      34.998  31.071  28.310  1.00  0.00     0.025 A 
ATOM     19  Cl  UNL A   1      36.818  29.159  27.786  1.00  0.00    -0.084 Cl
BRANCH  11  20
ATOM     20  C   UNL A   1      34.642  34.161  33.330  1.00  0.00     0.429 C 
ATOM     21  F   UNL A   1      35.507  33.917  34.345  1.00  0.00    -0.167 F 
ATOM     22  F   UNL A   1      34.044  35.345  33.608  1.00  0.00    -0.167 F 
ATOM     23  F   UNL A   1      33.686  33.205  33.408  1.00  0.00    -0.167 F 
ENDBRANCH  11  20
BRANCH  15  24
ATOM     24  C   UNL A   1      37.812  30.020  30.695  1.00  0.00    -0.016 A 
ATOM     25  C   UNL A   1      37.678  28.780  31.345  1.00  0.00     0.009 A 
ATOM     26  C   UNL A   1      39.085  30.408  30.236  1.00  0.00     0.009 A 
ATOM     27  C   UNL A   1      38.748  27.883  31.375  1.00  0.00     0.001 A 
ATOM     28  C   UNL A   1      40.147  29.503  30.257  1.00  0.00     0.001 A 
ATOM     29  C   UNL A   1      39.966  28.230  30.793  1.00  0.00     0.000 A 
ENDBRANCH  15  24
ENDBRANCH   7   9
ENDBRANCH   4   5
ENDBRANCH   3   4
ENDBRANCH   2   3
ENDBRANCH   1   2
BRANCH   1  30
ATOM     30  C   UNL A   1      38.889  34.451  38.071  1.00  0.00     0.021 C 
BRANCH  30  31
ATOM     31  C   UNL A   1      37.777  33.807  37.250  1.00  0.00     0.116 C 
BRANCH  31  32
ATOM     32  N   UNL A   1      37.404  32.485  37.727  1.00  0.00    -0.352 N 
ATOM     33  C   UNL A   1      37.788  31.239  37.297  1.00  0.00     0.251 C 
ATOM     34  H   UNL A   1      36.772  32.484  38.482  1.00  0.00     0.163 HD
ATOM     35  O   UNL A   1      37.231  30.247  37.774  1.00  0.00    -0.269 OA
BRANCH  33  36
ATOM     36  C   UNL A   1      38.833  31.061  36.260  1.00  0.00     0.039 A 
ATOM     37  C   UNL A   1      40.174  31.246  36.618  1.00  0.00     0.014 A 
ATOM     38  C   UNL A   1      38.515  30.758  34.934  1.00  0.00     0.014 A 
ATOM     39  C   UNL A   1      41.186  31.068  35.670  1.00  0.00     0.010 A 
ATOM     40  C   UNL A   1      39.529  30.498  34.011  1.00  0.00     0.010 A 
ATOM     41  C   UNL A   1      40.877  30.658  34.364  1.00  0.00    -0.014 A 
BRANCH  41  42
ATOM     42  C   UNL A   1      41.948  30.408  33.359  1.00  0.00     0.031 A 
ATOM     43  C   UNL A   1      42.721  29.114  33.375  1.00  0.00     0.074 A 
ATOM     44  C   UNL A   1      42.259  31.362  32.458  1.00  0.00     0.049 A 
ATOM     45  N   UNL A   1      43.721  28.740  32.618  1.00  0.00    -0.248 NA
ATOM     46  C   UNL A   1      42.335  28.117  34.388  1.00  0.00     0.031 C 
ATOM     47  C   UNL A   1      41.616  32.674  32.358  1.00  0.00     0.029 A 
ATOM     48  N   UNL A   1      43.200  31.379  31.457  1.00  0.00    -0.354 N 
ATOM     49  C   UNL A   1      44.087  27.476  33.066  1.00  0.00     0.074 A 
ATOM     50  C   UNL A   1      43.243  27.171  34.200  1.00  0.00     0.031 C 
ATOM     51  C   UNL A   1      42.163  33.357  31.338  1.00  0.00     0.029 A 
ATOM     52  C   UNL A   1      43.225  32.554  30.740  1.00  0.00     0.049 A 
ATOM     53  H   UNL A   1      43.800  30.623  31.269  1.00  0.00     0.167 HD
ATOM     54  C   UNL A   1      45.021  26.630  32.565  1.00  0.00     0.031 A 
ATOM     55  C   UNL A   1      44.017  32.949  29.724  1.00  0.00     0.031 A 
ATOM     56  C   UNL A   1      45.857  26.931  31.432  1.00  0.00     0.049 A 
ATOM     57  C   UNL A   1      45.064  32.004  29.200  1.00  0.00     0.074 A 
ATOM     58  C   UNL A   1      46.807  26.127  30.828  1.00  0.00     0.029 A 
ATOM     59  N   UNL A   1      45.842  28.128  30.731  1.00  0.00    -0.354 N 
ATOM     60  N   UNL A   1      45.356  30.791  29.605  1.00  0.00    -0.248 NA
ATOM     61  C   UNL A   1      45.880  32.474  28.072  1.00  0.00     0.031 C 
ATOM     62  C   UNL A   1      47.407  26.857  29.797  1.00  0.00     0.029 A 
ATOM     63  C   UNL A   1      46.782  28.092  29.714  1.00  0.00     0.049 A 
ATOM     64  H   UNL A   1      45.252  28.890  30.928  1.00  0.00     0.167 HD
ATOM     65  C   UNL A   1      46.369  30.343  28.764  1.00  0.00     0.074 A 
ATOM     66  C   UNL A   1      46.626  31.407  27.816  1.00  0.00     0.031 C 
ATOM     67  C   UNL A   1      47.027  29.157  28.776  1.00  0.00     0.031 A 
BRANCH  54  68
ATOM     68  C   UNL A   1      45.185  25.291  33.239  1.00  0.00    -0.014 A 
ATOM     69  C   UNL A   1      44.420  24.181  32.840  1.00  0.00     0.010 A 
ATOM     70  C   UNL A   1      46.151  25.126  34.249  1.00  0.00     0.010 A 
ATOM     71  C   UNL A   1      44.588  22.941  33.465  1.00  0.00     0.020 A 
ATOM     72  C   UNL A   1      46.346  23.881  34.854  1.00  0.00     0.020 A 
ATOM     73  C   UNL A   1      45.551  22.799  34.468  1.00  0.00     0.054 A 
BRANCH  73  74
ATOM     74  S   UNL A   1      45.764  21.171  35.239  1.00  0.00     0.124 S 
ATOM     75  O   UNL A   1      47.050  20.746  34.692  1.00  0.00    -0.237 OA
ATOM     76  O   UNL A   1      45.762  21.490  36.664  1.00  0.00    -0.237 OA
ATOM     77  O   UNL A   1      44.608  20.412  34.771  1.00  0.00    -0.744 OA
ENDBRANCH  73  74
ENDBRANCH  54  68
BRANCH  55  78
ATOM     78  C   UNL A   1      43.857  34.311  29.140  1.00  0.00    -0.014 A 
ATOM     79  C   UNL A   1      44.496  35.424  29.714  1.00  0.00     0.010 A 
ATOM     80  C   UNL A   1      43.058  34.500  27.997  1.00  0.00     0.010 A 
ATOM     81  C   UNL A   1      44.318  36.702  29.174  1.00  0.00     0.020 A 
ATOM     82  C   UNL A   1      42.904  35.770  27.434  1.00  0.00     0.020 A 
ATOM     83  C   UNL A   1      43.523  36.866  28.036  1.00  0.00     0.054 A 
BRANCH  83  84
ATOM     84  S   UNL A   1      43.335  38.528  27.330  1.00  0.00     0.124 S 
ATOM     85  O   UNL A   1      43.241  39.357  28.527  1.00  0.00    -0.237 OA
ATOM     86  O   UNL A   1      44.562  38.678  26.550  1.00  0.00    -0.237 OA
ATOM     87  O   UNL A   1      42.110  38.426  26.540  1.00  0.00    -0.744 OA
ENDBRANCH  83  84
ENDBRANCH  55  78
BRANCH  67  88
ATOM     88  C   UNL A   1      48.065  28.926  27.708  1.00  0.00    -0.014 A 
ATOM     89  C   UNL A   1      49.386  29.384  27.859  1.00  0.00     0.010 A 
ATOM     90  C   UNL A   1      47.724  28.188  26.560  1.00  0.00     0.010 A 
ATOM     91  C   UNL A   1      50.337  29.136  26.866  1.00  0.00     0.020 A 
ATOM     92  C   UNL A   1      48.680  27.911  25.580  1.00  0.00     0.020 A 
ATOM     93  C   UNL A   1      49.978  28.400  25.733  1.00  0.00     0.054 A 
BRANCH  93  94
ATOM     94  S   UNL A   1      51.244  28.054  24.480  1.00  0.00     0.124 S 
ATOM     95  O   UNL A   1      52.322  27.486  25.286  1.00  0.00    -0.237 OA
ATOM     96  O   UNL A   1      50.564  27.115  23.590  1.00  0.00    -0.237 OA
ATOM     97  O   UNL A   1      51.523  29.364  23.898  1.00  0.00    -0.744 OA
ENDBRANCH  93  94
ENDBRANCH  67  88
ENDBRANCH  41  42
ENDBRANCH  33  36
ENDBRANCH  31  32
ENDBRANCH  30  31
ENDBRANCH   1  30
TORSDOF 18
ENDMDL
MODEL 3
REMARK VINA RESULT:      -9.7      6.257     12.011
REMARK SMILES O=C(NCCCCCCNC(=O)c1ccc(-c2c3nc(c(-c4ccc(S(=O)(=O)[O-])cc4)c4ccc([nH]4)c(-c4ccc(S(=O)(=O)[O-])cc4)c4nc(c(-c5ccc(S(=O)(=O)[O-])cc5)c5ccc2[nH]5)C=C4)C=C3)cc1)C1=Cc2c(ccc(Cl)c2-c2ccccc2)O[C@H]1C(F)(F)F
REMARK SMILES IDX 7 1 6 2 5 3 4 4 3 5 1 6 2 7 73 9 74 10 89 11 75 12 88 13
REMARK SMILES IDX 76 14 81 15 77 16 79 17 78 18 80 19 90 20 91 21 92 22 93 23
REMARK SMILES IDX 82 24 83 25 87 26 84 27 86 28 85 29 8 30 9 31 10 32 11 33
REMARK SMILES IDX 12 35 13 36 14 37 72 38 15 39 71 40 16 41 17 42 18 43 65 44
REMARK SMILES IDX 19 45 70 46 64 47 66 48 20 49 69 50 63 51 62 52 21 54 51 55
REMARK SMILES IDX 32 56 50 57 33 58 36 59 49 60 67 61 34 62 35 63 48 65 68 66
REMARK SMILES IDX 37 67 22 68 23 69 31 70 24 71 30 72 25 73 26 74 27 75 28 76
REMARK SMILES IDX 29 77 52 78 53 79 61 80 54 81 60 82 55 83 56 84 57 85 58 86
REMARK SMILES IDX 59 87 38 88 39 89 47 90 40 91 46 92 41 93 42 94 43 95 44 96
REMARK SMILES IDX 45 97
REMARK H PARENT 3 8 10 34 66 53 36 64
REMARK Flexibility Score: inf
ROOT
ATOM      1  C   UNL A   1      39.944  35.487  37.170  1.00  0.00     0.002 C 
ENDROOT
BRANCH   1   2
ATOM      2  C   UNL A   1      40.502  34.844  35.894  1.00  0.00     0.002 C 
BRANCH   2   3
ATOM      3  C   UNL A   1      40.005  35.399  34.555  1.00  0.00     0.021 C 
BRANCH   3   4
ATOM      4  C   UNL A   1      38.952  34.570  33.823  1.00  0.00     0.116 C 
BRANCH   4   5
ATOM      5  N   UNL A   1      38.918  34.730  32.382  1.00  0.00    -0.352 N 
ATOM      6  O   UNL A   1      38.150  34.482  30.283  1.00  0.00    -0.270 OA
ATOM      7  C   UNL A   1      37.990  34.276  31.484  1.00  0.00     0.251 C 
ATOM      8  H   UNL A   1      39.668  35.236  31.994  1.00  0.00     0.163 HD
BRANCH   7   9
ATOM      9  C   UNL A   1      36.776  33.555  31.929  1.00  0.00     0.067 C 
ATOM     10  C   UNL A   1      36.833  32.220  32.008  1.00  0.00     0.026 C 
ATOM     11  C   UNL A   1      35.416  34.175  31.866  1.00  0.00     0.314 C 
ATOM     12  C   UNL A   1      36.146  31.658  30.812  1.00  0.00     0.027 A 
ATOM     13  O   UNL A   1      34.560  33.511  30.869  1.00  0.00    -0.475 OA
ATOM     14  C   UNL A   1      35.044  32.356  30.293  1.00  0.00     0.128 A 
ATOM     15  C   UNL A   1      36.735  30.554  30.141  1.00  0.00     0.011 A 
ATOM     16  C   UNL A   1      34.510  31.962  29.073  1.00  0.00     0.049 A 
ATOM     17  C   UNL A   1      36.208  30.206  28.894  1.00  0.00     0.049 A 
ATOM     18  C   UNL A   1      35.105  30.905  28.367  1.00  0.00     0.025 A 
ATOM     19  Cl  UNL A   1      36.936  28.983  27.919  1.00  0.00    -0.084 Cl
BRANCH  11  20
ATOM     20  C   UNL A   1      34.736  34.193  33.258  1.00  0.00     0.429 C 
ATOM     21  F   UNL A   1      35.194  33.227  34.092  1.00  0.00    -0.167 F 
ATOM     22  F   UNL A   1      34.944  35.377  33.886  1.00  0.00    -0.167 F 
ATOM     23  F   UNL A   1      33.396  34.018  33.175  1.00  0.00    -0.167 F 
ENDBRANCH  11  20
BRANCH  15  24
ATOM     24  C   UNL A   1      37.928  29.968  30.790  1.00  0.00    -0.016 A 
ATOM     25  C   UNL A   1      37.808  28.741  31.467  1.00  0.00     0.009 A 
ATOM     26  C   UNL A   1      39.198  30.364  30.330  1.00  0.00     0.009 A 
ATOM     27  C   UNL A   1      38.891  27.862  31.526  1.00  0.00     0.001 A 
ATOM     28  C   UNL A   1      40.274  29.476  30.380  1.00  0.00     0.001 A 
ATOM     29  C   UNL A   1      40.108  28.214  30.945  1.00  0.00     0.000 A 
ENDBRANCH  15  24
ENDBRANCH   7   9
ENDBRANCH   4   5
ENDBRANCH   3   4
ENDBRANCH   2   3
ENDBRANCH   1   2
BRANCH   1  30
ATOM     30  C   UNL A   1      38.895  34.692  37.950  1.00  0.00     0.021 C 
BRANCH  30  31
ATOM     31  C   UNL A   1      37.805  34.011  37.129  1.00  0.00     0.116 C 
BRANCH  31  32
ATOM     32  N   UNL A   1      37.419  32.712  37.653  1.00  0.00    -0.352 N 
ATOM     33  C   UNL A   1      37.808  31.448  37.283  1.00  0.00     0.251 C 
ATOM     34  H   UNL A   1      36.772  32.743  38.395  1.00  0.00     0.163 HD
ATOM     35  O   UNL A   1      37.239  30.478  37.790  1.00  0.00    -0.269 OA
BRANCH  33  36
ATOM     36  C   UNL A   1      38.872  31.225  36.275  1.00  0.00     0.039 A 
ATOM     37  C   UNL A   1      40.203  31.456  36.640  1.00  0.00     0.014 A 
ATOM     38  C   UNL A   1      38.580  30.835  34.965  1.00  0.00     0.014 A 
ATOM     39  C   UNL A   1      41.234  31.238  35.720  1.00  0.00     0.010 A 
ATOM     40  C   UNL A   1      39.613  30.537  34.075  1.00  0.00     0.010 A 
ATOM     41  C   UNL A   1      40.953  30.742  34.437  1.00  0.00    -0.014 A 
BRANCH  41  42
ATOM     42  C   UNL A   1      42.043  30.450  33.466  1.00  0.00     0.031 A 
ATOM     43  C   UNL A   1      42.399  31.451  32.396  1.00  0.00     0.074 A 
ATOM     44  C   UNL A   1      42.685  29.265  33.514  1.00  0.00     0.049 A 
ATOM     45  N   UNL A   1      43.279  31.351  31.432  1.00  0.00    -0.248 NA
ATOM     46  C   UNL A   1      41.656  32.722  32.396  1.00  0.00     0.031 C 
ATOM     47  C   UNL A   1      42.412  28.192  34.473  1.00  0.00     0.029 A 
ATOM     48  N   UNL A   1      43.697  28.759  32.734  1.00  0.00    -0.354 N 
ATOM     49  C   UNL A   1      43.189  32.535  30.710  1.00  0.00     0.074 A 
ATOM     50  C   UNL A   1      42.127  33.314  31.309  1.00  0.00     0.031 C 
ATOM     51  C   UNL A   1      43.251  27.168  34.241  1.00  0.00     0.029 A 
ATOM     52  C   UNL A   1      44.089  27.489  33.091  1.00  0.00     0.049 A 
ATOM     53  H   UNL A   1      44.104  29.258  31.990  1.00  0.00     0.167 HD
ATOM     54  C   UNL A   1      43.938  32.954  29.660  1.00  0.00     0.031 A 
ATOM     55  C   UNL A   1      45.011  26.668  32.549  1.00  0.00     0.031 A 
ATOM     56  C   UNL A   1      44.999  32.182  29.067  1.00  0.00     0.049 A 
ATOM     57  C   UNL A   1      45.814  27.143  31.369  1.00  0.00     0.074 A 
ATOM     58  C   UNL A   1      45.838  32.532  28.025  1.00  0.00     0.029 A 
ATOM     59  N   UNL A   1      45.369  30.905  29.465  1.00  0.00    -0.354 N 
ATOM     60  N   UNL A   1      45.749  28.290  30.736  1.00  0.00    -0.248 NA
ATOM     61  C   UNL A   1      46.826  26.220  30.837  1.00  0.00     0.031 C 
ATOM     62  C   UNL A   1      46.678  31.448  27.755  1.00  0.00     0.029 A 
ATOM     63  C   UNL A   1      46.409  30.446  28.675  1.00  0.00     0.049 A 
ATOM     64  H   UNL A   1      44.952  30.400  30.200  1.00  0.00     0.167 HD
ATOM     65  C   UNL A   1      46.729  28.236  29.750  1.00  0.00     0.074 A 
ATOM     66  C   UNL A   1      47.385  26.952  29.884  1.00  0.00     0.031 C 
ATOM     67  C   UNL A   1      47.055  29.167  28.819  1.00  0.00     0.031 A 
BRANCH  54  68
ATOM     68  C   UNL A   1      43.638  34.316  29.086  1.00  0.00    -0.014 A 
ATOM     69  C   UNL A   1      42.896  34.453  27.898  1.00  0.00     0.010 A 
ATOM     70  C   UNL A   1      44.058  35.474  29.766  1.00  0.00     0.010 A 
ATOM     71  C   UNL A   1      42.615  35.721  27.380  1.00  0.00     0.020 A 
ATOM     72  C   UNL A   1      43.749  36.744  29.270  1.00  0.00     0.020 A 
ATOM     73  C   UNL A   1      43.043  36.859  28.070  1.00  0.00     0.054 A 
BRANCH  73  74
ATOM     74  S   UNL A   1      42.636  38.489  27.388  1.00  0.00     0.124 S 
ATOM     75  O   UNL A   1      42.282  39.239  28.590  1.00  0.00    -0.237 OA
ATOM     76  O   UNL A   1      43.886  38.887  26.745  1.00  0.00    -0.237 OA
ATOM     77  O   UNL A   1      41.529  38.217  26.476  1.00  0.00    -0.744 OA
ENDBRANCH  73  74
ENDBRANCH  54  68
BRANCH  55  78
ATOM     78  C   UNL A   1      45.219  25.305  33.115  1.00  0.00    -0.014 A 
ATOM     79  C   UNL A   1      44.485  24.204  32.636  1.00  0.00     0.010 A 
ATOM     80  C   UNL A   1      46.158  25.101  34.143  1.00  0.00     0.010 A 
ATOM     81  C   UNL A   1      44.668  22.934  33.192  1.00  0.00     0.020 A 
ATOM     82  C   UNL A   1      46.368  23.827  34.678  1.00  0.00     0.020 A 
ATOM     83  C   UNL A   1      45.610  22.754  34.209  1.00  0.00     0.054 A 
BRANCH  83  84
ATOM     84  S   UNL A   1      45.858  21.089  34.890  1.00  0.00     0.124 S 
ATOM     85  O   UNL A   1      44.528  20.504  34.751  1.00  0.00    -0.237 OA
ATOM     86  O   UNL A   1      46.887  20.540  34.011  1.00  0.00    -0.237 OA
ATOM     87  O   UNL A   1      46.289  21.343  36.263  1.00  0.00    -0.744 OA
ENDBRANCH  83  84
ENDBRANCH  55  78
BRANCH  67  88
ATOM     88  C   UNL A   1      48.200  28.851  27.891  1.00  0.00    -0.014 A 
ATOM     89  C   UNL A   1      47.991  28.191  26.667  1.00  0.00     0.010 A 
ATOM     90  C   UNL A   1      49.500  29.274  28.226  1.00  0.00     0.010 A 
ATOM     91  C   UNL A   1      49.064  27.931  25.811  1.00  0.00     0.020 A 
ATOM     92  C   UNL A   1      50.570  29.044  27.359  1.00  0.00     0.020 A 
ATOM     93  C   UNL A   1      50.348  28.360  26.163  1.00  0.00     0.054 A 
BRANCH  93  94
ATOM     94  S   UNL A   1      51.717  28.050  25.014  1.00  0.00     0.124 S 
ATOM     95  O   UNL A   1      51.486  26.659  24.634  1.00  0.00    -0.237 OA
ATOM     96  O   UNL A   1      51.480  29.036  23.962  1.00  0.00    -0.237 OA
ATOM     97  O   UNL A   1      52.910  28.286  25.823  1.00  0.00    -0.744 OA
ENDBRANCH  93  94
ENDBRANCH  67  88
ENDBRANCH  41  42
ENDBRANCH  33  36
ENDBRANCH  31  32
ENDBRANCH  30  31
ENDBRANCH   1  30
TORSDOF 18
ENDMDL
