MODEL 1
REMARK VINA RESULT:     -11.4      0.000      0.000
REMARK SMILES CO[C@@H]1C[C@@H](C(=O)NCCCCCCNC(=O)c2ccc(-c3c4nc(c(-c5ccc(S(=O)(=O)[O-])cc5)c5ccc([nH]5)c(-c5ccc(S(=O)(=O)[O-])cc5)c5nc(c(-c6ccc(S(=O)(=O)[O-])cc6)c6ccc3[nH]6)C=C5)C=C4)cc2)N(S(=O)(=O)c2ccc(Cl)cc2F)C1
REMARK SMILES IDX 12 1 11 2 10 3 9 4 8 5 6 6 7 7 5 9 3 10 4 11 90 12 78 13
REMARK SMILES IDX 2 14 1 15 79 16 80 17 81 18 82 19 83 20 88 21 84 22 87 23
REMARK SMILES IDX 89 24 85 25 86 26 13 27 14 28 15 29 16 30 17 32 18 33 19 34
REMARK SMILES IDX 77 35 20 36 76 37 21 38 22 39 23 40 70 41 24 42 75 43 69 44
REMARK SMILES IDX 71 45 25 46 74 47 68 48 67 49 26 51 56 52 37 53 55 54 38 55
REMARK SMILES IDX 41 56 54 57 72 58 39 59 40 60 53 62 73 63 42 64 27 65 28 66
REMARK SMILES IDX 36 67 29 68 35 69 30 70 31 71 32 72 33 73 34 74 57 75 58 76
REMARK SMILES IDX 66 77 59 78 65 79 60 80 61 81 62 82 63 83 64 84 43 85 44 86
REMARK SMILES IDX 52 87 45 88 51 89 46 90 47 91 48 92 49 93 50 94
REMARK H PARENT 8 8 15 31 71 50 41 61
REMARK Flexibility Score: inf
ROOT
ATOM      1  C   UNL A   1      39.269  22.509  26.293  1.00  0.00     0.002 C 
ENDROOT
BRANCH   1   2
ATOM      2  C   UNL A   1      38.866  21.225  25.575  1.00  0.00     0.002 C 
BRANCH   2   3
ATOM      3  C   UNL A   1      37.391  21.157  25.165  1.00  0.00     0.021 C 
BRANCH   3   4
ATOM      4  C   UNL A   1      36.580  22.425  25.440  1.00  0.00     0.116 C 
BRANCH   4   5
ATOM      5  N   UNL A   1      35.663  22.262  26.555  1.00  0.00    -0.355 N 
ATOM      6  C   UNL A   1      34.467  22.895  26.756  1.00  0.00     0.238 C 
ATOM      7  O   UNL A   1      33.890  22.714  27.829  1.00  0.00    -0.273 OA
ATOM      8  H   UNL A   1      35.936  21.619  27.249  1.00  0.00     0.163 HD
BRANCH   6   9
ATOM      9  C   UNL A   1      33.984  23.869  25.713  1.00  0.00     0.165 C 
ATOM     10  C   UNL A   1      32.878  25.825  24.982  1.00  0.00     0.135 C 
ATOM     11  C   UNL A   1      33.143  25.016  26.251  1.00  0.00     0.064 C 
ATOM     12  C   UNL A   1      32.979  24.796  23.822  1.00  0.00     0.135 C 
ATOM     13  N   UNL A   1      33.275  23.447  24.467  1.00  0.00    -0.183 NA
BRANCH  10  14
ATOM     14  O   UNL A   1      33.897  26.818  24.803  1.00  0.00    -0.380 OA
ATOM     15  C   UNL A   1      33.759  27.552  23.591  1.00  0.00     0.195 C 
ENDBRANCH  10  14
BRANCH  13  16
ATOM     16  S   UNL A   1      31.832  22.512  24.507  1.00  0.00     0.246 S 
ATOM     17  O   UNL A   1      31.221  22.674  25.813  1.00  0.00    -0.207 OA
ATOM     18  O   UNL A   1      31.084  22.915  23.337  1.00  0.00    -0.207 OA
BRANCH  16  19
ATOM     19  C   UNL A   1      32.224  20.811  24.279  1.00  0.00     0.118 A 
ATOM     20  C   UNL A   1      32.742  20.059  25.342  1.00  0.00     0.026 A 
ATOM     21  C   UNL A   1      32.201  20.262  23.004  1.00  0.00     0.144 A 
ATOM     22  C   UNL A   1      33.157  18.740  25.124  1.00  0.00     0.022 A 
ATOM     23  C   UNL A   1      32.550  18.932  22.792  1.00  0.00     0.061 A 
ATOM     24  F   UNL A   1      31.840  20.993  21.944  1.00  0.00    -0.205 F 
ATOM     25  C   UNL A   1      33.022  18.171  23.857  1.00  0.00     0.044 A 
ATOM     26  Cl  UNL A   1      33.429  16.519  23.611  1.00  0.00    -0.084 Cl
ENDBRANCH  16  19
ENDBRANCH  13  16
ENDBRANCH   6   9
ENDBRANCH   4   5
ENDBRANCH   3   4
ENDBRANCH   2   3
ENDBRANCH   1   2
BRANCH   1  27
ATOM     27  C   UNL A   1      40.235  22.352  27.463  1.00  0.00     0.021 C 
BRANCH  27  28
ATOM     28  C   UNL A   1      41.504  23.183  27.352  1.00  0.00     0.116 C 
BRANCH  28  29
ATOM     29  N   UNL A   1      41.537  24.016  26.158  1.00  0.00    -0.352 N 
ATOM     30  C   UNL A   1      41.426  25.383  26.063  1.00  0.00     0.251 C 
ATOM     31  H   UNL A   1      41.655  23.536  25.306  1.00  0.00     0.163 HD
ATOM     32  O   UNL A   1      41.361  25.925  24.965  1.00  0.00    -0.269 OA
BRANCH  30  33
ATOM     33  C   UNL A   1      41.347  26.188  27.300  1.00  0.00     0.039 A 
ATOM     34  C   UNL A   1      42.388  27.068  27.605  1.00  0.00     0.014 A 
ATOM     35  C   UNL A   1      40.223  26.112  28.126  1.00  0.00     0.014 A 
ATOM     36  C   UNL A   1      42.268  27.924  28.701  1.00  0.00     0.010 A 
ATOM     37  C   UNL A   1      40.066  27.027  29.160  1.00  0.00     0.010 A 
ATOM     38  C   UNL A   1      41.088  27.938  29.465  1.00  0.00    -0.014 A 
BRANCH  38  39
ATOM     39  C   UNL A   1      40.898  28.893  30.584  1.00  0.00     0.031 A 
ATOM     40  C   UNL A   1      41.730  28.764  31.832  1.00  0.00     0.074 A 
ATOM     41  C   UNL A   1      39.914  29.812  30.520  1.00  0.00     0.049 A 
ATOM     42  N   UNL A   1      41.659  29.447  32.945  1.00  0.00    -0.248 NA
ATOM     43  C   UNL A   1      42.749  27.702  31.843  1.00  0.00     0.031 C 
ATOM     44  C   UNL A   1      38.991  29.989  29.396  1.00  0.00     0.029 A 
ATOM     45  N   UNL A   1      39.516  30.760  31.429  1.00  0.00    -0.354 N 
ATOM     46  C   UNL A   1      42.593  28.874  33.800  1.00  0.00     0.074 A 
ATOM     47  C   UNL A   1      43.183  27.758  33.093  1.00  0.00     0.031 C 
ATOM     48  C   UNL A   1      38.147  30.995  29.676  1.00  0.00     0.029 A 
ATOM     49  C   UNL A   1      38.444  31.511  31.009  1.00  0.00     0.049 A 
ATOM     50  H   UNL A   1      39.956  30.890  32.300  1.00  0.00     0.167 HD
ATOM     51  C   UNL A   1      42.944  29.252  35.052  1.00  0.00     0.031 A 
ATOM     52  C   UNL A   1      37.770  32.501  31.627  1.00  0.00     0.031 A 
ATOM     53  C   UNL A   1      42.374  30.379  35.738  1.00  0.00     0.049 A 
ATOM     54  C   UNL A   1      38.208  32.941  32.994  1.00  0.00     0.074 A 
ATOM     55  C   UNL A   1      42.724  30.905  36.968  1.00  0.00     0.029 A 
ATOM     56  N   UNL A   1      41.329  31.153  35.253  1.00  0.00    -0.354 N 
ATOM     57  N   UNL A   1      39.162  32.450  33.749  1.00  0.00    -0.248 NA
ATOM     58  C   UNL A   1      37.493  34.080  33.587  1.00  0.00     0.031 C 
ATOM     59  C   UNL A   1      41.858  31.967  37.251  1.00  0.00     0.029 A 
ATOM     60  C   UNL A   1      41.004  32.137  36.172  1.00  0.00     0.049 A 
ATOM     61  H   UNL A   1      40.885  31.022  34.385  1.00  0.00     0.167 HD
ATOM     62  C   UNL A   1      39.173  33.231  34.900  1.00  0.00     0.074 A 
ATOM     63  C   UNL A   1      38.143  34.236  34.733  1.00  0.00     0.031 C 
ATOM     64  C   UNL A   1      39.968  33.124  35.994  1.00  0.00     0.031 A 
BRANCH  51  65
ATOM     65  C   UNL A   1      43.984  28.421  35.758  1.00  0.00    -0.014 A 
ATOM     66  C   UNL A   1      45.357  28.695  35.622  1.00  0.00     0.010 A 
ATOM     67  C   UNL A   1      43.581  27.341  36.565  1.00  0.00     0.010 A 
ATOM     68  C   UNL A   1      46.309  27.868  36.224  1.00  0.00     0.020 A 
ATOM     69  C   UNL A   1      44.528  26.530  37.195  1.00  0.00     0.020 A 
ATOM     70  C   UNL A   1      45.887  26.783  36.998  1.00  0.00     0.054 A 
BRANCH  70  71
ATOM     71  S   UNL A   1      47.141  25.712  37.754  1.00  0.00     0.124 S 
ATOM     72  O   UNL A   1      48.381  26.343  37.307  1.00  0.00    -0.237 OA
ATOM     73  O   UNL A   1      46.853  25.834  39.180  1.00  0.00    -0.237 OA
ATOM     74  O   UNL A   1      46.868  24.398  37.176  1.00  0.00    -0.744 OA
ENDBRANCH  70  71
ENDBRANCH  51  65
BRANCH  52  75
ATOM     75  C   UNL A   1      36.626  33.149  30.932  1.00  0.00    -0.014 A 
ATOM     76  C   UNL A   1      35.318  33.018  31.434  1.00  0.00     0.010 A 
ATOM     77  C   UNL A   1      36.847  33.956  29.800  1.00  0.00     0.010 A 
ATOM     78  C   UNL A   1      34.254  33.685  30.816  1.00  0.00     0.020 A 
ATOM     79  C   UNL A   1      35.790  34.641  29.195  1.00  0.00     0.020 A 
ATOM     80  C   UNL A   1      34.499  34.498  29.707  1.00  0.00     0.054 A 
BRANCH  80  81
ATOM     81  S   UNL A   1      33.119  35.429  28.983  1.00  0.00     0.124 S 
ATOM     82  O   UNL A   1      32.506  34.433  28.109  1.00  0.00    -0.237 OA
ATOM     83  O   UNL A   1      32.339  35.804  30.160  1.00  0.00    -0.237 OA
ATOM     84  O   UNL A   1      33.777  36.542  28.303  1.00  0.00    -0.744 OA
ENDBRANCH  80  81
ENDBRANCH  52  75
BRANCH  64  85
ATOM     85  C   UNL A   1      39.770  34.131  37.095  1.00  0.00    -0.014 A 
ATOM     86  C   UNL A   1      39.052  33.805  38.258  1.00  0.00     0.010 A 
ATOM     87  C   UNL A   1      40.366  35.401  36.988  1.00  0.00     0.010 A 
ATOM     88  C   UNL A   1      38.911  34.741  39.286  1.00  0.00     0.020 A 
ATOM     89  C   UNL A   1      40.250  36.331  38.024  1.00  0.00     0.020 A 
ATOM     90  C   UNL A   1      39.510  35.999  39.162  1.00  0.00     0.054 A 
BRANCH  90  91
ATOM     91  S   UNL A   1      39.355  37.180  40.530  1.00  0.00     0.124 S 
ATOM     92  O   UNL A   1      40.752  37.454  40.852  1.00  0.00    -0.237 OA
ATOM     93  O   UNL A   1      38.621  38.285  39.920  1.00  0.00    -0.237 OA
ATOM     94  O   UNL A   1      38.616  36.434  41.548  1.00  0.00    -0.744 OA
ENDBRANCH  90  91
ENDBRANCH  64  85
ENDBRANCH  38  39
ENDBRANCH  30  33
ENDBRANCH  28  29
ENDBRANCH  27  28
ENDBRANCH   1  27
TORSDOF 19
ENDMDL
MODEL 2
REMARK VINA RESULT:     -11.4      6.342     11.884
REMARK SMILES CO[C@@H]1C[C@@H](C(=O)NCCCCCCNC(=O)c2ccc(-c3c4nc(c(-c5ccc(S(=O)(=O)[O-])cc5)c5ccc([nH]5)c(-c5ccc(S(=O)(=O)[O-])cc5)c5nc(c(-c6ccc(S(=O)(=O)[O-])cc6)c6ccc3[nH]6)C=C5)C=C4)cc2)N(S(=O)(=O)c2ccc(Cl)cc2F)C1
REMARK SMILES IDX 12 1 11 2 10 3 9 4 8 5 6 6 7 7 5 9 3 10 4 11 90 12 78 13
REMARK SMILES IDX 2 14 1 15 79 16 80 17 81 18 82 19 83 20 88 21 84 22 87 23
REMARK SMILES IDX 89 24 85 25 86 26 13 27 14 28 15 29 16 30 17 32 18 33 19 34
REMARK SMILES IDX 77 35 20 36 76 37 21 38 22 39 23 40 70 41 24 42 75 43 69 44
REMARK SMILES IDX 71 45 25 46 74 47 68 48 67 49 26 51 56 52 37 53 55 54 38 55
REMARK SMILES IDX 41 56 54 57 72 58 39 59 40 60 53 62 73 63 42 64 27 65 28 66
REMARK SMILES IDX 36 67 29 68 35 69 30 70 31 71 32 72 33 73 34 74 57 75 58 76
REMARK SMILES IDX 66 77 59 78 65 79 60 80 61 81 62 82 63 83 64 84 43 85 44 86
REMARK SMILES IDX 52 87 45 88 51 89 46 90 47 91 48 92 49 93 50 94
REMARK H PARENT 8 8 15 31 71 50 41 61
REMARK Flexibility Score: inf
ROOT
ATOM      1  C   UNL A   1      33.030  30.534  27.266  1.00  0.00     0.002 C 
ENDROOT
BRANCH   1   2
ATOM      2  C   UNL A   1      31.831  29.779  26.701  1.00  0.00     0.002 C 
BRANCH   2   3
ATOM      3  C   UNL A   1      31.787  28.289  27.057  1.00  0.00     0.021 C 
BRANCH   3   4
ATOM      4  C   UNL A   1      31.363  27.359  25.919  1.00  0.00     0.116 C 
BRANCH   4   5
ATOM      5  N   UNL A   1      32.443  27.108  24.980  1.00  0.00    -0.355 N 
ATOM      6  C   UNL A   1      32.932  25.899  24.569  1.00  0.00     0.238 C 
ATOM      7  O   UNL A   1      33.937  25.893  23.858  1.00  0.00    -0.273 OA
ATOM      8  H   UNL A   1      32.874  27.905  24.594  1.00  0.00     0.163 HD
BRANCH   6   9
ATOM      9  C   UNL A   1      32.291  24.644  25.104  1.00  0.00     0.165 C 
ATOM     10  C   UNL A   1      32.135  22.797  26.568  1.00  0.00     0.135 C 
ATOM     11  C   UNL A   1      33.060  23.963  26.225  1.00  0.00     0.064 C 
ATOM     12  C   UNL A   1      31.334  22.522  25.265  1.00  0.00     0.135 C 
ATOM     13  N   UNL A   1      31.841  23.520  24.230  1.00  0.00    -0.183 NA
BRANCH  10  14
ATOM     14  O   UNL A   1      31.213  23.179  27.599  1.00  0.00    -0.380 OA
ATOM     15  C   UNL A   1      29.853  22.951  27.249  1.00  0.00     0.195 C 
ENDBRANCH  10  14
BRANCH  13  16
ATOM     16  S   UNL A   1      32.912  22.715  23.150  1.00  0.00     0.246 S 
ATOM     17  O   UNL A   1      32.355  21.410  22.845  1.00  0.00    -0.207 OA
ATOM     18  O   UNL A   1      33.129  23.646  22.064  1.00  0.00    -0.207 OA
BRANCH  16  19
ATOM     19  C   UNL A   1      34.475  22.490  23.926  1.00  0.00     0.118 A 
ATOM     20  C   UNL A   1      35.522  23.388  23.676  1.00  0.00     0.026 A 
ATOM     21  C   UNL A   1      34.734  21.323  24.633  1.00  0.00     0.144 A 
ATOM     22  C   UNL A   1      36.793  23.139  24.206  1.00  0.00     0.022 A 
ATOM     23  C   UNL A   1      35.976  21.102  25.218  1.00  0.00     0.061 A 
ATOM     24  F   UNL A   1      33.795  20.381  24.776  1.00  0.00    -0.205 F 
ATOM     25  C   UNL A   1      37.003  22.015  25.007  1.00  0.00     0.044 A 
ATOM     26  Cl  UNL A   1      38.534  21.766  25.749  1.00  0.00    -0.084 Cl
ENDBRANCH  16  19
ENDBRANCH  13  16
ENDBRANCH   6   9
ENDBRANCH   4   5
ENDBRANCH   3   4
ENDBRANCH   2   3
ENDBRANCH   1   2
BRANCH   1  27
ATOM     27  C   UNL A   1      34.405  30.004  26.874  1.00  0.00     0.021 C 
BRANCH  27  28
ATOM     28  C   UNL A   1      35.225  29.453  28.031  1.00  0.00     0.116 C 
BRANCH  28  29
ATOM     29  N   UNL A   1      35.365  30.398  29.130  1.00  0.00    -0.352 N 
ATOM     30  C   UNL A   1      36.487  30.696  29.867  1.00  0.00     0.251 C 
ATOM     31  H   UNL A   1      34.548  30.888  29.378  1.00  0.00     0.163 HD
ATOM     32  O   UNL A   1      36.411  31.439  30.839  1.00  0.00    -0.269 OA
BRANCH  30  33
ATOM     33  C   UNL A   1      37.778  30.079  29.495  1.00  0.00     0.039 A 
ATOM     34  C   UNL A   1      38.149  30.040  28.149  1.00  0.00     0.014 A 
ATOM     35  C   UNL A   1      38.641  29.592  30.480  1.00  0.00     0.014 A 
ATOM     36  C   UNL A   1      39.418  29.576  27.798  1.00  0.00     0.010 A 
ATOM     37  C   UNL A   1      39.935  29.218  30.137  1.00  0.00     0.010 A 
ATOM     38  C   UNL A   1      40.336  29.199  28.792  1.00  0.00    -0.014 A 
BRANCH  38  39
ATOM     39  C   UNL A   1      41.719  28.780  28.455  1.00  0.00     0.031 A 
ATOM     40  C   UNL A   1      42.817  29.805  28.376  1.00  0.00     0.074 A 
ATOM     41  C   UNL A   1      41.967  27.497  28.123  1.00  0.00     0.049 A 
ATOM     42  N   UNL A   1      44.066  29.650  28.020  1.00  0.00    -0.248 NA
ATOM     43  C   UNL A   1      42.453  31.193  28.703  1.00  0.00     0.031 C 
ATOM     44  C   UNL A   1      40.972  26.422  28.088  1.00  0.00     0.029 A 
ATOM     45  N   UNL A   1      43.132  26.883  27.736  1.00  0.00    -0.354 N 
ATOM     46  C   UNL A   1      44.626  30.923  28.043  1.00  0.00     0.074 A 
ATOM     47  C   UNL A   1      43.567  31.843  28.400  1.00  0.00     0.031 C 
ATOM     48  C   UNL A   1      41.573  25.280  27.718  1.00  0.00     0.029 A 
ATOM     49  C   UNL A   1      42.984  25.545  27.456  1.00  0.00     0.049 A 
ATOM     50  H   UNL A   1      43.993  27.355  27.665  1.00  0.00     0.167 HD
ATOM     51  C   UNL A   1      45.907  31.292  27.807  1.00  0.00     0.031 A 
ATOM     52  C   UNL A   1      43.881  24.633  27.031  1.00  0.00     0.031 A 
ATOM     53  C   UNL A   1      46.960  30.370  27.479  1.00  0.00     0.049 A 
ATOM     54  C   UNL A   1      45.308  25.051  26.825  1.00  0.00     0.074 A 
ATOM     55  C   UNL A   1      48.309  30.627  27.315  1.00  0.00     0.029 A 
ATOM     56  N   UNL A   1      46.781  29.012  27.263  1.00  0.00    -0.354 N 
ATOM     57  N   UNL A   1      45.841  26.244  26.948  1.00  0.00    -0.248 NA
ATOM     58  C   UNL A   1      46.260  24.000  26.443  1.00  0.00     0.031 C 
ATOM     59  C   UNL A   1      48.939  29.432  26.950  1.00  0.00     0.029 A 
ATOM     60  C   UNL A   1      47.991  28.420  26.941  1.00  0.00     0.049 A 
ATOM     61  H   UNL A   1      45.921  28.538  27.329  1.00  0.00     0.167 HD
ATOM     62  C   UNL A   1      47.195  26.084  26.674  1.00  0.00     0.074 A 
ATOM     63  C   UNL A   1      47.401  24.677  26.397  1.00  0.00     0.031 C 
ATOM     64  C   UNL A   1      48.177  27.019  26.657  1.00  0.00     0.031 A 
BRANCH  51  65
ATOM     65  C   UNL A   1      46.225  32.763  27.881  1.00  0.00    -0.014 A 
ATOM     66  C   UNL A   1      46.166  33.586  26.741  1.00  0.00     0.010 A 
ATOM     67  C   UNL A   1      46.599  33.332  29.113  1.00  0.00     0.010 A 
ATOM     68  C   UNL A   1      46.537  34.930  26.815  1.00  0.00     0.020 A 
ATOM     69  C   UNL A   1      46.940  34.684  29.199  1.00  0.00     0.020 A 
ATOM     70  C   UNL A   1      46.933  35.468  28.043  1.00  0.00     0.054 A 
BRANCH  70  71
ATOM     71  S   UNL A   1      47.429  37.212  28.111  1.00  0.00     0.124 S 
ATOM     72  O   UNL A   1      46.135  37.890  28.131  1.00  0.00    -0.237 OA
ATOM     73  O   UNL A   1      48.193  37.282  29.354  1.00  0.00    -0.237 OA
ATOM     74  O   UNL A   1      48.211  37.397  26.890  1.00  0.00    -0.744 OA
ENDBRANCH  70  71
ENDBRANCH  51  65
BRANCH  52  75
ATOM     75  C   UNL A   1      43.440  23.231  26.798  1.00  0.00    -0.014 A 
ATOM     76  C   UNL A   1      43.564  22.646  25.525  1.00  0.00     0.010 A 
ATOM     77  C   UNL A   1      42.956  22.453  27.865  1.00  0.00     0.010 A 
ATOM     78  C   UNL A   1      43.213  21.307  25.326  1.00  0.00     0.020 A 
ATOM     79  C   UNL A   1      42.626  21.108  27.674  1.00  0.00     0.020 A 
ATOM     80  C   UNL A   1      42.755  20.545  26.404  1.00  0.00     0.054 A 
BRANCH  80  81
ATOM     81  S   UNL A   1      42.397  18.784  26.142  1.00  0.00     0.124 S 
ATOM     82  O   UNL A   1      40.992  18.814  25.750  1.00  0.00    -0.237 OA
ATOM     83  O   UNL A   1      43.342  18.424  25.087  1.00  0.00    -0.237 OA
ATOM     84  O   UNL A   1      42.673  18.183  27.444  1.00  0.00    -0.744 OA
ENDBRANCH  80  81
ENDBRANCH  52  75
BRANCH  64  85
ATOM     85  C   UNL A   1      49.573  26.551  26.344  1.00  0.00    -0.014 A 
ATOM     86  C   UNL A   1      50.389  25.983  27.338  1.00  0.00     0.010 A 
ATOM     87  C   UNL A   1      50.049  26.624  25.022  1.00  0.00     0.010 A 
ATOM     88  C   UNL A   1      51.668  25.520  27.021  1.00  0.00     0.020 A 
ATOM     89  C   UNL A   1      51.317  26.138  24.696  1.00  0.00     0.020 A 
ATOM     90  C   UNL A   1      52.125  25.601  25.701  1.00  0.00     0.054 A 
BRANCH  90  91
ATOM     91  S   UNL A   1      53.769  24.947  25.304  1.00  0.00     0.124 S 
ATOM     92  O   UNL A   1      54.095  25.672  24.079  1.00  0.00    -0.237 OA
ATOM     93  O   UNL A   1      54.554  25.314  26.480  1.00  0.00    -0.237 OA
ATOM     94  O   UNL A   1      53.540  23.513  25.137  1.00  0.00    -0.744 OA
ENDBRANCH  90  91
ENDBRANCH  64  85
ENDBRANCH  38  39
ENDBRANCH  30  33
ENDBRANCH  28  29
ENDBRANCH  27  28
ENDBRANCH   1  27
TORSDOF 19
ENDMDL
MODEL 3
REMARK VINA RESULT:     -11.1      6.159     11.918
REMARK SMILES CO[C@@H]1C[C@@H](C(=O)NCCCCCCNC(=O)c2ccc(-c3c4nc(c(-c5ccc(S(=O)(=O)[O-])cc5)c5ccc([nH]5)c(-c5ccc(S(=O)(=O)[O-])cc5)c5nc(c(-c6ccc(S(=O)(=O)[O-])cc6)c6ccc3[nH]6)C=C5)C=C4)cc2)N(S(=O)(=O)c2ccc(Cl)cc2F)C1
REMARK SMILES IDX 12 1 11 2 10 3 9 4 8 5 6 6 7 7 5 9 3 10 4 11 90 12 78 13
REMARK SMILES IDX 2 14 1 15 79 16 80 17 81 18 82 19 83 20 88 21 84 22 87 23
REMARK SMILES IDX 89 24 85 25 86 26 13 27 14 28 15 29 16 30 17 32 18 33 19 34
REMARK SMILES IDX 77 35 20 36 76 37 21 38 22 39 23 40 70 41 24 42 75 43 69 44
REMARK SMILES IDX 71 45 25 46 74 47 68 48 67 49 26 51 56 52 37 53 55 54 38 55
REMARK SMILES IDX 41 56 54 57 72 58 39 59 40 60 53 62 73 63 42 64 27 65 28 66
REMARK SMILES IDX 36 67 29 68 35 69 30 70 31 71 32 72 33 73 34 74 57 75 58 76
REMARK SMILES IDX 66 77 59 78 65 79 60 80 61 81 62 82 63 83 64 84 43 85 44 86
REMARK SMILES IDX 52 87 45 88 51 89 46 90 47 91 48 92 49 93 50 94
REMARK H PARENT 8 8 15 31 71 50 41 61
REMARK Flexibility Score: inf
ROOT
ATOM      1  C   UNL A   1      34.568  33.642  28.450  1.00  0.00     0.002 C 
ENDROOT
BRANCH   1   2
ATOM      2  C   UNL A   1      33.393  32.889  27.834  1.00  0.00     0.002 C 
BRANCH   2   3
ATOM      3  C   UNL A   1      33.604  31.378  27.692  1.00  0.00     0.021 C 
BRANCH   3   4
ATOM      4  C   UNL A   1      32.516  30.638  26.913  1.00  0.00     0.116 C 
BRANCH   4   5
ATOM      5  N   UNL A   1      32.270  29.306  27.438  1.00  0.00    -0.355 N 
ATOM      6  C   UNL A   1      31.713  28.239  26.789  1.00  0.00     0.238 C 
ATOM      7  O   UNL A   1      31.474  27.224  27.444  1.00  0.00    -0.273 OA
ATOM      8  H   UNL A   1      32.536  29.155  28.374  1.00  0.00     0.163 HD
BRANCH   6   9
ATOM      9  C   UNL A   1      31.313  28.403  25.345  1.00  0.00     0.165 C 
ATOM     10  C   UNL A   1      30.392  27.664  23.299  1.00  0.00     0.135 C 
ATOM     11  C   UNL A   1      30.743  27.152  24.695  1.00  0.00     0.064 C 
ATOM     12  C   UNL A   1      31.350  28.863  23.058  1.00  0.00     0.135 C 
ATOM     13  N   UNL A   1      32.218  28.978  24.306  1.00  0.00    -0.183 NA
BRANCH  10  14
ATOM     14  O   UNL A   1      29.041  28.146  23.270  1.00  0.00    -0.380 OA
ATOM     15  C   UNL A   1      28.847  29.219  22.355  1.00  0.00     0.195 C 
ENDBRANCH  10  14
BRANCH  13  16
ATOM     16  S   UNL A   1      33.771  28.314  23.977  1.00  0.00     0.246 S 
ATOM     17  O   UNL A   1      34.177  28.745  22.652  1.00  0.00    -0.207 OA
ATOM     18  O   UNL A   1      34.592  28.684  25.108  1.00  0.00    -0.207 OA
BRANCH  16  19
ATOM     19  C   UNL A   1      33.676  26.557  23.990  1.00  0.00     0.118 A 
ATOM     20  C   UNL A   1      34.002  25.843  25.151  1.00  0.00     0.026 A 
ATOM     21  C   UNL A   1      33.466  25.867  22.803  1.00  0.00     0.144 A 
ATOM     22  C   UNL A   1      34.034  24.443  25.121  1.00  0.00     0.022 A 
ATOM     23  C   UNL A   1      33.433  24.477  22.781  1.00  0.00     0.061 A 
ATOM     24  F   UNL A   1      33.286  26.519  21.649  1.00  0.00    -0.205 F 
ATOM     25  C   UNL A   1      33.712  23.767  23.944  1.00  0.00     0.044 A 
ATOM     26  Cl  UNL A   1      33.644  22.049  23.933  1.00  0.00    -0.084 Cl
ENDBRANCH  16  19
ENDBRANCH  13  16
ENDBRANCH   6   9
ENDBRANCH   4   5
ENDBRANCH   3   4
ENDBRANCH   2   3
ENDBRANCH   1   2
BRANCH   1  27
ATOM     27  C   UNL A   1      35.957  33.100  28.132  1.00  0.00     0.021 C 
BRANCH  27  28
ATOM     28  C   UNL A   1      36.863  32.930  29.341  1.00  0.00     0.116 C 
BRANCH  28  29
ATOM     29  N   UNL A   1      36.238  32.179  30.421  1.00  0.00    -0.352 N 
ATOM     30  C   UNL A   1      36.631  30.983  30.973  1.00  0.00     0.251 C 
ATOM     31  H   UNL A   1      35.426  32.582  30.806  1.00  0.00     0.163 HD
ATOM     32  O   UNL A   1      35.925  30.424  31.807  1.00  0.00    -0.269 OA
BRANCH  30  33
ATOM     33  C   UNL A   1      37.893  30.361  30.523  1.00  0.00     0.039 A 
ATOM     34  C   UNL A   1      38.108  30.175  29.155  1.00  0.00     0.014 A 
ATOM     35  C   UNL A   1      38.882  30.012  31.446  1.00  0.00     0.014 A 
ATOM     36  C   UNL A   1      39.344  29.706  28.710  1.00  0.00     0.010 A 
ATOM     37  C   UNL A   1      40.141  29.633  30.996  1.00  0.00     0.010 A 
ATOM     38  C   UNL A   1      40.385  29.469  29.624  1.00  0.00    -0.014 A 
BRANCH  38  39
ATOM     39  C   UNL A   1      41.735  29.049  29.173  1.00  0.00     0.031 A 
ATOM     40  C   UNL A   1      42.848  30.058  29.089  1.00  0.00     0.074 A 
ATOM     41  C   UNL A   1      41.935  27.785  28.747  1.00  0.00     0.049 A 
ATOM     42  N   UNL A   1      44.068  29.904  28.645  1.00  0.00    -0.248 NA
ATOM     43  C   UNL A   1      42.535  31.428  29.525  1.00  0.00     0.031 C 
ATOM     44  C   UNL A   1      40.917  26.732  28.708  1.00  0.00     0.029 A 
ATOM     45  N   UNL A   1      43.059  27.177  28.249  1.00  0.00    -0.354 N 
ATOM     46  C   UNL A   1      44.655  31.163  28.712  1.00  0.00     0.074 A 
ATOM     47  C   UNL A   1      43.641  32.076  29.193  1.00  0.00     0.031 C 
ATOM     48  C   UNL A   1      41.469  25.606  28.229  1.00  0.00     0.029 A 
ATOM     49  C   UNL A   1      42.866  25.863  27.895  1.00  0.00     0.049 A 
ATOM     50  H   UNL A   1      43.924  27.639  28.152  1.00  0.00     0.167 HD
ATOM     51  C   UNL A   1      45.926  31.525  28.419  1.00  0.00     0.031 A 
ATOM     52  C   UNL A   1      43.714  24.965  27.357  1.00  0.00     0.031 A 
ATOM     53  C   UNL A   1      46.938  30.607  27.968  1.00  0.00     0.049 A 
ATOM     54  C   UNL A   1      45.135  25.370  27.088  1.00  0.00     0.074 A 
ATOM     55  C   UNL A   1      48.278  30.851  27.734  1.00  0.00     0.029 A 
ATOM     56  N   UNL A   1      46.716  29.268  27.679  1.00  0.00    -0.354 N 
ATOM     57  N   UNL A   1      45.699  26.543  27.252  1.00  0.00    -0.248 NA
ATOM     58  C   UNL A   1      46.038  24.329  26.581  1.00  0.00     0.031 C 
ATOM     59  C   UNL A   1      48.859  29.671  27.256  1.00  0.00     0.029 A 
ATOM     60  C   UNL A   1      47.891  28.678  27.243  1.00  0.00     0.049 A 
ATOM     61  H   UNL A   1      45.852  28.807  27.769  1.00  0.00     0.167 HD
ATOM     62  C   UNL A   1      47.030  26.378  26.882  1.00  0.00     0.074 A 
ATOM     63  C   UNL A   1      47.188  24.988  26.504  1.00  0.00     0.031 C 
ATOM     64  C   UNL A   1      48.029  27.295  26.861  1.00  0.00     0.031 A 
BRANCH  51  65
ATOM     65  C   UNL A   1      46.281  32.982  28.565  1.00  0.00    -0.014 A 
ATOM     66  C   UNL A   1      46.096  33.892  27.507  1.00  0.00     0.010 A 
ATOM     67  C   UNL A   1      46.815  33.449  29.780  1.00  0.00     0.010 A 
ATOM     68  C   UNL A   1      46.500  35.222  27.637  1.00  0.00     0.020 A 
ATOM     69  C   UNL A   1      47.191  34.787  29.926  1.00  0.00     0.020 A 
ATOM     70  C   UNL A   1      47.055  35.659  28.843  1.00  0.00     0.054 A 
BRANCH  70  71
ATOM     71  S   UNL A   1      47.590  37.387  28.981  1.00  0.00     0.124 S 
ATOM     72  O   UNL A   1      46.796  37.856  30.115  1.00  0.00    -0.237 OA
ATOM     73  O   UNL A   1      49.024  37.263  29.229  1.00  0.00    -0.237 OA
ATOM     74  O   UNL A   1      47.231  37.964  27.688  1.00  0.00    -0.744 OA
ENDBRANCH  70  71
ENDBRANCH  51  65
BRANCH  52  75
ATOM     75  C   UNL A   1      43.231  23.589  27.065  1.00  0.00    -0.014 A 
ATOM     76  C   UNL A   1      42.973  23.188  25.742  1.00  0.00     0.010 A 
ATOM     77  C   UNL A   1      43.089  22.651  28.105  1.00  0.00     0.010 A 
ATOM     78  C   UNL A   1      42.583  21.873  25.465  1.00  0.00     0.020 A 
ATOM     79  C   UNL A   1      42.723  21.331  27.828  1.00  0.00     0.020 A 
ATOM     80  C   UNL A   1      42.470  20.951  26.509  1.00  0.00     0.054 A 
BRANCH  80  81
ATOM     81  S   UNL A   1      42.059  19.228  26.114  1.00  0.00     0.124 S 
ATOM     82  O   UNL A   1      42.460  18.532  27.332  1.00  0.00    -0.237 OA
ATOM     83  O   UNL A   1      40.620  19.296  25.868  1.00  0.00    -0.237 OA
ATOM     84  O   UNL A   1      42.871  18.946  24.933  1.00  0.00    -0.744 OA
ENDBRANCH  80  81
ENDBRANCH  52  75
BRANCH  64  85
ATOM     85  C   UNL A   1      49.392  26.824  26.431  1.00  0.00    -0.014 A 
ATOM     86  C   UNL A   1      50.238  26.139  27.321  1.00  0.00     0.010 A 
ATOM     87  C   UNL A   1      49.804  27.015  25.100  1.00  0.00     0.010 A 
ATOM     88  C   UNL A   1      51.485  25.676  26.893  1.00  0.00     0.020 A 
ATOM     89  C   UNL A   1      51.039  26.531  24.662  1.00  0.00     0.020 A 
ATOM     90  C   UNL A   1      51.878  25.875  25.566  1.00  0.00     0.054 A 
BRANCH  90  91
ATOM     91  S   UNL A   1      53.480  25.221  25.021  1.00  0.00     0.124 S 
ATOM     92  O   UNL A   1      53.333  23.795  25.295  1.00  0.00    -0.237 OA
ATOM     93  O   UNL A   1      53.514  25.590  23.608  1.00  0.00    -0.237 OA
ATOM     94  O   UNL A   1      54.445  25.923  25.866  1.00  0.00    -0.744 OA
ENDBRANCH  90  91
ENDBRANCH  64  85
ENDBRANCH  38  39
ENDBRANCH  30  33
ENDBRANCH  28  29
ENDBRANCH  27  28
ENDBRANCH   1  27
TORSDOF 19
ENDMDL
