MODEL 1
REMARK VINA RESULT:      -9.6      0.000      0.000
REMARK SMILES O=C(Cc1ccccc1F)NC[C@@H]1CC[C@@H](C(=O)NCCCCCCNC(=O)c2ccc(-c3c4nc(c(-c5ccc(S(=O)(=O)[O-])cc5)c5ccc([nH]5)c(-c5ccc(S(=O)(=O)[O-])cc5)c5nc(c(-c6ccc(S(=O)(=O)[O-])cc6)c6ccc3[nH]6)C=C5)C=C4)cc2)O1
REMARK SMILES IDX 22 1 21 2 20 3 19 4 17 5 18 6 16 8 13 9 14 10 89 11 15 12
REMARK SMILES IDX 12 13 11 14 1 15 2 16 3 18 4 19 5 20 9 21 6 22 8 23 10 24
REMARK SMILES IDX 7 25 23 26 24 27 25 28 26 29 27 30 28 32 29 33 30 34 88 35
REMARK SMILES IDX 31 36 87 37 32 38 33 39 34 40 81 41 35 42 86 43 80 44 82 45
REMARK SMILES IDX 36 46 85 47 79 48 78 49 37 51 67 52 48 53 66 54 49 55 52 56
REMARK SMILES IDX 65 57 83 58 50 59 51 60 64 62 84 63 53 64 38 65 39 66 47 67
REMARK SMILES IDX 40 68 46 69 41 70 42 71 43 72 44 73 45 74 68 75 69 76 77 77
REMARK SMILES IDX 70 78 76 79 71 80 72 81 73 82 74 83 75 84 54 85 55 86 63 87
REMARK SMILES IDX 56 88 62 89 57 90 58 91 59 92 60 93 61 94
REMARK H PARENT 19 7 11 17 26 31 82 50 52 61
REMARK Flexibility Score: inf
ROOT
ATOM      1  C   UNL A   1      42.755  22.732  27.576  1.00  0.00     0.002 C 
ENDROOT
BRANCH   1   2
ATOM      2  C   UNL A   1      42.163  21.342  27.837  1.00  0.00     0.021 C 
BRANCH   2   3
ATOM      3  C   UNL A   1      41.613  20.672  26.582  1.00  0.00     0.116 C 
BRANCH   3   4
ATOM      4  N   UNL A   1      41.833  19.242  26.597  1.00  0.00    -0.354 N 
ATOM      5  C   UNL A   1      42.698  18.480  25.868  1.00  0.00     0.249 C 
ATOM      6  O   UNL A   1      42.644  17.255  26.022  1.00  0.00    -0.272 OA
ATOM      7  H   UNL A   1      41.272  18.740  27.233  1.00  0.00     0.163 HD
BRANCH   5   8
ATOM      8  C   UNL A   1      43.794  19.109  24.982  1.00  0.00     0.207 C 
ATOM      9  C   UNL A   1      45.319  20.857  25.246  1.00  0.00     0.138 C 
ATOM     10  C   UNL A   1      46.112  19.608  24.911  1.00  0.00     0.037 C 
ATOM     11  O   UNL A   1      43.945  20.530  24.960  1.00  0.00    -0.363 OA
ATOM     12  C   UNL A   1      45.155  18.529  25.358  1.00  0.00     0.045 C 
BRANCH   9  13
ATOM     13  C   UNL A   1      45.748  22.158  24.565  1.00  0.00     0.147 C 
BRANCH  13  14
ATOM     14  N   UNL A   1      46.147  23.191  25.496  1.00  0.00    -0.353 N 
ATOM     15  O   UNL A   1      44.820  24.868  24.654  1.00  0.00    -0.275 OA
ATOM     16  C   UNL A   1      45.646  24.473  25.471  1.00  0.00     0.224 C 
ATOM     17  H   UNL A   1      46.813  22.965  26.185  1.00  0.00     0.163 HD
BRANCH  16  18
ATOM     18  C   UNL A   1      46.249  25.398  26.514  1.00  0.00     0.138 C 
BRANCH  18  19
ATOM     19  C   UNL A   1      45.466  25.438  27.804  1.00  0.00    -0.003 A 
ATOM     20  C   UNL A   1      45.648  24.447  28.779  1.00  0.00     0.007 A 
ATOM     21  C   UNL A   1      44.590  26.492  28.077  1.00  0.00     0.126 A 
ATOM     22  C   UNL A   1      44.973  24.527  30.000  1.00  0.00     0.001 A 
ATOM     23  C   UNL A   1      43.911  26.573  29.289  1.00  0.00     0.039 A 
ATOM     24  F   UNL A   1      44.418  27.471  27.176  1.00  0.00    -0.207 F 
ATOM     25  C   UNL A   1      44.106  25.589  30.255  1.00  0.00     0.003 A 
ENDBRANCH  18  19
ENDBRANCH  16  18
ENDBRANCH  13  14
ENDBRANCH   9  13
ENDBRANCH   5   8
ENDBRANCH   3   4
ENDBRANCH   2   3
ENDBRANCH   1   2
BRANCH   1  26
ATOM     26  C   UNL A   1      41.847  23.682  26.784  1.00  0.00     0.002 C 
BRANCH  26  27
ATOM     27  C   UNL A   1      40.547  24.080  27.489  1.00  0.00     0.021 C 
BRANCH  27  28
ATOM     28  C   UNL A   1      39.823  25.263  26.857  1.00  0.00     0.116 C 
BRANCH  28  29
ATOM     29  N   UNL A   1      40.700  26.023  25.981  1.00  0.00    -0.352 N 
ATOM     30  C   UNL A   1      41.233  27.273  26.158  1.00  0.00     0.251 C 
ATOM     31  H   UNL A   1      40.945  25.576  25.139  1.00  0.00     0.163 HD
ATOM     32  O   UNL A   1      41.771  27.845  25.210  1.00  0.00    -0.269 OA
BRANCH  30  33
ATOM     33  C   UNL A   1      41.157  27.935  27.477  1.00  0.00     0.039 A 
ATOM     34  C   UNL A   1      40.475  27.299  28.517  1.00  0.00     0.014 A 
ATOM     35  C   UNL A   1      41.720  29.200  27.678  1.00  0.00     0.014 A 
ATOM     36  C   UNL A   1      40.381  27.916  29.765  1.00  0.00     0.010 A 
ATOM     37  C   UNL A   1      41.688  29.781  28.943  1.00  0.00     0.010 A 
ATOM     38  C   UNL A   1      40.998  29.156  29.993  1.00  0.00    -0.014 A 
BRANCH  38  39
ATOM     39  C   UNL A   1      40.889  29.842  31.305  1.00  0.00     0.031 A 
ATOM     40  C   UNL A   1      41.932  29.600  32.365  1.00  0.00     0.074 A 
ATOM     41  C   UNL A   1      39.835  30.642  31.561  1.00  0.00     0.049 A 
ATOM     42  N   UNL A   1      41.988  30.060  33.588  1.00  0.00    -0.248 NA
ATOM     43  C   UNL A   1      43.046  28.703  32.010  1.00  0.00     0.031 C 
ATOM     44  C   UNL A   1      38.743  30.931  30.629  1.00  0.00     0.029 A 
ATOM     45  N   UNL A   1      39.511  31.358  32.686  1.00  0.00    -0.354 N 
ATOM     46  C   UNL A   1      43.126  29.494  34.153  1.00  0.00     0.074 A 
ATOM     47  C   UNL A   1      43.701  28.617  33.158  1.00  0.00     0.031 C 
ATOM     48  C   UNL A   1      37.884  31.784  31.212  1.00  0.00     0.029 A 
ATOM     49  C   UNL A   1      38.341  32.072  32.567  1.00  0.00     0.049 A 
ATOM     50  H   UNL A   1      40.062  31.359  33.502  1.00  0.00     0.167 HD
ATOM     51  C   UNL A   1      43.659  29.702  35.381  1.00  0.00     0.031 A 
ATOM     52  C   UNL A   1      37.709  32.868  33.451  1.00  0.00     0.031 A 
ATOM     53  C   UNL A   1      43.094  30.589  36.362  1.00  0.00     0.049 A 
ATOM     54  C   UNL A   1      38.320  33.085  34.809  1.00  0.00     0.074 A 
ATOM     55  C   UNL A   1      43.580  30.907  37.618  1.00  0.00     0.029 A 
ATOM     56  N   UNL A   1      41.919  31.307  36.194  1.00  0.00    -0.354 N 
ATOM     57  N   UNL A   1      39.424  32.581  35.306  1.00  0.00    -0.248 NA
ATOM     58  C   UNL A   1      37.608  33.993  35.719  1.00  0.00     0.031 C 
ATOM     59  C   UNL A   1      42.676  31.782  38.228  1.00  0.00     0.029 A 
ATOM     60  C   UNL A   1      41.657  32.055  37.330  1.00  0.00     0.049 A 
ATOM     61  H   UNL A   1      41.354  31.287  35.388  1.00  0.00     0.167 HD
ATOM     62  C   UNL A   1      39.557  33.138  36.574  1.00  0.00     0.074 A 
ATOM     63  C   UNL A   1      38.426  34.024  36.761  1.00  0.00     0.031 C 
ATOM     64  C   UNL A   1      40.531  32.939  37.496  1.00  0.00     0.031 A 
BRANCH  51  65
ATOM     65  C   UNL A   1      44.918  28.952  35.730  1.00  0.00    -0.014 A 
ATOM     66  C   UNL A   1      46.185  29.541  35.561  1.00  0.00     0.010 A 
ATOM     67  C   UNL A   1      44.834  27.652  36.260  1.00  0.00     0.010 A 
ATOM     68  C   UNL A   1      47.345  28.827  35.873  1.00  0.00     0.020 A 
ATOM     69  C   UNL A   1      45.992  26.946  36.602  1.00  0.00     0.020 A 
ATOM     70  C   UNL A   1      47.242  27.532  36.388  1.00  0.00     0.054 A 
BRANCH  70  71
ATOM     71  S   UNL A   1      48.763  26.636  36.801  1.00  0.00     0.124 S 
ATOM     72  O   UNL A   1      48.758  25.562  35.811  1.00  0.00    -0.237 OA
ATOM     73  O   UNL A   1      49.795  27.653  36.617  1.00  0.00    -0.237 OA
ATOM     74  O   UNL A   1      48.552  26.211  38.183  1.00  0.00    -0.744 OA
ENDBRANCH  70  71
ENDBRANCH  51  65
BRANCH  52  75
ATOM     75  C   UNL A   1      36.437  33.540  33.069  1.00  0.00    -0.014 A 
ATOM     76  C   UNL A   1      36.434  34.886  32.661  1.00  0.00     0.010 A 
ATOM     77  C   UNL A   1      35.221  32.835  33.102  1.00  0.00     0.010 A 
ATOM     78  C   UNL A   1      35.237  35.520  32.317  1.00  0.00     0.020 A 
ATOM     79  C   UNL A   1      34.025  33.458  32.732  1.00  0.00     0.020 A 
ATOM     80  C   UNL A   1      34.040  34.801  32.354  1.00  0.00     0.054 A 
BRANCH  80  81
ATOM     81  S   UNL A   1      32.503  35.631  31.860  1.00  0.00     0.124 S 
ATOM     82  O   UNL A   1      31.519  34.984  32.719  1.00  0.00    -0.237 OA
ATOM     83  O   UNL A   1      32.789  37.031  32.165  1.00  0.00    -0.237 OA
ATOM     84  O   UNL A   1      32.393  35.324  30.436  1.00  0.00    -0.744 OA
ENDBRANCH  80  81
ENDBRANCH  52  75
BRANCH  64  85
ATOM     85  C   UNL A   1      40.447  33.728  38.775  1.00  0.00    -0.014 A 
ATOM     86  C   UNL A   1      40.987  35.022  38.875  1.00  0.00     0.010 A 
ATOM     87  C   UNL A   1      39.767  33.181  39.879  1.00  0.00     0.010 A 
ATOM     88  C   UNL A   1      40.877  35.742  40.068  1.00  0.00     0.020 A 
ATOM     89  C   UNL A   1      39.630  33.909  41.063  1.00  0.00     0.020 A 
ATOM     90  C   UNL A   1      40.200  35.180  41.155  1.00  0.00     0.054 A 
BRANCH  90  91
ATOM     91  S   UNL A   1      40.034  36.149  42.679  1.00  0.00     0.124 S 
ATOM     92  O   UNL A   1      38.627  35.949  43.013  1.00  0.00    -0.237 OA
ATOM     93  O   UNL A   1      40.990  35.505  43.576  1.00  0.00    -0.237 OA
ATOM     94  O   UNL A   1      40.390  37.506  42.268  1.00  0.00    -0.744 OA
ENDBRANCH  90  91
ENDBRANCH  64  85
ENDBRANCH  38  39
ENDBRANCH  30  33
ENDBRANCH  28  29
ENDBRANCH  27  28
ENDBRANCH  26  27
ENDBRANCH   1  26
TORSDOF 20
ENDMDL
MODEL 2
REMARK VINA RESULT:      -8.8      0.846      8.141
REMARK SMILES O=C(Cc1ccccc1F)NC[C@@H]1CC[C@@H](C(=O)NCCCCCCNC(=O)c2ccc(-c3c4nc(c(-c5ccc(S(=O)(=O)[O-])cc5)c5ccc([nH]5)c(-c5ccc(S(=O)(=O)[O-])cc5)c5nc(c(-c6ccc(S(=O)(=O)[O-])cc6)c6ccc3[nH]6)C=C5)C=C4)cc2)O1
REMARK SMILES IDX 22 1 21 2 20 3 19 4 17 5 18 6 16 8 13 9 14 10 89 11 15 12
REMARK SMILES IDX 12 13 11 14 1 15 2 16 3 18 4 19 5 20 9 21 6 22 8 23 10 24
REMARK SMILES IDX 7 25 23 26 24 27 25 28 26 29 27 30 28 32 29 33 30 34 88 35
REMARK SMILES IDX 31 36 87 37 32 38 33 39 34 40 81 41 35 42 86 43 80 44 82 45
REMARK SMILES IDX 36 46 85 47 79 48 78 49 37 51 67 52 48 53 66 54 49 55 52 56
REMARK SMILES IDX 65 57 83 58 50 59 51 60 64 62 84 63 53 64 38 65 39 66 47 67
REMARK SMILES IDX 40 68 46 69 41 70 42 71 43 72 44 73 45 74 68 75 69 76 77 77
REMARK SMILES IDX 70 78 76 79 71 80 72 81 73 82 74 83 75 84 54 85 55 86 63 87
REMARK SMILES IDX 56 88 62 89 57 90 58 91 59 92 60 93 61 94
REMARK H PARENT 19 7 11 17 26 31 82 50 52 61
REMARK Flexibility Score: inf
ROOT
ATOM      1  C   UNL A   1      43.162  22.882  27.537  1.00  0.00     0.002 C 
ENDROOT
BRANCH   1   2
ATOM      2  C   UNL A   1      42.263  21.650  27.693  1.00  0.00     0.021 C 
BRANCH   2   3
ATOM      3  C   UNL A   1      41.866  21.017  26.363  1.00  0.00     0.116 C 
BRANCH   3   4
ATOM      4  N   UNL A   1      42.023  19.578  26.386  1.00  0.00    -0.354 N 
ATOM      5  C   UNL A   1      42.871  18.777  25.681  1.00  0.00     0.249 C 
ATOM      6  O   UNL A   1      42.759  17.556  25.835  1.00  0.00    -0.272 OA
ATOM      7  H   UNL A   1      41.425  19.104  27.009  1.00  0.00     0.163 HD
BRANCH   5   8
ATOM      8  C   UNL A   1      44.016  19.355  24.821  1.00  0.00     0.207 C 
ATOM      9  C   UNL A   1      45.459  21.178  25.016  1.00  0.00     0.138 C 
ATOM     10  C   UNL A   1      46.315  19.934  24.877  1.00  0.00     0.037 C 
ATOM     11  O   UNL A   1      44.123  20.771  24.661  1.00  0.00    -0.363 OA
ATOM     12  C   UNL A   1      45.359  18.870  25.360  1.00  0.00     0.045 C 
BRANCH   9  13
ATOM     13  C   UNL A   1      45.901  22.419  24.237  1.00  0.00     0.147 C 
BRANCH  13  14
ATOM     14  N   UNL A   1      46.356  23.500  25.085  1.00  0.00    -0.353 N 
ATOM     15  O   UNL A   1      44.718  25.013  24.527  1.00  0.00    -0.275 OA
ATOM     16  C   UNL A   1      45.722  24.719  25.168  1.00  0.00     0.224 C 
ATOM     17  H   UNL A   1      47.161  23.355  25.632  1.00  0.00     0.163 HD
BRANCH  16  18
ATOM     18  C   UNL A   1      46.409  25.717  26.086  1.00  0.00     0.138 C 
BRANCH  18  19
ATOM     19  C   UNL A   1      45.765  25.819  27.448  1.00  0.00    -0.003 A 
ATOM     20  C   UNL A   1      44.803  26.804  27.709  1.00  0.00     0.007 A 
ATOM     21  C   UNL A   1      46.072  24.899  28.455  1.00  0.00     0.126 A 
ATOM     22  C   UNL A   1      44.160  26.851  28.947  1.00  0.00     0.001 A 
ATOM     23  C   UNL A   1      45.437  24.944  29.693  1.00  0.00     0.039 A 
ATOM     24  F   UNL A   1      46.966  23.926  28.224  1.00  0.00    -0.207 F 
ATOM     25  C   UNL A   1      44.475  25.922  29.939  1.00  0.00     0.003 A 
ENDBRANCH  18  19
ENDBRANCH  16  18
ENDBRANCH  13  14
ENDBRANCH   9  13
ENDBRANCH   5   8
ENDBRANCH   3   4
ENDBRANCH   2   3
ENDBRANCH   1   2
BRANCH   1  26
ATOM     26  C   UNL A   1      42.529  24.052  26.774  1.00  0.00     0.002 C 
BRANCH  26  27
ATOM     27  C   UNL A   1      41.369  24.748  27.493  1.00  0.00     0.021 C 
BRANCH  27  28
ATOM     28  C   UNL A   1      40.442  25.539  26.577  1.00  0.00     0.116 C 
BRANCH  28  29
ATOM     29  N   UNL A   1      41.186  26.432  25.703  1.00  0.00    -0.352 N 
ATOM     30  C   UNL A   1      41.541  27.740  25.899  1.00  0.00     0.251 C 
ATOM     31  H   UNL A   1      41.474  26.041  24.847  1.00  0.00     0.163 HD
ATOM     32  O   UNL A   1      41.974  28.402  24.956  1.00  0.00    -0.269 OA
BRANCH  30  33
ATOM     33  C   UNL A   1      41.400  28.360  27.234  1.00  0.00     0.039 A 
ATOM     34  C   UNL A   1      42.210  29.449  27.565  1.00  0.00     0.014 A 
ATOM     35  C   UNL A   1      40.502  27.843  28.174  1.00  0.00     0.014 A 
ATOM     36  C   UNL A   1      42.101  30.037  28.826  1.00  0.00     0.010 A 
ATOM     37  C   UNL A   1      40.343  28.475  29.403  1.00  0.00     0.010 A 
ATOM     38  C   UNL A   1      41.157  29.564  29.751  1.00  0.00    -0.014 A 
BRANCH  38  39
ATOM     39  C   UNL A   1      41.042  30.159  31.106  1.00  0.00     0.031 A 
ATOM     40  C   UNL A   1      39.877  31.056  31.433  1.00  0.00     0.074 A 
ATOM     41  C   UNL A   1      42.001  29.932  32.025  1.00  0.00     0.049 A 
ATOM     42  N   UNL A   1      39.624  31.712  32.537  1.00  0.00    -0.248 NA
ATOM     43  C   UNL A   1      38.877  31.264  30.371  1.00  0.00     0.031 C 
ATOM     44  C   UNL A   1      43.194  29.107  31.820  1.00  0.00     0.029 A 
ATOM     45  N   UNL A   1      42.123  30.378  33.317  1.00  0.00    -0.354 N 
ATOM     46  C   UNL A   1      38.453  32.422  32.295  1.00  0.00     0.074 A 
ATOM     47  C   UNL A   1      38.075  32.160  30.925  1.00  0.00     0.031 C 
ATOM     48  C   UNL A   1      43.912  29.086  32.955  1.00  0.00     0.029 A 
ATOM     49  C   UNL A   1      43.254  29.922  33.953  1.00  0.00     0.049 A 
ATOM     50  H   UNL A   1      41.464  30.969  33.748  1.00  0.00     0.167 HD
ATOM     51  C   UNL A   1      37.742  33.205  33.143  1.00  0.00     0.031 A 
ATOM     52  C   UNL A   1      43.709  30.153  35.200  1.00  0.00     0.031 A 
ATOM     53  C   UNL A   1      38.112  33.449  34.510  1.00  0.00     0.049 A 
ATOM     54  C   UNL A   1      42.903  31.025  36.124  1.00  0.00     0.074 A 
ATOM     55  C   UNL A   1      37.437  34.188  35.466  1.00  0.00     0.029 A 
ATOM     56  N   UNL A   1      39.255  32.954  35.121  1.00  0.00    -0.354 N 
ATOM     57  N   UNL A   1      41.772  31.647  35.893  1.00  0.00    -0.248 NA
ATOM     58  C   UNL A   1      43.427  31.212  37.485  1.00  0.00     0.031 C 
ATOM     59  C   UNL A   1      38.195  34.177  36.642  1.00  0.00     0.029 A 
ATOM     60  C   UNL A   1      39.312  33.383  36.436  1.00  0.00     0.049 A 
ATOM     61  H   UNL A   1      39.927  32.383  34.683  1.00  0.00     0.167 HD
ATOM     62  C   UNL A   1      41.431  32.270  37.089  1.00  0.00     0.074 A 
ATOM     63  C   UNL A   1      42.471  31.942  38.042  1.00  0.00     0.031 C 
ATOM     64  C   UNL A   1      40.351  33.040  37.374  1.00  0.00     0.031 A 
BRANCH  51  65
ATOM     65  C   UNL A   1      36.492  33.855  32.608  1.00  0.00    -0.014 A 
ATOM     66  C   UNL A   1      35.973  35.023  33.196  1.00  0.00     0.010 A 
ATOM     67  C   UNL A   1      35.844  33.307  31.487  1.00  0.00     0.010 A 
ATOM     68  C   UNL A   1      34.803  35.606  32.700  1.00  0.00     0.020 A 
ATOM     69  C   UNL A   1      34.691  33.905  30.968  1.00  0.00     0.020 A 
ATOM     70  C   UNL A   1      34.167  35.041  31.591  1.00  0.00     0.054 A 
BRANCH  70  71
ATOM     71  S   UNL A   1      32.662  35.828  30.956  1.00  0.00     0.124 S 
ATOM     72  O   UNL A   1      31.687  35.490  31.991  1.00  0.00    -0.237 OA
ATOM     73  O   UNL A   1      33.041  37.237  30.889  1.00  0.00    -0.237 OA
ATOM     74  O   UNL A   1      32.449  35.181  29.664  1.00  0.00    -0.744 OA
ENDBRANCH  70  71
ENDBRANCH  51  65
BRANCH  52  75
ATOM     75  C   UNL A   1      44.981  29.528  35.655  1.00  0.00    -0.014 A 
ATOM     76  C   UNL A   1      44.976  28.260  36.265  1.00  0.00     0.010 A 
ATOM     77  C   UNL A   1      46.207  30.193  35.474  1.00  0.00     0.010 A 
ATOM     78  C   UNL A   1      46.169  27.681  36.705  1.00  0.00     0.020 A 
ATOM     79  C   UNL A   1      47.405  29.604  35.888  1.00  0.00     0.020 A 
ATOM     80  C   UNL A   1      47.377  28.357  36.512  1.00  0.00     0.054 A 
BRANCH  80  81
ATOM     81  S   UNL A   1      48.919  27.566  37.051  1.00  0.00     0.124 S 
ATOM     82  O   UNL A   1      49.524  27.184  35.780  1.00  0.00    -0.237 OA
ATOM     83  O   UNL A   1      49.590  28.643  37.775  1.00  0.00    -0.237 OA
ATOM     84  O   UNL A   1      48.460  26.458  37.886  1.00  0.00    -0.744 OA
ENDBRANCH  80  81
ENDBRANCH  52  75
BRANCH  64  85
ATOM     85  C   UNL A   1      40.209  33.541  38.786  1.00  0.00    -0.014 A 
ATOM     86  C   UNL A   1      39.600  32.761  39.783  1.00  0.00     0.010 A 
ATOM     87  C   UNL A   1      40.745  34.796  39.127  1.00  0.00     0.010 A 
ATOM     88  C   UNL A   1      39.499  33.242  41.092  1.00  0.00     0.020 A 
ATOM     89  C   UNL A   1      40.673  35.269  40.440  1.00  0.00     0.020 A 
ATOM     90  C   UNL A   1      40.036  34.494  41.412  1.00  0.00     0.054 A 
BRANCH  90  91
ATOM     91  S   UNL A   1      39.931  35.079  43.125  1.00  0.00     0.124 S 
ATOM     92  O   UNL A   1      41.335  35.318  43.450  1.00  0.00    -0.237 OA
ATOM     93  O   UNL A   1      39.102  36.276  43.006  1.00  0.00    -0.237 OA
ATOM     94  O   UNL A   1      39.309  33.964  43.835  1.00  0.00    -0.744 OA
ENDBRANCH  90  91
ENDBRANCH  64  85
ENDBRANCH  38  39
ENDBRANCH  30  33
ENDBRANCH  28  29
ENDBRANCH  27  28
ENDBRANCH  26  27
ENDBRANCH   1  26
TORSDOF 20
ENDMDL
MODEL 3
REMARK VINA RESULT:      -8.7      3.202      9.458
REMARK SMILES O=C(Cc1ccccc1F)NC[C@@H]1CC[C@@H](C(=O)NCCCCCCNC(=O)c2ccc(-c3c4nc(c(-c5ccc(S(=O)(=O)[O-])cc5)c5ccc([nH]5)c(-c5ccc(S(=O)(=O)[O-])cc5)c5nc(c(-c6ccc(S(=O)(=O)[O-])cc6)c6ccc3[nH]6)C=C5)C=C4)cc2)O1
REMARK SMILES IDX 22 1 21 2 20 3 19 4 17 5 18 6 16 8 13 9 14 10 89 11 15 12
REMARK SMILES IDX 12 13 11 14 1 15 2 16 3 18 4 19 5 20 9 21 6 22 8 23 10 24
REMARK SMILES IDX 7 25 23 26 24 27 25 28 26 29 27 30 28 32 29 33 30 34 88 35
REMARK SMILES IDX 31 36 87 37 32 38 33 39 34 40 81 41 35 42 86 43 80 44 82 45
REMARK SMILES IDX 36 46 85 47 79 48 78 49 37 51 67 52 48 53 66 54 49 55 52 56
REMARK SMILES IDX 65 57 83 58 50 59 51 60 64 62 84 63 53 64 38 65 39 66 47 67
REMARK SMILES IDX 40 68 46 69 41 70 42 71 43 72 44 73 45 74 68 75 69 76 77 77
REMARK SMILES IDX 70 78 76 79 71 80 72 81 73 82 74 83 75 84 54 85 55 86 63 87
REMARK SMILES IDX 56 88 62 89 57 90 58 91 59 92 60 93 61 94
REMARK H PARENT 19 7 11 17 26 31 82 50 52 61
REMARK Flexibility Score: inf
ROOT
ATOM      1  C   UNL A   1      45.185  24.453  27.036  1.00  0.00     0.002 C 
ENDROOT
BRANCH   1   2
ATOM      2  C   UNL A   1      44.898  24.076  25.578  1.00  0.00     0.021 C 
BRANCH   2   3
ATOM      3  C   UNL A   1      44.432  22.634  25.406  1.00  0.00     0.116 C 
BRANCH   3   4
ATOM      4  N   UNL A   1      43.920  22.084  26.642  1.00  0.00    -0.354 N 
ATOM      5  C   UNL A   1      42.669  22.155  27.181  1.00  0.00     0.249 C 
ATOM      6  O   UNL A   1      42.502  21.652  28.298  1.00  0.00    -0.272 OA
ATOM      7  H   UNL A   1      44.576  21.582  27.178  1.00  0.00     0.163 HD
BRANCH   5   8
ATOM      8  C   UNL A   1      41.468  22.716  26.388  1.00  0.00     0.207 C 
ATOM      9  C   UNL A   1      39.155  22.415  26.478  1.00  0.00     0.138 C 
ATOM     10  C   UNL A   1      39.427  23.899  26.636  1.00  0.00     0.037 C 
ATOM     11  O   UNL A   1      40.398  21.840  26.029  1.00  0.00    -0.363 OA
ATOM     12  C   UNL A   1      40.845  23.879  27.155  1.00  0.00     0.045 C 
BRANCH   9  13
ATOM     13  C   UNL A   1      37.984  22.013  25.579  1.00  0.00     0.147 C 
BRANCH  13  14
ATOM     14  N   UNL A   1      36.704  22.493  26.051  1.00  0.00    -0.353 N 
ATOM     15  O   UNL A   1      36.219  23.838  24.252  1.00  0.00    -0.275 OA
ATOM     16  C   UNL A   1      35.913  23.370  25.344  1.00  0.00     0.224 C 
ATOM     17  H   UNL A   1      36.380  22.175  26.925  1.00  0.00     0.163 HD
BRANCH  16  18
ATOM     18  C   UNL A   1      34.635  23.773  26.061  1.00  0.00     0.138 C 
BRANCH  18  19
ATOM     19  C   UNL A   1      33.396  23.608  25.213  1.00  0.00    -0.003 A 
ATOM     20  C   UNL A   1      32.559  24.702  24.956  1.00  0.00     0.007 A 
ATOM     21  C   UNL A   1      33.093  22.379  24.622  1.00  0.00     0.126 A 
ATOM     22  C   UNL A   1      31.453  24.561  24.114  1.00  0.00     0.001 A 
ATOM     23  C   UNL A   1      31.989  22.231  23.787  1.00  0.00     0.039 A 
ATOM     24  F   UNL A   1      33.892  21.322  24.825  1.00  0.00    -0.207 F 
ATOM     25  C   UNL A   1      31.168  23.327  23.530  1.00  0.00     0.003 A 
ENDBRANCH  18  19
ENDBRANCH  16  18
ENDBRANCH  13  14
ENDBRANCH   9  13
ENDBRANCH   5   8
ENDBRANCH   3   4
ENDBRANCH   2   3
ENDBRANCH   1   2
BRANCH   1  26
ATOM     26  C   UNL A   1      45.792  25.848  27.235  1.00  0.00     0.002 C 
BRANCH  26  27
ATOM     27  C   UNL A   1      46.280  26.535  25.956  1.00  0.00     0.021 C 
BRANCH  27  28
ATOM     28  C   UNL A   1      45.448  27.739  25.529  1.00  0.00     0.116 C 
BRANCH  28  29
ATOM     29  N   UNL A   1      44.205  27.333  24.894  1.00  0.00    -0.352 N 
ATOM     30  C   UNL A   1      42.940  27.277  25.417  1.00  0.00     0.251 C 
ATOM     31  H   UNL A   1      44.283  27.058  23.951  1.00  0.00     0.163 HD
ATOM     32  O   UNL A   1      42.049  26.696  24.797  1.00  0.00    -0.269 OA
BRANCH  30  33
ATOM     33  C   UNL A   1      42.646  27.903  26.724  1.00  0.00     0.039 A 
ATOM     34  C   UNL A   1      42.084  27.123  27.737  1.00  0.00     0.014 A 
ATOM     35  C   UNL A   1      42.883  29.264  26.937  1.00  0.00     0.014 A 
ATOM     36  C   UNL A   1      41.786  27.701  28.973  1.00  0.00     0.010 A 
ATOM     37  C   UNL A   1      42.654  29.822  28.192  1.00  0.00     0.010 A 
ATOM     38  C   UNL A   1      42.081  29.051  29.215  1.00  0.00    -0.014 A 
BRANCH  38  39
ATOM     39  C   UNL A   1      41.749  29.691  30.513  1.00  0.00     0.031 A 
ATOM     40  C   UNL A   1      40.514  30.546  30.632  1.00  0.00     0.074 A 
ATOM     41  C   UNL A   1      42.574  29.542  31.568  1.00  0.00     0.049 A 
ATOM     42  N   UNL A   1      40.080  31.230  31.658  1.00  0.00    -0.248 NA
ATOM     43  C   UNL A   1      39.670  30.667  29.430  1.00  0.00     0.031 C 
ATOM     44  C   UNL A   1      43.816  28.766  31.571  1.00  0.00     0.029 A 
ATOM     45  N   UNL A   1      42.492  30.042  32.843  1.00  0.00    -0.354 N 
ATOM     46  C   UNL A   1      38.928  31.876  31.222  1.00  0.00     0.074 A 
ATOM     47  C   UNL A   1      38.762  31.546  29.825  1.00  0.00     0.031 C 
ATOM     48  C   UNL A   1      44.364  28.820  32.796  1.00  0.00     0.029 A 
ATOM     49  C   UNL A   1      43.537  29.662  33.653  1.00  0.00     0.049 A 
ATOM     50  H   UNL A   1      41.755  30.619  33.150  1.00  0.00     0.167 HD
ATOM     51  C   UNL A   1      38.073  32.657  31.925  1.00  0.00     0.031 A 
ATOM     52  C   UNL A   1      43.798  29.961  34.940  1.00  0.00     0.031 A 
ATOM     53  C   UNL A   1      38.232  32.970  33.319  1.00  0.00     0.049 A 
ATOM     54  C   UNL A   1      42.834  30.829  35.702  1.00  0.00     0.074 A 
ATOM     55  C   UNL A   1      37.398  33.713  34.136  1.00  0.00     0.029 A 
ATOM     56  N   UNL A   1      39.294  32.550  34.107  1.00  0.00    -0.354 N 
ATOM     57  N   UNL A   1      41.724  31.390  35.285  1.00  0.00    -0.248 NA
ATOM     58  C   UNL A   1      43.149  31.091  37.113  1.00  0.00     0.031 C 
ATOM     59  C   UNL A   1      37.979  33.780  35.407  1.00  0.00     0.029 A 
ATOM     60  C   UNL A   1      39.144  33.031  35.396  1.00  0.00     0.049 A 
ATOM     61  H   UNL A   1      40.044  31.995  33.794  1.00  0.00     0.167 HD
ATOM     62  C   UNL A   1      41.189  32.041  36.392  1.00  0.00     0.074 A 
ATOM     63  C   UNL A   1      42.094  31.796  37.497  1.00  0.00     0.031 C 
ATOM     64  C   UNL A   1      40.050  32.771  36.487  1.00  0.00     0.031 A 
BRANCH  51  65
ATOM     65  C   UNL A   1      36.888  33.229  31.190  1.00  0.00    -0.014 A 
ATOM     66  C   UNL A   1      35.587  33.120  31.715  1.00  0.00     0.010 A 
ATOM     67  C   UNL A   1      37.079  33.908  29.974  1.00  0.00     0.010 A 
ATOM     68  C   UNL A   1      34.495  33.641  31.014  1.00  0.00     0.020 A 
ATOM     69  C   UNL A   1      35.993  34.457  29.285  1.00  0.00     0.020 A 
ATOM     70  C   UNL A   1      34.704  34.302  29.801  1.00  0.00     0.054 A 
BRANCH  70  71
ATOM     71  S   UNL A   1      33.272  34.984  28.923  1.00  0.00     0.124 S 
ATOM     72  O   UNL A   1      33.793  36.263  28.446  1.00  0.00    -0.237 OA
ATOM     73  O   UNL A   1      33.023  33.983  27.889  1.00  0.00    -0.237 OA
ATOM     74  O   UNL A   1      32.243  35.078  29.956  1.00  0.00    -0.744 OA
ENDBRANCH  70  71
ENDBRANCH  51  65
BRANCH  52  75
ATOM     75  C   UNL A   1      45.016  29.412  35.599  1.00  0.00    -0.014 A 
ATOM     76  C   UNL A   1      46.225  30.129  35.577  1.00  0.00     0.010 A 
ATOM     77  C   UNL A   1      44.970  28.171  36.259  1.00  0.00     0.010 A 
ATOM     78  C   UNL A   1      47.371  29.606  36.183  1.00  0.00     0.020 A 
ATOM     79  C   UNL A   1      46.106  27.657  36.890  1.00  0.00     0.020 A 
ATOM     80  C   UNL A   1      47.303  28.373  36.837  1.00  0.00     0.054 A 
BRANCH  80  81
ATOM     81  S   UNL A   1      48.792  27.734  37.656  1.00  0.00     0.124 S 
ATOM     82  O   UNL A   1      49.552  27.201  36.530  1.00  0.00    -0.237 OA
ATOM     83  O   UNL A   1      49.345  28.930  38.285  1.00  0.00    -0.237 OA
ATOM     84  O   UNL A   1      48.267  26.737  38.586  1.00  0.00    -0.744 OA
ENDBRANCH  80  81
ENDBRANCH  52  75
BRANCH  64  85
ATOM     85  C   UNL A   1      39.687  33.318  37.841  1.00  0.00    -0.014 A 
ATOM     86  C   UNL A   1      40.370  34.414  38.396  1.00  0.00     0.010 A 
ATOM     87  C   UNL A   1      38.605  32.756  38.542  1.00  0.00     0.010 A 
ATOM     88  C   UNL A   1      39.998  34.916  39.647  1.00  0.00     0.020 A 
ATOM     89  C   UNL A   1      38.211  33.274  39.779  1.00  0.00     0.020 A 
ATOM     90  C   UNL A   1      38.921  34.342  40.331  1.00  0.00     0.054 A 
BRANCH  90  91
ATOM     91  S   UNL A   1      38.431  35.037  41.932  1.00  0.00     0.124 S 
ATOM     92  O   UNL A   1      38.689  36.461  41.736  1.00  0.00    -0.237 OA
ATOM     93  O   UNL A   1      37.022  34.662  42.027  1.00  0.00    -0.237 OA
ATOM     94  O   UNL A   1      39.314  34.370  42.886  1.00  0.00    -0.744 OA
ENDBRANCH  90  91
ENDBRANCH  64  85
ENDBRANCH  38  39
ENDBRANCH  30  33
ENDBRANCH  28  29
ENDBRANCH  27  28
ENDBRANCH  26  27
ENDBRANCH   1  26
TORSDOF 20
ENDMDL
