MODEL 1
REMARK VINA RESULT:     -12.0      0.000      0.000
REMARK SMILES O=C(NCCCCCCNC(=O)c1cc(-c2ccccc2)nc(Nc2nc3ccccc3s2)n1)c1ccc(-c2c3nc(c(-c4ccc(S(=O)(=O)[O-])cc4)c4ccc([nH]4)c(-c4ccc(S(=O)(=O)[O-])cc4)c4nc(c(-c5ccc(S(=O)(=O)[O-])cc5)c5ccc2[nH]5)C=C4)C=C3)cc1
REMARK SMILES IDX 6 1 5 2 4 3 3 4 1 5 2 6 35 8 36 9 94 10 37 11 93 12 38 13
REMARK SMILES IDX 39 14 40 15 87 16 41 17 92 18 86 19 88 20 42 21 91 22 85 23
REMARK SMILES IDX 84 24 43 26 73 27 54 28 72 29 55 30 58 31 71 32 89 33 56 34
REMARK SMILES IDX 57 35 70 37 90 38 59 39 44 40 45 41 53 42 46 43 52 44 47 45
REMARK SMILES IDX 48 46 49 47 50 48 51 49 74 50 75 51 83 52 76 53 82 54 77 55
REMARK SMILES IDX 78 56 79 57 80 58 81 59 60 60 61 61 69 62 62 63 68 64 63 65
REMARK SMILES IDX 64 66 65 67 66 68 67 69 7 70 8 71 9 72 10 73 11 74 12 76
REMARK SMILES IDX 13 77 14 78 34 79 15 80 23 81 22 82 16 83 17 84 21 85 18 86
REMARK SMILES IDX 20 87 19 88 24 89 25 91 26 92 33 93 27 94 32 95 28 96 31 97
REMARK SMILES IDX 29 98 30 99
REMARK H PARENT 3 7 88 25 58 36 10 75 24 90
REMARK Flexibility Score: inf
ROOT
ATOM      1  C   UNL A   1      40.940  21.287  27.562  1.00  0.00     0.002 C 
ENDROOT
BRANCH   1   2
ATOM      2  C   UNL A   1      42.382  21.772  27.415  1.00  0.00     0.021 C 
BRANCH   2   3
ATOM      3  C   UNL A   1      42.570  23.278  27.533  1.00  0.00     0.116 C 
BRANCH   3   4
ATOM      4  N   UNL A   1      42.218  23.980  26.312  1.00  0.00    -0.352 N 
ATOM      5  O   UNL A   1      41.271  25.603  25.067  1.00  0.00    -0.269 OA
ATOM      6  C   UNL A   1      41.654  25.227  26.166  1.00  0.00     0.251 C 
ATOM      7  H   UNL A   1      42.409  23.499  25.474  1.00  0.00     0.163 HD
BRANCH   6   8
ATOM      8  C   UNL A   1      41.496  26.098  27.353  1.00  0.00     0.039 A 
ATOM      9  C   UNL A   1      42.407  27.127  27.608  1.00  0.00     0.014 A 
ATOM     10  C   UNL A   1      40.412  25.892  28.210  1.00  0.00     0.014 A 
ATOM     11  C   UNL A   1      42.298  27.875  28.775  1.00  0.00     0.010 A 
ATOM     12  C   UNL A   1      40.259  26.697  29.343  1.00  0.00     0.010 A 
ATOM     13  C   UNL A   1      41.208  27.685  29.642  1.00  0.00    -0.014 A 
BRANCH  13  14
ATOM     14  C   UNL A   1      41.027  28.611  30.788  1.00  0.00     0.031 A 
ATOM     15  C   UNL A   1      41.892  28.526  32.013  1.00  0.00     0.074 A 
ATOM     16  C   UNL A   1      40.062  29.549  30.700  1.00  0.00     0.049 A 
ATOM     17  N   UNL A   1      41.865  29.273  33.087  1.00  0.00    -0.248 NA
ATOM     18  C   UNL A   1      42.916  27.469  32.046  1.00  0.00     0.031 C 
ATOM     19  C   UNL A   1      39.148  29.712  29.563  1.00  0.00     0.029 A 
ATOM     20  N   UNL A   1      39.694  30.548  31.564  1.00  0.00    -0.354 N 
ATOM     21  C   UNL A   1      42.848  28.771  33.932  1.00  0.00     0.074 A 
ATOM     22  C   UNL A   1      43.447  27.643  33.251  1.00  0.00     0.031 C 
ATOM     23  C   UNL A   1      38.355  30.771  29.784  1.00  0.00     0.029 A 
ATOM     24  C   UNL A   1      38.658  31.322  31.098  1.00  0.00     0.049 A 
ATOM     25  H   UNL A   1      40.130  30.695  32.434  1.00  0.00     0.167 HD
ATOM     26  C   UNL A   1      43.212  29.212  35.159  1.00  0.00     0.031 A 
ATOM     27  C   UNL A   1      38.003  32.348  31.672  1.00  0.00     0.031 A 
ATOM     28  C   UNL A   1      42.612  30.341  35.825  1.00  0.00     0.049 A 
ATOM     29  C   UNL A   1      38.418  32.798  33.042  1.00  0.00     0.074 A 
ATOM     30  C   UNL A   1      42.951  30.894  37.049  1.00  0.00     0.029 A 
ATOM     31  N   UNL A   1      41.550  31.082  35.333  1.00  0.00    -0.354 N 
ATOM     32  N   UNL A   1      39.388  32.342  33.797  1.00  0.00    -0.248 NA
ATOM     33  C   UNL A   1      37.650  33.899  33.638  1.00  0.00     0.031 C 
ATOM     34  C   UNL A   1      42.057  31.935  37.321  1.00  0.00     0.029 A 
ATOM     35  C   UNL A   1      41.198  32.067  36.242  1.00  0.00     0.049 A 
ATOM     36  H   UNL A   1      41.109  30.932  34.465  1.00  0.00     0.167 HD
ATOM     37  C   UNL A   1      39.352  33.107  34.957  1.00  0.00     0.074 A 
ATOM     38  C   UNL A   1      38.285  34.073  34.789  1.00  0.00     0.031 C 
ATOM     39  C   UNL A   1      40.128  33.014  36.062  1.00  0.00     0.031 A 
BRANCH  26  40
ATOM     40  C   UNL A   1      44.301  28.470  35.887  1.00  0.00    -0.014 A 
ATOM     41  C   UNL A   1      45.647  28.860  35.775  1.00  0.00     0.010 A 
ATOM     42  C   UNL A   1      43.960  27.436  36.779  1.00  0.00     0.010 A 
ATOM     43  C   UNL A   1      46.634  28.219  36.531  1.00  0.00     0.020 A 
ATOM     44  C   UNL A   1      44.942  26.806  37.552  1.00  0.00     0.020 A 
ATOM     45  C   UNL A   1      46.274  27.198  37.417  1.00  0.00     0.054 A 
BRANCH  45  46
ATOM     46  S   UNL A   1      47.568  26.427  38.429  1.00  0.00     0.124 S 
ATOM     47  O   UNL A   1      48.519  25.983  37.413  1.00  0.00    -0.237 OA
ATOM     48  O   UNL A   1      48.020  27.534  39.269  1.00  0.00    -0.237 OA
ATOM     49  O   UNL A   1      46.868  25.358  39.136  1.00  0.00    -0.744 OA
ENDBRANCH  45  46
ENDBRANCH  26  40
BRANCH  27  50
ATOM     50  C   UNL A   1      36.863  32.990  30.965  1.00  0.00    -0.014 A 
ATOM     51  C   UNL A   1      35.537  32.727  31.347  1.00  0.00     0.010 A 
ATOM     52  C   UNL A   1      37.107  33.877  29.900  1.00  0.00     0.010 A 
ATOM     53  C   UNL A   1      34.473  33.317  30.657  1.00  0.00     0.020 A 
ATOM     54  C   UNL A   1      36.049  34.493  29.229  1.00  0.00     0.020 A 
ATOM     55  C   UNL A   1      34.737  34.193  29.600  1.00  0.00     0.054 A 
BRANCH  55  56
ATOM     56  S   UNL A   1      33.346  34.970  28.733  1.00  0.00     0.124 S 
ATOM     57  O   UNL A   1      32.816  33.856  27.953  1.00  0.00    -0.237 OA
ATOM     58  O   UNL A   1      32.502  35.431  29.834  1.00  0.00    -0.237 OA
ATOM     59  O   UNL A   1      33.980  36.035  27.959  1.00  0.00    -0.744 OA
ENDBRANCH  55  56
ENDBRANCH  27  50
BRANCH  39  60
ATOM     60  C   UNL A   1      39.859  33.995  37.170  1.00  0.00    -0.014 A 
ATOM     61  C   UNL A   1      38.884  33.732  38.148  1.00  0.00     0.010 A 
ATOM     62  C   UNL A   1      40.613  35.180  37.250  1.00  0.00     0.010 A 
ATOM     63  C   UNL A   1      38.643  34.655  39.169  1.00  0.00     0.020 A 
ATOM     64  C   UNL A   1      40.393  36.092  38.284  1.00  0.00     0.020 A 
ATOM     65  C   UNL A   1      39.398  35.831  39.229  1.00  0.00     0.054 A 
BRANCH  65  66
ATOM     66  S   UNL A   1      39.091  36.998  40.582  1.00  0.00     0.124 S 
ATOM     67  O   UNL A   1      38.535  36.126  41.613  1.00  0.00    -0.237 OA
ATOM     68  O   UNL A   1      40.423  37.529  40.858  1.00  0.00    -0.237 OA
ATOM     69  O   UNL A   1      38.153  37.957  40.004  1.00  0.00    -0.744 OA
ENDBRANCH  65  66
ENDBRANCH  39  60
ENDBRANCH  13  14
ENDBRANCH   6   8
ENDBRANCH   3   4
ENDBRANCH   2   3
ENDBRANCH   1   2
BRANCH   1  70
ATOM     70  C   UNL A   1      40.068  21.410  26.308  1.00  0.00     0.002 C 
BRANCH  70  71
ATOM     71  C   UNL A   1      39.039  22.543  26.319  1.00  0.00     0.021 C 
BRANCH  71  72
ATOM     72  C   UNL A   1      37.650  22.173  25.807  1.00  0.00     0.116 C 
BRANCH  72  73
ATOM     73  N   UNL A   1      37.405  22.646  24.456  1.00  0.00    -0.351 N 
ATOM     74  C   UNL A   1      36.258  22.541  23.704  1.00  0.00     0.270 C 
ATOM     75  H   UNL A   1      38.160  23.103  24.021  1.00  0.00     0.163 HD
ATOM     76  O   UNL A   1      36.228  22.975  22.557  1.00  0.00    -0.268 OA
BRANCH  74  77
ATOM     77  C   UNL A   1      35.056  21.920  24.311  1.00  0.00     0.134 A 
ATOM     78  C   UNL A   1      34.943  20.560  24.374  1.00  0.00     0.063 A 
ATOM     79  N   UNL A   1      34.104  22.766  24.713  1.00  0.00    -0.207 NA
ATOM     80  C   UNL A   1      33.729  20.097  24.827  1.00  0.00     0.077 A 
ATOM     81  C   UNL A   1      32.962  22.249  25.171  1.00  0.00     0.230 A 
ATOM     82  N   UNL A   1      32.738  20.925  25.242  1.00  0.00    -0.213 NA
BRANCH  80  83
ATOM     83  C   UNL A   1      33.439  18.658  24.766  1.00  0.00     0.000 A 
ATOM     84  C   UNL A   1      34.109  17.830  23.850  1.00  0.00     0.010 A 
ATOM     85  C   UNL A   1      32.590  18.050  25.710  1.00  0.00     0.010 A 
ATOM     86  C   UNL A   1      33.971  16.440  23.906  1.00  0.00     0.001 A 
ATOM     87  C   UNL A   1      32.448  16.662  25.763  1.00  0.00     0.001 A 
ATOM     88  C   UNL A   1      33.149  15.858  24.868  1.00  0.00     0.000 A 
ENDBRANCH  80  83
BRANCH  81  89
ATOM     89  N   UNL A   1      31.982  23.105  25.669  1.00  0.00    -0.300 N 
ATOM     90  H   UNL A   1      31.215  22.720  26.150  1.00  0.00     0.172 HD
BRANCH  89  91
ATOM     91  C   UNL A   1      32.046  24.445  25.516  1.00  0.00     0.190 A 
ATOM     92  N   UNL A   1      32.384  25.292  26.462  1.00  0.00    -0.220 NA
ATOM     93  S   UNL A   1      31.648  25.197  24.014  1.00  0.00    -0.097 S 
ATOM     94  C   UNL A   1      32.084  26.583  26.098  1.00  0.00     0.084 A 
ATOM     95  C   UNL A   1      31.637  26.741  24.788  1.00  0.00     0.056 A 
ATOM     96  C   UNL A   1      32.167  27.709  26.939  1.00  0.00     0.030 A 
ATOM     97  C   UNL A   1      31.258  27.998  24.289  1.00  0.00     0.021 A 
ATOM     98  C   UNL A   1      31.774  28.962  26.461  1.00  0.00     0.002 A 
ATOM     99  C   UNL A   1      31.322  29.100  25.152  1.00  0.00     0.002 A 
ENDBRANCH  89  91
ENDBRANCH  81  89
ENDBRANCH  74  77
ENDBRANCH  72  73
ENDBRANCH  71  72
ENDBRANCH  70  71
ENDBRANCH   1  70
TORSDOF 19
ENDMDL
MODEL 2
REMARK VINA RESULT:     -12.0      0.792      7.917
REMARK SMILES O=C(NCCCCCCNC(=O)c1cc(-c2ccccc2)nc(Nc2nc3ccccc3s2)n1)c1ccc(-c2c3nc(c(-c4ccc(S(=O)(=O)[O-])cc4)c4ccc([nH]4)c(-c4ccc(S(=O)(=O)[O-])cc4)c4nc(c(-c5ccc(S(=O)(=O)[O-])cc5)c5ccc2[nH]5)C=C4)C=C3)cc1
REMARK SMILES IDX 6 1 5 2 4 3 3 4 1 5 2 6 35 8 36 9 94 10 37 11 93 12 38 13
REMARK SMILES IDX 39 14 40 15 87 16 41 17 92 18 86 19 88 20 42 21 91 22 85 23
REMARK SMILES IDX 84 24 43 26 73 27 54 28 72 29 55 30 58 31 71 32 89 33 56 34
REMARK SMILES IDX 57 35 70 37 90 38 59 39 44 40 45 41 53 42 46 43 52 44 47 45
REMARK SMILES IDX 48 46 49 47 50 48 51 49 74 50 75 51 83 52 76 53 82 54 77 55
REMARK SMILES IDX 78 56 79 57 80 58 81 59 60 60 61 61 69 62 62 63 68 64 63 65
REMARK SMILES IDX 64 66 65 67 66 68 67 69 7 70 8 71 9 72 10 73 11 74 12 76
REMARK SMILES IDX 13 77 14 78 34 79 15 80 23 81 22 82 16 83 17 84 21 85 18 86
REMARK SMILES IDX 20 87 19 88 24 89 25 91 26 92 33 93 27 94 32 95 28 96 31 97
REMARK SMILES IDX 29 98 30 99
REMARK H PARENT 3 7 88 25 58 36 10 75 24 90
REMARK Flexibility Score: inf
ROOT
ATOM      1  C   UNL A   1      40.673  21.916  27.583  1.00  0.00     0.002 C 
ENDROOT
BRANCH   1   2
ATOM      2  C   UNL A   1      42.158  22.019  27.233  1.00  0.00     0.021 C 
BRANCH   2   3
ATOM      3  C   UNL A   1      42.766  23.403  27.408  1.00  0.00     0.116 C 
BRANCH   3   4
ATOM      4  N   UNL A   1      42.709  24.194  26.192  1.00  0.00    -0.352 N 
ATOM      5  O   UNL A   1      42.167  25.966  24.909  1.00  0.00    -0.269 OA
ATOM      6  C   UNL A   1      42.309  25.501  26.031  1.00  0.00     0.251 C 
ATOM      7  H   UNL A   1      42.995  23.732  25.370  1.00  0.00     0.163 HD
BRANCH   6   8
ATOM      8  C   UNL A   1      42.034  26.330  27.226  1.00  0.00     0.039 A 
ATOM      9  C   UNL A   1      42.805  27.462  27.502  1.00  0.00     0.014 A 
ATOM     10  C   UNL A   1      40.977  25.979  28.071  1.00  0.00     0.014 A 
ATOM     11  C   UNL A   1      42.594  28.176  28.677  1.00  0.00     0.010 A 
ATOM     12  C   UNL A   1      40.716  26.744  29.211  1.00  0.00     0.010 A 
ATOM     13  C   UNL A   1      41.530  27.840  29.530  1.00  0.00    -0.014 A 
BRANCH  13  14
ATOM     14  C   UNL A   1      41.225  28.720  30.686  1.00  0.00     0.031 A 
ATOM     15  C   UNL A   1      40.078  29.691  30.655  1.00  0.00     0.074 A 
ATOM     16  C   UNL A   1      42.003  28.620  31.783  1.00  0.00     0.049 A 
ATOM     17  N   UNL A   1      39.678  30.513  31.591  1.00  0.00    -0.248 NA
ATOM     18  C   UNL A   1      39.281  29.755  29.420  1.00  0.00     0.031 C 
ATOM     19  C   UNL A   1      43.157  27.724  31.918  1.00  0.00     0.029 A 
ATOM     20  N   UNL A   1      41.940  29.260  32.993  1.00  0.00    -0.354 N 
ATOM     21  C   UNL A   1      38.597  31.206  31.058  1.00  0.00     0.074 A 
ATOM     22  C   UNL A   1      38.411  30.718  29.708  1.00  0.00     0.031 C 
ATOM     23  C   UNL A   1      43.666  27.844  33.152  1.00  0.00     0.029 A 
ATOM     24  C   UNL A   1      42.919  28.865  33.874  1.00  0.00     0.049 A 
ATOM     25  H   UNL A   1      41.260  29.938  33.211  1.00  0.00     0.167 HD
ATOM     26  C   UNL A   1      37.835  32.161  31.643  1.00  0.00     0.031 A 
ATOM     27  C   UNL A   1      43.204  29.293  35.118  1.00  0.00     0.031 A 
ATOM     28  C   UNL A   1      38.025  32.635  32.991  1.00  0.00     0.049 A 
ATOM     29  C   UNL A   1      42.352  30.367  35.729  1.00  0.00     0.074 A 
ATOM     30  C   UNL A   1      37.269  33.563  33.688  1.00  0.00     0.029 A 
ATOM     31  N   UNL A   1      39.041  32.230  33.841  1.00  0.00    -0.354 N 
ATOM     32  N   UNL A   1      41.302  30.967  35.225  1.00  0.00    -0.248 NA
ATOM     33  C   UNL A   1      42.726  30.821  37.075  1.00  0.00     0.031 C 
ATOM     34  C   UNL A   1      37.861  33.758  34.940  1.00  0.00     0.029 A 
ATOM     35  C   UNL A   1      38.953  32.911  35.044  1.00  0.00     0.049 A 
ATOM     36  H   UNL A   1      39.726  31.556  33.623  1.00  0.00     0.167 HD
ATOM     37  C   UNL A   1      40.882  31.867  36.197  1.00  0.00     0.074 A 
ATOM     38  C   UNL A   1      41.774  31.709  37.328  1.00  0.00     0.031 C 
ATOM     39  C   UNL A   1      39.854  32.748  36.155  1.00  0.00     0.031 A 
BRANCH  26  40
ATOM     40  C   UNL A   1      36.727  32.781  30.834  1.00  0.00    -0.014 A 
ATOM     41  C   UNL A   1      35.382  32.439  31.060  1.00  0.00     0.010 A 
ATOM     42  C   UNL A   1      37.029  33.798  29.909  1.00  0.00     0.010 A 
ATOM     43  C   UNL A   1      34.360  33.094  30.365  1.00  0.00     0.020 A 
ATOM     44  C   UNL A   1      36.008  34.469  29.227  1.00  0.00     0.020 A 
ATOM     45  C   UNL A   1      34.681  34.107  29.454  1.00  0.00     0.054 A 
BRANCH  45  46
ATOM     46  S   UNL A   1      33.330  34.980  28.613  1.00  0.00     0.124 S 
ATOM     47  O   UNL A   1      34.059  35.959  27.811  1.00  0.00    -0.237 OA
ATOM     48  O   UNL A   1      32.679  33.911  27.858  1.00  0.00    -0.237 OA
ATOM     49  O   UNL A   1      32.540  35.536  29.707  1.00  0.00    -0.744 OA
ENDBRANCH  45  46
ENDBRANCH  26  40
BRANCH  27  50
ATOM     50  C   UNL A   1      44.370  28.729  35.848  1.00  0.00    -0.014 A 
ATOM     51  C   UNL A   1      45.648  29.300  35.717  1.00  0.00     0.010 A 
ATOM     52  C   UNL A   1      44.202  27.611  36.686  1.00  0.00     0.010 A 
ATOM     53  C   UNL A   1      46.741  28.744  36.388  1.00  0.00     0.020 A 
ATOM     54  C   UNL A   1      45.285  27.072  37.382  1.00  0.00     0.020 A 
ATOM     55  C   UNL A   1      46.553  27.632  37.213  1.00  0.00     0.054 A 
BRANCH  55  56
ATOM     56  S   UNL A   1      47.977  26.940  38.097  1.00  0.00     0.124 S 
ATOM     57  O   UNL A   1      47.924  25.535  37.704  1.00  0.00    -0.237 OA
ATOM     58  O   UNL A   1      49.094  27.708  37.552  1.00  0.00    -0.237 OA
ATOM     59  O   UNL A   1      47.672  27.212  39.500  1.00  0.00    -0.744 OA
ENDBRANCH  55  56
ENDBRANCH  27  50
BRANCH  39  60
ATOM     60  C   UNL A   1      39.633  33.598  37.376  1.00  0.00    -0.014 A 
ATOM     61  C   UNL A   1      38.901  33.109  38.473  1.00  0.00     0.010 A 
ATOM     62  C   UNL A   1      40.189  34.888  37.438  1.00  0.00     0.010 A 
ATOM     63  C   UNL A   1      38.700  33.912  39.599  1.00  0.00     0.020 A 
ATOM     64  C   UNL A   1      40.013  35.682  38.573  1.00  0.00     0.020 A 
ATOM     65  C   UNL A   1      39.256  35.195  39.640  1.00  0.00     0.054 A 
BRANCH  65  66
ATOM     66  S   UNL A   1      39.010  36.205  41.126  1.00  0.00     0.124 S 
ATOM     67  O   UNL A   1      38.725  37.518  40.556  1.00  0.00    -0.237 OA
ATOM     68  O   UNL A   1      37.885  35.545  41.783  1.00  0.00    -0.237 OA
ATOM     69  O   UNL A   1      40.286  36.094  41.832  1.00  0.00    -0.744 OA
ENDBRANCH  65  66
ENDBRANCH  39  60
ENDBRANCH  13  14
ENDBRANCH   6   8
ENDBRANCH   3   4
ENDBRANCH   2   3
ENDBRANCH   1   2
BRANCH   1  70
ATOM     70  C   UNL A   1      39.700  22.263  26.453  1.00  0.00     0.002 C 
BRANCH  70  71
ATOM     71  C   UNL A   1      39.011  23.626  26.559  1.00  0.00     0.021 C 
BRANCH  71  72
ATOM     72  C   UNL A   1      37.546  23.656  26.136  1.00  0.00     0.116 C 
BRANCH  72  73
ATOM     73  N   UNL A   1      37.378  23.636  24.693  1.00  0.00    -0.351 N 
ATOM     74  C   UNL A   1      36.399  23.017  23.952  1.00  0.00     0.270 C 
ATOM     75  H   UNL A   1      38.055  24.131  24.178  1.00  0.00     0.163 HD
ATOM     76  O   UNL A   1      36.420  23.077  22.726  1.00  0.00    -0.268 OA
BRANCH  74  77
ATOM     77  C   UNL A   1      35.308  22.302  24.656  1.00  0.00     0.134 A 
ATOM     78  C   UNL A   1      35.223  20.940  24.587  1.00  0.00     0.063 A 
ATOM     79  N   UNL A   1      34.416  23.073  25.282  1.00  0.00    -0.207 NA
ATOM     80  C   UNL A   1      34.095  20.398  25.160  1.00  0.00     0.077 A 
ATOM     81  C   UNL A   1      33.360  22.478  25.843  1.00  0.00     0.230 A 
ATOM     82  N   UNL A   1      33.166  21.149  25.803  1.00  0.00    -0.213 NA
BRANCH  80  83
ATOM     83  C   UNL A   1      33.818  18.965  24.986  1.00  0.00     0.000 A 
ATOM     84  C   UNL A   1      32.549  18.440  25.281  1.00  0.00     0.010 A 
ATOM     85  C   UNL A   1      34.766  18.111  24.393  1.00  0.00     0.010 A 
ATOM     86  C   UNL A   1      32.225  17.121  24.952  1.00  0.00     0.001 A 
ATOM     87  C   UNL A   1      34.444  16.791  24.068  1.00  0.00     0.001 A 
ATOM     88  C   UNL A   1      33.169  16.302  24.337  1.00  0.00     0.000 A 
ENDBRANCH  80  83
BRANCH  81  89
ATOM     89  N   UNL A   1      32.454  23.249  26.569  1.00  0.00    -0.300 N 
ATOM     90  H   UNL A   1      32.192  22.951  27.469  1.00  0.00     0.172 HD
BRANCH  89  91
ATOM     91  C   UNL A   1      31.923  24.391  26.082  1.00  0.00     0.190 A 
ATOM     92  N   UNL A   1      30.693  24.516  25.637  1.00  0.00    -0.220 NA
ATOM     93  S   UNL A   1      32.856  25.839  25.971  1.00  0.00    -0.097 S 
ATOM     94  C   UNL A   1      30.534  25.697  24.951  1.00  0.00     0.084 A 
ATOM     95  C   UNL A   1      31.628  26.559  24.994  1.00  0.00     0.056 A 
ATOM     96  C   UNL A   1      29.394  26.065  24.212  1.00  0.00     0.030 A 
ATOM     97  C   UNL A   1      31.623  27.785  24.308  1.00  0.00     0.021 A 
ATOM     98  C   UNL A   1      29.384  27.272  23.509  1.00  0.00     0.002 A 
ATOM     99  C   UNL A   1      30.489  28.118  23.556  1.00  0.00     0.002 A 
ENDBRANCH  89  91
ENDBRANCH  81  89
ENDBRANCH  74  77
ENDBRANCH  72  73
ENDBRANCH  71  72
ENDBRANCH  70  71
ENDBRANCH   1  70
TORSDOF 19
ENDMDL
MODEL 3
REMARK VINA RESULT:     -11.6      3.655      6.049
REMARK SMILES O=C(NCCCCCCNC(=O)c1cc(-c2ccccc2)nc(Nc2nc3ccccc3s2)n1)c1ccc(-c2c3nc(c(-c4ccc(S(=O)(=O)[O-])cc4)c4ccc([nH]4)c(-c4ccc(S(=O)(=O)[O-])cc4)c4nc(c(-c5ccc(S(=O)(=O)[O-])cc5)c5ccc2[nH]5)C=C4)C=C3)cc1
REMARK SMILES IDX 6 1 5 2 4 3 3 4 1 5 2 6 35 8 36 9 94 10 37 11 93 12 38 13
REMARK SMILES IDX 39 14 40 15 87 16 41 17 92 18 86 19 88 20 42 21 91 22 85 23
REMARK SMILES IDX 84 24 43 26 73 27 54 28 72 29 55 30 58 31 71 32 89 33 56 34
REMARK SMILES IDX 57 35 70 37 90 38 59 39 44 40 45 41 53 42 46 43 52 44 47 45
REMARK SMILES IDX 48 46 49 47 50 48 51 49 74 50 75 51 83 52 76 53 82 54 77 55
REMARK SMILES IDX 78 56 79 57 80 58 81 59 60 60 61 61 69 62 62 63 68 64 63 65
REMARK SMILES IDX 64 66 65 67 66 68 67 69 7 70 8 71 9 72 10 73 11 74 12 76
REMARK SMILES IDX 13 77 14 78 34 79 15 80 23 81 22 82 16 83 17 84 21 85 18 86
REMARK SMILES IDX 20 87 19 88 24 89 25 91 26 92 33 93 27 94 32 95 28 96 31 97
REMARK SMILES IDX 29 98 30 99
REMARK H PARENT 3 7 88 25 58 36 10 75 24 90
REMARK Flexibility Score: inf
ROOT
ATOM      1  C   UNL A   1      35.076  22.433  24.161  1.00  0.00     0.002 C 
ENDROOT
BRANCH   1   2
ATOM      2  C   UNL A   1      35.158  23.644  25.090  1.00  0.00     0.021 C 
BRANCH   2   3
ATOM      3  C   UNL A   1      36.568  24.113  25.415  1.00  0.00     0.116 C 
BRANCH   3   4
ATOM      4  N   UNL A   1      37.497  23.010  25.586  1.00  0.00    -0.352 N 
ATOM      5  O   UNL A   1      39.465  22.030  26.080  1.00  0.00    -0.269 OA
ATOM      6  C   UNL A   1      38.746  23.016  26.163  1.00  0.00     0.251 C 
ATOM      7  H   UNL A   1      37.190  22.140  25.242  1.00  0.00     0.163 HD
BRANCH   6   8
ATOM      8  C   UNL A   1      39.217  24.230  26.867  1.00  0.00     0.039 A 
ATOM      9  C   UNL A   1      38.896  24.446  28.210  1.00  0.00     0.014 A 
ATOM     10  C   UNL A   1      40.007  25.154  26.178  1.00  0.00     0.014 A 
ATOM     11  C   UNL A   1      39.267  25.635  28.829  1.00  0.00     0.010 A 
ATOM     12  C   UNL A   1      40.446  26.313  26.825  1.00  0.00     0.010 A 
ATOM     13  C   UNL A   1      40.068  26.569  28.151  1.00  0.00    -0.014 A 
BRANCH  13  14
ATOM     14  C   UNL A   1      40.590  27.746  28.891  1.00  0.00     0.031 A 
ATOM     15  C   UNL A   1      41.986  27.773  29.444  1.00  0.00     0.074 A 
ATOM     16  C   UNL A   1      39.774  28.808  29.047  1.00  0.00     0.049 A 
ATOM     17  N   UNL A   1      42.588  28.734  30.097  1.00  0.00    -0.248 NA
ATOM     18  C   UNL A   1      42.815  26.573  29.247  1.00  0.00     0.031 C 
ATOM     19  C   UNL A   1      38.389  28.885  28.568  1.00  0.00     0.029 A 
ATOM     20  N   UNL A   1      39.986  30.028  29.637  1.00  0.00    -0.354 N 
ATOM     21  C   UNL A   1      43.855  28.254  30.407  1.00  0.00     0.074 A 
ATOM     22  C   UNL A   1      43.933  26.907  29.882  1.00  0.00     0.031 C 
ATOM     23  C   UNL A   1      37.893  30.099  28.847  1.00  0.00     0.029 A 
ATOM     24  C   UNL A   1      38.895  30.863  29.578  1.00  0.00     0.049 A 
ATOM     25  H   UNL A   1      40.837  30.281  30.062  1.00  0.00     0.167 HD
ATOM     26  C   UNL A   1      44.857  28.881  31.069  1.00  0.00     0.031 A 
ATOM     27  C   UNL A   1      38.709  32.099  30.077  1.00  0.00     0.031 A 
ATOM     28  C   UNL A   1      44.771  30.225  31.583  1.00  0.00     0.049 A 
ATOM     29  C   UNL A   1      39.832  32.757  30.824  1.00  0.00     0.074 A 
ATOM     30  C   UNL A   1      45.753  30.964  32.222  1.00  0.00     0.029 A 
ATOM     31  N   UNL A   1      43.643  31.028  31.526  1.00  0.00    -0.354 N 
ATOM     32  N   UNL A   1      41.040  32.303  31.055  1.00  0.00    -0.248 NA
ATOM     33  C   UNL A   1      39.567  34.091  31.376  1.00  0.00     0.031 C 
ATOM     34  C   UNL A   1      45.201  32.192  32.599  1.00  0.00     0.029 A 
ATOM     35  C   UNL A   1      43.893  32.241  32.146  1.00  0.00     0.049 A 
ATOM     36  H   UNL A   1      42.789  30.774  31.106  1.00  0.00     0.167 HD
ATOM     37  C   UNL A   1      41.684  33.302  31.776  1.00  0.00     0.074 A 
ATOM     38  C   UNL A   1      40.740  34.393  31.914  1.00  0.00     0.031 C 
ATOM     39  C   UNL A   1      42.940  33.312  32.283  1.00  0.00     0.031 A 
BRANCH  26  40
ATOM     40  C   UNL A   1      46.138  28.126  31.301  1.00  0.00    -0.014 A 
ATOM     41  C   UNL A   1      46.255  27.193  32.346  1.00  0.00     0.010 A 
ATOM     42  C   UNL A   1      47.206  28.276  30.395  1.00  0.00     0.010 A 
ATOM     43  C   UNL A   1      47.421  26.433  32.488  1.00  0.00     0.020 A 
ATOM     44  C   UNL A   1      48.365  27.504  30.522  1.00  0.00     0.020 A 
ATOM     45  C   UNL A   1      48.467  26.593  31.573  1.00  0.00     0.054 A 
BRANCH  45  46
ATOM     46  S   UNL A   1      49.942  25.549  31.748  1.00  0.00     0.124 S 
ATOM     47  O   UNL A   1      50.031  24.931  30.428  1.00  0.00    -0.237 OA
ATOM     48  O   UNL A   1      50.988  26.523  32.055  1.00  0.00    -0.237 OA
ATOM     49  O   UNL A   1      49.599  24.642  32.839  1.00  0.00    -0.744 OA
ENDBRANCH  45  46
ENDBRANCH  26  40
BRANCH  27  50
ATOM     50  C   UNL A   1      37.394  32.773  29.917  1.00  0.00    -0.014 A 
ATOM     51  C   UNL A   1      37.133  33.592  28.805  1.00  0.00     0.010 A 
ATOM     52  C   UNL A   1      36.389  32.594  30.887  1.00  0.00     0.010 A 
ATOM     53  C   UNL A   1      35.902  34.242  28.680  1.00  0.00     0.020 A 
ATOM     54  C   UNL A   1      35.147  33.216  30.750  1.00  0.00     0.020 A 
ATOM     55  C   UNL A   1      34.918  34.053  29.655  1.00  0.00     0.054 A 
BRANCH  55  56
ATOM     56  S   UNL A   1      33.317  34.882  29.464  1.00  0.00     0.124 S 
ATOM     57  O   UNL A   1      33.703  36.143  28.837  1.00  0.00    -0.237 OA
ATOM     58  O   UNL A   1      32.577  33.952  28.614  1.00  0.00    -0.237 OA
ATOM     59  O   UNL A   1      32.822  34.987  30.834  1.00  0.00    -0.744 OA
ENDBRANCH  55  56
ENDBRANCH  27  50
BRANCH  39  60
ATOM     60  C   UNL A   1      43.369  34.551  33.020  1.00  0.00    -0.014 A 
ATOM     61  C   UNL A   1      43.973  35.624  32.340  1.00  0.00     0.010 A 
ATOM     62  C   UNL A   1      43.137  34.655  34.403  1.00  0.00     0.010 A 
ATOM     63  C   UNL A   1      44.370  36.766  33.039  1.00  0.00     0.020 A 
ATOM     64  C   UNL A   1      43.507  35.807  35.100  1.00  0.00     0.020 A 
ATOM     65  C   UNL A   1      44.136  36.849  34.416  1.00  0.00     0.054 A 
BRANCH  65  66
ATOM     66  S   UNL A   1      44.629  38.357  35.295  1.00  0.00     0.124 S 
ATOM     67  O   UNL A   1      44.251  38.042  36.669  1.00  0.00    -0.237 OA
ATOM     68  O   UNL A   1      46.064  38.426  35.037  1.00  0.00    -0.237 OA
ATOM     69  O   UNL A   1      43.836  39.404  34.654  1.00  0.00    -0.744 OA
ENDBRANCH  65  66
ENDBRANCH  39  60
ENDBRANCH  13  14
ENDBRANCH   6   8
ENDBRANCH   3   4
ENDBRANCH   2   3
ENDBRANCH   1   2
BRANCH   1  70
ATOM     70  C   UNL A   1      33.798  21.596  24.273  1.00  0.00     0.002 C 
BRANCH  70  71
ATOM     71  C   UNL A   1      32.681  21.949  23.288  1.00  0.00     0.021 C 
BRANCH  71  72
ATOM     72  C   UNL A   1      31.788  23.116  23.699  1.00  0.00     0.116 C 
BRANCH  72  73
ATOM     73  N   UNL A   1      31.476  23.111  25.117  1.00  0.00    -0.351 N 
ATOM     74  C   UNL A   1      31.358  24.181  25.974  1.00  0.00     0.270 C 
ATOM     75  H   UNL A   1      31.330  22.225  25.519  1.00  0.00     0.163 HD
ATOM     76  O   UNL A   1      31.115  23.998  27.163  1.00  0.00    -0.268 OA
BRANCH  74  77
ATOM     77  C   UNL A   1      31.504  25.554  25.433  1.00  0.00     0.134 A 
ATOM     78  C   UNL A   1      32.369  26.434  26.018  1.00  0.00     0.063 A 
ATOM     79  N   UNL A   1      30.703  25.864  24.410  1.00  0.00    -0.207 NA
ATOM     80  C   UNL A   1      32.318  27.716  25.522  1.00  0.00     0.077 A 
ATOM     81  C   UNL A   1      30.727  27.120  23.957  1.00  0.00     0.230 A 
ATOM     82  N   UNL A   1      31.517  28.070  24.486  1.00  0.00    -0.213 NA
BRANCH  80  83
ATOM     83  C   UNL A   1      33.076  28.780  26.196  1.00  0.00     0.000 A 
ATOM     84  C   UNL A   1      32.519  30.057  26.369  1.00  0.00     0.010 A 
ATOM     85  C   UNL A   1      34.316  28.511  26.805  1.00  0.00     0.010 A 
ATOM     86  C   UNL A   1      33.156  31.016  27.161  1.00  0.00     0.001 A 
ATOM     87  C   UNL A   1      34.955  29.470  27.593  1.00  0.00     0.001 A 
ATOM     88  C   UNL A   1      34.368  30.718  27.780  1.00  0.00     0.000 A 
ENDBRANCH  80  83
BRANCH  81  89
ATOM     89  N   UNL A   1      29.959  27.453  22.843  1.00  0.00    -0.300 N 
ATOM     90  H   UNL A   1      29.835  26.781  22.134  1.00  0.00     0.172 HD
BRANCH  89  91
ATOM     91  C   UNL A   1      29.377  28.662  22.700  1.00  0.00     0.190 A 
ATOM     92  N   UNL A   1      28.704  29.050  21.640  1.00  0.00    -0.220 NA
ATOM     93  S   UNL A   1      29.492  29.864  23.933  1.00  0.00    -0.097 S 
ATOM     94  C   UNL A   1      28.483  30.407  21.665  1.00  0.00     0.084 A 
ATOM     95  C   UNL A   1      28.870  31.049  22.840  1.00  0.00     0.056 A 
ATOM     96  C   UNL A   1      27.938  31.166  20.612  1.00  0.00     0.030 A 
ATOM     97  C   UNL A   1      28.739  32.439  22.994  1.00  0.00     0.021 A 
ATOM     98  C   UNL A   1      27.820  32.551  20.746  1.00  0.00     0.002 A 
ATOM     99  C   UNL A   1      28.220  33.178  21.923  1.00  0.00     0.002 A 
ENDBRANCH  89  91
ENDBRANCH  81  89
ENDBRANCH  74  77
ENDBRANCH  72  73
ENDBRANCH  71  72
ENDBRANCH  70  71
ENDBRANCH   1  70
TORSDOF 19
ENDMDL
