MODEL 1
REMARK VINA RESULT:     -13.2      0.000      0.000
REMARK SMILES COC(=O)c1ccc([C@H]2CC(=O)Nc3c(C(=O)NCCCCCCNC(=O)c4ccc(-c5c6nc(c(-c7ccc(S(=O)(=O)[O-])cc7)c7ccc([nH]7)c(-c7ccc(S(=O)(=O)[O-])cc7)c7nc(c(-c8ccc(S(=O)(=O)[O-])cc8)c8ccc5[nH]8)C=C7)C=C6)cc4)cn(-c4ccccc4)c32)cc1
REMARK SMILES IDX 21 1 20 2 19 3 18 4 16 5 17 6 15 8 9 9 10 10 96 11 11 12
REMARK SMILES IDX 14 13 89 14 12 15 13 16 88 17 8 19 5 20 6 21 98 22 7 23
REMARK SMILES IDX 97 24 3 25 4 26 2 27 1 28 90 29 91 30 95 31 92 32 94 33
REMARK SMILES IDX 93 34 22 35 23 36 24 37 25 38 26 39 27 41 28 42 29 43 87 44
REMARK SMILES IDX 30 45 86 46 31 47 32 48 33 49 80 50 34 51 85 52 79 53 81 54
REMARK SMILES IDX 35 55 84 56 78 57 77 58 36 60 66 61 47 62 65 63 48 64 51 65
REMARK SMILES IDX 64 66 82 67 49 68 50 69 63 71 83 72 52 73 37 74 38 75 46 76
REMARK SMILES IDX 39 77 45 78 40 79 41 80 42 81 43 82 44 83 67 84 68 85 76 86
REMARK SMILES IDX 69 87 75 88 70 89 71 90 72 91 73 92 74 93 53 94 54 95 62 96
REMARK SMILES IDX 55 97 61 98 56 99 57 100 58 101 59 102 60 103
REMARK H PARENT 18 7 13 18 25 40 81 59 51 70
REMARK Flexibility Score: inf
ROOT
ATOM      1  C   UNL A   1      33.009  29.007  23.671  1.00  0.00     0.002 C 
ENDROOT
BRANCH   1   2
ATOM      2  C   UNL A   1      31.577  29.239  24.154  1.00  0.00     0.021 C 
BRANCH   2   3
ATOM      3  C   UNL A   1      30.555  29.210  23.012  1.00  0.00     0.116 C 
BRANCH   3   4
ATOM      4  N   UNL A   1      29.452  28.362  23.361  1.00  0.00    -0.352 N 
ATOM      5  C   UNL A   1      29.362  27.036  23.661  1.00  0.00     0.254 C 
ATOM      6  O   UNL A   1      28.226  26.654  23.964  1.00  0.00    -0.269 OA
ATOM      7  H   UNL A   1      28.586  28.832  23.389  1.00  0.00     0.163 HD
BRANCH   5   8
ATOM      8  C   UNL A   1      30.498  26.104  23.701  1.00  0.00     0.081 A 
ATOM      9  C   UNL A   1      33.305  23.757  22.865  1.00  0.00     0.078 C 
ATOM     10  C   UNL A   1      33.298  23.861  21.333  1.00  0.00     0.115 C 
ATOM     11  C   UNL A   1      32.277  24.671  23.494  1.00  0.00     0.055 A 
ATOM     12  C   UNL A   1      32.700  25.114  20.765  1.00  0.00     0.225 C 
ATOM     13  C   UNL A   1      31.454  25.537  22.799  1.00  0.00     0.076 A 
ATOM     14  N   UNL A   1      31.927  24.732  24.830  1.00  0.00    -0.317 N 
ATOM     15  O   UNL A   1      33.019  25.554  19.660  1.00  0.00    -0.275 OA
ATOM     16  N   UNL A   1      31.678  25.697  21.454  1.00  0.00    -0.324 N 
ATOM     17  C   UNL A   1      30.806  25.516  24.925  1.00  0.00     0.107 A 
ATOM     18  H   UNL A   1      31.056  26.271  20.952  1.00  0.00     0.170 HD
BRANCH   9  19
ATOM     19  C   UNL A   1      33.181  22.271  23.207  1.00  0.00    -0.038 A 
ATOM     20  C   UNL A   1      32.930  19.510  23.727  1.00  0.00     0.060 A 
ATOM     21  C   UNL A   1      31.975  20.170  22.947  1.00  0.00     0.016 A 
ATOM     22  C   UNL A   1      33.970  20.243  24.302  1.00  0.00     0.016 A 
ATOM     23  C   UNL A   1      32.106  21.535  22.681  1.00  0.00     0.005 A 
ATOM     24  C   UNL A   1      34.067  21.615  24.077  1.00  0.00     0.005 A 
BRANCH  20  25
ATOM     25  C   UNL A   1      32.812  18.039  23.903  1.00  0.00     0.337 C 
ATOM     26  O   UNL A   1      33.240  17.228  23.107  1.00  0.00    -0.246 OA
BRANCH  25  27
ATOM     27  O   UNL A   1      32.193  17.767  25.079  1.00  0.00    -0.465 OA
ATOM     28  C   UNL A   1      32.603  16.554  25.702  1.00  0.00     0.282 C 
ENDBRANCH  25  27
ENDBRANCH  20  25
ENDBRANCH   9  19
BRANCH  14  29
ATOM     29  C   UNL A   1      32.489  24.011  25.911  1.00  0.00     0.045 A 
ATOM     30  C   UNL A   1      33.839  24.160  26.235  1.00  0.00     0.026 A 
ATOM     31  C   UNL A   1      31.704  23.045  26.554  1.00  0.00     0.026 A 
ATOM     32  C   UNL A   1      34.423  23.292  27.155  1.00  0.00     0.002 A 
ATOM     33  C   UNL A   1      32.305  22.157  27.445  1.00  0.00     0.002 A 
ATOM     34  C   UNL A   1      33.664  22.274  27.736  1.00  0.00     0.000 A 
ENDBRANCH  14  29
ENDBRANCH   5   8
ENDBRANCH   3   4
ENDBRANCH   2   3
ENDBRANCH   1   2
BRANCH   1  35
ATOM     35  C   UNL A   1      33.811  27.999  24.515  1.00  0.00     0.002 C 
BRANCH  35  36
ATOM     36  C   UNL A   1      33.451  27.934  26.009  1.00  0.00     0.021 C 
BRANCH  36  37
ATOM     37  C   UNL A   1      34.441  28.693  26.873  1.00  0.00     0.116 C 
BRANCH  37  38
ATOM     38  N   UNL A   1      34.122  30.131  26.930  1.00  0.00    -0.352 N 
ATOM     39  C   UNL A   1      34.779  31.157  27.588  1.00  0.00     0.251 C 
ATOM     40  H   UNL A   1      33.322  30.402  26.423  1.00  0.00     0.163 HD
ATOM     41  O   UNL A   1      34.214  32.219  27.817  1.00  0.00    -0.269 OA
BRANCH  39  42
ATOM     42  C   UNL A   1      36.178  30.943  27.986  1.00  0.00     0.039 A 
ATOM     43  C   UNL A   1      36.898  31.793  28.829  1.00  0.00     0.014 A 
ATOM     44  C   UNL A   1      36.751  29.777  27.515  1.00  0.00     0.014 A 
ATOM     45  C   UNL A   1      38.197  31.419  29.174  1.00  0.00     0.010 A 
ATOM     46  C   UNL A   1      37.789  29.243  28.198  1.00  0.00     0.010 A 
ATOM     47  C   UNL A   1      38.633  30.135  28.821  1.00  0.00    -0.014 A 
BRANCH  47  48
ATOM     48  C   UNL A   1      39.959  29.608  29.076  1.00  0.00     0.031 A 
ATOM     49  C   UNL A   1      40.229  29.352  30.502  1.00  0.00     0.074 A 
ATOM     50  C   UNL A   1      40.729  29.110  28.077  1.00  0.00     0.049 A 
ATOM     51  N   UNL A   1      40.992  30.034  31.286  1.00  0.00    -0.248 NA
ATOM     52  C   UNL A   1      39.416  28.334  31.189  1.00  0.00     0.031 C 
ATOM     53  C   UNL A   1      40.419  28.954  26.644  1.00  0.00     0.029 A 
ATOM     54  N   UNL A   1      41.937  28.505  28.170  1.00  0.00    -0.354 N 
ATOM     55  C   UNL A   1      40.943  29.382  32.510  1.00  0.00     0.074 A 
ATOM     56  C   UNL A   1      39.797  28.509  32.454  1.00  0.00     0.031 C 
ATOM     57  C   UNL A   1      41.299  28.096  26.076  1.00  0.00     0.029 A 
ATOM     58  C   UNL A   1      42.328  27.781  27.049  1.00  0.00     0.049 A 
ATOM     59  H   UNL A   1      42.499  28.573  28.975  1.00  0.00     0.167 HD
ATOM     60  C   UNL A   1      42.004  29.400  33.364  1.00  0.00     0.031 A 
ATOM     61  C   UNL A   1      43.405  26.958  26.956  1.00  0.00     0.031 A 
ATOM     62  C   UNL A   1      42.999  30.358  32.949  1.00  0.00     0.049 A 
ATOM     63  C   UNL A   1      44.325  27.350  28.058  1.00  0.00     0.074 A 
ATOM     64  C   UNL A   1      43.002  31.725  32.748  1.00  0.00     0.029 A 
ATOM     65  N   UNL A   1      44.073  29.871  32.235  1.00  0.00    -0.354 N 
ATOM     66  N   UNL A   1      44.888  28.526  28.129  1.00  0.00    -0.248 NA
ATOM     67  C   UNL A   1      44.198  26.647  29.327  1.00  0.00     0.031 C 
ATOM     68  C   UNL A   1      43.750  31.914  31.547  1.00  0.00     0.029 A 
ATOM     69  C   UNL A   1      44.235  30.672  31.132  1.00  0.00     0.049 A 
ATOM     70  H   UNL A   1      44.622  29.089  32.473  1.00  0.00     0.167 HD
ATOM     71  C   UNL A   1      44.792  28.894  29.466  1.00  0.00     0.074 A 
ATOM     72  C   UNL A   1      44.431  27.661  30.169  1.00  0.00     0.031 C 
ATOM     73  C   UNL A   1      44.721  30.206  29.845  1.00  0.00     0.031 A 
BRANCH  60  74
ATOM     74  C   UNL A   1      42.325  28.282  34.320  1.00  0.00    -0.014 A 
ATOM     75  C   UNL A   1      42.313  28.551  35.702  1.00  0.00     0.010 A 
ATOM     76  C   UNL A   1      42.892  27.056  33.909  1.00  0.00     0.010 A 
ATOM     77  C   UNL A   1      42.897  27.667  36.617  1.00  0.00     0.020 A 
ATOM     78  C   UNL A   1      43.437  26.148  34.816  1.00  0.00     0.020 A 
ATOM     79  C   UNL A   1      43.469  26.477  36.163  1.00  0.00     0.054 A 
BRANCH  79  80
ATOM     80  S   UNL A   1      44.322  25.401  37.339  1.00  0.00     0.124 S 
ATOM     81  O   UNL A   1      43.843  24.081  36.940  1.00  0.00    -0.237 OA
ATOM     82  O   UNL A   1      45.725  25.681  37.052  1.00  0.00    -0.237 OA
ATOM     83  O   UNL A   1      43.849  25.872  38.640  1.00  0.00    -0.744 OA
ENDBRANCH  79  80
ENDBRANCH  60  74
BRANCH  61  84
ATOM     84  C   UNL A   1      43.481  25.644  26.257  1.00  0.00    -0.014 A 
ATOM     85  C   UNL A   1      44.379  25.415  25.196  1.00  0.00     0.010 A 
ATOM     86  C   UNL A   1      42.856  24.514  26.828  1.00  0.00     0.010 A 
ATOM     87  C   UNL A   1      44.678  24.107  24.761  1.00  0.00     0.020 A 
ATOM     88  C   UNL A   1      43.148  23.212  26.402  1.00  0.00     0.020 A 
ATOM     89  C   UNL A   1      44.074  23.010  25.384  1.00  0.00     0.054 A 
BRANCH  89  90
ATOM     90  S   UNL A   1      44.586  21.320  24.940  1.00  0.00     0.124 S 
ATOM     91  O   UNL A   1      45.892  21.208  25.584  1.00  0.00    -0.237 OA
ATOM     92  O   UNL A   1      43.525  20.501  25.521  1.00  0.00    -0.237 OA
ATOM     93  O   UNL A   1      44.618  21.340  23.479  1.00  0.00    -0.744 OA
ENDBRANCH  89  90
ENDBRANCH  61  84
BRANCH  73  94
ATOM     94  C   UNL A   1      44.949  31.275  28.793  1.00  0.00    -0.014 A 
ATOM     95  C   UNL A   1      43.966  31.696  27.872  1.00  0.00     0.010 A 
ATOM     96  C   UNL A   1      46.149  32.003  28.857  1.00  0.00     0.010 A 
ATOM     97  C   UNL A   1      44.188  32.800  27.029  1.00  0.00     0.020 A 
ATOM     98  C   UNL A   1      46.371  33.111  28.032  1.00  0.00     0.020 A 
ATOM     99  C   UNL A   1      45.394  33.501  27.116  1.00  0.00     0.054 A 
BRANCH  99 100
ATOM    100  S   UNL A   1      45.668  34.952  26.058  1.00  0.00     0.124 S 
ATOM    101  O   UNL A   1      46.356  35.875  26.956  1.00  0.00    -0.237 OA
ATOM    102  O   UNL A   1      46.478  34.414  24.968  1.00  0.00    -0.237 OA
ATOM    103  O   UNL A   1      44.318  35.360  25.671  1.00  0.00    -0.744 OA
ENDBRANCH  99 100
ENDBRANCH  73  94
ENDBRANCH  47  48
ENDBRANCH  39  42
ENDBRANCH  37  38
ENDBRANCH  36  37
ENDBRANCH  35  36
ENDBRANCH   1  35
TORSDOF 20
ENDMDL
MODEL 2
REMARK VINA RESULT:     -11.0      6.092     11.815
REMARK SMILES COC(=O)c1ccc([C@H]2CC(=O)Nc3c(C(=O)NCCCCCCNC(=O)c4ccc(-c5c6nc(c(-c7ccc(S(=O)(=O)[O-])cc7)c7ccc([nH]7)c(-c7ccc(S(=O)(=O)[O-])cc7)c7nc(c(-c8ccc(S(=O)(=O)[O-])cc8)c8ccc5[nH]8)C=C7)C=C6)cc4)cn(-c4ccccc4)c32)cc1
REMARK SMILES IDX 21 1 20 2 19 3 18 4 16 5 17 6 15 8 9 9 10 10 96 11 11 12
REMARK SMILES IDX 14 13 89 14 12 15 13 16 88 17 8 19 5 20 6 21 98 22 7 23
REMARK SMILES IDX 97 24 3 25 4 26 2 27 1 28 90 29 91 30 95 31 92 32 94 33
REMARK SMILES IDX 93 34 22 35 23 36 24 37 25 38 26 39 27 41 28 42 29 43 87 44
REMARK SMILES IDX 30 45 86 46 31 47 32 48 33 49 80 50 34 51 85 52 79 53 81 54
REMARK SMILES IDX 35 55 84 56 78 57 77 58 36 60 66 61 47 62 65 63 48 64 51 65
REMARK SMILES IDX 64 66 82 67 49 68 50 69 63 71 83 72 52 73 37 74 38 75 46 76
REMARK SMILES IDX 39 77 45 78 40 79 41 80 42 81 43 82 44 83 67 84 68 85 76 86
REMARK SMILES IDX 69 87 75 88 70 89 71 90 72 91 73 92 74 93 53 94 54 95 62 96
REMARK SMILES IDX 55 97 61 98 56 99 57 100 58 101 59 102 60 103
REMARK H PARENT 18 7 13 18 25 40 81 59 51 70
REMARK Flexibility Score: inf
ROOT
ATOM      1  C   UNL A   1      46.157  33.808  30.895  1.00  0.00     0.002 C 
ENDROOT
BRANCH   1   2
ATOM      2  C   UNL A   1      46.039  33.281  29.465  1.00  0.00     0.021 C 
BRANCH   2   3
ATOM      3  C   UNL A   1      44.663  32.671  29.170  1.00  0.00     0.116 C 
BRANCH   3   4
ATOM      4  N   UNL A   1      44.436  32.631  27.754  1.00  0.00    -0.352 N 
ATOM      5  C   UNL A   1      44.239  31.607  26.876  1.00  0.00     0.254 C 
ATOM      6  O   UNL A   1      44.027  31.964  25.712  1.00  0.00    -0.269 OA
ATOM      7  H   UNL A   1      44.421  33.521  27.332  1.00  0.00     0.163 HD
BRANCH   5   8
ATOM      8  C   UNL A   1      44.205  30.184  27.239  1.00  0.00     0.081 A 
ATOM      9  C   UNL A   1      45.053  26.666  28.238  1.00  0.00     0.078 C 
ATOM     10  C   UNL A   1      46.558  26.815  28.505  1.00  0.00     0.115 C 
ATOM     11  C   UNL A   1      44.418  27.985  27.859  1.00  0.00     0.055 A 
ATOM     12  C   UNL A   1      47.029  28.201  28.833  1.00  0.00     0.225 C 
ATOM     13  C   UNL A   1      45.079  29.197  27.800  1.00  0.00     0.076 A 
ATOM     14  N   UNL A   1      43.119  28.188  27.429  1.00  0.00    -0.317 N 
ATOM     15  O   UNL A   1      48.045  28.411  29.498  1.00  0.00    -0.275 OA
ATOM     16  N   UNL A   1      46.372  29.248  28.258  1.00  0.00    -0.324 N 
ATOM     17  C   UNL A   1      43.034  29.478  26.974  1.00  0.00     0.107 A 
ATOM     18  H   UNL A   1      46.858  30.098  28.164  1.00  0.00     0.170 HD
BRANCH   9  19
ATOM     19  C   UNL A   1      44.895  25.529  27.226  1.00  0.00    -0.038 A 
ATOM     20  C   UNL A   1      44.496  23.417  25.400  1.00  0.00     0.060 A 
ATOM     21  C   UNL A   1      44.129  23.268  26.741  1.00  0.00     0.016 A 
ATOM     22  C   UNL A   1      45.123  24.595  24.988  1.00  0.00     0.016 A 
ATOM     23  C   UNL A   1      44.317  24.318  27.643  1.00  0.00     0.005 A 
ATOM     24  C   UNL A   1      45.356  25.620  25.904  1.00  0.00     0.005 A 
BRANCH  20  25
ATOM     25  C   UNL A   1      44.187  22.316  24.451  1.00  0.00     0.337 C 
ATOM     26  O   UNL A   1      44.408  22.371  23.258  1.00  0.00    -0.246 OA
BRANCH  25  27
ATOM     27  O   UNL A   1      43.660  21.265  25.126  1.00  0.00    -0.465 OA
ATOM     28  C   UNL A   1      44.332  20.026  24.919  1.00  0.00     0.282 C 
ENDBRANCH  25  27
ENDBRANCH  20  25
ENDBRANCH   9  19
BRANCH  14  29
ATOM     29  C   UNL A   1      42.082  27.231  27.310  1.00  0.00     0.045 A 
ATOM     30  C   UNL A   1      41.557  26.612  28.446  1.00  0.00     0.026 A 
ATOM     31  C   UNL A   1      41.695  26.817  26.028  1.00  0.00     0.026 A 
ATOM     32  C   UNL A   1      40.695  25.527  28.299  1.00  0.00     0.002 A 
ATOM     33  C   UNL A   1      40.862  25.707  25.891  1.00  0.00     0.002 A 
ATOM     34  C   UNL A   1      40.373  25.058  27.024  1.00  0.00     0.000 A 
ENDBRANCH  14  29
ENDBRANCH   5   8
ENDBRANCH   3   4
ENDBRANCH   2   3
ENDBRANCH   1   2
BRANCH   1  35
ATOM     35  C   UNL A   1      47.022  35.073  31.039  1.00  0.00     0.002 C 
BRANCH  35  36
ATOM     36  C   UNL A   1      47.456  35.746  29.725  1.00  0.00     0.021 C 
BRANCH  36  37
ATOM     37  C   UNL A   1      46.412  36.717  29.204  1.00  0.00     0.116 C 
BRANCH  37  38
ATOM     38  N   UNL A   1      46.167  37.814  30.156  1.00  0.00    -0.352 N 
ATOM     39  C   UNL A   1      45.035  38.103  30.901  1.00  0.00     0.251 C 
ATOM     40  H   UNL A   1      46.921  38.435  30.282  1.00  0.00     0.163 HD
ATOM     41  O   UNL A   1      44.865  39.218  31.378  1.00  0.00    -0.269 OA
BRANCH  39  42
ATOM     42  C   UNL A   1      44.055  37.029  31.119  1.00  0.00     0.039 A 
ATOM     43  C   UNL A   1      43.405  36.335  30.096  1.00  0.00     0.014 A 
ATOM     44  C   UNL A   1      43.847  36.681  32.440  1.00  0.00     0.014 A 
ATOM     45  C   UNL A   1      42.553  35.291  30.458  1.00  0.00     0.010 A 
ATOM     46  C   UNL A   1      43.397  35.437  32.720  1.00  0.00     0.010 A 
ATOM     47  C   UNL A   1      42.548  34.873  31.795  1.00  0.00    -0.014 A 
BRANCH  47  48
ATOM     48  C   UNL A   1      41.701  33.829  32.336  1.00  0.00     0.031 A 
ATOM     49  C   UNL A   1      42.211  32.467  32.093  1.00  0.00     0.074 A 
ATOM     50  C   UNL A   1      40.727  34.102  33.239  1.00  0.00     0.049 A 
ATOM     51  N   UNL A   1      41.747  31.598  31.263  1.00  0.00    -0.248 NA
ATOM     52  C   UNL A   1      43.498  32.092  32.703  1.00  0.00     0.031 C 
ATOM     53  C   UNL A   1      40.360  35.388  33.862  1.00  0.00     0.029 A 
ATOM     54  N   UNL A   1      39.924  33.233  33.898  1.00  0.00    -0.354 N 
ATOM     55  C   UNL A   1      42.542  30.471  31.425  1.00  0.00     0.074 A 
ATOM     56  C   UNL A   1      43.720  30.909  32.130  1.00  0.00     0.031 C 
ATOM     57  C   UNL A   1      39.596  35.164  34.957  1.00  0.00     0.029 A 
ATOM     58  C   UNL A   1      39.274  33.751  35.012  1.00  0.00     0.049 A 
ATOM     59  H   UNL A   1      39.810  32.299  33.608  1.00  0.00     0.167 HD
ATOM     60  C   UNL A   1      42.045  29.220  31.217  1.00  0.00     0.031 A 
ATOM     61  C   UNL A   1      38.555  33.047  35.926  1.00  0.00     0.031 A 
ATOM     62  C   UNL A   1      40.749  29.265  30.585  1.00  0.00     0.049 A 
ATOM     63  C   UNL A   1      38.189  31.763  35.268  1.00  0.00     0.074 A 
ATOM     64  C   UNL A   1      40.273  29.767  29.389  1.00  0.00     0.029 A 
ATOM     65  N   UNL A   1      39.650  29.149  31.409  1.00  0.00    -0.354 N 
ATOM     66  N   UNL A   1      37.422  31.699  34.213  1.00  0.00    -0.248 NA
ATOM     67  C   UNL A   1      39.084  30.629  35.453  1.00  0.00     0.031 C 
ATOM     68  C   UNL A   1      39.032  30.386  29.724  1.00  0.00     0.029 A 
ATOM     69  C   UNL A   1      38.776  30.154  31.078  1.00  0.00     0.049 A 
ATOM     70  H   UNL A   1      39.517  28.468  32.108  1.00  0.00     0.167 HD
ATOM     71  C   UNL A   1      38.025  30.761  33.383  1.00  0.00     0.074 A 
ATOM     72  C   UNL A   1      39.000  30.077  34.237  1.00  0.00     0.031 C 
ATOM     73  C   UNL A   1      37.897  30.819  32.023  1.00  0.00     0.031 A 
BRANCH  60  74
ATOM     74  C   UNL A   1      42.533  27.996  31.948  1.00  0.00    -0.014 A 
ATOM     75  C   UNL A   1      42.135  27.804  33.284  1.00  0.00     0.010 A 
ATOM     76  C   UNL A   1      43.570  27.172  31.461  1.00  0.00     0.010 A 
ATOM     77  C   UNL A   1      42.788  26.881  34.109  1.00  0.00     0.020 A 
ATOM     78  C   UNL A   1      44.198  26.218  32.262  1.00  0.00     0.020 A 
ATOM     79  C   UNL A   1      43.826  26.103  33.593  1.00  0.00     0.054 A 
BRANCH  79  80
ATOM     80  S   UNL A   1      44.736  24.998  34.697  1.00  0.00     0.124 S 
ATOM     81  O   UNL A   1      43.664  24.438  35.512  1.00  0.00    -0.237 OA
ATOM     82  O   UNL A   1      45.369  24.077  33.757  1.00  0.00    -0.237 OA
ATOM     83  O   UNL A   1      45.653  25.895  35.398  1.00  0.00    -0.744 OA
ENDBRANCH  79  80
ENDBRANCH  60  74
BRANCH  61  84
ATOM     84  C   UNL A   1      38.531  33.244  37.403  1.00  0.00    -0.014 A 
ATOM     85  C   UNL A   1      37.448  32.813  38.194  1.00  0.00     0.010 A 
ATOM     86  C   UNL A   1      39.716  33.611  38.076  1.00  0.00     0.010 A 
ATOM     87  C   UNL A   1      37.565  32.703  39.595  1.00  0.00     0.020 A 
ATOM     88  C   UNL A   1      39.841  33.505  39.468  1.00  0.00     0.020 A 
ATOM     89  C   UNL A   1      38.772  33.031  40.223  1.00  0.00     0.054 A 
BRANCH  89  90
ATOM     90  S   UNL A   1      38.979  32.729  42.006  1.00  0.00     0.124 S 
ATOM     91  O   UNL A   1      38.011  33.649  42.595  1.00  0.00    -0.237 OA
ATOM     92  O   UNL A   1      38.658  31.309  42.130  1.00  0.00    -0.237 OA
ATOM     93  O   UNL A   1      40.380  33.066  42.253  1.00  0.00    -0.744 OA
ENDBRANCH  89  90
ENDBRANCH  61  84
BRANCH  73  94
ATOM     94  C   UNL A   1      36.916  31.816  31.432  1.00  0.00    -0.014 A 
ATOM     95  C   UNL A   1      37.259  33.136  31.069  1.00  0.00     0.010 A 
ATOM     96  C   UNL A   1      35.646  31.339  31.069  1.00  0.00     0.010 A 
ATOM     97  C   UNL A   1      36.347  33.957  30.380  1.00  0.00     0.020 A 
ATOM     98  C   UNL A   1      34.740  32.144  30.372  1.00  0.00     0.020 A 
ATOM     99  C   UNL A   1      35.090  33.452  30.036  1.00  0.00     0.054 A 
BRANCH  99 100
ATOM    100  S   UNL A   1      33.925  34.495  29.111  1.00  0.00     0.124 S 
ATOM    101  O   UNL A   1      33.041  34.994  30.160  1.00  0.00    -0.237 OA
ATOM    102  O   UNL A   1      34.797  35.492  28.495  1.00  0.00    -0.237 OA
ATOM    103  O   UNL A   1      33.300  33.567  28.169  1.00  0.00    -0.744 OA
ENDBRANCH  99 100
ENDBRANCH  73  94
ENDBRANCH  47  48
ENDBRANCH  39  42
ENDBRANCH  37  38
ENDBRANCH  36  37
ENDBRANCH  35  36
ENDBRANCH   1  35
TORSDOF 20
ENDMDL
MODEL 3
REMARK VINA RESULT:     -11.0      5.873     13.552
REMARK SMILES COC(=O)c1ccc([C@H]2CC(=O)Nc3c(C(=O)NCCCCCCNC(=O)c4ccc(-c5c6nc(c(-c7ccc(S(=O)(=O)[O-])cc7)c7ccc([nH]7)c(-c7ccc(S(=O)(=O)[O-])cc7)c7nc(c(-c8ccc(S(=O)(=O)[O-])cc8)c8ccc5[nH]8)C=C7)C=C6)cc4)cn(-c4ccccc4)c32)cc1
REMARK SMILES IDX 21 1 20 2 19 3 18 4 16 5 17 6 15 8 9 9 10 10 96 11 11 12
REMARK SMILES IDX 14 13 89 14 12 15 13 16 88 17 8 19 5 20 6 21 98 22 7 23
REMARK SMILES IDX 97 24 3 25 4 26 2 27 1 28 90 29 91 30 95 31 92 32 94 33
REMARK SMILES IDX 93 34 22 35 23 36 24 37 25 38 26 39 27 41 28 42 29 43 87 44
REMARK SMILES IDX 30 45 86 46 31 47 32 48 33 49 80 50 34 51 85 52 79 53 81 54
REMARK SMILES IDX 35 55 84 56 78 57 77 58 36 60 66 61 47 62 65 63 48 64 51 65
REMARK SMILES IDX 64 66 82 67 49 68 50 69 63 71 83 72 52 73 37 74 38 75 46 76
REMARK SMILES IDX 39 77 45 78 40 79 41 80 42 81 43 82 44 83 67 84 68 85 76 86
REMARK SMILES IDX 69 87 75 88 70 89 71 90 72 91 73 92 74 93 53 94 54 95 62 96
REMARK SMILES IDX 55 97 61 98 56 99 57 100 58 101 59 102 60 103
REMARK H PARENT 18 7 13 18 25 40 81 59 51 70
REMARK Flexibility Score: inf
ROOT
ATOM      1  C   UNL A   1      45.201  25.596  26.839  1.00  0.00     0.002 C 
ENDROOT
BRANCH   1   2
ATOM      2  C   UNL A   1      46.356  25.404  27.823  1.00  0.00     0.021 C 
BRANCH   2   3
ATOM      3  C   UNL A   1      45.896  24.836  29.172  1.00  0.00     0.116 C 
BRANCH   3   4
ATOM      4  N   UNL A   1      44.813  25.620  29.692  1.00  0.00    -0.352 N 
ATOM      5  C   UNL A   1      44.481  26.019  30.952  1.00  0.00     0.254 C 
ATOM      6  O   UNL A   1      43.479  26.740  31.014  1.00  0.00    -0.269 OA
ATOM      7  H   UNL A   1      44.185  25.931  29.001  1.00  0.00     0.163 HD
BRANCH   5   8
ATOM      8  C   UNL A   1      45.248  25.701  32.164  1.00  0.00     0.081 A 
ATOM      9  C   UNL A   1      47.681  25.672  35.023  1.00  0.00     0.078 C 
ATOM     10  C   UNL A   1      48.409  27.001  34.773  1.00  0.00     0.115 C 
ATOM     11  C   UNL A   1      46.573  25.442  34.019  1.00  0.00     0.055 A 
ATOM     12  C   UNL A   1      47.649  28.023  33.979  1.00  0.00     0.225 C 
ATOM     13  C   UNL A   1      46.209  26.327  33.022  1.00  0.00     0.076 A 
ATOM     14  N   UNL A   1      45.811  24.298  33.872  1.00  0.00    -0.317 N 
ATOM     15  O   UNL A   1      47.865  29.231  34.084  1.00  0.00    -0.275 OA
ATOM     16  N   UNL A   1      46.789  27.571  33.023  1.00  0.00    -0.324 N 
ATOM     17  C   UNL A   1      45.096  24.429  32.709  1.00  0.00     0.107 A 
ATOM     18  H   UNL A   1      46.570  28.179  32.281  1.00  0.00     0.170 HD
BRANCH   9  19
ATOM     19  C   UNL A   1      48.758  24.587  35.094  1.00  0.00    -0.038 A 
ATOM     20  C   UNL A   1      50.671  22.525  35.292  1.00  0.00     0.060 A 
ATOM     21  C   UNL A   1      50.018  22.992  36.437  1.00  0.00     0.016 A 
ATOM     22  C   UNL A   1      50.418  23.133  34.062  1.00  0.00     0.016 A 
ATOM     23  C   UNL A   1      49.062  24.006  36.337  1.00  0.00     0.005 A 
ATOM     24  C   UNL A   1      49.502  24.181  33.975  1.00  0.00     0.005 A 
BRANCH  20  25
ATOM     25  C   UNL A   1      51.606  21.376  35.425  1.00  0.00     0.337 C 
ATOM     26  O   UNL A   1      52.669  21.436  36.008  1.00  0.00    -0.246 OA
BRANCH  25  27
ATOM     27  O   UNL A   1      51.072  20.281  34.830  1.00  0.00    -0.465 OA
ATOM     28  C   UNL A   1      50.994  19.128  35.662  1.00  0.00     0.282 C 
ENDBRANCH  25  27
ENDBRANCH  20  25
ENDBRANCH   9  19
BRANCH  14  29
ATOM     29  C   UNL A   1      45.846  23.122  34.658  1.00  0.00     0.045 A 
ATOM     30  C   UNL A   1      45.383  23.135  35.975  1.00  0.00     0.026 A 
ATOM     31  C   UNL A   1      46.483  21.986  34.137  1.00  0.00     0.026 A 
ATOM     32  C   UNL A   1      45.621  22.036  36.797  1.00  0.00     0.002 A 
ATOM     33  C   UNL A   1      46.749  20.906  34.978  1.00  0.00     0.002 A 
ATOM     34  C   UNL A   1      46.328  20.936  36.307  1.00  0.00     0.000 A 
ENDBRANCH  14  29
ENDBRANCH   5   8
ENDBRANCH   3   4
ENDBRANCH   2   3
ENDBRANCH   1   2
BRANCH   1  35
ATOM     35  C   UNL A   1      45.507  25.138  25.402  1.00  0.00     0.002 C 
BRANCH  35  36
ATOM     36  C   UNL A   1      44.632  23.996  24.857  1.00  0.00     0.021 C 
BRANCH  36  37
ATOM     37  C   UNL A   1      44.327  22.951  25.914  1.00  0.00     0.116 C 
BRANCH  37  38
ATOM     38  N   UNL A   1      42.973  22.393  25.751  1.00  0.00    -0.352 N 
ATOM     39  C   UNL A   1      41.759  22.866  26.221  1.00  0.00     0.251 C 
ATOM     40  H   UNL A   1      42.924  21.560  25.229  1.00  0.00     0.163 HD
ATOM     41  O   UNL A   1      40.784  22.128  26.295  1.00  0.00    -0.269 OA
BRANCH  39  42
ATOM     42  C   UNL A   1      41.669  24.280  26.611  1.00  0.00     0.039 A 
ATOM     43  C   UNL A   1      41.241  25.307  25.766  1.00  0.00     0.014 A 
ATOM     44  C   UNL A   1      41.983  24.548  27.931  1.00  0.00     0.014 A 
ATOM     45  C   UNL A   1      41.141  26.591  26.302  1.00  0.00     0.010 A 
ATOM     46  C   UNL A   1      41.464  25.655  28.509  1.00  0.00     0.010 A 
ATOM     47  C   UNL A   1      41.283  26.744  27.687  1.00  0.00    -0.014 A 
BRANCH  47  48
ATOM     48  C   UNL A   1      41.239  28.010  28.392  1.00  0.00     0.031 A 
ATOM     49  C   UNL A   1      42.315  28.941  28.004  1.00  0.00     0.074 A 
ATOM     50  C   UNL A   1      40.141  28.399  29.085  1.00  0.00     0.049 A 
ATOM     51  N   UNL A   1      43.353  29.264  28.696  1.00  0.00    -0.248 NA
ATOM     52  C   UNL A   1      42.342  29.425  26.614  1.00  0.00     0.031 C 
ATOM     53  C   UNL A   1      38.840  27.722  29.236  1.00  0.00     0.029 A 
ATOM     54  N   UNL A   1      39.917  29.579  29.710  1.00  0.00    -0.354 N 
ATOM     55  C   UNL A   1      44.042  30.187  27.920  1.00  0.00     0.074 A 
ATOM     56  C   UNL A   1      43.512  30.063  26.586  1.00  0.00     0.031 C 
ATOM     57  C   UNL A   1      37.916  28.601  29.691  1.00  0.00     0.029 A 
ATOM     58  C   UNL A   1      38.589  29.841  30.028  1.00  0.00     0.049 A 
ATOM     59  H   UNL A   1      40.643  30.207  29.925  1.00  0.00     0.167 HD
ATOM     60  C   UNL A   1      44.791  31.170  28.491  1.00  0.00     0.031 A 
ATOM     61  C   UNL A   1      38.089  31.013  30.501  1.00  0.00     0.031 A 
ATOM     62  C   UNL A   1      44.965  30.949  29.905  1.00  0.00     0.049 A 
ATOM     63  C   UNL A   1      39.245  31.761  31.065  1.00  0.00     0.074 A 
ATOM     64  C   UNL A   1      45.522  29.939  30.666  1.00  0.00     0.029 A 
ATOM     65  N   UNL A   1      44.117  31.633  30.751  1.00  0.00    -0.354 N 
ATOM     66  N   UNL A   1      39.939  31.332  32.085  1.00  0.00    -0.248 NA
ATOM     67  C   UNL A   1      39.943  32.690  30.187  1.00  0.00     0.031 C 
ATOM     68  C   UNL A   1      44.618  29.763  31.756  1.00  0.00     0.029 A 
ATOM     69  C   UNL A   1      43.613  30.728  31.652  1.00  0.00     0.049 A 
ATOM     70  H   UNL A   1      43.912  32.595  30.715  1.00  0.00     0.167 HD
ATOM     71  C   UNL A   1      41.265  31.580  31.750  1.00  0.00     0.074 A 
ATOM     72  C   UNL A   1      41.198  32.492  30.605  1.00  0.00     0.031 C 
ATOM     73  C   UNL A   1      42.283  30.803  32.231  1.00  0.00     0.031 A 
BRANCH  60  74
ATOM     74  C   UNL A   1      45.011  32.522  27.864  1.00  0.00    -0.014 A 
ATOM     75  C   UNL A   1      46.330  32.936  27.597  1.00  0.00     0.010 A 
ATOM     76  C   UNL A   1      43.998  33.501  27.769  1.00  0.00     0.010 A 
ATOM     77  C   UNL A   1      46.625  34.276  27.317  1.00  0.00     0.020 A 
ATOM     78  C   UNL A   1      44.276  34.829  27.447  1.00  0.00     0.020 A 
ATOM     79  C   UNL A   1      45.595  35.216  27.258  1.00  0.00     0.054 A 
BRANCH  79  80
ATOM     80  S   UNL A   1      46.002  36.960  27.010  1.00  0.00     0.124 S 
ATOM     81  O   UNL A   1      46.799  36.911  25.789  1.00  0.00    -0.237 OA
ATOM     82  O   UNL A   1      44.681  37.569  26.883  1.00  0.00    -0.237 OA
ATOM     83  O   UNL A   1      46.734  37.316  28.224  1.00  0.00    -0.744 OA
ENDBRANCH  79  80
ENDBRANCH  60  74
BRANCH  61  84
ATOM     84  C   UNL A   1      36.799  31.661  30.129  1.00  0.00    -0.014 A 
ATOM     85  C   UNL A   1      35.851  32.043  31.098  1.00  0.00     0.010 A 
ATOM     86  C   UNL A   1      36.624  32.163  28.822  1.00  0.00     0.010 A 
ATOM     87  C   UNL A   1      34.803  32.933  30.783  1.00  0.00     0.020 A 
ATOM     88  C   UNL A   1      35.585  33.047  28.500  1.00  0.00     0.020 A 
ATOM     89  C   UNL A   1      34.689  33.447  29.488  1.00  0.00     0.054 A 
BRANCH  89  90
ATOM     90  S   UNL A   1      33.443  34.723  29.123  1.00  0.00     0.124 S 
ATOM     91  O   UNL A   1      32.539  34.029  28.210  1.00  0.00    -0.237 OA
ATOM     92  O   UNL A   1      32.896  35.024  30.444  1.00  0.00    -0.237 OA
ATOM     93  O   UNL A   1      34.220  35.804  28.519  1.00  0.00    -0.744 OA
ENDBRANCH  89  90
ENDBRANCH  61  84
BRANCH  73  94
ATOM     94  C   UNL A   1      41.964  29.777  33.303  1.00  0.00    -0.014 A 
ATOM     95  C   UNL A   1      41.540  28.459  33.029  1.00  0.00     0.010 A 
ATOM     96  C   UNL A   1      42.276  30.109  34.632  1.00  0.00     0.010 A 
ATOM     97  C   UNL A   1      41.415  27.510  34.060  1.00  0.00     0.020 A 
ATOM     98  C   UNL A   1      42.168  29.168  35.660  1.00  0.00     0.020 A 
ATOM     99  C   UNL A   1      41.731  27.874  35.373  1.00  0.00     0.054 A 
BRANCH  99 100
ATOM    100  S   UNL A   1      41.611  26.640  36.701  1.00  0.00     0.124 S 
ATOM    101  O   UNL A   1      42.883  26.798  37.398  1.00  0.00    -0.237 OA
ATOM    102  O   UNL A   1      40.429  27.072  37.442  1.00  0.00    -0.237 OA
ATOM    103  O   UNL A   1      41.453  25.374  35.985  1.00  0.00    -0.744 OA
ENDBRANCH  99 100
ENDBRANCH  73  94
ENDBRANCH  47  48
ENDBRANCH  39  42
ENDBRANCH  37  38
ENDBRANCH  36  37
ENDBRANCH  35  36
ENDBRANCH   1  35
TORSDOF 20
ENDMDL
