MODEL 1
REMARK VINA RESULT:     -10.6      0.000      0.000
REMARK SMILES CC(C)[C@@H](C)[N@@H+]1[C@@H](C(=O)NCCCCCCNC(=O)c2ccc(-c3c4nc(c(-c5ccc(S(=O)(=O)[O-])cc5)c5ccc([nH]5)c(-c5ccc(S(=O)(=O)[O-])cc5)c5nc(c(-c6ccc(S(=O)(=O)[O-])cc6)c6ccc3[nH]6)C=C5)C=C4)cc2)C[C@H]2CCCC[C@H]21
REMARK SMILES IDX 14 1 13 2 12 3 11 4 10 5 8 6 9 7 7 9 6 10 86 11 80 13 81 14
REMARK SMILES IDX 85 15 82 16 84 17 83 18 4 19 5 20 2 21 1 22 3 23 15 24 16 25
REMARK SMILES IDX 17 26 18 27 19 29 20 30 21 31 79 32 22 33 78 34 23 35 24 36
REMARK SMILES IDX 25 37 72 38 26 39 77 40 71 41 73 42 27 43 76 44 70 45 69 46
REMARK SMILES IDX 28 48 58 49 39 50 57 51 40 52 43 53 56 54 74 55 41 56 42 57
REMARK SMILES IDX 55 59 75 60 44 61 29 62 30 63 38 64 31 65 37 66 32 67 33 68
REMARK SMILES IDX 34 69 35 70 36 71 59 72 60 73 68 74 61 75 67 76 62 77 63 78
REMARK SMILES IDX 64 79 65 80 66 81 45 82 46 83 54 84 47 85 53 86 48 87 49 88
REMARK SMILES IDX 50 89 51 90 52 91
REMARK H PARENT 10 8 6 12 17 28 73 47 43 58
REMARK Flexibility Score: inf
ROOT
ATOM      1  C   UNL A   1      31.554  27.765  25.421  1.00  0.00     0.002 C 
ENDROOT
BRANCH   1   2
ATOM      2  C   UNL A   1      31.008  26.538  26.156  1.00  0.00     0.002 C 
BRANCH   2   3
ATOM      3  C   UNL A   1      30.793  25.294  25.289  1.00  0.00     0.021 C 
BRANCH   3   4
ATOM      4  C   UNL A   1      31.941  24.282  25.329  1.00  0.00     0.116 C 
BRANCH   4   5
ATOM      5  N   UNL A   1      32.114  23.739  26.663  1.00  0.00    -0.351 N 
ATOM      6  C   UNL A   1      32.865  22.734  27.175  1.00  0.00     0.278 C 
ATOM      7  O   UNL A   1      32.678  22.499  28.381  1.00  0.00    -0.268 OA
ATOM      8  H   UNL A   1      31.567  24.199  27.342  1.00  0.00     0.163 HD
BRANCH   6   9
ATOM      9  C   UNL A   1      33.883  21.864  26.416  1.00  0.00     0.275 C 
ATOM     10  N   UNL A   1      34.326  22.338  25.086  1.00  0.00    -0.320 N 
ATOM     11  C   UNL A   1      34.074  21.262  24.109  1.00  0.00     0.188 C 
ATOM     12  H   UNL A   1      33.752  23.133  24.808  1.00  0.00     0.349 HD
ATOM     13  C   UNL A   1      33.357  20.438  26.211  1.00  0.00     0.085 C 
ATOM     14  C   UNL A   1      34.089  19.992  24.953  1.00  0.00     0.054 C 
ATOM     15  C   UNL A   1      32.699  21.485  23.442  1.00  0.00     0.065 C 
ATOM     16  C   UNL A   1      33.506  18.774  24.243  1.00  0.00     0.010 C 
ATOM     17  C   UNL A   1      32.185  20.259  22.696  1.00  0.00     0.006 C 
ATOM     18  C   UNL A   1      32.147  19.033  23.602  1.00  0.00     0.001 C 
BRANCH  10  19
ATOM     19  C   UNL A   1      35.563  23.163  24.992  1.00  0.00     0.184 C 
ATOM     20  C   UNL A   1      35.888  23.587  23.546  1.00  0.00     0.075 C 
BRANCH  19  21
ATOM     21  C   UNL A   1      36.837  22.646  25.763  1.00  0.00     0.041 C 
ATOM     22  C   UNL A   1      37.627  21.529  25.063  1.00  0.00     0.013 C 
ATOM     23  C   UNL A   1      37.842  23.788  26.022  1.00  0.00     0.013 C 
ENDBRANCH  19  21
ENDBRANCH  10  19
ENDBRANCH   6   9
ENDBRANCH   4   5
ENDBRANCH   3   4
ENDBRANCH   2   3
ENDBRANCH   1   2
BRANCH   1  24
ATOM     24  C   UNL A   1      33.068  27.978  25.519  1.00  0.00     0.021 C 
BRANCH  24  25
ATOM     25  C   UNL A   1      33.586  28.385  26.898  1.00  0.00     0.116 C 
BRANCH  25  26
ATOM     26  N   UNL A   1      33.552  29.823  27.098  1.00  0.00    -0.352 N 
ATOM     27  C   UNL A   1      34.458  30.653  27.710  1.00  0.00     0.251 C 
ATOM     28  H   UNL A   1      32.754  30.274  26.739  1.00  0.00     0.163 HD
ATOM     29  O   UNL A   1      34.150  31.820  27.936  1.00  0.00    -0.269 OA
BRANCH  27  30
ATOM     30  C   UNL A   1      35.792  30.152  28.113  1.00  0.00     0.039 A 
ATOM     31  C   UNL A   1      36.821  30.161  27.168  1.00  0.00     0.014 A 
ATOM     32  C   UNL A   1      36.026  29.640  29.393  1.00  0.00     0.014 A 
ATOM     33  C   UNL A   1      38.093  29.706  27.518  1.00  0.00     0.010 A 
ATOM     34  C   UNL A   1      37.313  29.244  29.762  1.00  0.00     0.010 A 
ATOM     35  C   UNL A   1      38.359  29.269  28.827  1.00  0.00    -0.014 A 
BRANCH  35  36
ATOM     36  C   UNL A   1      39.734  28.869  29.222  1.00  0.00     0.031 A 
ATOM     37  C   UNL A   1      40.634  29.814  29.969  1.00  0.00     0.074 A 
ATOM     38  C   UNL A   1      40.192  27.654  28.860  1.00  0.00     0.049 A 
ATOM     39  N   UNL A   1      41.844  29.611  30.424  1.00  0.00    -0.248 NA
ATOM     40  C   UNL A   1      40.120  31.171  30.213  1.00  0.00     0.031 C 
ATOM     41  C   UNL A   1      39.448  26.673  28.067  1.00  0.00     0.029 A 
ATOM     42  N   UNL A   1      41.392  27.038  29.111  1.00  0.00    -0.354 N 
ATOM     43  C   UNL A   1      42.244  30.815  30.994  1.00  0.00     0.074 A 
ATOM     44  C   UNL A   1      41.163  31.755  30.786  1.00  0.00     0.031 C 
ATOM     45  C   UNL A   1      40.198  25.571  27.916  1.00  0.00     0.029 A 
ATOM     46  C   UNL A   1      41.481  25.773  28.582  1.00  0.00     0.049 A 
ATOM     47  H   UNL A   1      42.120  27.462  29.620  1.00  0.00     0.167 HD
ATOM     48  C   UNL A   1      43.398  31.108  31.643  1.00  0.00     0.031 A 
ATOM     49  C   UNL A   1      42.479  24.870  28.628  1.00  0.00     0.031 A 
ATOM     50  C   UNL A   1      44.470  30.169  31.850  1.00  0.00     0.049 A 
ATOM     51  C   UNL A   1      43.727  25.195  29.396  1.00  0.00     0.074 A 
ATOM     52  C   UNL A   1      45.641  30.343  32.568  1.00  0.00     0.029 A 
ATOM     53  N   UNL A   1      44.509  28.884  31.330  1.00  0.00    -0.354 N 
ATOM     54  N   UNL A   1      44.043  26.304  30.022  1.00  0.00    -0.248 NA
ATOM     55  C   UNL A   1      44.743  24.137  29.484  1.00  0.00     0.031 C 
ATOM     56  C   UNL A   1      46.411  29.181  32.437  1.00  0.00     0.029 A 
ATOM     57  C   UNL A   1      45.697  28.264  31.684  1.00  0.00     0.049 A 
ATOM     58  H   UNL A   1      43.798  28.473  30.787  1.00  0.00     0.167 HD
ATOM     59  C   UNL A   1      45.293  26.076  30.587  1.00  0.00     0.074 A 
ATOM     60  C   UNL A   1      45.659  24.714  30.251  1.00  0.00     0.031 C 
ATOM     61  C   UNL A   1      46.066  26.919  31.316  1.00  0.00     0.031 A 
BRANCH  48  62
ATOM     62  C   UNL A   1      43.562  32.516  32.157  1.00  0.00    -0.014 A 
ATOM     63  C   UNL A   1      44.148  33.521  31.364  1.00  0.00     0.010 A 
ATOM     64  C   UNL A   1      43.114  32.842  33.450  1.00  0.00     0.010 A 
ATOM     65  C   UNL A   1      44.339  34.807  31.877  1.00  0.00     0.020 A 
ATOM     66  C   UNL A   1      43.278  34.136  33.956  1.00  0.00     0.020 A 
ATOM     67  C   UNL A   1      43.912  35.103  33.175  1.00  0.00     0.054 A 
BRANCH  67  68
ATOM     68  S   UNL A   1      44.182  36.777  33.821  1.00  0.00     0.124 S 
ATOM     69  O   UNL A   1      43.801  37.604  32.679  1.00  0.00    -0.237 OA
ATOM     70  O   UNL A   1      43.275  36.831  34.965  1.00  0.00    -0.237 OA
ATOM     71  O   UNL A   1      45.604  36.794  34.156  1.00  0.00    -0.744 OA
ENDBRANCH  67  68
ENDBRANCH  48  62
BRANCH  49  72
ATOM     72  C   UNL A   1      42.308  23.561  27.942  1.00  0.00    -0.014 A 
ATOM     73  C   UNL A   1      42.908  23.321  26.695  1.00  0.00     0.010 A 
ATOM     74  C   UNL A   1      41.593  22.525  28.571  1.00  0.00     0.010 A 
ATOM     75  C   UNL A   1      42.799  22.066  26.088  1.00  0.00     0.020 A 
ATOM     76  C   UNL A   1      41.503  21.263  27.980  1.00  0.00     0.020 A 
ATOM     77  C   UNL A   1      42.104  21.042  26.739  1.00  0.00     0.054 A 
BRANCH  77  78
ATOM     78  S   UNL A   1      42.059  19.393  25.982  1.00  0.00     0.124 S 
ATOM     79  O   UNL A   1      40.632  19.206  25.745  1.00  0.00    -0.237 OA
ATOM     80  O   UNL A   1      42.882  19.571  24.787  1.00  0.00    -0.237 OA
ATOM     81  O   UNL A   1      42.643  18.532  27.007  1.00  0.00    -0.744 OA
ENDBRANCH  77  78
ENDBRANCH  49  72
BRANCH  61  82
ATOM     82  C   UNL A   1      47.389  26.385  31.796  1.00  0.00    -0.014 A 
ATOM     83  C   UNL A   1      48.557  26.540  31.026  1.00  0.00     0.010 A 
ATOM     84  C   UNL A   1      47.468  25.722  33.034  1.00  0.00     0.010 A 
ATOM     85  C   UNL A   1      49.768  25.995  31.461  1.00  0.00     0.020 A 
ATOM     86  C   UNL A   1      48.683  25.200  33.485  1.00  0.00     0.020 A 
ATOM     87  C   UNL A   1      49.822  25.319  32.684  1.00  0.00     0.054 A 
BRANCH  87  88
ATOM     88  S   UNL A   1      51.403  24.618  33.230  1.00  0.00     0.124 S 
ATOM     89  O   UNL A   1      51.080  24.160  34.578  1.00  0.00    -0.237 OA
ATOM     90  O   UNL A   1      51.644  23.563  32.249  1.00  0.00    -0.237 OA
ATOM     91  O   UNL A   1      52.324  25.749  33.158  1.00  0.00    -0.744 OA
ENDBRANCH  87  88
ENDBRANCH  61  82
ENDBRANCH  35  36
ENDBRANCH  27  30
ENDBRANCH  25  26
ENDBRANCH  24  25
ENDBRANCH   1  24
TORSDOF 18
ENDMDL
MODEL 2
REMARK VINA RESULT:     -10.5      2.756      9.451
REMARK SMILES CC(C)[C@@H](C)[N@@H+]1[C@@H](C(=O)NCCCCCCNC(=O)c2ccc(-c3c4nc(c(-c5ccc(S(=O)(=O)[O-])cc5)c5ccc([nH]5)c(-c5ccc(S(=O)(=O)[O-])cc5)c5nc(c(-c6ccc(S(=O)(=O)[O-])cc6)c6ccc3[nH]6)C=C5)C=C4)cc2)C[C@H]2CCCC[C@H]21
REMARK SMILES IDX 14 1 13 2 12 3 11 4 10 5 8 6 9 7 7 9 6 10 86 11 80 13 81 14
REMARK SMILES IDX 85 15 82 16 84 17 83 18 4 19 5 20 2 21 1 22 3 23 15 24 16 25
REMARK SMILES IDX 17 26 18 27 19 29 20 30 21 31 79 32 22 33 78 34 23 35 24 36
REMARK SMILES IDX 25 37 72 38 26 39 77 40 71 41 73 42 27 43 76 44 70 45 69 46
REMARK SMILES IDX 28 48 58 49 39 50 57 51 40 52 43 53 56 54 74 55 41 56 42 57
REMARK SMILES IDX 55 59 75 60 44 61 29 62 30 63 38 64 31 65 37 66 32 67 33 68
REMARK SMILES IDX 34 69 35 70 36 71 59 72 60 73 68 74 61 75 67 76 62 77 63 78
REMARK SMILES IDX 64 79 65 80 66 81 45 82 46 83 54 84 47 85 53 86 48 87 49 88
REMARK SMILES IDX 50 89 51 90 52 91
REMARK H PARENT 10 8 6 12 17 28 73 47 43 58
REMARK Flexibility Score: inf
ROOT
ATOM      1  C   UNL A   1      34.270  23.819  25.824  1.00  0.00     0.002 C 
ENDROOT
BRANCH   1   2
ATOM      2  C   UNL A   1      33.576  23.026  26.934  1.00  0.00     0.002 C 
BRANCH   2   3
ATOM      3  C   UNL A   1      32.046  23.067  26.914  1.00  0.00     0.021 C 
BRANCH   3   4
ATOM      4  C   UNL A   1      31.450  24.199  26.072  1.00  0.00     0.116 C 
BRANCH   4   5
ATOM      5  N   UNL A   1      31.221  25.385  26.876  1.00  0.00    -0.351 N 
ATOM      6  C   UNL A   1      31.178  26.711  26.598  1.00  0.00     0.278 C 
ATOM      7  O   UNL A   1      31.041  27.451  27.587  1.00  0.00    -0.268 OA
ATOM      8  H   UNL A   1      31.064  25.183  27.827  1.00  0.00     0.163 HD
BRANCH   6   9
ATOM      9  C   UNL A   1      31.304  27.368  25.212  1.00  0.00     0.275 C 
ATOM     10  N   UNL A   1      30.384  26.901  24.151  1.00  0.00    -0.320 N 
ATOM     11  C   UNL A   1      31.196  26.473  22.996  1.00  0.00     0.188 C 
ATOM     12  H   UNL A   1      29.882  26.079  24.484  1.00  0.00     0.349 HD
ATOM     13  C   UNL A   1      32.722  27.216  24.649  1.00  0.00     0.085 C 
ATOM     14  C   UNL A   1      32.489  27.267  23.145  1.00  0.00     0.054 C 
ATOM     15  C   UNL A   1      31.449  24.952  23.083  1.00  0.00     0.065 C 
ATOM     16  C   UNL A   1      33.633  26.749  22.279  1.00  0.00     0.010 C 
ATOM     17  C   UNL A   1      32.562  24.473  22.157  1.00  0.00     0.006 C 
ATOM     18  C   UNL A   1      33.854  25.245  22.396  1.00  0.00     0.001 C 
BRANCH  10  19
ATOM     19  C   UNL A   1      29.102  27.632  23.939  1.00  0.00     0.184 C 
ATOM     20  C   UNL A   1      27.881  26.693  23.902  1.00  0.00     0.075 C 
BRANCH  19  21
ATOM     21  C   UNL A   1      29.066  28.705  22.785  1.00  0.00     0.041 C 
ATOM     22  C   UNL A   1      27.674  29.254  22.434  1.00  0.00     0.013 C 
ATOM     23  C   UNL A   1      29.941  29.930  23.126  1.00  0.00     0.013 C 
ENDBRANCH  19  21
ENDBRANCH  10  19
ENDBRANCH   6   9
ENDBRANCH   4   5
ENDBRANCH   3   4
ENDBRANCH   2   3
ENDBRANCH   1   2
BRANCH   1  24
ATOM     24  C   UNL A   1      35.400  23.088  25.093  1.00  0.00     0.021 C 
BRANCH  24  25
ATOM     25  C   UNL A   1      36.782  23.730  25.209  1.00  0.00     0.116 C 
BRANCH  25  26
ATOM     26  N   UNL A   1      37.820  22.758  25.506  1.00  0.00    -0.352 N 
ATOM     27  C   UNL A   1      39.041  22.925  26.108  1.00  0.00     0.251 C 
ATOM     28  H   UNL A   1      37.615  21.835  25.232  1.00  0.00     0.163 HD
ATOM     29  O   UNL A   1      39.850  22.001  26.098  1.00  0.00    -0.269 OA
BRANCH  27  30
ATOM     30  C   UNL A   1      39.399  24.209  26.753  1.00  0.00     0.039 A 
ATOM     31  C   UNL A   1      38.954  24.446  28.056  1.00  0.00     0.014 A 
ATOM     32  C   UNL A   1      40.130  25.191  26.077  1.00  0.00     0.014 A 
ATOM     33  C   UNL A   1      39.282  25.642  28.698  1.00  0.00     0.010 A 
ATOM     34  C   UNL A   1      40.512  26.358  26.740  1.00  0.00     0.010 A 
ATOM     35  C   UNL A   1      40.088  26.598  28.056  1.00  0.00    -0.014 A 
BRANCH  35  36
ATOM     36  C   UNL A   1      40.510  27.829  28.772  1.00  0.00     0.031 A 
ATOM     37  C   UNL A   1      41.871  27.933  29.405  1.00  0.00     0.074 A 
ATOM     38  C   UNL A   1      39.636  28.848  28.893  1.00  0.00     0.049 A 
ATOM     39  N   UNL A   1      42.412  28.947  30.030  1.00  0.00    -0.248 NA
ATOM     40  C   UNL A   1      42.723  26.735  29.352  1.00  0.00     0.031 C 
ATOM     41  C   UNL A   1      38.260  28.844  28.394  1.00  0.00     0.029 A 
ATOM     42  N   UNL A   1      39.776  30.083  29.475  1.00  0.00    -0.354 N 
ATOM     43  C   UNL A   1      43.660  28.507  30.460  1.00  0.00     0.074 A 
ATOM     44  C   UNL A   1      43.774  27.121  30.061  1.00  0.00     0.031 C 
ATOM     45  C   UNL A   1      37.690  30.027  28.669  1.00  0.00     0.029 A 
ATOM     46  C   UNL A   1      38.649  30.865  29.381  1.00  0.00     0.049 A 
ATOM     47  H   UNL A   1      40.603  30.381  29.917  1.00  0.00     0.167 HD
ATOM     48  C   UNL A   1      44.627  29.198  31.112  1.00  0.00     0.031 A 
ATOM     49  C   UNL A   1      38.411  32.117  29.814  1.00  0.00     0.031 A 
ATOM     50  C   UNL A   1      44.510  30.578  31.505  1.00  0.00     0.049 A 
ATOM     51  C   UNL A   1      39.512  32.883  30.488  1.00  0.00     0.074 A 
ATOM     52  C   UNL A   1      45.464  31.391  32.093  1.00  0.00     0.029 A 
ATOM     53  N   UNL A   1      43.365  31.349  31.361  1.00  0.00    -0.354 N 
ATOM     54  N   UNL A   1      40.726  32.485  30.790  1.00  0.00    -0.248 NA
ATOM     55  C   UNL A   1      39.220  34.274  30.859  1.00  0.00     0.031 C 
ATOM     56  C   UNL A   1      44.879  32.637  32.352  1.00  0.00     0.029 A 
ATOM     57  C   UNL A   1      43.578  32.617  31.877  1.00  0.00     0.049 A 
ATOM     58  H   UNL A   1      42.525  31.039  30.954  1.00  0.00     0.167 HD
ATOM     59  C   UNL A   1      41.347  33.579  31.379  1.00  0.00     0.074 A 
ATOM     60  C   UNL A   1      40.383  34.663  31.364  1.00  0.00     0.031 C 
ATOM     61  C   UNL A   1      42.601  33.677  31.887  1.00  0.00     0.031 A 
BRANCH  48  62
ATOM     62  C   UNL A   1      45.891  28.453  31.460  1.00  0.00    -0.014 A 
ATOM     63  C   UNL A   1      47.009  28.472  30.605  1.00  0.00     0.010 A 
ATOM     64  C   UNL A   1      45.966  27.731  32.664  1.00  0.00     0.010 A 
ATOM     65  C   UNL A   1      48.154  27.733  30.919  1.00  0.00     0.020 A 
ATOM     66  C   UNL A   1      47.120  27.013  32.996  1.00  0.00     0.020 A 
ATOM     67  C   UNL A   1      48.197  27.000  32.108  1.00  0.00     0.054 A 
BRANCH  67  68
ATOM     68  S   UNL A   1      49.690  26.040  32.487  1.00  0.00     0.124 S 
ATOM     69  O   UNL A   1      49.620  24.973  31.492  1.00  0.00    -0.237 OA
ATOM     70  O   UNL A   1      50.759  27.014  32.289  1.00  0.00    -0.237 OA
ATOM     71  O   UNL A   1      49.486  25.615  33.870  1.00  0.00    -0.744 OA
ENDBRANCH  67  68
ENDBRANCH  48  62
BRANCH  49  72
ATOM     72  C   UNL A   1      37.072  32.723  29.586  1.00  0.00    -0.014 A 
ATOM     73  C   UNL A   1      36.129  32.790  30.626  1.00  0.00     0.010 A 
ATOM     74  C   UNL A   1      36.760  33.295  28.339  1.00  0.00     0.010 A 
ATOM     75  C   UNL A   1      34.897  33.421  30.423  1.00  0.00     0.020 A 
ATOM     76  C   UNL A   1      35.542  33.948  28.140  1.00  0.00     0.020 A 
ATOM     77  C   UNL A   1      34.616  34.003  29.184  1.00  0.00     0.054 A 
BRANCH  77  78
ATOM     78  S   UNL A   1      33.054  34.904  28.972  1.00  0.00     0.124 S 
ATOM     79  O   UNL A   1      33.512  36.188  28.452  1.00  0.00    -0.237 OA
ATOM     80  O   UNL A   1      32.328  34.060  28.025  1.00  0.00    -0.237 OA
ATOM     81  O   UNL A   1      32.494  34.936  30.321  1.00  0.00    -0.744 OA
ENDBRANCH  77  78
ENDBRANCH  49  72
BRANCH  61  82
ATOM     82  C   UNL A   1      42.995  35.008  32.472  1.00  0.00    -0.014 A 
ATOM     83  C   UNL A   1      42.800  35.288  33.837  1.00  0.00     0.010 A 
ATOM     84  C   UNL A   1      43.573  35.990  31.647  1.00  0.00     0.010 A 
ATOM     85  C   UNL A   1      43.125  36.545  34.354  1.00  0.00     0.020 A 
ATOM     86  C   UNL A   1      43.926  37.238  32.167  1.00  0.00     0.020 A 
ATOM     87  C   UNL A   1      43.677  37.516  33.513  1.00  0.00     0.054 A 
BRANCH  87  88
ATOM     88  S   UNL A   1      44.090  39.141  34.204  1.00  0.00     0.124 S 
ATOM     89  O   UNL A   1      42.992  39.967  33.711  1.00  0.00    -0.237 OA
ATOM     90  O   UNL A   1      44.092  38.890  35.643  1.00  0.00    -0.237 OA
ATOM     91  O   UNL A   1      45.400  39.437  33.629  1.00  0.00    -0.744 OA
ENDBRANCH  87  88
ENDBRANCH  61  82
ENDBRANCH  35  36
ENDBRANCH  27  30
ENDBRANCH  25  26
ENDBRANCH  24  25
ENDBRANCH   1  24
TORSDOF 18
ENDMDL
MODEL 3
REMARK VINA RESULT:     -10.5      3.517      4.455
REMARK SMILES CC(C)[C@@H](C)[N@@H+]1[C@@H](C(=O)NCCCCCCNC(=O)c2ccc(-c3c4nc(c(-c5ccc(S(=O)(=O)[O-])cc5)c5ccc([nH]5)c(-c5ccc(S(=O)(=O)[O-])cc5)c5nc(c(-c6ccc(S(=O)(=O)[O-])cc6)c6ccc3[nH]6)C=C5)C=C4)cc2)C[C@H]2CCCC[C@H]21
REMARK SMILES IDX 14 1 13 2 12 3 11 4 10 5 8 6 9 7 7 9 6 10 86 11 80 13 81 14
REMARK SMILES IDX 85 15 82 16 84 17 83 18 4 19 5 20 2 21 1 22 3 23 15 24 16 25
REMARK SMILES IDX 17 26 18 27 19 29 20 30 21 31 79 32 22 33 78 34 23 35 24 36
REMARK SMILES IDX 25 37 72 38 26 39 77 40 71 41 73 42 27 43 76 44 70 45 69 46
REMARK SMILES IDX 28 48 58 49 39 50 57 51 40 52 43 53 56 54 74 55 41 56 42 57
REMARK SMILES IDX 55 59 75 60 44 61 29 62 30 63 38 64 31 65 37 66 32 67 33 68
REMARK SMILES IDX 34 69 35 70 36 71 59 72 60 73 68 74 61 75 67 76 62 77 63 78
REMARK SMILES IDX 64 79 65 80 66 81 45 82 46 83 54 84 47 85 53 86 48 87 49 88
REMARK SMILES IDX 50 89 51 90 52 91
REMARK H PARENT 10 8 6 12 17 28 73 47 43 58
REMARK Flexibility Score: inf
ROOT
ATOM      1  C   UNL A   1      33.602  29.530  26.578  1.00  0.00     0.002 C 
ENDROOT
BRANCH   1   2
ATOM      2  C   UNL A   1      33.052  28.250  27.214  1.00  0.00     0.002 C 
BRANCH   2   3
ATOM      3  C   UNL A   1      31.532  28.080  27.141  1.00  0.00     0.021 C 
BRANCH   3   4
ATOM      4  C   UNL A   1      31.059  26.973  26.194  1.00  0.00     0.116 C 
BRANCH   4   5
ATOM      5  N   UNL A   1      31.212  25.665  26.802  1.00  0.00    -0.351 N 
ATOM      6  C   UNL A   1      32.111  24.661  26.651  1.00  0.00     0.278 C 
ATOM      7  O   UNL A   1      31.861  23.629  27.296  1.00  0.00    -0.268 OA
ATOM      8  H   UNL A   1      30.513  25.461  27.466  1.00  0.00     0.163 HD
BRANCH   6   9
ATOM      9  C   UNL A   1      33.366  24.673  25.760  1.00  0.00     0.275 C 
ATOM     10  N   UNL A   1      33.214  24.208  24.363  1.00  0.00    -0.320 N 
ATOM     11  C   UNL A   1      34.193  23.128  24.131  1.00  0.00     0.188 C 
ATOM     12  H   UNL A   1      32.287  23.800  24.247  1.00  0.00     0.349 HD
ATOM     13  C   UNL A   1      34.494  23.834  26.372  1.00  0.00     0.085 C 
ATOM     14  C   UNL A   1      35.293  23.409  25.147  1.00  0.00     0.054 C 
ATOM     15  C   UNL A   1      33.519  21.762  24.384  1.00  0.00     0.065 C 
ATOM     16  C   UNL A   1      36.252  22.240  25.355  1.00  0.00     0.010 C 
ATOM     17  C   UNL A   1      34.515  20.616  24.527  1.00  0.00     0.006 C 
ATOM     18  C   UNL A   1      35.549  20.912  25.607  1.00  0.00     0.001 C 
BRANCH  10  19
ATOM     19  C   UNL A   1      32.936  25.211  23.297  1.00  0.00     0.184 C 
ATOM     20  C   UNL A   1      33.466  26.615  23.647  1.00  0.00     0.075 C 
BRANCH  19  21
ATOM     21  C   UNL A   1      31.474  25.255  22.709  1.00  0.00     0.041 C 
ATOM     22  C   UNL A   1      30.460  24.317  23.383  1.00  0.00     0.013 C 
ATOM     23  C   UNL A   1      30.874  26.675  22.797  1.00  0.00     0.013 C 
ENDBRANCH  19  21
ENDBRANCH  10  19
ENDBRANCH   6   9
ENDBRANCH   4   5
ENDBRANCH   3   4
ENDBRANCH   2   3
ENDBRANCH   1   2
BRANCH   1  24
ATOM     24  C   UNL A   1      34.109  30.592  27.557  1.00  0.00     0.021 C 
BRANCH  24  25
ATOM     25  C   UNL A   1      35.483  30.320  28.169  1.00  0.00     0.116 C 
BRANCH  25  26
ATOM     26  N   UNL A   1      35.586  30.808  29.533  1.00  0.00    -0.352 N 
ATOM     27  C   UNL A   1      36.617  30.707  30.433  1.00  0.00     0.251 C 
ATOM     28  H   UNL A   1      34.792  31.286  29.865  1.00  0.00     0.163 HD
ATOM     29  O   UNL A   1      36.431  31.030  31.603  1.00  0.00    -0.269 OA
BRANCH  27  30
ATOM     30  C   UNL A   1      37.943  30.200  30.011  1.00  0.00     0.039 A 
ATOM     31  C   UNL A   1      38.251  30.192  28.648  1.00  0.00     0.014 A 
ATOM     32  C   UNL A   1      38.865  29.700  30.936  1.00  0.00     0.014 A 
ATOM     33  C   UNL A   1      39.496  29.730  28.218  1.00  0.00     0.010 A 
ATOM     34  C   UNL A   1      40.132  29.298  30.512  1.00  0.00     0.010 A 
ATOM     35  C   UNL A   1      40.460  29.305  29.148  1.00  0.00    -0.014 A 
BRANCH  35  36
ATOM     36  C   UNL A   1      41.815  28.899  28.695  1.00  0.00     0.031 A 
ATOM     37  C   UNL A   1      42.937  29.897  28.606  1.00  0.00     0.074 A 
ATOM     38  C   UNL A   1      42.023  27.623  28.315  1.00  0.00     0.049 A 
ATOM     39  N   UNL A   1      44.187  29.702  28.270  1.00  0.00    -0.248 NA
ATOM     40  C   UNL A   1      42.607  31.299  28.907  1.00  0.00     0.031 C 
ATOM     41  C   UNL A   1      41.000  26.576  28.279  1.00  0.00     0.029 A 
ATOM     42  N   UNL A   1      43.162  26.991  27.884  1.00  0.00    -0.354 N 
ATOM     43  C   UNL A   1      44.789  30.955  28.303  1.00  0.00     0.074 A 
ATOM     44  C   UNL A   1      43.755  31.907  28.648  1.00  0.00     0.031 C 
ATOM     45  C   UNL A   1      41.563  25.427  27.873  1.00  0.00     0.029 A 
ATOM     46  C   UNL A   1      42.978  25.659  27.599  1.00  0.00     0.049 A 
ATOM     47  H   UNL A   1      44.029  27.448  27.788  1.00  0.00     0.167 HD
ATOM     48  C   UNL A   1      46.086  31.282  28.081  1.00  0.00     0.031 A 
ATOM     49  C   UNL A   1      43.847  24.724  27.171  1.00  0.00     0.031 A 
ATOM     50  C   UNL A   1      47.113  30.331  27.740  1.00  0.00     0.049 A 
ATOM     51  C   UNL A   1      45.289  25.094  26.982  1.00  0.00     0.074 A 
ATOM     52  C   UNL A   1      48.471  30.549  27.580  1.00  0.00     0.029 A 
ATOM     53  N   UNL A   1      46.894  28.983  27.496  1.00  0.00    -0.354 N 
ATOM     54  N   UNL A   1      45.863  26.266  27.123  1.00  0.00    -0.248 NA
ATOM     55  C   UNL A   1      46.205  24.012  26.598  1.00  0.00     0.031 C 
ATOM     56  C   UNL A   1      49.064  29.343  27.187  1.00  0.00     0.029 A 
ATOM     57  C   UNL A   1      48.086  28.362  27.155  1.00  0.00     0.049 A 
ATOM     58  H   UNL A   1      46.021  28.533  27.554  1.00  0.00     0.167 HD
ATOM     59  C   UNL A   1      47.211  26.061  26.854  1.00  0.00     0.074 A 
ATOM     60  C   UNL A   1      47.369  24.648  26.570  1.00  0.00     0.031 C 
ATOM     61  C   UNL A   1      48.225  26.962  26.842  1.00  0.00     0.031 A 
BRANCH  48  62
ATOM     62  C   UNL A   1      46.458  32.740  28.181  1.00  0.00    -0.014 A 
ATOM     63  C   UNL A   1      46.405  33.587  27.059  1.00  0.00     0.010 A 
ATOM     64  C   UNL A   1      46.857  33.273  29.420  1.00  0.00     0.010 A 
ATOM     65  C   UNL A   1      46.802  34.923  27.160  1.00  0.00     0.020 A 
ATOM     66  C   UNL A   1      47.229  34.617  29.531  1.00  0.00     0.020 A 
ATOM     67  C   UNL A   1      47.223  35.426  28.394  1.00  0.00     0.054 A 
BRANCH  67  68
ATOM     68  S   UNL A   1      47.745  37.162  28.496  1.00  0.00     0.124 S 
ATOM     69  O   UNL A   1      49.177  37.059  28.226  1.00  0.00    -0.237 OA
ATOM     70  O   UNL A   1      46.954  37.800  27.448  1.00  0.00    -0.237 OA
ATOM     71  O   UNL A   1      47.395  37.549  29.861  1.00  0.00    -0.744 OA
ENDBRANCH  67  68
ENDBRANCH  48  62
BRANCH  49  72
ATOM     72  C   UNL A   1      43.363  23.339  26.926  1.00  0.00    -0.014 A 
ATOM     73  C   UNL A   1      43.352  22.803  25.627  1.00  0.00     0.010 A 
ATOM     74  C   UNL A   1      42.969  22.529  28.007  1.00  0.00     0.010 A 
ATOM     75  C   UNL A   1      42.959  21.478  25.414  1.00  0.00     0.020 A 
ATOM     76  C   UNL A   1      42.600  21.198  27.800  1.00  0.00     0.020 A 
ATOM     77  C   UNL A   1      42.594  20.682  26.502  1.00  0.00     0.054 A 
BRANCH  77  78
ATOM     78  S   UNL A   1      42.184  18.937  26.215  1.00  0.00     0.124 S 
ATOM     79  O   UNL A   1      42.411  18.350  27.531  1.00  0.00    -0.237 OA
ATOM     80  O   UNL A   1      40.788  19.007  25.785  1.00  0.00    -0.237 OA
ATOM     81  O   UNL A   1      43.126  18.532  25.176  1.00  0.00    -0.744 OA
ENDBRANCH  77  78
ENDBRANCH  49  72
BRANCH  61  82
ATOM     82  C   UNL A   1      49.597  26.437  26.506  1.00  0.00    -0.014 A 
ATOM     83  C   UNL A   1      50.450  25.941  27.509  1.00  0.00     0.010 A 
ATOM     84  C   UNL A   1      50.036  26.437  25.170  1.00  0.00     0.010 A 
ATOM     85  C   UNL A   1      51.738  25.504  27.188  1.00  0.00     0.020 A 
ATOM     86  C   UNL A   1      51.314  25.974  24.842  1.00  0.00     0.020 A 
ATOM     87  C   UNL A   1      52.166  25.533  25.858  1.00  0.00     0.054 A 
BRANCH  87  88
ATOM     88  S   UNL A   1      53.842  24.964  25.463  1.00  0.00     0.124 S 
ATOM     89  O   UNL A   1      54.544  25.197  26.722  1.00  0.00    -0.237 OA
ATOM     90  O   UNL A   1      53.633  23.562  25.111  1.00  0.00    -0.237 OA
ATOM     91  O   UNL A   1      54.246  25.824  24.354  1.00  0.00    -0.744 OA
ENDBRANCH  87  88
ENDBRANCH  61  82
ENDBRANCH  35  36
ENDBRANCH  27  30
ENDBRANCH  25  26
ENDBRANCH  24  25
ENDBRANCH   1  24
TORSDOF 18
ENDMDL
