MODEL 1
REMARK VINA RESULT:     -10.1      0.000      0.000
REMARK SMILES CC(C)[NH2+][C@@]1(C(=O)NCCCCCCNC(=O)c2ccc(-c3c4nc(c(-c5ccc(S(=O)(=O)[O-])cc5)c5ccc([nH]5)c(-c5ccc(S(=O)(=O)[O-])cc5)c5nc(c(-c6ccc(S(=O)(=O)[O-])cc6)c6ccc3[nH]6)C=C5)C=C4)cc2)CCC[C@H](SC2CCCCC2)C1
REMARK SMILES IDX 12 1 11 2 10 3 9 4 8 5 6 6 7 7 5 9 78 10 89 11 79 12 81 13
REMARK SMILES IDX 80 14 4 15 2 18 1 19 3 20 82 21 83 22 84 23 88 24 85 25
REMARK SMILES IDX 87 26 86 27 13 28 14 29 15 30 16 31 17 33 18 34 19 35 77 36
REMARK SMILES IDX 20 37 76 38 21 39 22 40 23 41 70 42 24 43 75 44 69 45 71 46
REMARK SMILES IDX 25 47 74 48 68 49 67 50 26 52 56 53 37 54 55 55 38 56 41 57
REMARK SMILES IDX 54 58 72 59 39 60 40 61 53 63 73 64 42 65 27 66 28 67 36 68
REMARK SMILES IDX 29 69 35 70 30 71 31 72 32 73 33 74 34 75 57 76 58 77 66 78
REMARK SMILES IDX 59 79 65 80 60 81 61 82 62 83 63 84 64 85 43 86 44 87 52 88
REMARK SMILES IDX 45 89 51 90 46 91 47 92 48 93 49 94 50 95
REMARK H PARENT 8 8 4 16 4 17 15 32 71 51 41 62
REMARK Flexibility Score: inf
ROOT
ATOM      1  C   UNL A   1      31.838  28.100  27.197  1.00  0.00     0.002 C 
ENDROOT
BRANCH   1   2
ATOM      2  C   UNL A   1      31.135  27.330  26.066  1.00  0.00     0.002 C 
BRANCH   2   3
ATOM      3  C   UNL A   1      30.876  25.839  26.324  1.00  0.00     0.021 C 
BRANCH   3   4
ATOM      4  C   UNL A   1      30.653  24.967  25.086  1.00  0.00     0.116 C 
BRANCH   4   5
ATOM      5  N   UNL A   1      30.606  23.554  25.427  1.00  0.00    -0.351 N 
ATOM      6  C   UNL A   1      31.494  22.533  25.502  1.00  0.00     0.281 C 
ATOM      7  O   UNL A   1      30.947  21.431  25.709  1.00  0.00    -0.268 OA
ATOM      8  H   UNL A   1      29.695  23.265  25.663  1.00  0.00     0.163 HD
BRANCH   6   9
ATOM      9  C   UNL A   1      33.094  22.578  25.284  1.00  0.00     0.176 C 
ATOM     10  C   UNL A   1      33.799  23.564  26.231  1.00  0.00     0.079 C 
ATOM     11  C   UNL A   1      33.318  22.771  23.753  1.00  0.00     0.093 C 
ATOM     12  C   UNL A   1      34.244  24.877  25.601  1.00  0.00     0.008 C 
ATOM     13  C   UNL A   1      34.149  23.981  23.232  1.00  0.00     0.053 C 
ATOM     14  C   UNL A   1      34.992  24.639  24.310  1.00  0.00     0.015 C 
BRANCH   9  15
ATOM     15  N   UNL A   1      33.474  21.171  25.661  1.00  0.00    -0.332 N 
ATOM     16  H   UNL A   1      34.175  21.268  26.396  1.00  0.00     0.347 HD
ATOM     17  H   UNL A   1      32.551  20.778  25.841  1.00  0.00     0.347 HD
BRANCH  15  18
ATOM     18  C   UNL A   1      34.008  20.166  24.750  1.00  0.00     0.176 C 
ATOM     19  C   UNL A   1      35.518  20.061  25.023  1.00  0.00     0.075 C 
ATOM     20  C   UNL A   1      33.419  18.760  24.841  1.00  0.00     0.075 C 
ENDBRANCH  15  18
ENDBRANCH   9  15
BRANCH  13  21
ATOM     21  S   UNL A   1      33.060  24.871  22.027  1.00  0.00    -0.155 SA
BRANCH  21  22
ATOM     22  C   UNL A   1      32.494  26.519  22.609  1.00  0.00     0.047 C 
ATOM     23  C   UNL A   1      33.346  27.772  22.472  1.00  0.00     0.014 C 
ATOM     24  C   UNL A   1      31.101  26.743  21.992  1.00  0.00     0.014 C 
ATOM     25  C   UNL A   1      32.666  28.999  23.077  1.00  0.00     0.001 C 
ATOM     26  C   UNL A   1      30.421  27.976  22.582  1.00  0.00     0.001 C 
ATOM     27  C   UNL A   1      31.292  29.220  22.463  1.00  0.00     0.000 C 
ENDBRANCH  21  22
ENDBRANCH  13  21
ENDBRANCH   6   9
ENDBRANCH   4   5
ENDBRANCH   3   4
ENDBRANCH   2   3
ENDBRANCH   1   2
BRANCH   1  28
ATOM     28  C   UNL A   1      33.373  28.186  27.125  1.00  0.00     0.021 C 
BRANCH  28  29
ATOM     29  C   UNL A   1      33.959  29.327  26.280  1.00  0.00     0.116 C 
BRANCH  29  30
ATOM     30  N   UNL A   1      33.709  30.640  26.853  1.00  0.00    -0.352 N 
ATOM     31  C   UNL A   1      34.382  31.348  27.825  1.00  0.00     0.251 C 
ATOM     32  H   UNL A   1      32.924  31.103  26.482  1.00  0.00     0.163 HD
ATOM     33  O   UNL A   1      33.862  32.374  28.264  1.00  0.00    -0.269 OA
BRANCH  31  34
ATOM     34  C   UNL A   1      35.701  30.923  28.374  1.00  0.00     0.039 A 
ATOM     35  C   UNL A   1      35.748  29.809  29.221  1.00  0.00     0.014 A 
ATOM     36  C   UNL A   1      36.869  31.661  28.183  1.00  0.00     0.014 A 
ATOM     37  C   UNL A   1      36.956  29.412  29.821  1.00  0.00     0.010 A 
ATOM     38  C   UNL A   1      38.088  31.231  28.739  1.00  0.00     0.010 A 
ATOM     39  C   UNL A   1      38.156  30.099  29.568  1.00  0.00    -0.014 A 
BRANCH  39  40
ATOM     40  C   UNL A   1      39.449  29.649  30.184  1.00  0.00     0.031 A 
ATOM     41  C   UNL A   1      39.989  30.296  31.443  1.00  0.00     0.074 A 
ATOM     42  C   UNL A   1      40.165  28.646  29.625  1.00  0.00     0.049 A 
ATOM     43  N   UNL A   1      41.087  30.024  32.108  1.00  0.00    -0.248 NA
ATOM     44  C   UNL A   1      39.204  31.396  32.023  1.00  0.00     0.031 C 
ATOM     45  C   UNL A   1      39.810  27.930  28.398  1.00  0.00     0.029 A 
ATOM     46  N   UNL A   1      41.340  28.046  30.022  1.00  0.00    -0.354 N 
ATOM     47  C   UNL A   1      41.123  30.913  33.178  1.00  0.00     0.074 A 
ATOM     48  C   UNL A   1      39.967  31.773  33.041  1.00  0.00     0.031 C 
ATOM     49  C   UNL A   1      40.719  26.967  28.168  1.00  0.00     0.029 A 
ATOM     50  C   UNL A   1      41.747  27.015  29.203  1.00  0.00     0.049 A 
ATOM     51  H   UNL A   1      41.843  28.329  30.820  1.00  0.00     0.167 HD
ATOM     52  C   UNL A   1      42.010  30.999  34.201  1.00  0.00     0.031 A 
ATOM     53  C   UNL A   1      42.819  26.197  29.268  1.00  0.00     0.031 A 
ATOM     54  C   UNL A   1      43.160  30.147  34.373  1.00  0.00     0.049 A 
ATOM     55  C   UNL A   1      43.806  26.331  30.400  1.00  0.00     0.074 A 
ATOM     56  C   UNL A   1      44.094  30.161  35.397  1.00  0.00     0.029 A 
ATOM     57  N   UNL A   1      43.528  29.125  33.516  1.00  0.00    -0.354 N 
ATOM     58  N   UNL A   1      43.788  27.157  31.417  1.00  0.00    -0.248 NA
ATOM     59  C   UNL A   1      44.953  25.408  30.397  1.00  0.00     0.031 C 
ATOM     60  C   UNL A   1      45.046  29.170  35.141  1.00  0.00     0.029 A 
ATOM     61  C   UNL A   1      44.677  28.506  33.984  1.00  0.00     0.049 A 
ATOM     62  H   UNL A   1      43.046  28.874  32.695  1.00  0.00     0.167 HD
ATOM     63  C   UNL A   1      44.896  26.824  32.193  1.00  0.00     0.074 A 
ATOM     64  C   UNL A   1      45.556  25.718  31.537  1.00  0.00     0.031 C 
ATOM     65  C   UNL A   1      45.323  27.388  33.348  1.00  0.00     0.031 A 
BRANCH  52  66
ATOM     66  C   UNL A   1      41.765  32.050  35.253  1.00  0.00    -0.014 A 
ATOM     67  C   UNL A   1      42.266  33.355  35.092  1.00  0.00     0.010 A 
ATOM     68  C   UNL A   1      40.960  31.760  36.370  1.00  0.00     0.010 A 
ATOM     69  C   UNL A   1      41.992  34.341  36.042  1.00  0.00     0.020 A 
ATOM     70  C   UNL A   1      40.661  32.752  37.309  1.00  0.00     0.020 A 
ATOM     71  C   UNL A   1      41.193  34.033  37.145  1.00  0.00     0.054 A 
BRANCH  71  72
ATOM     72  S   UNL A   1      40.819  35.344  38.343  1.00  0.00     0.124 S 
ATOM     73  O   UNL A   1      41.513  36.490  37.758  1.00  0.00    -0.237 OA
ATOM     74  O   UNL A   1      39.358  35.410  38.300  1.00  0.00    -0.237 OA
ATOM     75  O   UNL A   1      41.381  34.847  39.592  1.00  0.00    -0.744 OA
ENDBRANCH  71  72
ENDBRANCH  52  66
BRANCH  53  76
ATOM     76  C   UNL A   1      43.036  25.153  28.226  1.00  0.00    -0.014 A 
ATOM     77  C   UNL A   1      42.904  23.787  28.543  1.00  0.00     0.010 A 
ATOM     78  C   UNL A   1      43.435  25.517  26.928  1.00  0.00     0.010 A 
ATOM     79  C   UNL A   1      43.213  22.807  27.595  1.00  0.00     0.020 A 
ATOM     80  C   UNL A   1      43.714  24.539  25.969  1.00  0.00     0.020 A 
ATOM     81  C   UNL A   1      43.623  23.190  26.315  1.00  0.00     0.054 A 
BRANCH  81  82
ATOM     82  S   UNL A   1      44.019  21.905  25.096  1.00  0.00     0.124 S 
ATOM     83  O   UNL A   1      45.315  21.429  25.570  1.00  0.00    -0.237 OA
ATOM     84  O   UNL A   1      42.906  20.970  25.245  1.00  0.00    -0.237 OA
ATOM     85  O   UNL A   1      44.043  22.636  23.831  1.00  0.00    -0.744 OA
ENDBRANCH  81  82
ENDBRANCH  53  76
BRANCH  65  86
ATOM     86  C   UNL A   1      46.528  26.784  34.024  1.00  0.00    -0.014 A 
ATOM     87  C   UNL A   1      47.829  27.251  33.765  1.00  0.00     0.010 A 
ATOM     88  C   UNL A   1      46.347  25.760  34.973  1.00  0.00     0.010 A 
ATOM     89  C   UNL A   1      48.928  26.682  34.415  1.00  0.00     0.020 A 
ATOM     90  C   UNL A   1      47.441  25.208  35.646  1.00  0.00     0.020 A 
ATOM     91  C   UNL A   1      48.728  25.662  35.351  1.00  0.00     0.054 A 
BRANCH  91  92
ATOM     92  S   UNL A   1      50.166  24.968  36.213  1.00  0.00     0.124 S 
ATOM     93  O   UNL A   1      50.085  23.555  35.853  1.00  0.00    -0.237 OA
ATOM     94  O   UNL A   1      51.282  25.703  35.623  1.00  0.00    -0.237 OA
ATOM     95  O   UNL A   1      49.906  25.268  37.619  1.00  0.00    -0.744 OA
ENDBRANCH  91  92
ENDBRANCH  65  86
ENDBRANCH  39  40
ENDBRANCH  31  34
ENDBRANCH  29  30
ENDBRANCH  28  29
ENDBRANCH   1  28
TORSDOF 20
ENDMDL
MODEL 2
REMARK VINA RESULT:     -10.0      4.887      6.737
REMARK SMILES CC(C)[NH2+][C@@]1(C(=O)NCCCCCCNC(=O)c2ccc(-c3c4nc(c(-c5ccc(S(=O)(=O)[O-])cc5)c5ccc([nH]5)c(-c5ccc(S(=O)(=O)[O-])cc5)c5nc(c(-c6ccc(S(=O)(=O)[O-])cc6)c6ccc3[nH]6)C=C5)C=C4)cc2)CCC[C@H](SC2CCCCC2)C1
REMARK SMILES IDX 12 1 11 2 10 3 9 4 8 5 6 6 7 7 5 9 78 10 89 11 79 12 81 13
REMARK SMILES IDX 80 14 4 15 2 18 1 19 3 20 82 21 83 22 84 23 88 24 85 25
REMARK SMILES IDX 87 26 86 27 13 28 14 29 15 30 16 31 17 33 18 34 19 35 77 36
REMARK SMILES IDX 20 37 76 38 21 39 22 40 23 41 70 42 24 43 75 44 69 45 71 46
REMARK SMILES IDX 25 47 74 48 68 49 67 50 26 52 56 53 37 54 55 55 38 56 41 57
REMARK SMILES IDX 54 58 72 59 39 60 40 61 53 63 73 64 42 65 27 66 28 67 36 68
REMARK SMILES IDX 29 69 35 70 30 71 31 72 32 73 33 74 34 75 57 76 58 77 66 78
REMARK SMILES IDX 59 79 65 80 60 81 61 82 62 83 63 84 64 85 43 86 44 87 52 88
REMARK SMILES IDX 45 89 51 90 46 91 47 92 48 93 49 94 50 95
REMARK H PARENT 8 8 4 16 4 17 15 32 71 51 41 62
REMARK Flexibility Score: inf
ROOT
ATOM      1  C   UNL A   1      34.893  30.417  27.297  1.00  0.00     0.002 C 
ENDROOT
BRANCH   1   2
ATOM      2  C   UNL A   1      34.194  29.090  27.637  1.00  0.00     0.002 C 
BRANCH   2   3
ATOM      3  C   UNL A   1      33.246  28.531  26.565  1.00  0.00     0.021 C 
BRANCH   3   4
ATOM      4  C   UNL A   1      31.755  28.537  26.909  1.00  0.00     0.116 C 
BRANCH   4   5
ATOM      5  N   UNL A   1      31.209  27.191  26.955  1.00  0.00    -0.351 N 
ATOM      6  C   UNL A   1      30.798  26.268  26.052  1.00  0.00     0.281 C 
ATOM      7  O   UNL A   1      30.258  25.278  26.584  1.00  0.00    -0.268 OA
ATOM      8  H   UNL A   1      31.113  26.866  27.879  1.00  0.00     0.163 HD
BRANCH   6   9
ATOM      9  C   UNL A   1      30.858  26.347  24.439  1.00  0.00     0.176 C 
ATOM     10  C   UNL A   1      30.097  25.198  23.756  1.00  0.00     0.079 C 
ATOM     11  C   UNL A   1      32.362  26.529  24.069  1.00  0.00     0.093 C 
ATOM     12  C   UNL A   1      30.963  24.091  23.170  1.00  0.00     0.008 C 
ATOM     13  C   UNL A   1      33.060  25.513  23.117  1.00  0.00     0.053 C 
ATOM     14  C   UNL A   1      32.082  24.659  22.329  1.00  0.00     0.015 C 
BRANCH   9  15
ATOM     15  N   UNL A   1      30.132  27.641  24.189  1.00  0.00    -0.332 N 
ATOM     16  H   UNL A   1      29.217  27.526  24.627  1.00  0.00     0.347 HD
ATOM     17  H   UNL A   1      30.821  28.305  24.540  1.00  0.00     0.347 HD
BRANCH  15  18
ATOM     18  C   UNL A   1      29.861  28.220  22.879  1.00  0.00     0.176 C 
ATOM     19  C   UNL A   1      28.504  28.939  22.970  1.00  0.00     0.075 C 
ATOM     20  C   UNL A   1      30.881  29.217  22.334  1.00  0.00     0.075 C 
ENDBRANCH  15  18
ENDBRANCH   9  15
BRANCH  13  21
ATOM     21  S   UNL A   1      34.541  24.884  24.033  1.00  0.00    -0.155 SA
BRANCH  21  22
ATOM     22  C   UNL A   1      34.203  23.408  25.074  1.00  0.00     0.047 C 
ATOM     23  C   UNL A   1      35.238  22.319  25.309  1.00  0.00     0.014 C 
ATOM     24  C   UNL A   1      33.661  23.937  26.415  1.00  0.00     0.014 C 
ATOM     25  C   UNL A   1      34.691  21.181  26.169  1.00  0.00     0.001 C 
ATOM     26  C   UNL A   1      33.125  22.804  27.285  1.00  0.00     0.001 C 
ATOM     27  C   UNL A   1      34.160  21.706  27.494  1.00  0.00     0.000 C 
ENDBRANCH  21  22
ENDBRANCH  13  21
ENDBRANCH   6   9
ENDBRANCH   4   5
ENDBRANCH   3   4
ENDBRANCH   2   3
ENDBRANCH   1   2
BRANCH   1  28
ATOM     28  C   UNL A   1      34.488  31.645  28.133  1.00  0.00     0.021 C 
BRANCH  28  29
ATOM     29  C   UNL A   1      35.560  32.223  29.069  1.00  0.00     0.116 C 
BRANCH  29  30
ATOM     30  N   UNL A   1      35.522  31.640  30.400  1.00  0.00    -0.352 N 
ATOM     31  C   UNL A   1      36.360  30.741  31.021  1.00  0.00     0.251 C 
ATOM     32  H   UNL A   1      34.766  31.942  30.954  1.00  0.00     0.163 HD
ATOM     33  O   UNL A   1      36.008  30.265  32.100  1.00  0.00    -0.269 OA
BRANCH  31  34
ATOM     34  C   UNL A   1      37.665  30.312  30.442  1.00  0.00     0.039 A 
ATOM     35  C   UNL A   1      38.727  30.038  31.311  1.00  0.00     0.014 A 
ATOM     36  C   UNL A   1      37.910  30.295  29.069  1.00  0.00     0.014 A 
ATOM     37  C   UNL A   1      39.997  29.701  30.812  1.00  0.00     0.010 A 
ATOM     38  C   UNL A   1      39.166  29.904  28.569  1.00  0.00     0.010 A 
ATOM     39  C   UNL A   1      40.234  29.598  29.430  1.00  0.00    -0.014 A 
BRANCH  39  40
ATOM     40  C   UNL A   1      41.583  29.203  28.903  1.00  0.00     0.031 A 
ATOM     41  C   UNL A   1      42.721  30.200  28.827  1.00  0.00     0.074 A 
ATOM     42  C   UNL A   1      41.814  27.938  28.485  1.00  0.00     0.049 A 
ATOM     43  N   UNL A   1      43.950  30.021  28.404  1.00  0.00    -0.248 NA
ATOM     44  C   UNL A   1      42.442  31.574  29.270  1.00  0.00     0.031 C 
ATOM     45  C   UNL A   1      40.827  26.857  28.461  1.00  0.00     0.029 A 
ATOM     46  N   UNL A   1      42.960  27.340  28.006  1.00  0.00    -0.354 N 
ATOM     47  C   UNL A   1      44.587  31.253  28.530  1.00  0.00     0.074 A 
ATOM     48  C   UNL A   1      43.591  32.186  29.014  1.00  0.00     0.031 C 
ATOM     49  C   UNL A   1      41.416  25.727  28.034  1.00  0.00     0.029 A 
ATOM     50  C   UNL A   1      42.814  26.002  27.713  1.00  0.00     0.049 A 
ATOM     51  H   UNL A   1      43.807  27.828  27.883  1.00  0.00     0.167 HD
ATOM     52  C   UNL A   1      45.881  31.585  28.297  1.00  0.00     0.031 A 
ATOM     53  C   UNL A   1      43.693  25.093  27.243  1.00  0.00     0.031 A 
ATOM     54  C   UNL A   1      46.898  30.675  27.831  1.00  0.00     0.049 A 
ATOM     55  C   UNL A   1      45.120  25.493  26.965  1.00  0.00     0.074 A 
ATOM     56  C   UNL A   1      48.238  30.934  27.592  1.00  0.00     0.029 A 
ATOM     57  N   UNL A   1      46.698  29.335  27.547  1.00  0.00    -0.354 N 
ATOM     58  N   UNL A   1      45.699  26.657  27.133  1.00  0.00    -0.248 NA
ATOM     59  C   UNL A   1      46.018  24.447  26.447  1.00  0.00     0.031 C 
ATOM     60  C   UNL A   1      48.840  29.760  27.130  1.00  0.00     0.029 A 
ATOM     61  C   UNL A   1      47.887  28.757  27.131  1.00  0.00     0.049 A 
ATOM     62  H   UNL A   1      45.837  28.862  27.629  1.00  0.00     0.167 HD
ATOM     63  C   UNL A   1      47.033  26.470  26.780  1.00  0.00     0.074 A 
ATOM     64  C   UNL A   1      47.180  25.082  26.400  1.00  0.00     0.031 C 
ATOM     65  C   UNL A   1      48.044  27.371  26.776  1.00  0.00     0.031 A 
BRANCH  52  66
ATOM     66  C   UNL A   1      46.299  33.008  28.568  1.00  0.00    -0.014 A 
ATOM     67  C   UNL A   1      46.880  33.360  29.800  1.00  0.00     0.010 A 
ATOM     68  C   UNL A   1      46.188  33.983  27.559  1.00  0.00     0.010 A 
ATOM     69  C   UNL A   1      47.314  34.668  30.029  1.00  0.00     0.020 A 
ATOM     70  C   UNL A   1      46.647  35.286  27.776  1.00  0.00     0.020 A 
ATOM     71  C   UNL A   1      47.194  35.622  29.017  1.00  0.00     0.054 A 
BRANCH  71  72
ATOM     72  S   UNL A   1      47.804  37.303  29.327  1.00  0.00     0.124 S 
ATOM     73  O   UNL A   1      48.138  37.241  30.750  1.00  0.00    -0.237 OA
ATOM     74  O   UNL A   1      48.949  37.400  28.421  1.00  0.00    -0.237 OA
ATOM     75  O   UNL A   1      46.672  38.154  28.990  1.00  0.00    -0.744 OA
ENDBRANCH  71  72
ENDBRANCH  52  66
BRANCH  53  76
ATOM     76  C   UNL A   1      43.266  23.685  26.997  1.00  0.00    -0.014 A 
ATOM     77  C   UNL A   1      42.758  23.301  25.741  1.00  0.00     0.010 A 
ATOM     78  C   UNL A   1      43.306  22.739  28.035  1.00  0.00     0.010 A 
ATOM     79  C   UNL A   1      42.257  22.011  25.543  1.00  0.00     0.020 A 
ATOM     80  C   UNL A   1      42.835  21.438  27.831  1.00  0.00     0.020 A 
ATOM     81  C   UNL A   1      42.293  21.089  26.593  1.00  0.00     0.054 A 
BRANCH  81  82
ATOM     82  S   UNL A   1      41.639  19.418  26.320  1.00  0.00     0.124 S 
ATOM     83  O   UNL A   1      40.231  19.686  26.048  1.00  0.00    -0.237 OA
ATOM     84  O   UNL A   1      42.428  18.949  25.184  1.00  0.00    -0.237 OA
ATOM     85  O   UNL A   1      41.917  18.737  27.583  1.00  0.00    -0.744 OA
ENDBRANCH  81  82
ENDBRANCH  53  76
BRANCH  65  86
ATOM     86  C   UNL A   1      49.422  26.883  26.409  1.00  0.00    -0.014 A 
ATOM     87  C   UNL A   1      50.277  26.305  27.364  1.00  0.00     0.010 A 
ATOM     88  C   UNL A   1      49.851  26.964  25.070  1.00  0.00     0.010 A 
ATOM     89  C   UNL A   1      51.546  25.848  26.995  1.00  0.00     0.020 A 
ATOM     90  C   UNL A   1      51.108  26.483  24.692  1.00  0.00     0.020 A 
ATOM     91  C   UNL A   1      51.955  25.942  25.661  1.00  0.00     0.054 A 
BRANCH  91  92
ATOM     92  S   UNL A   1      53.590  25.304  25.198  1.00  0.00     0.124 S 
ATOM     93  O   UNL A   1      53.399  23.861  25.320  1.00  0.00    -0.237 OA
ATOM     94  O   UNL A   1      53.756  25.802  23.835  1.00  0.00    -0.237 OA
ATOM     95  O   UNL A   1      54.487  25.900  26.186  1.00  0.00    -0.744 OA
ENDBRANCH  91  92
ENDBRANCH  65  86
ENDBRANCH  39  40
ENDBRANCH  31  34
ENDBRANCH  29  30
ENDBRANCH  28  29
ENDBRANCH   1  28
TORSDOF 20
ENDMDL
MODEL 3
REMARK VINA RESULT:      -9.9      2.837      9.096
REMARK SMILES CC(C)[NH2+][C@@]1(C(=O)NCCCCCCNC(=O)c2ccc(-c3c4nc(c(-c5ccc(S(=O)(=O)[O-])cc5)c5ccc([nH]5)c(-c5ccc(S(=O)(=O)[O-])cc5)c5nc(c(-c6ccc(S(=O)(=O)[O-])cc6)c6ccc3[nH]6)C=C5)C=C4)cc2)CCC[C@H](SC2CCCCC2)C1
REMARK SMILES IDX 12 1 11 2 10 3 9 4 8 5 6 6 7 7 5 9 78 10 89 11 79 12 81 13
REMARK SMILES IDX 80 14 4 15 2 18 1 19 3 20 82 21 83 22 84 23 88 24 85 25
REMARK SMILES IDX 87 26 86 27 13 28 14 29 15 30 16 31 17 33 18 34 19 35 77 36
REMARK SMILES IDX 20 37 76 38 21 39 22 40 23 41 70 42 24 43 75 44 69 45 71 46
REMARK SMILES IDX 25 47 74 48 68 49 67 50 26 52 56 53 37 54 55 55 38 56 41 57
REMARK SMILES IDX 54 58 72 59 39 60 40 61 53 63 73 64 42 65 27 66 28 67 36 68
REMARK SMILES IDX 29 69 35 70 30 71 31 72 32 73 33 74 34 75 57 76 58 77 66 78
REMARK SMILES IDX 59 79 65 80 60 81 61 82 62 83 63 84 64 85 43 86 44 87 52 88
REMARK SMILES IDX 45 89 51 90 46 91 47 92 48 93 49 94 50 95
REMARK H PARENT 8 8 4 16 4 17 15 32 71 51 41 62
REMARK Flexibility Score: inf
ROOT
ATOM      1  C   UNL A   1      38.483  21.739  25.710  1.00  0.00     0.002 C 
ENDROOT
BRANCH   1   2
ATOM      2  C   UNL A   1      36.952  21.602  25.655  1.00  0.00     0.002 C 
BRANCH   2   3
ATOM      3  C   UNL A   1      36.307  21.761  24.271  1.00  0.00     0.021 C 
BRANCH   3   4
ATOM      4  C   UNL A   1      36.282  23.178  23.694  1.00  0.00     0.116 C 
BRANCH   4   5
ATOM      5  N   UNL A   1      35.744  24.135  24.646  1.00  0.00    -0.351 N 
ATOM      6  C   UNL A   1      34.536  24.697  24.897  1.00  0.00     0.281 C 
ATOM      7  O   UNL A   1      34.592  25.600  25.756  1.00  0.00    -0.268 OA
ATOM      8  H   UNL A   1      36.434  24.460  25.269  1.00  0.00     0.163 HD
BRANCH   6   9
ATOM      9  C   UNL A   1      33.120  24.391  24.182  1.00  0.00     0.176 C 
ATOM     10  C   UNL A   1      33.277  23.915  22.727  1.00  0.00     0.079 C 
ATOM     11  C   UNL A   1      32.227  25.644  24.432  1.00  0.00     0.093 C 
ATOM     12  C   UNL A   1      32.952  24.950  21.658  1.00  0.00     0.008 C 
ATOM     13  C   UNL A   1      31.612  26.418  23.230  1.00  0.00     0.053 C 
ATOM     14  C   UNL A   1      31.630  25.626  21.934  1.00  0.00     0.015 C 
BRANCH   9  15
ATOM     15  N   UNL A   1      32.614  23.252  25.024  1.00  0.00    -0.332 N 
ATOM     16  H   UNL A   1      31.877  22.813  24.471  1.00  0.00     0.347 HD
ATOM     17  H   UNL A   1      33.492  22.778  25.232  1.00  0.00     0.347 HD
BRANCH  15  18
ATOM     18  C   UNL A   1      32.065  23.373  26.370  1.00  0.00     0.176 C 
ATOM     19  C   UNL A   1      30.628  22.826  26.326  1.00  0.00     0.075 C 
ATOM     20  C   UNL A   1      32.805  22.651  27.492  1.00  0.00     0.075 C 
ENDBRANCH  15  18
ENDBRANCH   9  15
BRANCH  13  21
ATOM     21  S   UNL A   1      32.151  28.179  23.420  1.00  0.00    -0.155 SA
BRANCH  21  22
ATOM     22  C   UNL A   1      32.583  28.645  25.144  1.00  0.00     0.047 C 
ATOM     23  C   UNL A   1      34.022  28.782  25.617  1.00  0.00     0.014 C 
ATOM     24  C   UNL A   1      31.786  29.923  25.462  1.00  0.00     0.014 C 
ATOM     25  C   UNL A   1      34.109  29.130  27.102  1.00  0.00     0.001 C 
ATOM     26  C   UNL A   1      31.879  30.284  26.942  1.00  0.00     0.001 C 
ATOM     27  C   UNL A   1      33.323  30.395  27.412  1.00  0.00     0.000 C 
ENDBRANCH  21  22
ENDBRANCH  13  21
ENDBRANCH   6   9
ENDBRANCH   4   5
ENDBRANCH   3   4
ENDBRANCH   2   3
ENDBRANCH   1   2
BRANCH   1  28
ATOM     28  C   UNL A   1      39.040  23.002  26.392  1.00  0.00     0.021 C 
BRANCH  28  29
ATOM     29  C   UNL A   1      40.495  22.934  26.879  1.00  0.00     0.116 C 
BRANCH  29  30
ATOM     30  N   UNL A   1      41.411  23.675  26.028  1.00  0.00    -0.352 N 
ATOM     31  C   UNL A   1      41.834  24.985  26.074  1.00  0.00     0.251 C 
ATOM     32  H   UNL A   1      41.797  23.148  25.291  1.00  0.00     0.163 HD
ATOM     33  O   UNL A   1      42.483  25.422  25.124  1.00  0.00    -0.269 OA
BRANCH  31  34
ATOM     34  C   UNL A   1      41.532  25.896  27.214  1.00  0.00     0.039 A 
ATOM     35  C   UNL A   1      42.428  26.933  27.500  1.00  0.00     0.014 A 
ATOM     36  C   UNL A   1      40.465  25.684  28.086  1.00  0.00     0.014 A 
ATOM     37  C   UNL A   1      42.227  27.774  28.608  1.00  0.00     0.010 A 
ATOM     38  C   UNL A   1      40.232  26.560  29.163  1.00  0.00     0.010 A 
ATOM     39  C   UNL A   1      41.107  27.622  29.445  1.00  0.00    -0.014 A 
BRANCH  39  40
ATOM     40  C   UNL A   1      40.878  28.546  30.606  1.00  0.00     0.031 A 
ATOM     41  C   UNL A   1      41.725  28.460  31.860  1.00  0.00     0.074 A 
ATOM     42  C   UNL A   1      39.905  29.484  30.557  1.00  0.00     0.049 A 
ATOM     43  N   UNL A   1      41.663  29.185  32.951  1.00  0.00    -0.248 NA
ATOM     44  C   UNL A   1      42.765  27.420  31.898  1.00  0.00     0.031 C 
ATOM     45  C   UNL A   1      38.979  29.690  29.442  1.00  0.00     0.029 A 
ATOM     46  N   UNL A   1      39.537  30.452  31.467  1.00  0.00    -0.354 N 
ATOM     47  C   UNL A   1      42.650  28.693  33.800  1.00  0.00     0.074 A 
ATOM     48  C   UNL A   1      43.257  27.568  33.121  1.00  0.00     0.031 C 
ATOM     49  C   UNL A   1      38.182  30.738  29.714  1.00  0.00     0.029 A 
ATOM     50  C   UNL A   1      38.508  31.260  31.038  1.00  0.00     0.049 A 
ATOM     51  H   UNL A   1      39.972  30.555  32.344  1.00  0.00     0.167 HD
ATOM     52  C   UNL A   1      43.044  29.141  35.019  1.00  0.00     0.031 A 
ATOM     53  C   UNL A   1      37.889  32.304  31.632  1.00  0.00     0.031 A 
ATOM     54  C   UNL A   1      42.470  30.267  35.711  1.00  0.00     0.049 A 
ATOM     55  C   UNL A   1      38.328  32.765  32.999  1.00  0.00     0.074 A 
ATOM     56  C   UNL A   1      42.832  30.794  36.941  1.00  0.00     0.029 A 
ATOM     57  N   UNL A   1      41.430  31.047  35.238  1.00  0.00    -0.354 N 
ATOM     58  N   UNL A   1      39.291  32.302  33.757  1.00  0.00    -0.248 NA
ATOM     59  C   UNL A   1      37.600  33.904  33.583  1.00  0.00     0.031 C 
ATOM     60  C   UNL A   1      41.987  31.871  37.227  1.00  0.00     0.029 A 
ATOM     61  C   UNL A   1      41.134  32.047  36.152  1.00  0.00     0.049 A 
ATOM     62  H   UNL A   1      40.968  30.913  34.378  1.00  0.00     0.167 HD
ATOM     63  C   UNL A   1      39.309  33.119  34.885  1.00  0.00     0.074 A 
ATOM     64  C   UNL A   1      38.271  34.109  34.708  1.00  0.00     0.031 C 
ATOM     65  C   UNL A   1      40.119  33.050  35.969  1.00  0.00     0.031 A 
BRANCH  52  66
ATOM     66  C   UNL A   1      44.186  28.423  35.692  1.00  0.00    -0.014 A 
ATOM     67  C   UNL A   1      43.944  27.312  36.519  1.00  0.00     0.010 A 
ATOM     68  C   UNL A   1      45.515  28.808  35.434  1.00  0.00     0.010 A 
ATOM     69  C   UNL A   1      45.007  26.616  37.099  1.00  0.00     0.020 A 
ATOM     70  C   UNL A   1      46.582  28.097  35.991  1.00  0.00     0.020 A 
ATOM     71  C   UNL A   1      46.319  27.013  36.833  1.00  0.00     0.054 A 
BRANCH  71  72
ATOM     72  S   UNL A   1      47.682  26.066  37.566  1.00  0.00     0.124 S 
ATOM     73  O   UNL A   1      48.267  27.045  38.482  1.00  0.00    -0.237 OA
ATOM     74  O   UNL A   1      46.987  24.950  38.208  1.00  0.00    -0.237 OA
ATOM     75  O   UNL A   1      48.513  25.707  36.425  1.00  0.00    -0.744 OA
ENDBRANCH  71  72
ENDBRANCH  52  66
BRANCH  53  76
ATOM     76  C   UNL A   1      36.772  33.011  30.943  1.00  0.00    -0.014 A 
ATOM     77  C   UNL A   1      35.433  32.707  31.253  1.00  0.00     0.010 A 
ATOM     78  C   UNL A   1      37.042  33.947  29.929  1.00  0.00     0.010 A 
ATOM     79  C   UNL A   1      34.387  33.291  30.531  1.00  0.00     0.020 A 
ATOM     80  C   UNL A   1      35.998  34.556  29.226  1.00  0.00     0.020 A 
ATOM     81  C   UNL A   1      34.678  34.208  29.517  1.00  0.00     0.054 A 
BRANCH  81  82
ATOM     82  S   UNL A   1      33.310  34.957  28.590  1.00  0.00     0.124 S 
ATOM     83  O   UNL A   1      34.003  35.958  27.785  1.00  0.00    -0.237 OA
ATOM     84  O   UNL A   1      32.761  33.820  27.856  1.00  0.00    -0.237 OA
ATOM     85  O   UNL A   1      32.442  35.487  29.640  1.00  0.00    -0.744 OA
ENDBRANCH  81  82
ENDBRANCH  53  76
BRANCH  65  86
ATOM     86  C   UNL A   1      39.968  34.111  37.030  1.00  0.00    -0.014 A 
ATOM     87  C   UNL A   1      40.634  35.346  36.936  1.00  0.00     0.010 A 
ATOM     88  C   UNL A   1      39.105  33.883  38.118  1.00  0.00     0.010 A 
ATOM     89  C   UNL A   1      40.467  36.318  37.927  1.00  0.00     0.020 A 
ATOM     90  C   UNL A   1      38.913  34.863  39.097  1.00  0.00     0.020 A 
ATOM     91  C   UNL A   1      39.609  36.070  39.003  1.00  0.00     0.054 A 
BRANCH  91  92
ATOM     92  S   UNL A   1      39.376  37.363  40.255  1.00  0.00     0.124 S 
ATOM     93  O   UNL A   1      38.490  38.298  39.565  1.00  0.00    -0.237 OA
ATOM     94  O   UNL A   1      38.773  36.631  41.366  1.00  0.00    -0.237 OA
ATOM     95  O   UNL A   1      40.729  37.854  40.503  1.00  0.00    -0.744 OA
ENDBRANCH  91  92
ENDBRANCH  65  86
ENDBRANCH  39  40
ENDBRANCH  31  34
ENDBRANCH  29  30
ENDBRANCH  28  29
ENDBRANCH   1  28
TORSDOF 20
ENDMDL
