MODEL 1
REMARK VINA RESULT:     -10.0      0.000      0.000
REMARK SMILES [NH3+][C@@H](Cc1c[nH]c2ccccc12)C(=O)N[C@@H](CS)C(=O)N[C@@H](CO)C(=O)NCCCCCCNC(=O)c1ccc(-c2c3nc(c(-c4ccc(S(=O)(=O)[O-])cc4)c4ccc([nH]4)c(-c4ccc(S(=O)(=O)[O-])cc4)c4nc(c(-c5ccc(S(=O)(=O)[O-])cc5)c5ccc2[nH]5)C=C4)C=C3)cc1
REMARK SMILES IDX 29 1 28 2 27 3 25 4 26 5 22 7 21 8 19 9 20 10 16 12 15 13
REMARK SMILES IDX 13 14 14 15 2 17 1 18 3 22 4 23 5 24 12 25 6 26 7 27 11 28
REMARK SMILES IDX 8 30 10 31 9 32 17 33 18 34 23 36 24 37 30 39 31 40 32 41
REMARK SMILES IDX 33 42 34 43 35 44 36 46 37 47 38 48 96 49 39 50 95 51 40 52
REMARK SMILES IDX 41 53 42 54 89 55 43 56 94 57 88 58 90 59 44 60 93 61 87 62
REMARK SMILES IDX 86 63 45 65 75 66 56 67 74 68 57 69 60 70 73 71 91 72 58 73
REMARK SMILES IDX 59 74 72 76 92 77 61 78 46 79 47 80 55 81 48 82 54 83 49 84
REMARK SMILES IDX 50 85 51 86 52 87 53 88 76 89 77 90 85 91 78 92 84 93 79 94
REMARK SMILES IDX 80 95 81 96 82 97 83 98 62 99 63 100 71 101 64 102 70 103
REMARK SMILES IDX 65 104 66 105 67 106 68 107 69 108
REMARK H PARENT 27 6 21 11 15 16 1 19 1 20 1 21 6 29 18 35 24 38 34 45 90 64
REMARK H PARENT 60 75
REMARK Flexibility Score: inf
ROOT
ATOM      1  C   UNL A   1      36.435  19.004  24.783  1.00  0.00     0.021 C 
ENDROOT
BRANCH   1   2
ATOM      2  C   UNL A   1      35.236  19.930  24.947  1.00  0.00     0.116 C 
BRANCH   2   3
ATOM      3  N   UNL A   1      34.023  19.192  25.233  1.00  0.00    -0.354 N 
ATOM      4  C   UNL A   1      32.740  19.410  24.846  1.00  0.00     0.244 C 
ATOM      5  O   UNL A   1      31.931  18.495  25.027  1.00  0.00    -0.273 OA
ATOM      6  H   UNL A   1      34.150  18.400  25.803  1.00  0.00     0.163 HD
BRANCH   4   7
ATOM      7  C   UNL A   1      32.301  20.706  24.167  1.00  0.00     0.197 C 
BRANCH   7   8
ATOM      8  N   UNL A   1      33.106  21.855  24.583  1.00  0.00    -0.340 N 
ATOM      9  C   UNL A   1      33.315  22.850  23.688  1.00  0.00     0.244 C 
ATOM     10  O   UNL A   1      34.352  22.812  23.025  1.00  0.00    -0.273 OA
ATOM     11  H   UNL A   1      33.485  21.903  25.490  1.00  0.00     0.164 HD
BRANCH   9  12
ATOM     12  C   UNL A   1      32.246  23.937  23.504  1.00  0.00     0.181 C 
BRANCH  12  13
ATOM     13  N   UNL A   1      32.229  24.292  22.098  1.00  0.00    -0.338 N 
ATOM     14  C   UNL A   1      32.639  25.499  21.589  1.00  0.00     0.279 C 
ATOM     15  O   UNL A   1      33.152  25.483  20.465  1.00  0.00    -0.268 OA
ATOM     16  H   UNL A   1      31.900  23.617  21.461  1.00  0.00     0.164 HD
BRANCH  14  17
ATOM     17  C   UNL A   1      32.385  26.847  22.331  1.00  0.00     0.275 C 
BRANCH  17  18
ATOM     18  N   UNL A   1      33.197  27.926  21.721  1.00  0.00    -0.347 N 
ATOM     19  H   UNL A   1      33.391  28.643  22.421  1.00  0.00     0.345 HD
ATOM     20  H   UNL A   1      32.684  28.341  20.943  1.00  0.00     0.345 HD
ATOM     21  H   UNL A   1      34.077  27.538  21.378  1.00  0.00     0.345 HD
ENDBRANCH  17  18
BRANCH  17  22
ATOM     22  C   UNL A   1      30.930  27.216  22.733  1.00  0.00     0.113 C 
BRANCH  22  23
ATOM     23  C   UNL A   1      30.659  28.505  23.476  1.00  0.00    -0.016 A 
ATOM     24  C   UNL A   1      31.396  29.084  24.498  1.00  0.00     0.087 A 
ATOM     25  C   UNL A   1      29.549  29.394  23.241  1.00  0.00     0.003 A 
ATOM     26  N   UNL A   1      30.889  30.334  24.748  1.00  0.00    -0.361 N 
ATOM     27  C   UNL A   1      29.780  30.562  23.970  1.00  0.00     0.046 A 
ATOM     28  C   UNL A   1      28.400  29.339  22.424  1.00  0.00     0.010 A 
ATOM     29  H   UNL A   1      31.265  30.976  25.393  1.00  0.00     0.166 HD
ATOM     30  C   UNL A   1      28.970  31.700  23.862  1.00  0.00     0.026 A 
ATOM     31  C   UNL A   1      27.559  30.455  22.330  1.00  0.00     0.001 A 
ATOM     32  C   UNL A   1      27.855  31.625  23.023  1.00  0.00     0.002 A 
ENDBRANCH  22  23
ENDBRANCH  17  22
ENDBRANCH  14  17
ENDBRANCH  12  13
BRANCH  12  33
ATOM     33  C   UNL A   1      30.898  23.842  24.229  1.00  0.00     0.101 C 
BRANCH  33  34
ATOM     34  S   UNL A   1      30.672  24.722  25.802  1.00  0.00    -0.177 SA
ATOM     35  H   UNL A   1      29.348  24.763  26.113  1.00  0.00     0.102 HD
ENDBRANCH  33  34
ENDBRANCH  12  33
ENDBRANCH   9  12
ENDBRANCH   7   8
BRANCH   7  36
ATOM     36  C   UNL A   1      32.147  20.573  22.641  1.00  0.00     0.191 C 
BRANCH  36  37
ATOM     37  O   UNL A   1      32.060  19.224  22.195  1.00  0.00    -0.394 OA
ATOM     38  H   UNL A   1      31.649  19.200  21.317  1.00  0.00     0.210 HD
ENDBRANCH  36  37
ENDBRANCH   7  36
ENDBRANCH   4   7
ENDBRANCH   2   3
ENDBRANCH   1   2
BRANCH   1  39
ATOM     39  C   UNL A   1      37.788  19.715  24.861  1.00  0.00     0.002 C 
BRANCH  39  40
ATOM     40  C   UNL A   1      37.727  21.232  24.656  1.00  0.00     0.002 C 
BRANCH  40  41
ATOM     41  C   UNL A   1      37.823  22.058  25.940  1.00  0.00     0.021 C 
BRANCH  41  42
ATOM     42  C   UNL A   1      39.151  22.777  26.123  1.00  0.00     0.116 C 
BRANCH  42  43
ATOM     43  N   UNL A   1      40.278  21.922  25.794  1.00  0.00    -0.352 N 
ATOM     44  C   UNL A   1      41.615  22.141  26.015  1.00  0.00     0.251 C 
ATOM     45  H   UNL A   1      40.053  21.072  25.351  1.00  0.00     0.163 HD
ATOM     46  O   UNL A   1      42.456  21.428  25.487  1.00  0.00    -0.269 OA
BRANCH  44  47
ATOM     47  C   UNL A   1      42.017  23.261  26.891  1.00  0.00     0.039 A 
ATOM     48  C   UNL A   1      42.387  24.476  26.312  1.00  0.00     0.014 A 
ATOM     49  C   UNL A   1      42.010  23.109  28.280  1.00  0.00     0.014 A 
ATOM     50  C   UNL A   1      42.705  25.558  27.134  1.00  0.00     0.010 A 
ATOM     51  C   UNL A   1      42.248  24.208  29.095  1.00  0.00     0.010 A 
ATOM     52  C   UNL A   1      42.610  25.441  28.530  1.00  0.00    -0.014 A 
BRANCH  52  53
ATOM     53  C   UNL A   1      42.907  26.585  29.426  1.00  0.00     0.031 A 
ATOM     54  C   UNL A   1      44.234  26.654  30.131  1.00  0.00     0.074 A 
ATOM     55  C   UNL A   1      41.964  27.520  29.657  1.00  0.00     0.049 A 
ATOM     56  N   UNL A   1      44.651  27.517  31.023  1.00  0.00    -0.248 NA
ATOM     57  C   UNL A   1      45.213  25.600  29.815  1.00  0.00     0.031 C 
ATOM     58  C   UNL A   1      40.629  27.544  29.054  1.00  0.00     0.029 A 
ATOM     59  N   UNL A   1      41.981  28.624  30.470  1.00  0.00    -0.354 N 
ATOM     60  C   UNL A   1      45.927  27.101  31.384  1.00  0.00     0.074 A 
ATOM     61  C   UNL A   1      46.195  25.878  30.658  1.00  0.00     0.031 C 
ATOM     62  C   UNL A   1      39.965  28.624  29.501  1.00  0.00     0.029 A 
ATOM     63  C   UNL A   1      40.805  29.338  30.456  1.00  0.00     0.049 A 
ATOM     64  H   UNL A   1      42.760  28.882  31.014  1.00  0.00     0.167 HD
ATOM     65  C   UNL A   1      46.803  27.692  32.229  1.00  0.00     0.031 A 
ATOM     66  C   UNL A   1      40.440  30.437  31.145  1.00  0.00     0.031 A 
ATOM     67  C   UNL A   1      46.533  28.913  32.939  1.00  0.00     0.049 A 
ATOM     68  C   UNL A   1      41.422  31.062  32.099  1.00  0.00     0.074 A 
ATOM     69  C   UNL A   1      47.373  29.619  33.784  1.00  0.00     0.029 A 
ATOM     70  N   UNL A   1      45.335  29.609  32.892  1.00  0.00    -0.354 N 
ATOM     71  N   UNL A   1      42.646  30.683  32.388  1.00  0.00    -0.248 NA
ATOM     72  C   UNL A   1      40.981  32.268  32.811  1.00  0.00     0.031 C 
ATOM     73  C   UNL A   1      46.661  30.710  34.292  1.00  0.00     0.029 A 
ATOM     74  C   UNL A   1      45.403  30.724  33.709  1.00  0.00     0.049 A 
ATOM     75  H   UNL A   1      44.552  29.348  32.355  1.00  0.00     0.167 HD
ATOM     76  C   UNL A   1      43.131  31.626  33.287  1.00  0.00     0.074 A 
ATOM     77  C   UNL A   1      42.075  32.597  33.485  1.00  0.00     0.031 C 
ATOM     78  C   UNL A   1      44.345  31.685  33.890  1.00  0.00     0.031 A 
BRANCH  65  79
ATOM     79  C   UNL A   1      48.137  27.020  32.437  1.00  0.00    -0.014 A 
ATOM     80  C   UNL A   1      48.296  25.996  33.389  1.00  0.00     0.010 A 
ATOM     81  C   UNL A   1      49.236  27.387  31.639  1.00  0.00     0.010 A 
ATOM     82  C   UNL A   1      49.538  25.380  33.565  1.00  0.00     0.020 A 
ATOM     83  C   UNL A   1      50.472  26.752  31.791  1.00  0.00     0.020 A 
ATOM     84  C   UNL A   1      50.619  25.763  32.765  1.00  0.00     0.054 A 
BRANCH  84  85
ATOM     85  S   UNL A   1      52.210  24.926  32.998  1.00  0.00     0.124 S 
ATOM     86  O   UNL A   1      52.742  25.614  34.172  1.00  0.00    -0.237 OA
ATOM     87  O   UNL A   1      51.812  23.537  33.213  1.00  0.00    -0.237 OA
ATOM     88  O   UNL A   1      52.924  25.182  31.750  1.00  0.00    -0.744 OA
ENDBRANCH  84  85
ENDBRANCH  65  79
BRANCH  66  89
ATOM     89  C   UNL A   1      39.084  31.022  30.954  1.00  0.00    -0.014 A 
ATOM     90  C   UNL A   1      38.852  31.975  29.946  1.00  0.00     0.010 A 
ATOM     91  C   UNL A   1      38.013  30.627  31.778  1.00  0.00     0.010 A 
ATOM     92  C   UNL A   1      37.583  32.540  29.782  1.00  0.00     0.020 A 
ATOM     93  C   UNL A   1      36.737  31.165  31.597  1.00  0.00     0.020 A 
ATOM     94  C   UNL A   1      36.533  32.130  30.609  1.00  0.00     0.054 A 
BRANCH  94  95
ATOM     95  S   UNL A   1      34.887  32.848  30.352  1.00  0.00     0.124 S 
ATOM     96  O   UNL A   1      34.237  32.582  31.631  1.00  0.00    -0.237 OA
ATOM     97  O   UNL A   1      35.195  34.249  30.077  1.00  0.00    -0.237 OA
ATOM     98  O   UNL A   1      34.360  32.098  29.214  1.00  0.00    -0.744 OA
ENDBRANCH  94  95
ENDBRANCH  66  89
BRANCH  78  99
ATOM     99  C   UNL A   1      44.622  32.866  34.783  1.00  0.00    -0.014 A 
ATOM    100  C   UNL A   1      45.149  34.066  34.273  1.00  0.00     0.010 A 
ATOM    101  C   UNL A   1      44.285  32.791  36.147  1.00  0.00     0.010 A 
ATOM    102  C   UNL A   1      45.360  35.159  35.119  1.00  0.00     0.020 A 
ATOM    103  C   UNL A   1      44.464  33.890  36.989  1.00  0.00     0.020 A 
ATOM    104  C   UNL A   1      45.013  35.065  36.471  1.00  0.00     0.054 A 
BRANCH 104 105
ATOM    105  S   UNL A   1      45.248  36.515  37.535  1.00  0.00     0.124 S 
ATOM    106  O   UNL A   1      46.544  36.235  38.147  1.00  0.00    -0.237 OA
ATOM    107  O   UNL A   1      45.228  37.619  36.579  1.00  0.00    -0.237 OA
ATOM    108  O   UNL A   1      44.106  36.465  38.445  1.00  0.00    -0.744 OA
ENDBRANCH 104 105
ENDBRANCH  78  99
ENDBRANCH  52  53
ENDBRANCH  44  47
ENDBRANCH  42  43
ENDBRANCH  41  42
ENDBRANCH  40  41
ENDBRANCH  39  40
ENDBRANCH   1  39
TORSDOF 27
ENDMDL
MODEL 2
REMARK VINA RESULT:      -9.6      3.678      4.453
REMARK SMILES [NH3+][C@@H](Cc1c[nH]c2ccccc12)C(=O)N[C@@H](CS)C(=O)N[C@@H](CO)C(=O)NCCCCCCNC(=O)c1ccc(-c2c3nc(c(-c4ccc(S(=O)(=O)[O-])cc4)c4ccc([nH]4)c(-c4ccc(S(=O)(=O)[O-])cc4)c4nc(c(-c5ccc(S(=O)(=O)[O-])cc5)c5ccc2[nH]5)C=C4)C=C3)cc1
REMARK SMILES IDX 29 1 28 2 27 3 25 4 26 5 22 7 21 8 19 9 20 10 16 12 15 13
REMARK SMILES IDX 13 14 14 15 2 17 1 18 3 22 4 23 5 24 12 25 6 26 7 27 11 28
REMARK SMILES IDX 8 30 10 31 9 32 17 33 18 34 23 36 24 37 30 39 31 40 32 41
REMARK SMILES IDX 33 42 34 43 35 44 36 46 37 47 38 48 96 49 39 50 95 51 40 52
REMARK SMILES IDX 41 53 42 54 89 55 43 56 94 57 88 58 90 59 44 60 93 61 87 62
REMARK SMILES IDX 86 63 45 65 75 66 56 67 74 68 57 69 60 70 73 71 91 72 58 73
REMARK SMILES IDX 59 74 72 76 92 77 61 78 46 79 47 80 55 81 48 82 54 83 49 84
REMARK SMILES IDX 50 85 51 86 52 87 53 88 76 89 77 90 85 91 78 92 84 93 79 94
REMARK SMILES IDX 80 95 81 96 82 97 83 98 62 99 63 100 71 101 64 102 70 103
REMARK SMILES IDX 65 104 66 105 67 106 68 107 69 108
REMARK H PARENT 27 6 21 11 15 16 1 19 1 20 1 21 6 29 18 35 24 38 34 45 90 64
REMARK H PARENT 60 75
REMARK Flexibility Score: inf
ROOT
ATOM      1  C   UNL A   1      34.781  19.520  24.720  1.00  0.00     0.021 C 
ENDROOT
BRANCH   1   2
ATOM      2  C   UNL A   1      34.553  20.914  25.291  1.00  0.00     0.116 C 
BRANCH   2   3
ATOM      3  N   UNL A   1      33.186  21.094  25.737  1.00  0.00    -0.354 N 
ATOM      4  C   UNL A   1      32.127  21.691  25.133  1.00  0.00     0.244 C 
ATOM      5  O   UNL A   1      31.011  21.496  25.623  1.00  0.00    -0.273 OA
ATOM      6  H   UNL A   1      32.993  20.720  26.627  1.00  0.00     0.163 HD
BRANCH   4   7
ATOM      7  C   UNL A   1      32.278  22.535  23.868  1.00  0.00     0.197 C 
BRANCH   7   8
ATOM      8  N   UNL A   1      33.406  23.462  23.947  1.00  0.00    -0.340 N 
ATOM      9  C   UNL A   1      33.149  24.791  23.899  1.00  0.00     0.244 C 
ATOM     10  O   UNL A   1      33.225  25.348  22.803  1.00  0.00    -0.273 OA
ATOM     11  H   UNL A   1      34.329  23.128  24.033  1.00  0.00     0.164 HD
BRANCH   9  12
ATOM     12  C   UNL A   1      32.733  25.526  25.183  1.00  0.00     0.181 C 
BRANCH  12  13
ATOM     13  N   UNL A   1      33.598  26.683  25.315  1.00  0.00    -0.338 N 
ATOM     14  C   UNL A   1      33.376  27.733  26.170  1.00  0.00     0.279 C 
ATOM     15  O   UNL A   1      34.375  28.287  26.641  1.00  0.00    -0.268 OA
ATOM     16  H   UNL A   1      34.403  26.717  24.750  1.00  0.00     0.164 HD
BRANCH  14  17
ATOM     17  C   UNL A   1      31.946  28.282  26.464  1.00  0.00     0.275 C 
BRANCH  17  18
ATOM     18  N   UNL A   1      31.653  28.194  27.915  1.00  0.00    -0.347 N 
ATOM     19  H   UNL A   1      32.485  28.455  28.446  1.00  0.00     0.345 HD
ATOM     20  H   UNL A   1      31.385  27.239  28.151  1.00  0.00     0.345 HD
ATOM     21  H   UNL A   1      30.889  28.829  28.147  1.00  0.00     0.345 HD
ENDBRANCH  17  18
BRANCH  17  22
ATOM     22  C   UNL A   1      31.479  29.575  25.740  1.00  0.00     0.113 C 
BRANCH  22  23
ATOM     23  C   UNL A   1      31.088  29.521  24.280  1.00  0.00    -0.016 A 
ATOM     24  C   UNL A   1      31.681  28.799  23.255  1.00  0.00     0.087 A 
ATOM     25  C   UNL A   1      29.989  30.230  23.675  1.00  0.00     0.003 A 
ATOM     26  N   UNL A   1      30.892  28.902  22.136  1.00  0.00    -0.361 N 
ATOM     27  C   UNL A   1      29.834  29.745  22.376  1.00  0.00     0.046 A 
ATOM     28  C   UNL A   1      29.070  31.197  24.136  1.00  0.00     0.010 A 
ATOM     29  H   UNL A   1      31.060  28.440  21.284  1.00  0.00     0.166 HD
ATOM     30  C   UNL A   1      28.766  30.112  21.548  1.00  0.00     0.026 A 
ATOM     31  C   UNL A   1      28.016  31.604  23.309  1.00  0.00     0.001 A 
ATOM     32  C   UNL A   1      27.855  31.051  22.042  1.00  0.00     0.002 A 
ENDBRANCH  22  23
ENDBRANCH  17  22
ENDBRANCH  14  17
ENDBRANCH  12  13
BRANCH  12  33
ATOM     33  C   UNL A   1      31.253  25.700  25.541  1.00  0.00     0.101 C 
BRANCH  33  34
ATOM     34  S   UNL A   1      30.031  25.867  24.206  1.00  0.00    -0.177 SA
ATOM     35  H   UNL A   1      30.094  24.777  23.394  1.00  0.00     0.102 HD
ENDBRANCH  33  34
ENDBRANCH  12  33
ENDBRANCH   9  12
ENDBRANCH   7   8
BRANCH   7  36
ATOM     36  C   UNL A   1      32.244  21.703  22.572  1.00  0.00     0.191 C 
BRANCH  36  37
ATOM     37  O   UNL A   1      32.073  20.308  22.798  1.00  0.00    -0.394 OA
ATOM     38  H   UNL A   1      32.938  19.873  22.805  1.00  0.00     0.210 HD
ENDBRANCH  36  37
ENDBRANCH   7  36
ENDBRANCH   4   7
ENDBRANCH   2   3
ENDBRANCH   1   2
BRANCH   1  39
ATOM     39  C   UNL A   1      36.190  18.973  24.956  1.00  0.00     0.002 C 
BRANCH  39  40
ATOM     40  C   UNL A   1      37.322  19.945  24.611  1.00  0.00     0.002 C 
BRANCH  40  41
ATOM     41  C   UNL A   1      37.893  20.716  25.803  1.00  0.00     0.021 C 
BRANCH  41  42
ATOM     42  C   UNL A   1      39.360  21.091  25.661  1.00  0.00     0.116 C 
BRANCH  42  43
ATOM     43  N   UNL A   1      40.236  20.025  26.116  1.00  0.00    -0.352 N 
ATOM     44  C   UNL A   1      41.552  20.101  26.500  1.00  0.00     0.251 C 
ATOM     45  H   UNL A   1      39.832  19.128  26.153  1.00  0.00     0.163 HD
ATOM     46  O   UNL A   1      42.213  19.083  26.650  1.00  0.00    -0.269 OA
BRANCH  44  47
ATOM     47  C   UNL A   1      42.155  21.432  26.715  1.00  0.00     0.039 A 
ATOM     48  C   UNL A   1      42.353  22.272  25.618  1.00  0.00     0.014 A 
ATOM     49  C   UNL A   1      42.505  21.849  28.002  1.00  0.00     0.014 A 
ATOM     50  C   UNL A   1      42.862  23.555  25.821  1.00  0.00     0.010 A 
ATOM     51  C   UNL A   1      42.934  23.154  28.210  1.00  0.00     0.010 A 
ATOM     52  C   UNL A   1      43.128  24.016  27.121  1.00  0.00    -0.014 A 
BRANCH  52  53
ATOM     53  C   UNL A   1      43.635  25.388  27.369  1.00  0.00     0.031 A 
ATOM     54  C   UNL A   1      45.086  25.703  27.124  1.00  0.00     0.074 A 
ATOM     55  C   UNL A   1      42.811  26.327  27.875  1.00  0.00     0.049 A 
ATOM     56  N   UNL A   1      45.743  26.809  27.366  1.00  0.00    -0.248 NA
ATOM     57  C   UNL A   1      45.916  24.625  26.560  1.00  0.00     0.031 C 
ATOM     58  C   UNL A   1      41.391  26.134  28.180  1.00  0.00     0.029 A 
ATOM     59  N   UNL A   1      43.052  27.629  28.232  1.00  0.00    -0.354 N 
ATOM     60  C   UNL A   1      47.059  26.553  27.001  1.00  0.00     0.074 A 
ATOM     61  C   UNL A   1      47.121  25.173  26.573  1.00  0.00     0.031 C 
ATOM     62  C   UNL A   1      40.884  27.283  28.656  1.00  0.00     0.029 A 
ATOM     63  C   UNL A   1      41.949  28.277  28.735  1.00  0.00     0.049 A 
ATOM     64  H   UNL A   1      43.932  28.060  28.136  1.00  0.00     0.167 HD
ATOM     65  C   UNL A   1      48.118  27.397  27.003  1.00  0.00     0.031 A 
ATOM     66  C   UNL A   1      41.813  29.527  29.221  1.00  0.00     0.031 A 
ATOM     67  C   UNL A   1      48.046  28.772  27.420  1.00  0.00     0.049 A 
ATOM     68  C   UNL A   1      43.010  30.439  29.237  1.00  0.00     0.074 A 
ATOM     69  C   UNL A   1      49.051  29.724  27.415  1.00  0.00     0.029 A 
ATOM     70  N   UNL A   1      46.909  29.392  27.916  1.00  0.00    -0.354 N 
ATOM     71  N   UNL A   1      44.237  30.196  28.838  1.00  0.00    -0.248 NA
ATOM     72  C   UNL A   1      42.804  31.797  29.759  1.00  0.00     0.031 C 
ATOM     73  C   UNL A   1      48.536  30.903  27.964  1.00  0.00     0.029 A 
ATOM     74  C   UNL A   1      47.193  30.706  28.243  1.00  0.00     0.049 A 
ATOM     75  H   UNL A   1      46.031  28.960  28.019  1.00  0.00     0.167 HD
ATOM     76  C   UNL A   1      44.938  31.382  29.026  1.00  0.00     0.074 A 
ATOM     77  C   UNL A   1      43.997  32.342  29.564  1.00  0.00     0.031 C 
ATOM     78  C   UNL A   1      46.242  31.653  28.771  1.00  0.00     0.031 A 
BRANCH  65  79
ATOM     79  C   UNL A   1      49.447  26.853  26.547  1.00  0.00    -0.014 A 
ATOM     80  C   UNL A   1      50.344  26.264  27.457  1.00  0.00     0.010 A 
ATOM     81  C   UNL A   1      49.786  26.892  25.181  1.00  0.00     0.010 A 
ATOM     82  C   UNL A   1      51.571  25.760  27.016  1.00  0.00     0.020 A 
ATOM     83  C   UNL A   1      50.999  26.360  24.732  1.00  0.00     0.020 A 
ATOM     84  C   UNL A   1      51.891  25.812  25.655  1.00  0.00     0.054 A 
BRANCH  84  85
ATOM     85  S   UNL A   1      53.477  25.124  25.110  1.00  0.00     0.124 S 
ATOM     86  O   UNL A   1      54.410  25.734  26.056  1.00  0.00    -0.237 OA
ATOM     87  O   UNL A   1      53.273  23.687  25.269  1.00  0.00    -0.237 OA
ATOM     88  O   UNL A   1      53.600  25.586  23.730  1.00  0.00    -0.744 OA
ENDBRANCH  84  85
ENDBRANCH  65  79
BRANCH  66  89
ATOM     89  C   UNL A   1      40.491  29.993  29.724  1.00  0.00    -0.014 A 
ATOM     90  C   UNL A   1      40.247  30.097  31.104  1.00  0.00     0.010 A 
ATOM     91  C   UNL A   1      39.467  30.340  28.822  1.00  0.00     0.010 A 
ATOM     92  C   UNL A   1      38.998  30.513  31.575  1.00  0.00     0.020 A 
ATOM     93  C   UNL A   1      38.228  30.787  29.287  1.00  0.00     0.020 A 
ATOM     94  C   UNL A   1      37.996  30.857  30.663  1.00  0.00     0.054 A 
BRANCH  94  95
ATOM     95  S   UNL A   1      36.396  31.432  31.297  1.00  0.00     0.124 S 
ATOM     96  O   UNL A   1      36.764  32.676  31.965  1.00  0.00    -0.237 OA
ATOM     97  O   UNL A   1      35.609  31.579  30.075  1.00  0.00    -0.237 OA
ATOM     98  O   UNL A   1      35.968  30.349  32.179  1.00  0.00    -0.744 OA
ENDBRANCH  94  95
ENDBRANCH  66  89
BRANCH  78  99
ATOM     99  C   UNL A   1      46.724  33.058  29.019  1.00  0.00    -0.014 A 
ATOM    100  C   UNL A   1      46.617  34.056  28.035  1.00  0.00     0.010 A 
ATOM    101  C   UNL A   1      47.231  33.397  30.287  1.00  0.00     0.010 A 
ATOM    102  C   UNL A   1      47.037  35.362  28.306  1.00  0.00     0.020 A 
ATOM    103  C   UNL A   1      47.622  34.707  30.573  1.00  0.00     0.020 A 
ATOM    104  C   UNL A   1      47.534  35.679  29.575  1.00  0.00     0.054 A 
BRANCH 104 105
ATOM    105  S   UNL A   1      48.021  37.392  29.918  1.00  0.00     0.124 S 
ATOM    106  O   UNL A   1      48.964  37.224  31.022  1.00  0.00    -0.237 OA
ATOM    107  O   UNL A   1      48.608  37.817  28.650  1.00  0.00    -0.237 OA
ATOM    108  O   UNL A   1      46.763  38.047  30.268  1.00  0.00    -0.744 OA
ENDBRANCH 104 105
ENDBRANCH  78  99
ENDBRANCH  52  53
ENDBRANCH  44  47
ENDBRANCH  42  43
ENDBRANCH  41  42
ENDBRANCH  40  41
ENDBRANCH  39  40
ENDBRANCH   1  39
TORSDOF 27
ENDMDL
MODEL 3
REMARK VINA RESULT:      -9.6      3.288      8.767
REMARK SMILES [NH3+][C@@H](Cc1c[nH]c2ccccc12)C(=O)N[C@@H](CS)C(=O)N[C@@H](CO)C(=O)NCCCCCCNC(=O)c1ccc(-c2c3nc(c(-c4ccc(S(=O)(=O)[O-])cc4)c4ccc([nH]4)c(-c4ccc(S(=O)(=O)[O-])cc4)c4nc(c(-c5ccc(S(=O)(=O)[O-])cc5)c5ccc2[nH]5)C=C4)C=C3)cc1
REMARK SMILES IDX 29 1 28 2 27 3 25 4 26 5 22 7 21 8 19 9 20 10 16 12 15 13
REMARK SMILES IDX 13 14 14 15 2 17 1 18 3 22 4 23 5 24 12 25 6 26 7 27 11 28
REMARK SMILES IDX 8 30 10 31 9 32 17 33 18 34 23 36 24 37 30 39 31 40 32 41
REMARK SMILES IDX 33 42 34 43 35 44 36 46 37 47 38 48 96 49 39 50 95 51 40 52
REMARK SMILES IDX 41 53 42 54 89 55 43 56 94 57 88 58 90 59 44 60 93 61 87 62
REMARK SMILES IDX 86 63 45 65 75 66 56 67 74 68 57 69 60 70 73 71 91 72 58 73
REMARK SMILES IDX 59 74 72 76 92 77 61 78 46 79 47 80 55 81 48 82 54 83 49 84
REMARK SMILES IDX 50 85 51 86 52 87 53 88 76 89 77 90 85 91 78 92 84 93 79 94
REMARK SMILES IDX 80 95 81 96 82 97 83 98 62 99 63 100 71 101 64 102 70 103
REMARK SMILES IDX 65 104 66 105 67 106 68 107 69 108
REMARK H PARENT 27 6 21 11 15 16 1 19 1 20 1 21 6 29 18 35 24 38 34 45 90 64
REMARK H PARENT 60 75
REMARK Flexibility Score: inf
ROOT
ATOM      1  C   UNL A   1      39.823  22.237  26.763  1.00  0.00     0.021 C 
ENDROOT
BRANCH   1   2
ATOM      2  C   UNL A   1      38.598  23.101  26.489  1.00  0.00     0.116 C 
BRANCH   2   3
ATOM      3  N   UNL A   1      38.095  22.907  25.144  1.00  0.00    -0.354 N 
ATOM      4  C   UNL A   1      36.924  22.382  24.702  1.00  0.00     0.244 C 
ATOM      5  O   UNL A   1      36.638  22.555  23.513  1.00  0.00    -0.273 OA
ATOM      6  H   UNL A   1      38.704  23.208  24.432  1.00  0.00     0.163 HD
BRANCH   4   7
ATOM      7  C   UNL A   1      35.957  21.646  25.629  1.00  0.00     0.197 C 
BRANCH   7   8
ATOM      8  N   UNL A   1      35.168  22.560  26.453  1.00  0.00    -0.340 N 
ATOM      9  C   UNL A   1      34.287  23.383  25.835  1.00  0.00     0.244 C 
ATOM     10  O   UNL A   1      34.667  24.522  25.561  1.00  0.00    -0.273 OA
ATOM     11  H   UNL A   1      35.273  22.576  27.432  1.00  0.00     0.164 HD
BRANCH   9  12
ATOM     12  C   UNL A   1      32.893  22.856  25.464  1.00  0.00     0.181 C 
BRANCH  12  13
ATOM     13  N   UNL A   1      32.048  23.016  26.632  1.00  0.00    -0.338 N 
ATOM     14  C   UNL A   1      30.944  23.829  26.694  1.00  0.00     0.279 C 
ATOM     15  O   UNL A   1      30.015  23.451  27.416  1.00  0.00    -0.268 OA
ATOM     16  H   UNL A   1      32.283  22.504  27.439  1.00  0.00     0.164 HD
BRANCH  14  17
ATOM     17  C   UNL A   1      30.887  25.216  25.981  1.00  0.00     0.275 C 
BRANCH  17  18
ATOM     18  N   UNL A   1      29.498  25.515  25.557  1.00  0.00    -0.347 N 
ATOM     19  H   UNL A   1      29.488  26.375  25.009  1.00  0.00     0.345 HD
ATOM     20  H   UNL A   1      28.908  25.629  26.381  1.00  0.00     0.345 HD
ATOM     21  H   UNL A   1      29.143  24.745  24.988  1.00  0.00     0.345 HD
ENDBRANCH  17  18
BRANCH  17  22
ATOM     22  C   UNL A   1      31.700  26.397  26.579  1.00  0.00     0.113 C 
BRANCH  22  23
ATOM     23  C   UNL A   1      31.999  27.611  25.727  1.00  0.00    -0.016 A 
ATOM     24  C   UNL A   1      31.783  28.948  26.025  1.00  0.00     0.087 A 
ATOM     25  C   UNL A   1      32.585  27.593  24.411  1.00  0.00     0.003 A 
ATOM     26  N   UNL A   1      32.369  29.713  25.048  1.00  0.00    -0.361 N 
ATOM     27  C   UNL A   1      32.895  28.909  24.066  1.00  0.00     0.046 A 
ATOM     28  C   UNL A   1      32.941  26.570  23.506  1.00  0.00     0.010 A 
ATOM     29  H   UNL A   1      32.406  30.697  25.049  1.00  0.00     0.166 HD
ATOM     30  C   UNL A   1      33.610  29.246  22.909  1.00  0.00     0.026 A 
ATOM     31  C   UNL A   1      33.625  26.890  22.328  1.00  0.00     0.001 A 
ATOM     32  C   UNL A   1      33.973  28.208  22.047  1.00  0.00     0.002 A 
ENDBRANCH  22  23
ENDBRANCH  17  22
ENDBRANCH  14  17
ENDBRANCH  12  13
BRANCH  12  33
ATOM     33  C   UNL A   1      32.278  23.163  24.094  1.00  0.00     0.101 C 
BRANCH  33  34
ATOM     34  S   UNL A   1      33.280  22.920  22.597  1.00  0.00    -0.177 SA
ATOM     35  H   UNL A   1      34.380  23.718  22.653  1.00  0.00     0.102 HD
ENDBRANCH  33  34
ENDBRANCH  12  33
ENDBRANCH   9  12
ENDBRANCH   7   8
BRANCH   7  36
ATOM     36  C   UNL A   1      35.119  20.575  24.908  1.00  0.00     0.191 C 
BRANCH  36  37
ATOM     37  O   UNL A   1      34.283  19.825  25.783  1.00  0.00    -0.394 OA
ATOM     38  H   UNL A   1      34.078  20.355  26.568  1.00  0.00     0.210 HD
ENDBRANCH  36  37
ENDBRANCH   7  36
ENDBRANCH   4   7
ENDBRANCH   2   3
ENDBRANCH   1   2
BRANCH   1  39
ATOM     39  C   UNL A   1      41.153  22.926  26.453  1.00  0.00     0.002 C 
BRANCH  39  40
ATOM     40  C   UNL A   1      41.247  24.380  26.925  1.00  0.00     0.002 C 
BRANCH  40  41
ATOM     41  C   UNL A   1      40.990  25.427  25.839  1.00  0.00     0.021 C 
BRANCH  41  42
ATOM     42  C   UNL A   1      42.127  26.419  25.645  1.00  0.00     0.116 C 
BRANCH  42  43
ATOM     43  N   UNL A   1      43.426  25.784  25.779  1.00  0.00    -0.352 N 
ATOM     44  C   UNL A   1      44.421  26.047  26.687  1.00  0.00     0.251 C 
ATOM     45  H   UNL A   1      43.620  25.069  25.130  1.00  0.00     0.163 HD
ATOM     46  O   UNL A   1      45.540  25.578  26.535  1.00  0.00    -0.269 OA
BRANCH  44  47
ATOM     47  C   UNL A   1      44.118  26.918  27.842  1.00  0.00     0.039 A 
ATOM     48  C   UNL A   1      44.460  28.270  27.780  1.00  0.00     0.014 A 
ATOM     49  C   UNL A   1      43.481  26.397  28.972  1.00  0.00     0.014 A 
ATOM     50  C   UNL A   1      44.119  29.112  28.839  1.00  0.00     0.010 A 
ATOM     51  C   UNL A   1      43.071  27.252  29.987  1.00  0.00     0.010 A 
ATOM     52  C   UNL A   1      43.396  28.616  29.936  1.00  0.00    -0.014 A 
BRANCH  52  53
ATOM     53  C   UNL A   1      42.988  29.496  31.058  1.00  0.00     0.031 A 
ATOM     54  C   UNL A   1      41.692  30.257  30.977  1.00  0.00     0.074 A 
ATOM     55  C   UNL A   1      43.810  29.663  32.114  1.00  0.00     0.049 A 
ATOM     56  N   UNL A   1      41.202  31.144  31.804  1.00  0.00    -0.248 NA
ATOM     57  C   UNL A   1      40.848  30.009  29.795  1.00  0.00     0.031 C 
ATOM     58  C   UNL A   1      45.105  29.002  32.293  1.00  0.00     0.029 A 
ATOM     59  N   UNL A   1      43.681  30.449  33.230  1.00  0.00    -0.354 N 
ATOM     60  C   UNL A   1      40.007  31.570  31.237  1.00  0.00     0.074 A 
ATOM     61  C   UNL A   1      39.872  30.887  29.969  1.00  0.00     0.031 C 
ATOM     62  C   UNL A   1      45.639  29.393  33.462  1.00  0.00     0.029 A 
ATOM     63  C   UNL A   1      44.751  30.366  34.090  1.00  0.00     0.049 A 
ATOM     64  H   UNL A   1      42.897  31.019  33.402  1.00  0.00     0.167 HD
ATOM     65  C   UNL A   1      39.095  32.437  31.735  1.00  0.00     0.031 A 
ATOM     66  C   UNL A   1      44.998  31.012  35.248  1.00  0.00     0.031 A 
ATOM     67  C   UNL A   1      39.232  33.105  33.001  1.00  0.00     0.049 A 
ATOM     68  C   UNL A   1      43.981  31.992  35.768  1.00  0.00     0.074 A 
ATOM     69  C   UNL A   1      38.342  33.968  33.618  1.00  0.00     0.029 A 
ATOM     70  N   UNL A   1      40.326  32.989  33.846  1.00  0.00    -0.354 N 
ATOM     71  N   UNL A   1      42.830  32.343  35.243  1.00  0.00    -0.248 NA
ATOM     72  C   UNL A   1      44.289  32.654  37.042  1.00  0.00     0.031 C 
ATOM     73  C   UNL A   1      38.925  34.418  34.807  1.00  0.00     0.029 A 
ATOM     74  C   UNL A   1      40.145  33.781  34.966  1.00  0.00     0.049 A 
ATOM     75  H   UNL A   1      41.115  32.425  33.672  1.00  0.00     0.167 HD
ATOM     76  C   UNL A   1      42.261  33.238  36.141  1.00  0.00     0.074 A 
ATOM     77  C   UNL A   1      43.189  33.367  37.246  1.00  0.00     0.031 C 
ATOM     78  C   UNL A   1      41.075  33.892  36.061  1.00  0.00     0.031 A 
BRANCH  65  79
ATOM     79  C   UNL A   1      37.871  32.720  30.903  1.00  0.00    -0.014 A 
ATOM     80  C   UNL A   1      37.877  33.719  29.913  1.00  0.00     0.010 A 
ATOM     81  C   UNL A   1      36.710  31.945  31.083  1.00  0.00     0.010 A 
ATOM     82  C   UNL A   1      36.734  33.964  29.147  1.00  0.00     0.020 A 
ATOM     83  C   UNL A   1      35.575  32.166  30.297  1.00  0.00     0.020 A 
ATOM     84  C   UNL A   1      35.590  33.186  29.344  1.00  0.00     0.054 A 
BRANCH  84  85
ATOM     85  S   UNL A   1      34.132  33.508  28.316  1.00  0.00     0.124 S 
ATOM     86  O   UNL A   1      34.666  34.437  27.322  1.00  0.00    -0.237 OA
ATOM     87  O   UNL A   1      33.796  32.179  27.813  1.00  0.00    -0.237 OA
ATOM     88  O   UNL A   1      33.168  34.083  29.250  1.00  0.00    -0.744 OA
ENDBRANCH  84  85
ENDBRANCH  65  79
BRANCH  66  89
ATOM     89  C   UNL A   1      46.256  30.747  35.997  1.00  0.00    -0.014 A 
ATOM     90  C   UNL A   1      47.410  31.513  35.752  1.00  0.00     0.010 A 
ATOM     91  C   UNL A   1      46.309  29.726  36.965  1.00  0.00     0.010 A 
ATOM     92  C   UNL A   1      48.598  31.249  36.441  1.00  0.00     0.020 A 
ATOM     93  C   UNL A   1      47.485  29.479  37.679  1.00  0.00     0.020 A 
ATOM     94  C   UNL A   1      48.627  30.233  37.401  1.00  0.00     0.054 A 
BRANCH  94  95
ATOM     95  S   UNL A   1      50.168  29.934  38.310  1.00  0.00     0.124 S 
ATOM     96  O   UNL A   1      50.821  31.237  38.237  1.00  0.00    -0.237 OA
ATOM     97  O   UNL A   1      49.683  29.542  39.631  1.00  0.00    -0.237 OA
ATOM     98  O   UNL A   1      50.813  28.867  37.549  1.00  0.00    -0.744 OA
ENDBRANCH  94  95
ENDBRANCH  66  89
BRANCH  78  99
ATOM     99  C   UNL A   1      40.682  34.767  37.223  1.00  0.00    -0.014 A 
ATOM    100  C   UNL A   1      41.179  36.075  37.359  1.00  0.00     0.010 A 
ATOM    101  C   UNL A   1      39.744  34.289  38.156  1.00  0.00     0.010 A 
ATOM    102  C   UNL A   1      40.766  36.878  38.425  1.00  0.00     0.020 A 
ATOM    103  C   UNL A   1      39.304  35.099  39.205  1.00  0.00     0.020 A 
ATOM    104  C   UNL A   1      39.828  36.386  39.341  1.00  0.00     0.054 A 
BRANCH 104 105
ATOM    105  S   UNL A   1      39.269  37.468  40.684  1.00  0.00     0.124 S 
ATOM    106  O   UNL A   1      38.252  38.278  40.018  1.00  0.00    -0.237 OA
ATOM    107  O   UNL A   1      38.767  36.517  41.672  1.00  0.00    -0.237 OA
ATOM    108  O   UNL A   1      40.479  38.186  41.077  1.00  0.00    -0.744 OA
ENDBRANCH 104 105
ENDBRANCH  78  99
ENDBRANCH  52  53
ENDBRANCH  44  47
ENDBRANCH  42  43
ENDBRANCH  41  42
ENDBRANCH  40  41
ENDBRANCH  39  40
ENDBRANCH   1  39
TORSDOF 27
ENDMDL
