MODEL 1
REMARK VINA RESULT:     -14.2      0.000      0.000
REMARK SMILES Cc1ccc(-c2cc(Cl)cc3c2O[C@@H](C(F)(F)F)C(C(=O)NCCCCCCNC(=O)c2ccc(-c4c5nc(c(-c6ccc(S(=O)(=O)[O-])cc6)c6ccc([nH]6)c(-c6ccc(S(=O)(=O)[O-])cc6)c6nc(c(-c7ccc(S(=O)(=O)[O-])cc7)c7ccc4[nH]7)C=C6)C=C5)cc2)=C3)cc1
REMARK SMILES IDX 26 1 25 2 24 3 23 4 22 5 20 6 21 7 19 9 6 10 7 11 12 12 8 13
REMARK SMILES IDX 11 14 13 15 9 16 10 17 92 18 14 19 5 20 1 21 2 22 3 23 94 24
REMARK SMILES IDX 4 25 93 26 15 27 16 28 17 29 18 30 27 31 28 32 29 33 30 34
REMARK SMILES IDX 31 36 32 37 33 38 91 39 34 40 90 41 35 42 36 43 37 44 84 45
REMARK SMILES IDX 38 46 89 47 83 48 85 49 39 50 88 51 82 52 81 53 40 55 70 56
REMARK SMILES IDX 51 57 69 58 52 59 55 60 68 61 86 62 53 63 54 64 67 66 87 67
REMARK SMILES IDX 56 68 41 69 42 70 50 71 43 72 49 73 44 74 45 75 46 76 47 77
REMARK SMILES IDX 48 78 71 79 72 80 80 81 73 82 79 83 74 84 75 85 76 86 77 87
REMARK SMILES IDX 78 88 57 89 58 90 66 91 59 92 65 93 60 94 61 95 62 96 63 97
REMARK SMILES IDX 64 98
REMARK H PARENT 22 8 29 35 85 54 55 65
REMARK Flexibility Score: inf
ROOT
ATOM      1  C   UNL A   1      32.253  29.741  25.947  1.00  0.00     0.002 C 
ENDROOT
BRANCH   1   2
ATOM      2  C   UNL A   1      32.983  29.430  24.640  1.00  0.00     0.002 C 
BRANCH   2   3
ATOM      3  C   UNL A   1      32.948  28.005  24.096  1.00  0.00     0.021 C 
BRANCH   3   4
ATOM      4  C   UNL A   1      33.422  26.825  24.942  1.00  0.00     0.116 C 
BRANCH   4   5
ATOM      5  N   UNL A   1      34.127  25.727  24.316  1.00  0.00    -0.352 N 
ATOM      6  C   UNL A   1      33.678  24.673  23.560  1.00  0.00     0.251 C 
ATOM      7  O   UNL A   1      34.517  24.112  22.844  1.00  0.00    -0.270 OA
ATOM      8  H   UNL A   1      35.102  25.740  24.457  1.00  0.00     0.163 HD
BRANCH   6   9
ATOM      9  C   UNL A   1      32.243  24.111  23.589  1.00  0.00     0.067 C 
ATOM     10  C   UNL A   1      33.957  20.937  25.282  1.00  0.00     0.026 A 
ATOM     11  C   UNL A   1      33.619  19.623  24.900  1.00  0.00     0.033 A 
ATOM     12  C   UNL A   1      33.099  21.930  24.814  1.00  0.00     0.135 A 
ATOM     13  C   UNL A   1      32.751  19.404  23.823  1.00  0.00     0.042 A 
ATOM     14  C   UNL A   1      32.496  21.771  23.541  1.00  0.00     0.019 A 
ATOM     15  O   UNL A   1      32.744  23.027  25.628  1.00  0.00    -0.475 OA
ATOM     16  Cl  UNL A   1      32.420  17.793  23.317  1.00  0.00    -0.084 Cl
ATOM     17  C   UNL A   1      32.270  20.479  23.074  1.00  0.00     0.032 A 
ATOM     18  C   UNL A   1      32.103  23.018  22.790  1.00  0.00     0.025 C 
ATOM     19  C   UNL A   1      31.670  23.756  24.948  1.00  0.00     0.314 C 
BRANCH  10  20
ATOM     20  C   UNL A   1      35.427  21.201  25.266  1.00  0.00    -0.015 A 
ATOM     21  C   UNL A   1      39.739  21.442  25.703  1.00  0.00     0.044 C 
ATOM     22  C   UNL A   1      38.253  21.374  25.505  1.00  0.00    -0.051 A 
ATOM     23  C   UNL A   1      37.429  22.479  25.771  1.00  0.00     0.004 A 
ATOM     24  C   UNL A   1      37.665  20.196  25.053  1.00  0.00     0.004 A 
ATOM     25  C   UNL A   1      36.027  22.397  25.657  1.00  0.00     0.009 A 
ATOM     26  C   UNL A   1      36.280  20.120  24.928  1.00  0.00     0.009 A 
ENDBRANCH  10  20
BRANCH  19  27
ATOM     27  C   UNL A   1      30.801  24.840  25.613  1.00  0.00     0.429 C 
ATOM     28  F   UNL A   1      29.707  24.261  26.185  1.00  0.00    -0.167 F 
ATOM     29  F   UNL A   1      31.446  25.500  26.595  1.00  0.00    -0.167 F 
ATOM     30  F   UNL A   1      30.306  25.747  24.740  1.00  0.00    -0.167 F 
ENDBRANCH  19  27
ENDBRANCH   6   9
ENDBRANCH   4   5
ENDBRANCH   3   4
ENDBRANCH   2   3
ENDBRANCH   1   2
BRANCH   1  31
ATOM     31  C   UNL A   1      33.056  29.644  27.242  1.00  0.00     0.021 C 
BRANCH  31  32
ATOM     32  C   UNL A   1      34.570  29.607  27.072  1.00  0.00     0.116 C 
BRANCH  32  33
ATOM     33  N   UNL A   1      35.209  30.863  27.439  1.00  0.00    -0.352 N 
ATOM     34  C   UNL A   1      36.422  31.045  28.078  1.00  0.00     0.251 C 
ATOM     35  H   UNL A   1      34.717  31.683  27.203  1.00  0.00     0.163 HD
ATOM     36  O   UNL A   1      36.760  32.112  28.564  1.00  0.00    -0.269 OA
BRANCH  34  37
ATOM     37  C   UNL A   1      37.370  29.915  28.037  1.00  0.00     0.039 A 
ATOM     38  C   UNL A   1      37.475  29.129  29.191  1.00  0.00     0.014 A 
ATOM     39  C   UNL A   1      38.294  29.806  27.002  1.00  0.00     0.014 A 
ATOM     40  C   UNL A   1      38.609  28.345  29.379  1.00  0.00     0.010 A 
ATOM     41  C   UNL A   1      39.459  29.102  27.232  1.00  0.00     0.010 A 
ATOM     42  C   UNL A   1      39.635  28.406  28.436  1.00  0.00    -0.014 A 
BRANCH  42  43
ATOM     43  C   UNL A   1      40.961  27.842  28.662  1.00  0.00     0.031 A 
ATOM     44  C   UNL A   1      41.253  26.448  28.264  1.00  0.00     0.074 A 
ATOM     45  C   UNL A   1      41.944  28.604  29.192  1.00  0.00     0.049 A 
ATOM     46  N   UNL A   1      42.146  25.703  28.828  1.00  0.00    -0.248 NA
ATOM     47  C   UNL A   1      40.516  25.766  27.205  1.00  0.00     0.031 C 
ATOM     48  C   UNL A   1      43.368  28.280  29.243  1.00  0.00     0.029 A 
ATOM     49  N   UNL A   1      41.828  29.737  29.999  1.00  0.00    -0.354 N 
ATOM     50  C   UNL A   1      42.311  24.593  28.031  1.00  0.00     0.074 A 
ATOM     51  C   UNL A   1      41.219  24.636  27.085  1.00  0.00     0.031 C 
ATOM     52  C   UNL A   1      43.925  28.967  30.253  1.00  0.00     0.029 A 
ATOM     53  C   UNL A   1      42.849  29.646  30.956  1.00  0.00     0.049 A 
ATOM     54  H   UNL A   1      41.161  30.457  29.913  1.00  0.00     0.167 HD
ATOM     55  C   UNL A   1      43.435  23.830  28.139  1.00  0.00     0.031 A 
ATOM     56  C   UNL A   1      42.637  29.605  32.304  1.00  0.00     0.031 A 
ATOM     57  C   UNL A   1      44.324  24.309  29.192  1.00  0.00     0.049 A 
ATOM     58  C   UNL A   1      43.224  28.372  32.956  1.00  0.00     0.074 A 
ATOM     59  C   UNL A   1      45.476  25.080  29.172  1.00  0.00     0.029 A 
ATOM     60  N   UNL A   1      43.913  24.250  30.518  1.00  0.00    -0.354 N 
ATOM     61  N   UNL A   1      43.616  27.316  32.299  1.00  0.00    -0.248 NA
ATOM     62  C   UNL A   1      43.372  28.209  34.400  1.00  0.00     0.031 C 
ATOM     63  C   UNL A   1      45.719  25.541  30.490  1.00  0.00     0.029 A 
ATOM     64  C   UNL A   1      44.731  25.031  31.312  1.00  0.00     0.049 A 
ATOM     65  H   UNL A   1      43.147  23.726  30.846  1.00  0.00     0.167 HD
ATOM     66  C   UNL A   1      44.047  26.355  33.176  1.00  0.00     0.074 A 
ATOM     67  C   UNL A   1      43.887  26.968  34.482  1.00  0.00     0.031 C 
ATOM     68  C   UNL A   1      44.490  25.135  32.746  1.00  0.00     0.031 A 
BRANCH  55  69
ATOM     69  C   UNL A   1      43.852  22.854  27.064  1.00  0.00    -0.014 A 
ATOM     70  C   UNL A   1      42.997  21.789  26.715  1.00  0.00     0.010 A 
ATOM     71  C   UNL A   1      45.096  22.898  26.404  1.00  0.00     0.010 A 
ATOM     72  C   UNL A   1      43.402  20.761  25.852  1.00  0.00     0.020 A 
ATOM     73  C   UNL A   1      45.531  21.857  25.569  1.00  0.00     0.020 A 
ATOM     74  C   UNL A   1      44.683  20.784  25.309  1.00  0.00     0.054 A 
BRANCH  74  75
ATOM     75  S   UNL A   1      45.226  19.390  24.285  1.00  0.00     0.124 S 
ATOM     76  O   UNL A   1      46.677  19.563  24.258  1.00  0.00    -0.237 OA
ATOM     77  O   UNL A   1      44.743  18.239  25.043  1.00  0.00    -0.237 OA
ATOM     78  O   UNL A   1      44.557  19.620  23.006  1.00  0.00    -0.744 OA
ENDBRANCH  74  75
ENDBRANCH  55  69
BRANCH  56  79
ATOM     79  C   UNL A   1      41.403  30.306  32.755  1.00  0.00    -0.014 A 
ATOM     80  C   UNL A   1      40.274  29.511  33.050  1.00  0.00     0.010 A 
ATOM     81  C   UNL A   1      41.474  31.608  33.278  1.00  0.00     0.010 A 
ATOM     82  C   UNL A   1      39.323  29.943  33.977  1.00  0.00     0.020 A 
ATOM     83  C   UNL A   1      40.517  32.045  34.205  1.00  0.00     0.020 A 
ATOM     84  C   UNL A   1      39.485  31.184  34.594  1.00  0.00     0.054 A 
BRANCH  84  85
ATOM     85  S   UNL A   1      38.436  31.570  36.028  1.00  0.00     0.124 S 
ATOM     86  O   UNL A   1      37.263  32.173  35.402  1.00  0.00    -0.237 OA
ATOM     87  O   UNL A   1      38.224  30.248  36.618  1.00  0.00    -0.237 OA
ATOM     88  O   UNL A   1      39.266  32.475  36.816  1.00  0.00    -0.744 OA
ENDBRANCH  84  85
ENDBRANCH  56  79
BRANCH  68  89
ATOM     89  C   UNL A   1      44.824  23.940  33.609  1.00  0.00    -0.014 A 
ATOM     90  C   UNL A   1      43.953  22.871  33.865  1.00  0.00     0.010 A 
ATOM     91  C   UNL A   1      46.146  23.814  34.109  1.00  0.00     0.010 A 
ATOM     92  C   UNL A   1      44.358  21.763  34.628  1.00  0.00     0.020 A 
ATOM     93  C   UNL A   1      46.574  22.697  34.831  1.00  0.00     0.020 A 
ATOM     94  C   UNL A   1      45.665  21.684  35.108  1.00  0.00     0.054 A 
BRANCH  94  95
ATOM     95  S   UNL A   1      46.200  20.219  36.029  1.00  0.00     0.124 S 
ATOM     96  O   UNL A   1      45.812  20.565  37.394  1.00  0.00    -0.237 OA
ATOM     97  O   UNL A   1      45.426  19.144  35.413  1.00  0.00    -0.237 OA
ATOM     98  O   UNL A   1      47.637  20.164  35.779  1.00  0.00    -0.744 OA
ENDBRANCH  94  95
ENDBRANCH  68  89
ENDBRANCH  42  43
ENDBRANCH  34  37
ENDBRANCH  32  33
ENDBRANCH  31  32
ENDBRANCH   1  31
TORSDOF 18
ENDMDL
MODEL 2
REMARK VINA RESULT:     -13.9      4.891     11.353
REMARK SMILES Cc1ccc(-c2cc(Cl)cc3c2O[C@@H](C(F)(F)F)C(C(=O)NCCCCCCNC(=O)c2ccc(-c4c5nc(c(-c6ccc(S(=O)(=O)[O-])cc6)c6ccc([nH]6)c(-c6ccc(S(=O)(=O)[O-])cc6)c6nc(c(-c7ccc(S(=O)(=O)[O-])cc7)c7ccc4[nH]7)C=C6)C=C5)cc2)=C3)cc1
REMARK SMILES IDX 26 1 25 2 24 3 23 4 22 5 20 6 21 7 19 9 6 10 7 11 12 12 8 13
REMARK SMILES IDX 11 14 13 15 9 16 10 17 92 18 14 19 5 20 1 21 2 22 3 23 94 24
REMARK SMILES IDX 4 25 93 26 15 27 16 28 17 29 18 30 27 31 28 32 29 33 30 34
REMARK SMILES IDX 31 36 32 37 33 38 91 39 34 40 90 41 35 42 36 43 37 44 84 45
REMARK SMILES IDX 38 46 89 47 83 48 85 49 39 50 88 51 82 52 81 53 40 55 70 56
REMARK SMILES IDX 51 57 69 58 52 59 55 60 68 61 86 62 53 63 54 64 67 66 87 67
REMARK SMILES IDX 56 68 41 69 42 70 50 71 43 72 49 73 44 74 45 75 46 76 47 77
REMARK SMILES IDX 48 78 71 79 72 80 80 81 73 82 79 83 74 84 75 85 76 86 77 87
REMARK SMILES IDX 78 88 57 89 58 90 66 91 59 92 65 93 60 94 61 95 62 96 63 97
REMARK SMILES IDX 64 98
REMARK H PARENT 22 8 29 35 85 54 55 65
REMARK Flexibility Score: inf
ROOT
ATOM      1  C   UNL A   1      35.950  22.028  25.573  1.00  0.00     0.002 C 
ENDROOT
BRANCH   1   2
ATOM      2  C   UNL A   1      35.212  22.981  26.513  1.00  0.00     0.002 C 
BRANCH   2   3
ATOM      3  C   UNL A   1      33.949  22.494  27.215  1.00  0.00     0.021 C 
BRANCH   3   4
ATOM      4  C   UNL A   1      32.568  22.997  26.798  1.00  0.00     0.116 C 
BRANCH   4   5
ATOM      5  N   UNL A   1      32.280  24.415  26.824  1.00  0.00    -0.352 N 
ATOM      6  C   UNL A   1      31.363  25.168  26.134  1.00  0.00     0.251 C 
ATOM      7  O   UNL A   1      31.075  26.268  26.621  1.00  0.00    -0.270 OA
ATOM      8  H   UNL A   1      32.841  24.931  27.448  1.00  0.00     0.163 HD
BRANCH   6   9
ATOM      9  C   UNL A   1      30.727  24.771  24.786  1.00  0.00     0.067 C 
ATOM     10  C   UNL A   1      31.634  28.503  23.725  1.00  0.00     0.026 A 
ATOM     11  C   UNL A   1      30.722  29.312  23.017  1.00  0.00     0.033 A 
ATOM     12  C   UNL A   1      31.301  27.152  23.790  1.00  0.00     0.135 A 
ATOM     13  C   UNL A   1      29.420  28.858  22.772  1.00  0.00     0.042 A 
ATOM     14  C   UNL A   1      29.933  26.786  23.862  1.00  0.00     0.019 A 
ATOM     15  O   UNL A   1      32.291  26.152  23.679  1.00  0.00    -0.475 OA
ATOM     16  Cl  UNL A   1      28.296  29.896  21.984  1.00  0.00    -0.084 Cl
ATOM     17  C   UNL A   1      28.991  27.633  23.288  1.00  0.00     0.032 A 
ATOM     18  C   UNL A   1      29.592  25.476  24.528  1.00  0.00     0.025 C 
ATOM     19  C   UNL A   1      31.609  24.862  23.555  1.00  0.00     0.314 C 
BRANCH  10  20
ATOM     20  C   UNL A   1      32.186  29.160  24.947  1.00  0.00    -0.015 A 
ATOM     21  C   UNL A   1      33.769  31.672  28.113  1.00  0.00     0.044 C 
ATOM     22  C   UNL A   1      33.202  30.775  27.053  1.00  0.00    -0.051 A 
ATOM     23  C   UNL A   1      33.927  29.678  26.559  1.00  0.00     0.004 A 
ATOM     24  C   UNL A   1      31.934  31.024  26.537  1.00  0.00     0.004 A 
ATOM     25  C   UNL A   1      33.428  28.877  25.512  1.00  0.00     0.009 A 
ATOM     26  C   UNL A   1      31.437  30.223  25.511  1.00  0.00     0.009 A 
ENDBRANCH  10  20
BRANCH  19  27
ATOM     27  C   UNL A   1      32.299  23.553  23.127  1.00  0.00     0.429 C 
ATOM     28  F   UNL A   1      31.453  22.504  23.328  1.00  0.00    -0.167 F 
ATOM     29  F   UNL A   1      32.630  23.538  21.820  1.00  0.00    -0.167 F 
ATOM     30  F   UNL A   1      33.403  23.262  23.852  1.00  0.00    -0.167 F 
ENDBRANCH  19  27
ENDBRANCH   6   9
ENDBRANCH   4   5
ENDBRANCH   3   4
ENDBRANCH   2   3
ENDBRANCH   1   2
BRANCH   1  31
ATOM     31  C   UNL A   1      37.415  22.335  25.269  1.00  0.00     0.021 C 
BRANCH  31  32
ATOM     32  C   UNL A   1      38.025  23.478  26.072  1.00  0.00     0.116 C 
BRANCH  32  33
ATOM     33  N   UNL A   1      39.370  23.182  26.542  1.00  0.00    -0.352 N 
ATOM     34  C   UNL A   1      40.331  24.070  26.988  1.00  0.00     0.251 C 
ATOM     35  H   UNL A   1      39.628  22.231  26.542  1.00  0.00     0.163 HD
ATOM     36  O   UNL A   1      41.504  23.764  27.125  1.00  0.00    -0.269 OA
BRANCH  34  37
ATOM     37  C   UNL A   1      39.854  25.397  27.426  1.00  0.00     0.039 A 
ATOM     38  C   UNL A   1      40.271  26.504  26.677  1.00  0.00     0.014 A 
ATOM     39  C   UNL A   1      39.245  25.553  28.667  1.00  0.00     0.014 A 
ATOM     40  C   UNL A   1      40.225  27.770  27.250  1.00  0.00     0.010 A 
ATOM     41  C   UNL A   1      39.286  26.796  29.269  1.00  0.00     0.010 A 
ATOM     42  C   UNL A   1      39.814  27.895  28.578  1.00  0.00    -0.014 A 
BRANCH  42  43
ATOM     43  C   UNL A   1      39.979  29.119  29.352  1.00  0.00     0.031 A 
ATOM     44  C   UNL A   1      38.935  30.167  29.319  1.00  0.00     0.074 A 
ATOM     45  C   UNL A   1      41.063  29.285  30.143  1.00  0.00     0.049 A 
ATOM     46  N   UNL A   1      39.159  31.423  29.519  1.00  0.00    -0.248 NA
ATOM     47  C   UNL A   1      37.540  29.870  29.010  1.00  0.00     0.031 C 
ATOM     48  C   UNL A   1      41.252  30.315  31.162  1.00  0.00     0.029 A 
ATOM     49  N   UNL A   1      42.320  28.686  30.034  1.00  0.00    -0.354 N 
ATOM     50  C   UNL A   1      37.935  32.035  29.670  1.00  0.00     0.074 A 
ATOM     51  C   UNL A   1      36.961  31.048  29.261  1.00  0.00     0.031 C 
ATOM     52  C   UNL A   1      42.569  30.492  31.351  1.00  0.00     0.029 A 
ATOM     53  C   UNL A   1      43.258  29.675  30.365  1.00  0.00     0.049 A 
ATOM     54  H   UNL A   1      42.509  27.754  29.776  1.00  0.00     0.167 HD
ATOM     55  C   UNL A   1      37.846  33.254  30.273  1.00  0.00     0.031 A 
ATOM     56  C   UNL A   1      44.241  30.111  29.525  1.00  0.00     0.031 A 
ATOM     57  C   UNL A   1      39.155  33.782  30.640  1.00  0.00     0.049 A 
ATOM     58  C   UNL A   1      44.183  31.603  29.273  1.00  0.00     0.074 A 
ATOM     59  C   UNL A   1      39.853  33.819  31.837  1.00  0.00     0.029 A 
ATOM     60  N   UNL A   1      40.065  34.117  29.644  1.00  0.00    -0.354 N 
ATOM     61  N   UNL A   1      43.152  32.350  29.558  1.00  0.00    -0.248 NA
ATOM     62  C   UNL A   1      45.256  32.363  28.637  1.00  0.00     0.031 C 
ATOM     63  C   UNL A   1      41.208  34.115  31.547  1.00  0.00     0.029 A 
ATOM     64  C   UNL A   1      41.328  34.280  30.179  1.00  0.00     0.049 A 
ATOM     65  H   UNL A   1      39.841  34.222  28.691  1.00  0.00     0.167 HD
ATOM     66  C   UNL A   1      43.389  33.641  29.161  1.00  0.00     0.074 A 
ATOM     67  C   UNL A   1      44.728  33.600  28.601  1.00  0.00     0.031 C 
ATOM     68  C   UNL A   1      42.456  34.626  29.322  1.00  0.00     0.031 A 
BRANCH  55  69
ATOM     69  C   UNL A   1      36.540  33.794  30.808  1.00  0.00    -0.014 A 
ATOM     70  C   UNL A   1      35.481  34.070  29.920  1.00  0.00     0.010 A 
ATOM     71  C   UNL A   1      36.317  34.106  32.163  1.00  0.00     0.010 A 
ATOM     72  C   UNL A   1      34.314  34.728  30.335  1.00  0.00     0.020 A 
ATOM     73  C   UNL A   1      35.172  34.799  32.587  1.00  0.00     0.020 A 
ATOM     74  C   UNL A   1      34.181  35.120  31.664  1.00  0.00     0.054 A 
BRANCH  74  75
ATOM     75  S   UNL A   1      32.716  36.067  32.156  1.00  0.00     0.124 S 
ATOM     76  O   UNL A   1      32.413  36.832  30.949  1.00  0.00    -0.237 OA
ATOM     77  O   UNL A   1      31.762  35.015  32.492  1.00  0.00    -0.237 OA
ATOM     78  O   UNL A   1      33.186  36.867  33.286  1.00  0.00    -0.744 OA
ENDBRANCH  74  75
ENDBRANCH  55  69
BRANCH  56  79
ATOM     79  C   UNL A   1      44.707  29.096  28.541  1.00  0.00    -0.014 A 
ATOM     80  C   UNL A   1      44.079  29.078  27.277  1.00  0.00     0.010 A 
ATOM     81  C   UNL A   1      45.968  28.493  28.684  1.00  0.00     0.010 A 
ATOM     82  C   UNL A   1      44.765  28.619  26.149  1.00  0.00     0.020 A 
ATOM     83  C   UNL A   1      46.656  28.028  27.553  1.00  0.00     0.020 A 
ATOM     84  C   UNL A   1      46.072  28.153  26.287  1.00  0.00     0.054 A 
BRANCH  84  85
ATOM     85  S   UNL A   1      47.050  27.887  24.777  1.00  0.00     0.124 S 
ATOM     86  O   UNL A   1      46.622  28.995  23.929  1.00  0.00    -0.237 OA
ATOM     87  O   UNL A   1      48.421  27.974  25.281  1.00  0.00    -0.237 OA
ATOM     88  O   UNL A   1      46.633  26.560  24.338  1.00  0.00    -0.744 OA
ENDBRANCH  84  85
ENDBRANCH  56  79
BRANCH  68  89
ATOM     89  C   UNL A   1      42.525  36.034  28.777  1.00  0.00    -0.014 A 
ATOM     90  C   UNL A   1      43.198  37.098  29.395  1.00  0.00     0.010 A 
ATOM     91  C   UNL A   1      41.975  36.292  27.494  1.00  0.00     0.010 A 
ATOM     92  C   UNL A   1      43.270  38.366  28.795  1.00  0.00     0.020 A 
ATOM     93  C   UNL A   1      42.079  37.536  26.867  1.00  0.00     0.020 A 
ATOM     94  C   UNL A   1      42.707  38.578  27.536  1.00  0.00     0.054 A 
BRANCH  94  95
ATOM     95  S   UNL A   1      42.868  40.195  26.737  1.00  0.00     0.124 S 
ATOM     96  O   UNL A   1      41.578  40.328  26.066  1.00  0.00    -0.237 OA
ATOM     97  O   UNL A   1      43.082  41.099  27.866  1.00  0.00    -0.237 OA
ATOM     98  O   UNL A   1      44.021  40.029  25.857  1.00  0.00    -0.744 OA
ENDBRANCH  94  95
ENDBRANCH  68  89
ENDBRANCH  42  43
ENDBRANCH  34  37
ENDBRANCH  32  33
ENDBRANCH  31  32
ENDBRANCH   1  31
TORSDOF 18
ENDMDL
MODEL 3
REMARK VINA RESULT:     -13.6      4.898     11.417
REMARK SMILES Cc1ccc(-c2cc(Cl)cc3c2O[C@@H](C(F)(F)F)C(C(=O)NCCCCCCNC(=O)c2ccc(-c4c5nc(c(-c6ccc(S(=O)(=O)[O-])cc6)c6ccc([nH]6)c(-c6ccc(S(=O)(=O)[O-])cc6)c6nc(c(-c7ccc(S(=O)(=O)[O-])cc7)c7ccc4[nH]7)C=C6)C=C5)cc2)=C3)cc1
REMARK SMILES IDX 26 1 25 2 24 3 23 4 22 5 20 6 21 7 19 9 6 10 7 11 12 12 8 13
REMARK SMILES IDX 11 14 13 15 9 16 10 17 92 18 14 19 5 20 1 21 2 22 3 23 94 24
REMARK SMILES IDX 4 25 93 26 15 27 16 28 17 29 18 30 27 31 28 32 29 33 30 34
REMARK SMILES IDX 31 36 32 37 33 38 91 39 34 40 90 41 35 42 36 43 37 44 84 45
REMARK SMILES IDX 38 46 89 47 83 48 85 49 39 50 88 51 82 52 81 53 40 55 70 56
REMARK SMILES IDX 51 57 69 58 52 59 55 60 68 61 86 62 53 63 54 64 67 66 87 67
REMARK SMILES IDX 56 68 41 69 42 70 50 71 43 72 49 73 44 74 45 75 46 76 47 77
REMARK SMILES IDX 48 78 71 79 72 80 80 81 73 82 79 83 74 84 75 85 76 86 77 87
REMARK SMILES IDX 78 88 57 89 58 90 66 91 59 92 65 93 60 94 61 95 62 96 63 97
REMARK SMILES IDX 64 98
REMARK H PARENT 22 8 29 35 85 54 55 65
REMARK Flexibility Score: inf
ROOT
ATOM      1  C   UNL A   1      36.918  23.423  23.931  1.00  0.00     0.002 C 
ENDROOT
BRANCH   1   2
ATOM      2  C   UNL A   1      35.870  22.817  22.997  1.00  0.00     0.002 C 
BRANCH   2   3
ATOM      3  C   UNL A   1      34.557  22.314  23.587  1.00  0.00     0.021 C 
BRANCH   3   4
ATOM      4  C   UNL A   1      33.216  22.677  22.953  1.00  0.00     0.116 C 
BRANCH   4   5
ATOM      5  N   UNL A   1      32.756  24.049  22.977  1.00  0.00    -0.352 N 
ATOM      6  C   UNL A   1      33.150  25.125  23.732  1.00  0.00     0.251 C 
ATOM      7  O   UNL A   1      32.865  26.244  23.287  1.00  0.00    -0.270 OA
ATOM      8  H   UNL A   1      32.033  24.244  22.337  1.00  0.00     0.163 HD
BRANCH   6   9
ATOM      9  C   UNL A   1      33.854  25.036  25.101  1.00  0.00     0.067 C 
ATOM     10  C   UNL A   1      31.423  28.033  26.090  1.00  0.00     0.026 A 
ATOM     11  C   UNL A   1      31.885  29.153  26.811  1.00  0.00     0.033 A 
ATOM     12  C   UNL A   1      32.298  26.950  26.051  1.00  0.00     0.135 A 
ATOM     13  C   UNL A   1      33.249  29.292  27.096  1.00  0.00     0.042 A 
ATOM     14  C   UNL A   1      33.693  27.197  26.019  1.00  0.00     0.019 A 
ATOM     15  O   UNL A   1      31.821  25.625  26.149  1.00  0.00    -0.475 OA
ATOM     16  Cl  UNL A   1      33.804  30.709  27.900  1.00  0.00    -0.084 Cl
ATOM     17  C   UNL A   1      34.171  28.365  26.608  1.00  0.00     0.032 A 
ATOM     18  C   UNL A   1      34.576  26.155  25.380  1.00  0.00     0.025 C 
ATOM     19  C   UNL A   1      32.981  24.745  26.307  1.00  0.00     0.314 C 
BRANCH  10  20
ATOM     20  C   UNL A   1      30.680  28.394  24.845  1.00  0.00    -0.015 A 
ATOM     21  C   UNL A   1      28.151  29.886  21.649  1.00  0.00     0.044 C 
ATOM     22  C   UNL A   1      29.061  29.363  22.721  1.00  0.00    -0.051 A 
ATOM     23  C   UNL A   1      29.101  27.997  23.044  1.00  0.00     0.004 A 
ATOM     24  C   UNL A   1      29.886  30.239  23.421  1.00  0.00     0.004 A 
ATOM     25  C   UNL A   1      29.899  27.513  24.099  1.00  0.00     0.009 A 
ATOM     26  C   UNL A   1      30.685  29.757  24.455  1.00  0.00     0.009 A 
ENDBRANCH  10  20
BRANCH  19  27
ATOM     27  C   UNL A   1      32.898  23.268  26.733  1.00  0.00     0.429 C 
ATOM     28  F   UNL A   1      34.147  22.722  26.738  1.00  0.00    -0.167 F 
ATOM     29  F   UNL A   1      32.402  23.107  27.977  1.00  0.00    -0.167 F 
ATOM     30  F   UNL A   1      32.179  22.499  25.883  1.00  0.00    -0.167 F 
ENDBRANCH  19  27
ENDBRANCH   6   9
ENDBRANCH   4   5
ENDBRANCH   3   4
ENDBRANCH   2   3
ENDBRANCH   1   2
BRANCH   1  31
ATOM     31  C   UNL A   1      37.289  22.629  25.181  1.00  0.00     0.021 C 
BRANCH  31  32
ATOM     32  C   UNL A   1      37.744  23.461  26.374  1.00  0.00     0.116 C 
BRANCH  32  33
ATOM     33  N   UNL A   1      39.108  23.161  26.784  1.00  0.00    -0.352 N 
ATOM     34  C   UNL A   1      40.101  24.049  27.153  1.00  0.00     0.251 C 
ATOM     35  H   UNL A   1      39.354  22.207  26.802  1.00  0.00     0.163 HD
ATOM     36  O   UNL A   1      41.276  23.730  27.240  1.00  0.00    -0.269 OA
BRANCH  34  37
ATOM     37  C   UNL A   1      39.664  25.396  27.572  1.00  0.00     0.039 A 
ATOM     38  C   UNL A   1      40.134  26.480  26.823  1.00  0.00     0.014 A 
ATOM     39  C   UNL A   1      39.039  25.583  28.802  1.00  0.00     0.014 A 
ATOM     40  C   UNL A   1      40.122  27.752  27.386  1.00  0.00     0.010 A 
ATOM     41  C   UNL A   1      39.114  26.828  29.395  1.00  0.00     0.010 A 
ATOM     42  C   UNL A   1      39.693  27.902  28.705  1.00  0.00    -0.014 A 
BRANCH  42  43
ATOM     43  C   UNL A   1      39.887  29.126  29.473  1.00  0.00     0.031 A 
ATOM     44  C   UNL A   1      38.860  30.190  29.449  1.00  0.00     0.074 A 
ATOM     45  C   UNL A   1      40.983  29.276  30.251  1.00  0.00     0.049 A 
ATOM     46  N   UNL A   1      39.107  31.444  29.643  1.00  0.00    -0.248 NA
ATOM     47  C   UNL A   1      37.456  29.916  29.158  1.00  0.00     0.031 C 
ATOM     48  C   UNL A   1      41.201  30.306  31.264  1.00  0.00     0.029 A 
ATOM     49  N   UNL A   1      42.228  28.656  30.129  1.00  0.00    -0.354 N 
ATOM     50  C   UNL A   1      37.895  32.076  29.806  1.00  0.00     0.074 A 
ATOM     51  C   UNL A   1      36.900  31.104  29.413  1.00  0.00     0.031 C 
ATOM     52  C   UNL A   1      42.523  30.462  31.436  1.00  0.00     0.029 A 
ATOM     53  C   UNL A   1      43.187  29.630  30.444  1.00  0.00     0.049 A 
ATOM     54  H   UNL A   1      42.399  27.721  29.871  1.00  0.00     0.167 HD
ATOM     55  C   UNL A   1      37.834  33.299  30.406  1.00  0.00     0.031 A 
ATOM     56  C   UNL A   1      44.166  30.048  29.591  1.00  0.00     0.031 A 
ATOM     57  C   UNL A   1      39.156  33.806  30.755  1.00  0.00     0.049 A 
ATOM     58  C   UNL A   1      44.130  31.539  29.335  1.00  0.00     0.074 A 
ATOM     59  C   UNL A   1      39.869  33.835  31.944  1.00  0.00     0.029 A 
ATOM     60  N   UNL A   1      40.059  34.122  29.747  1.00  0.00    -0.354 N 
ATOM     61  N   UNL A   1      43.115  32.305  29.630  1.00  0.00    -0.248 NA
ATOM     62  C   UNL A   1      45.207  32.280  28.683  1.00  0.00     0.031 C 
ATOM     63  C   UNL A   1      41.225  34.107  31.637  1.00  0.00     0.029 A 
ATOM     64  C   UNL A   1      41.331  34.267  30.267  1.00  0.00     0.049 A 
ATOM     65  H   UNL A   1      39.825  34.228  28.797  1.00  0.00     0.167 HD
ATOM     66  C   UNL A   1      43.369  33.590  29.226  1.00  0.00     0.074 A 
ATOM     67  C   UNL A   1      44.700  33.525  28.650  1.00  0.00     0.031 C 
ATOM     68  C   UNL A   1      42.454  34.591  29.395  1.00  0.00     0.031 A 
BRANCH  55  69
ATOM     69  C   UNL A   1      36.543  33.862  30.955  1.00  0.00    -0.014 A 
ATOM     70  C   UNL A   1      35.390  33.884  30.146  1.00  0.00     0.010 A 
ATOM     71  C   UNL A   1      36.420  34.435  32.236  1.00  0.00     0.010 A 
ATOM     72  C   UNL A   1      34.217  34.546  30.539  1.00  0.00     0.020 A 
ATOM     73  C   UNL A   1      35.268  35.135  32.628  1.00  0.00     0.020 A 
ATOM     74  C   UNL A   1      34.175  35.198  31.768  1.00  0.00     0.054 A 
BRANCH  74  75
ATOM     75  S   UNL A   1      32.692  36.140  32.210  1.00  0.00     0.124 S 
ATOM     76  O   UNL A   1      31.727  35.088  32.517  1.00  0.00    -0.237 OA
ATOM     77  O   UNL A   1      33.149  36.928  33.351  1.00  0.00    -0.237 OA
ATOM     78  O   UNL A   1      32.397  36.908  31.001  1.00  0.00    -0.744 OA
ENDBRANCH  74  75
ENDBRANCH  55  69
BRANCH  56  79
ATOM     79  C   UNL A   1      44.604  29.022  28.605  1.00  0.00    -0.014 A 
ATOM     80  C   UNL A   1      44.027  29.069  27.317  1.00  0.00     0.010 A 
ATOM     81  C   UNL A   1      45.816  28.334  28.784  1.00  0.00     0.010 A 
ATOM     82  C   UNL A   1      44.725  28.586  26.207  1.00  0.00     0.020 A 
ATOM     83  C   UNL A   1      46.516  27.845  27.671  1.00  0.00     0.020 A 
ATOM     84  C   UNL A   1      45.992  28.032  26.387  1.00  0.00     0.054 A 
BRANCH  84  85
ATOM     85  S   UNL A   1      47.010  27.728  24.910  1.00  0.00     0.124 S 
ATOM     86  O   UNL A   1      46.657  28.855  24.052  1.00  0.00    -0.237 OA
ATOM     87  O   UNL A   1      48.365  27.760  25.461  1.00  0.00    -0.237 OA
ATOM     88  O   UNL A   1      46.555  26.421  24.453  1.00  0.00    -0.744 OA
ENDBRANCH  84  85
ENDBRANCH  56  79
BRANCH  68  89
ATOM     89  C   UNL A   1      42.539  35.996  28.844  1.00  0.00    -0.014 A 
ATOM     90  C   UNL A   1      43.223  37.055  29.459  1.00  0.00     0.010 A 
ATOM     91  C   UNL A   1      41.994  36.255  27.559  1.00  0.00     0.010 A 
ATOM     92  C   UNL A   1      43.310  38.319  28.854  1.00  0.00     0.020 A 
ATOM     93  C   UNL A   1      42.113  37.495  26.928  1.00  0.00     0.020 A 
ATOM     94  C   UNL A   1      42.752  38.532  27.593  1.00  0.00     0.054 A 
BRANCH  94  95
ATOM     95  S   UNL A   1      42.932  40.145  26.788  1.00  0.00     0.124 S 
ATOM     96  O   UNL A   1      41.613  40.330  26.189  1.00  0.00    -0.237 OA
ATOM     97  O   UNL A   1      43.242  41.036  27.904  1.00  0.00    -0.237 OA
ATOM     98  O   UNL A   1      44.027  39.937  25.846  1.00  0.00    -0.744 OA
ENDBRANCH  94  95
ENDBRANCH  68  89
ENDBRANCH  42  43
ENDBRANCH  34  37
ENDBRANCH  32  33
ENDBRANCH  31  32
ENDBRANCH   1  31
TORSDOF 18
ENDMDL
