MODEL 1
REMARK VINA RESULT:     -10.9      0.000      0.000
REMARK SMILES COc1ccc([C@@](C)(NC(=O)c2csc(C)n2)C(=O)NCCCCCCNC(=O)c2ccc(-c3c4nc(c(-c5ccc(S(=O)(=O)[O-])cc5)c5ccc([nH]5)c(-c5ccc(S(=O)(=O)[O-])cc5)c5nc(c(-c6ccc(S(=O)(=O)[O-])cc6)c6ccc3[nH]6)C=C5)C=C4)cc2)cc1
REMARK SMILES IDX 24 1 23 2 22 3 21 4 20 5 18 6 19 7 7 9 8 10 6 11 3 12 4 13
REMARK SMILES IDX 91 14 5 15 90 16 2 17 1 18 9 19 10 20 11 22 12 23 13 24
REMARK SMILES IDX 17 25 14 26 15 27 16 28 25 29 26 30 27 31 28 32 29 34 30 35
REMARK SMILES IDX 31 36 89 37 32 38 88 39 33 40 34 41 35 42 82 43 36 44 87 45
REMARK SMILES IDX 81 46 83 47 37 48 86 49 80 50 79 51 38 53 68 54 49 55 67 56
REMARK SMILES IDX 50 57 53 58 66 59 84 60 51 61 52 62 65 64 85 65 54 66 39 67
REMARK SMILES IDX 40 68 48 69 41 70 47 71 42 72 43 73 44 74 45 75 46 76 69 77
REMARK SMILES IDX 70 78 78 79 71 80 77 81 72 82 73 83 74 84 75 85 76 86 55 87
REMARK SMILES IDX 56 88 64 89 57 90 63 91 58 92 59 93 60 94 61 95 62 96
REMARK H PARENT 20 8 9 21 27 33 83 52 53 63
REMARK Flexibility Score: inf
ROOT
ATOM      1  C   UNL A   1      31.624  28.620  25.540  1.00  0.00     0.002 C 
ENDROOT
BRANCH   1   2
ATOM      2  C   UNL A   1      31.329  27.909  24.224  1.00  0.00     0.002 C 
BRANCH   2   3
ATOM      3  C   UNL A   1      29.998  27.163  24.157  1.00  0.00     0.021 C 
BRANCH   3   4
ATOM      4  C   UNL A   1      30.080  25.642  24.030  1.00  0.00     0.116 C 
BRANCH   4   5
ATOM      5  N   UNL A   1      29.883  24.890  25.263  1.00  0.00    -0.354 N 
ATOM      6  C   UNL A   1      30.725  24.047  25.967  1.00  0.00     0.250 C 
ATOM      7  O   UNL A   1      30.386  23.780  27.127  1.00  0.00    -0.272 OA
ATOM      8  H   UNL A   1      28.993  25.002  25.668  1.00  0.00     0.163 HD
BRANCH   6   9
ATOM      9  C   UNL A   1      32.126  23.671  25.382  1.00  0.00     0.142 C 
ATOM     10  C   UNL A   1      33.064  24.136  26.553  1.00  0.00     0.051 C 
BRANCH   9  11
ATOM     11  C   UNL A   1      32.467  22.177  25.134  1.00  0.00    -0.013 A 
ATOM     12  C   UNL A   1      33.054  19.465  24.515  1.00  0.00     0.118 A 
ATOM     13  C   UNL A   1      32.379  20.256  23.599  1.00  0.00     0.047 A 
ATOM     14  C   UNL A   1      33.407  20.005  25.753  1.00  0.00     0.047 A 
ATOM     15  C   UNL A   1      32.062  21.575  23.917  1.00  0.00     0.010 A 
ATOM     16  C   UNL A   1      33.111  21.350  26.062  1.00  0.00     0.010 A 
BRANCH  12  17
ATOM     17  O   UNL A   1      33.374  18.216  24.065  1.00  0.00    -0.497 OA
ATOM     18  C   UNL A   1      32.999  17.147  24.921  1.00  0.00     0.278 C 
ENDBRANCH  12  17
ENDBRANCH   9  11
BRANCH   9  19
ATOM     19  N   UNL A   1      32.467  24.388  24.135  1.00  0.00    -0.333 N 
ATOM     20  C   UNL A   1      33.685  24.867  23.688  1.00  0.00     0.271 C 
ATOM     21  H   UNL A   1      31.709  24.551  23.529  1.00  0.00     0.165 HD
ATOM     22  O   UNL A   1      33.641  25.855  22.949  1.00  0.00    -0.267 OA
BRANCH  20  23
ATOM     23  C   UNL A   1      34.967  24.180  23.942  1.00  0.00     0.139 A 
ATOM     24  C   UNL A   1      35.358  23.050  23.236  1.00  0.00     0.101 A 
ATOM     25  N   UNL A   1      35.831  24.481  24.984  1.00  0.00    -0.236 NA
ATOM     26  S   UNL A   1      36.743  22.326  23.945  1.00  0.00    -0.127 S 
ATOM     27  C   UNL A   1      36.731  23.537  25.156  1.00  0.00     0.090 A 
ATOM     28  C   UNL A   1      37.620  23.435  26.350  1.00  0.00     0.079 C 
ENDBRANCH  20  23
ENDBRANCH   9  19
ENDBRANCH   6   9
ENDBRANCH   4   5
ENDBRANCH   3   4
ENDBRANCH   2   3
ENDBRANCH   1   2
BRANCH   1  29
ATOM     29  C   UNL A   1      32.299  27.753  26.599  1.00  0.00     0.021 C 
BRANCH  29  30
ATOM     30  C   UNL A   1      33.581  28.340  27.171  1.00  0.00     0.116 C 
BRANCH  30  31
ATOM     31  N   UNL A   1      33.461  29.763  27.447  1.00  0.00    -0.352 N 
ATOM     32  C   UNL A   1      34.381  30.595  28.037  1.00  0.00     0.251 C 
ATOM     33  H   UNL A   1      32.613  30.183  27.176  1.00  0.00     0.163 HD
ATOM     34  O   UNL A   1      34.067  31.732  28.376  1.00  0.00    -0.269 OA
BRANCH  32  35
ATOM     35  C   UNL A   1      35.748  30.089  28.277  1.00  0.00     0.039 A 
ATOM     36  C   UNL A   1      36.692  30.158  27.252  1.00  0.00     0.014 A 
ATOM     37  C   UNL A   1      36.099  29.587  29.534  1.00  0.00     0.014 A 
ATOM     38  C   UNL A   1      38.008  29.767  27.505  1.00  0.00     0.010 A 
ATOM     39  C   UNL A   1      37.428  29.279  29.806  1.00  0.00     0.010 A 
ATOM     40  C   UNL A   1      38.394  29.352  28.790  1.00  0.00    -0.014 A 
BRANCH  40  41
ATOM     41  C   UNL A   1      39.794  28.957  29.088  1.00  0.00     0.031 A 
ATOM     42  C   UNL A   1      40.728  29.950  29.731  1.00  0.00     0.074 A 
ATOM     43  C   UNL A   1      40.240  27.735  28.735  1.00  0.00     0.049 A 
ATOM     44  N   UNL A   1      41.996  29.819  30.021  1.00  0.00    -0.248 NA
ATOM     45  C   UNL A   1      40.171  31.273  30.065  1.00  0.00     0.031 C 
ATOM     46  C   UNL A   1      39.445  26.698  28.073  1.00  0.00     0.029 A 
ATOM     47  N   UNL A   1      41.476  27.156  28.881  1.00  0.00    -0.354 N 
ATOM     48  C   UNL A   1      42.392  31.043  30.549  1.00  0.00     0.074 A 
ATOM     49  C   UNL A   1      41.245  31.921  30.492  1.00  0.00     0.031 C 
ATOM     50  C   UNL A   1      40.202  25.603  27.900  1.00  0.00     0.029 A 
ATOM     51  C   UNL A   1      41.548  25.870  28.398  1.00  0.00     0.049 A 
ATOM     52  H   UNL A   1      42.241  27.619  29.295  1.00  0.00     0.167 HD
ATOM     53  C   UNL A   1      43.595  31.398  31.057  1.00  0.00     0.031 A 
ATOM     54  C   UNL A   1      42.582  25.006  28.356  1.00  0.00     0.031 A 
ATOM     55  C   UNL A   1      44.725  30.513  31.136  1.00  0.00     0.049 A 
ATOM     56  C   UNL A   1      43.911  25.431  28.923  1.00  0.00     0.074 A 
ATOM     57  C   UNL A   1      45.969  30.757  31.694  1.00  0.00     0.029 A 
ATOM     58  N   UNL A   1      44.752  29.216  30.648  1.00  0.00    -0.354 N 
ATOM     59  N   UNL A   1      44.243  26.570  29.485  1.00  0.00    -0.248 NA
ATOM     60  C   UNL A   1      45.003  24.448  28.864  1.00  0.00     0.031 C 
ATOM     61  C   UNL A   1      46.766  29.628  31.490  1.00  0.00     0.029 A 
ATOM     62  C   UNL A   1      45.998  28.656  30.869  1.00  0.00     0.049 A 
ATOM     63  H   UNL A   1      43.997  28.761  30.210  1.00  0.00     0.167 HD
ATOM     64  C   UNL A   1      45.569  26.422  29.882  1.00  0.00     0.074 A 
ATOM     65  C   UNL A   1      45.972  25.083  29.507  1.00  0.00     0.031 C 
ATOM     66  C   UNL A   1      46.378  27.315  30.504  1.00  0.00     0.031 A 
BRANCH  53  67
ATOM     67  C   UNL A   1      43.759  32.806  31.566  1.00  0.00    -0.014 A 
ATOM     68  C   UNL A   1      44.236  33.833  30.732  1.00  0.00     0.010 A 
ATOM     69  C   UNL A   1      43.365  33.120  32.880  1.00  0.00     0.010 A 
ATOM     70  C   UNL A   1      44.341  35.142  31.209  1.00  0.00     0.020 A 
ATOM     71  C   UNL A   1      43.439  34.434  33.351  1.00  0.00     0.020 A 
ATOM     72  C   UNL A   1      43.937  35.435  32.515  1.00  0.00     0.054 A 
BRANCH  72  73
ATOM     73  S   UNL A   1      44.032  37.154  33.087  1.00  0.00     0.124 S 
ATOM     74  O   UNL A   1      45.353  37.191  33.710  1.00  0.00    -0.237 OA
ATOM     75  O   UNL A   1      43.901  37.911  31.845  1.00  0.00    -0.237 OA
ATOM     76  O   UNL A   1      42.906  37.275  34.010  1.00  0.00    -0.744 OA
ENDBRANCH  72  73
ENDBRANCH  53  67
BRANCH  54  77
ATOM     77  C   UNL A   1      42.409  23.648  27.767  1.00  0.00    -0.014 A 
ATOM     78  C   UNL A   1      41.950  22.579  28.557  1.00  0.00     0.010 A 
ATOM     79  C   UNL A   1      42.729  23.410  26.418  1.00  0.00     0.010 A 
ATOM     80  C   UNL A   1      41.854  21.290  28.022  1.00  0.00     0.020 A 
ATOM     81  C   UNL A   1      42.602  22.130  25.869  1.00  0.00     0.020 A 
ATOM     82  C   UNL A   1      42.184  21.074  26.681  1.00  0.00     0.054 A 
BRANCH  82  83
ATOM     83  S   UNL A   1      42.040  19.397  26.003  1.00  0.00     0.124 S 
ATOM     84  O   UNL A   1      42.560  18.583  27.096  1.00  0.00    -0.237 OA
ATOM     85  O   UNL A   1      40.604  19.281  25.753  1.00  0.00    -0.237 OA
ATOM     86  O   UNL A   1      42.873  19.442  24.804  1.00  0.00    -0.744 OA
ENDBRANCH  82  83
ENDBRANCH  54  77
BRANCH  66  87
ATOM     87  C   UNL A   1      47.764  26.858  30.877  1.00  0.00    -0.014 A 
ATOM     88  C   UNL A   1      48.847  26.995  29.992  1.00  0.00     0.010 A 
ATOM     89  C   UNL A   1      47.991  26.333  32.163  1.00  0.00     0.010 A 
ATOM     90  C   UNL A   1      50.127  26.582  30.375  1.00  0.00     0.020 A 
ATOM     91  C   UNL A   1      49.274  25.951  32.561  1.00  0.00     0.020 A 
ATOM     92  C   UNL A   1      50.331  26.063  31.657  1.00  0.00     0.054 A 
BRANCH  92  93
ATOM     93  S   UNL A   1      52.008  25.575  32.144  1.00  0.00     0.124 S 
ATOM     94  O   UNL A   1      51.865  24.131  32.320  1.00  0.00    -0.237 OA
ATOM     95  O   UNL A   1      52.810  25.991  30.996  1.00  0.00    -0.237 OA
ATOM     96  O   UNL A   1      52.248  26.331  33.370  1.00  0.00    -0.744 OA
ENDBRANCH  92  93
ENDBRANCH  66  87
ENDBRANCH  40  41
ENDBRANCH  32  35
ENDBRANCH  30  31
ENDBRANCH  29  30
ENDBRANCH   1  29
TORSDOF 20
ENDMDL
MODEL 2
REMARK VINA RESULT:     -10.5      2.846      3.522
REMARK SMILES COc1ccc([C@@](C)(NC(=O)c2csc(C)n2)C(=O)NCCCCCCNC(=O)c2ccc(-c3c4nc(c(-c5ccc(S(=O)(=O)[O-])cc5)c5ccc([nH]5)c(-c5ccc(S(=O)(=O)[O-])cc5)c5nc(c(-c6ccc(S(=O)(=O)[O-])cc6)c6ccc3[nH]6)C=C5)C=C4)cc2)cc1
REMARK SMILES IDX 24 1 23 2 22 3 21 4 20 5 18 6 19 7 7 9 8 10 6 11 3 12 4 13
REMARK SMILES IDX 91 14 5 15 90 16 2 17 1 18 9 19 10 20 11 22 12 23 13 24
REMARK SMILES IDX 17 25 14 26 15 27 16 28 25 29 26 30 27 31 28 32 29 34 30 35
REMARK SMILES IDX 31 36 89 37 32 38 88 39 33 40 34 41 35 42 82 43 36 44 87 45
REMARK SMILES IDX 81 46 83 47 37 48 86 49 80 50 79 51 38 53 68 54 49 55 67 56
REMARK SMILES IDX 50 57 53 58 66 59 84 60 51 61 52 62 65 64 85 65 54 66 39 67
REMARK SMILES IDX 40 68 48 69 41 70 47 71 42 72 43 73 44 74 45 75 46 76 69 77
REMARK SMILES IDX 70 78 78 79 71 80 77 81 72 82 73 83 74 84 75 85 76 86 55 87
REMARK SMILES IDX 56 88 64 89 57 90 63 91 58 92 59 93 60 94 61 95 62 96
REMARK H PARENT 20 8 9 21 27 33 83 52 53 63
REMARK Flexibility Score: inf
ROOT
ATOM      1  C   UNL A   1      33.796  28.546  27.112  1.00  0.00     0.002 C 
ENDROOT
BRANCH   1   2
ATOM      2  C   UNL A   1      32.463  28.409  26.384  1.00  0.00     0.002 C 
BRANCH   2   3
ATOM      3  C   UNL A   1      31.492  27.383  26.964  1.00  0.00     0.021 C 
BRANCH   3   4
ATOM      4  C   UNL A   1      30.782  26.479  25.958  1.00  0.00     0.116 C 
BRANCH   4   5
ATOM      5  N   UNL A   1      30.268  25.221  26.486  1.00  0.00    -0.354 N 
ATOM      6  C   UNL A   1      30.805  23.946  26.502  1.00  0.00     0.250 C 
ATOM      7  O   UNL A   1      30.271  23.137  27.271  1.00  0.00    -0.272 OA
ATOM      8  H   UNL A   1      29.381  25.291  26.907  1.00  0.00     0.163 HD
BRANCH   6   9
ATOM      9  C   UNL A   1      32.150  23.652  25.759  1.00  0.00     0.142 C 
ATOM     10  C   UNL A   1      33.187  24.016  26.882  1.00  0.00     0.051 C 
BRANCH   9  11
ATOM     11  C   UNL A   1      32.479  22.196  25.335  1.00  0.00    -0.013 A 
ATOM     12  C   UNL A   1      33.034  19.570  24.398  1.00  0.00     0.118 A 
ATOM     13  C   UNL A   1      32.310  20.449  23.610  1.00  0.00     0.047 A 
ATOM     14  C   UNL A   1      33.453  19.977  25.666  1.00  0.00     0.047 A 
ATOM     15  C   UNL A   1      32.009  21.725  24.084  1.00  0.00     0.010 A 
ATOM     16  C   UNL A   1      33.173  21.279  26.133  1.00  0.00     0.010 A 
BRANCH  12  17
ATOM     17  O   UNL A   1      33.331  18.378  23.800  1.00  0.00    -0.497 OA
ATOM     18  C   UNL A   1      33.661  17.319  24.687  1.00  0.00     0.278 C 
ENDBRANCH  12  17
ENDBRANCH   9  11
BRANCH   9  19
ATOM     19  N   UNL A   1      32.371  24.494  24.564  1.00  0.00    -0.333 N 
ATOM     20  C   UNL A   1      33.541  25.024  24.052  1.00  0.00     0.271 C 
ATOM     21  H   UNL A   1      31.558  24.712  24.053  1.00  0.00     0.165 HD
ATOM     22  O   UNL A   1      33.428  26.081  23.424  1.00  0.00    -0.267 OA
BRANCH  20  23
ATOM     23  C   UNL A   1      34.840  24.323  24.110  1.00  0.00     0.139 A 
ATOM     24  C   UNL A   1      35.150  23.262  23.270  1.00  0.00     0.101 A 
ATOM     25  N   UNL A   1      35.808  24.535  25.079  1.00  0.00    -0.236 NA
ATOM     26  S   UNL A   1      36.598  22.486  23.764  1.00  0.00    -0.127 S 
ATOM     27  C   UNL A   1      36.717  23.585  25.073  1.00  0.00     0.090 A 
ATOM     28  C   UNL A   1      37.724  23.381  26.154  1.00  0.00     0.079 C 
ENDBRANCH  20  23
ENDBRANCH   9  19
ENDBRANCH   6   9
ENDBRANCH   4   5
ENDBRANCH   3   4
ENDBRANCH   2   3
ENDBRANCH   1   2
BRANCH   1  29
ATOM     29  C   UNL A   1      34.332  29.972  27.204  1.00  0.00     0.021 C 
BRANCH  29  30
ATOM     30  C   UNL A   1      35.675  30.098  27.908  1.00  0.00     0.116 C 
BRANCH  30  31
ATOM     31  N   UNL A   1      35.533  30.213  29.351  1.00  0.00    -0.352 N 
ATOM     32  C   UNL A   1      36.466  29.941  30.321  1.00  0.00     0.251 C 
ATOM     33  H   UNL A   1      34.656  30.524  29.673  1.00  0.00     0.163 HD
ATOM     34  O   UNL A   1      36.143  29.902  31.505  1.00  0.00    -0.269 OA
BRANCH  32  35
ATOM     35  C   UNL A   1      37.860  29.673  29.913  1.00  0.00     0.039 A 
ATOM     36  C   UNL A   1      38.796  29.300  30.880  1.00  0.00     0.014 A 
ATOM     37  C   UNL A   1      38.225  29.752  28.565  1.00  0.00     0.014 A 
ATOM     38  C   UNL A   1      40.090  28.956  30.484  1.00  0.00     0.010 A 
ATOM     39  C   UNL A   1      39.488  29.328  28.167  1.00  0.00     0.010 A 
ATOM     40  C   UNL A   1      40.439  28.940  29.124  1.00  0.00    -0.014 A 
BRANCH  40  41
ATOM     41  C   UNL A   1      41.801  28.552  28.680  1.00  0.00     0.031 A 
ATOM     42  C   UNL A   1      42.890  29.593  28.615  1.00  0.00     0.074 A 
ATOM     43  C   UNL A   1      42.048  27.286  28.286  1.00  0.00     0.049 A 
ATOM     44  N   UNL A   1      44.125  29.469  28.205  1.00  0.00    -0.248 NA
ATOM     45  C   UNL A   1      42.535  30.958  29.040  1.00  0.00     0.031 C 
ATOM     46  C   UNL A   1      41.069  26.196  28.266  1.00  0.00     0.029 A 
ATOM     47  N   UNL A   1      43.199  26.701  27.822  1.00  0.00    -0.354 N 
ATOM     48  C   UNL A   1      44.686  30.737  28.302  1.00  0.00     0.074 A 
ATOM     49  C   UNL A   1      43.643  31.628  28.759  1.00  0.00     0.031 C 
ATOM     50  C   UNL A   1      41.669  25.071  27.845  1.00  0.00     0.029 A 
ATOM     51  C   UNL A   1      43.062  25.365  27.523  1.00  0.00     0.049 A 
ATOM     52  H   UNL A   1      44.046  27.192  27.713  1.00  0.00     0.167 HD
ATOM     53  C   UNL A   1      45.959  31.123  28.053  1.00  0.00     0.031 A 
ATOM     54  C   UNL A   1      43.956  24.479  27.039  1.00  0.00     0.031 A 
ATOM     55  C   UNL A   1      46.999  30.228  27.624  1.00  0.00     0.049 A 
ATOM     56  C   UNL A   1      45.364  24.938  26.767  1.00  0.00     0.074 A 
ATOM     57  C   UNL A   1      48.337  30.508  27.409  1.00  0.00     0.029 A 
ATOM     58  N   UNL A   1      46.821  28.881  27.346  1.00  0.00    -0.354 N 
ATOM     59  N   UNL A   1      45.892  26.128  26.935  1.00  0.00    -0.248 NA
ATOM     60  C   UNL A   1      46.303  23.930  26.252  1.00  0.00     0.031 C 
ATOM     61  C   UNL A   1      48.956  29.345  26.945  1.00  0.00     0.029 A 
ATOM     62  C   UNL A   1      48.019  28.323  26.938  1.00  0.00     0.049 A 
ATOM     63  H   UNL A   1      45.969  28.395  27.428  1.00  0.00     0.167 HD
ATOM     64  C   UNL A   1      47.233  25.999  26.586  1.00  0.00     0.074 A 
ATOM     65  C   UNL A   1      47.437  24.615  26.210  1.00  0.00     0.031 C 
ATOM     66  C   UNL A   1      48.209  26.940  26.581  1.00  0.00     0.031 A 
BRANCH  53  67
ATOM     67  C   UNL A   1      46.304  32.577  28.236  1.00  0.00    -0.014 A 
ATOM     68  C   UNL A   1      46.805  33.060  29.460  1.00  0.00     0.010 A 
ATOM     69  C   UNL A   1      46.190  33.462  27.148  1.00  0.00     0.010 A 
ATOM     70  C   UNL A   1      47.161  34.404  29.598  1.00  0.00     0.020 A 
ATOM     71  C   UNL A   1      46.574  34.800  27.274  1.00  0.00     0.020 A 
ATOM     72  C   UNL A   1      47.047  35.265  28.503  1.00  0.00     0.054 A 
BRANCH  72  73
ATOM     73  S   UNL A   1      47.570  36.991  28.697  1.00  0.00     0.124 S 
ATOM     74  O   UNL A   1      47.903  37.045  30.118  1.00  0.00    -0.237 OA
ATOM     75  O   UNL A   1      48.704  37.085  27.782  1.00  0.00    -0.237 OA
ATOM     76  O   UNL A   1      46.390  37.757  28.305  1.00  0.00    -0.744 OA
ENDBRANCH  72  73
ENDBRANCH  53  67
BRANCH  54  77
ATOM     77  C   UNL A   1      43.558  23.065  26.790  1.00  0.00    -0.014 A 
ATOM     78  C   UNL A   1      42.889  22.324  27.780  1.00  0.00     0.010 A 
ATOM     79  C   UNL A   1      43.871  22.442  25.568  1.00  0.00     0.010 A 
ATOM     80  C   UNL A   1      42.578  20.976  27.570  1.00  0.00     0.020 A 
ATOM     81  C   UNL A   1      43.533  21.104  25.341  1.00  0.00     0.020 A 
ATOM     82  C   UNL A   1      42.906  20.375  26.352  1.00  0.00     0.054 A 
BRANCH  82  83
ATOM     83  S   UNL A   1      42.481  18.629  26.096  1.00  0.00     0.124 S 
ATOM     84  O   UNL A   1      42.753  18.056  27.410  1.00  0.00    -0.237 OA
ATOM     85  O   UNL A   1      41.072  18.700  25.714  1.00  0.00    -0.237 OA
ATOM     86  O   UNL A   1      43.388  18.211  25.031  1.00  0.00    -0.744 OA
ENDBRANCH  82  83
ENDBRANCH  54  77
BRANCH  66  87
ATOM     87  C   UNL A   1      49.601  26.499  26.215  1.00  0.00    -0.014 A 
ATOM     88  C   UNL A   1      50.105  26.656  24.913  1.00  0.00     0.010 A 
ATOM     89  C   UNL A   1      50.439  25.970  27.215  1.00  0.00     0.010 A 
ATOM     90  C   UNL A   1      51.410  26.258  24.608  1.00  0.00     0.020 A 
ATOM     91  C   UNL A   1      51.754  25.602  26.923  1.00  0.00     0.020 A 
ATOM     92  C   UNL A   1      52.226  25.734  25.616  1.00  0.00     0.054 A 
BRANCH  92  93
ATOM     93  S   UNL A   1      53.928  25.265  25.205  1.00  0.00     0.124 S 
ATOM     94  O   UNL A   1      54.206  26.115  24.049  1.00  0.00    -0.237 OA
ATOM     95  O   UNL A   1      54.658  25.604  26.424  1.00  0.00    -0.237 OA
ATOM     96  O   UNL A   1      53.835  23.836  24.919  1.00  0.00    -0.744 OA
ENDBRANCH  92  93
ENDBRANCH  66  87
ENDBRANCH  40  41
ENDBRANCH  32  35
ENDBRANCH  30  31
ENDBRANCH  29  30
ENDBRANCH   1  29
TORSDOF 20
ENDMDL
MODEL 3
REMARK VINA RESULT:     -10.5      3.589      9.423
REMARK SMILES COc1ccc([C@@](C)(NC(=O)c2csc(C)n2)C(=O)NCCCCCCNC(=O)c2ccc(-c3c4nc(c(-c5ccc(S(=O)(=O)[O-])cc5)c5ccc([nH]5)c(-c5ccc(S(=O)(=O)[O-])cc5)c5nc(c(-c6ccc(S(=O)(=O)[O-])cc6)c6ccc3[nH]6)C=C5)C=C4)cc2)cc1
REMARK SMILES IDX 24 1 23 2 22 3 21 4 20 5 18 6 19 7 7 9 8 10 6 11 3 12 4 13
REMARK SMILES IDX 91 14 5 15 90 16 2 17 1 18 9 19 10 20 11 22 12 23 13 24
REMARK SMILES IDX 17 25 14 26 15 27 16 28 25 29 26 30 27 31 28 32 29 34 30 35
REMARK SMILES IDX 31 36 89 37 32 38 88 39 33 40 34 41 35 42 82 43 36 44 87 45
REMARK SMILES IDX 81 46 83 47 37 48 86 49 80 50 79 51 38 53 68 54 49 55 67 56
REMARK SMILES IDX 50 57 53 58 66 59 84 60 51 61 52 62 65 64 85 65 54 66 39 67
REMARK SMILES IDX 40 68 48 69 41 70 47 71 42 72 43 73 44 74 45 75 46 76 69 77
REMARK SMILES IDX 70 78 78 79 71 80 77 81 72 82 73 83 74 84 75 85 76 86 55 87
REMARK SMILES IDX 56 88 64 89 57 90 63 91 58 92 59 93 60 94 61 95 62 96
REMARK H PARENT 20 8 9 21 27 33 83 52 53 63
REMARK Flexibility Score: inf
ROOT
ATOM      1  C   UNL A   1      37.900  21.383  25.088  1.00  0.00     0.002 C 
ENDROOT
BRANCH   1   2
ATOM      2  C   UNL A   1      38.473  22.537  25.905  1.00  0.00     0.002 C 
BRANCH   2   3
ATOM      3  C   UNL A   1      37.624  23.806  25.947  1.00  0.00     0.021 C 
BRANCH   3   4
ATOM      4  C   UNL A   1      36.188  23.676  25.442  1.00  0.00     0.116 C 
BRANCH   4   5
ATOM      5  N   UNL A   1      35.229  23.117  26.387  1.00  0.00    -0.354 N 
ATOM      6  C   UNL A   1      33.855  23.251  26.487  1.00  0.00     0.250 C 
ATOM      7  O   UNL A   1      33.277  22.433  27.212  1.00  0.00    -0.272 OA
ATOM      8  H   UNL A   1      35.630  22.541  27.077  1.00  0.00     0.163 HD
BRANCH   6   9
ATOM      9  C   UNL A   1      33.093  24.236  25.540  1.00  0.00     0.142 C 
ATOM     10  C   UNL A   1      31.639  23.646  25.618  1.00  0.00     0.051 C 
BRANCH   9  11
ATOM     11  C   UNL A   1      32.967  25.729  25.943  1.00  0.00    -0.013 A 
ATOM     12  C   UNL A   1      32.592  28.424  26.767  1.00  0.00     0.118 A 
ATOM     13  C   UNL A   1      31.564  27.505  26.909  1.00  0.00     0.047 A 
ATOM     14  C   UNL A   1      33.793  28.019  26.184  1.00  0.00     0.047 A 
ATOM     15  C   UNL A   1      31.738  26.193  26.474  1.00  0.00     0.010 A 
ATOM     16  C   UNL A   1      33.977  26.682  25.770  1.00  0.00     0.010 A 
BRANCH  12  17
ATOM     17  O   UNL A   1      32.333  29.657  27.296  1.00  0.00    -0.497 OA
ATOM     18  C   UNL A   1      31.880  30.633  26.370  1.00  0.00     0.278 C 
ENDBRANCH  12  17
ENDBRANCH   9  11
BRANCH   9  19
ATOM     19  N   UNL A   1      33.579  24.221  24.143  1.00  0.00    -0.333 N 
ATOM     20  C   UNL A   1      32.919  24.529  22.968  1.00  0.00     0.271 C 
ATOM     21  H   UNL A   1      34.519  23.949  24.033  1.00  0.00     0.165 HD
ATOM     22  O   UNL A   1      33.315  23.945  21.955  1.00  0.00    -0.267 OA
BRANCH  20  23
ATOM     23  C   UNL A   1      31.896  25.590  22.868  1.00  0.00     0.139 A 
ATOM     24  C   UNL A   1      32.218  26.908  22.574  1.00  0.00     0.101 A 
ATOM     25  N   UNL A   1      30.559  25.430  23.196  1.00  0.00    -0.236 NA
ATOM     26  S   UNL A   1      30.868  27.941  22.807  1.00  0.00    -0.127 S 
ATOM     27  C   UNL A   1      29.943  26.587  23.304  1.00  0.00     0.090 A 
ATOM     28  C   UNL A   1      28.588  26.764  23.902  1.00  0.00     0.079 C 
ENDBRANCH  20  23
ENDBRANCH   9  19
ENDBRANCH   6   9
ENDBRANCH   4   5
ENDBRANCH   3   4
ENDBRANCH   2   3
ENDBRANCH   1   2
BRANCH   1  29
ATOM     29  C   UNL A   1      38.681  20.076  25.193  1.00  0.00     0.021 C 
BRANCH  29  30
ATOM     30  C   UNL A   1      39.625  19.999  26.384  1.00  0.00     0.116 C 
BRANCH  30  31
ATOM     31  N   UNL A   1      40.789  19.170  26.112  1.00  0.00    -0.352 N 
ATOM     32  C   UNL A   1      42.092  19.567  25.936  1.00  0.00     0.251 C 
ATOM     33  H   UNL A   1      40.622  18.202  26.046  1.00  0.00     0.163 HD
ATOM     34  O   UNL A   1      42.936  18.775  25.525  1.00  0.00    -0.269 OA
BRANCH  32  35
ATOM     35  C   UNL A   1      42.455  20.969  26.226  1.00  0.00     0.039 A 
ATOM     36  C   UNL A   1      42.726  21.346  27.543  1.00  0.00     0.014 A 
ATOM     37  C   UNL A   1      42.568  21.895  25.185  1.00  0.00     0.014 A 
ATOM     38  C   UNL A   1      43.159  22.646  27.808  1.00  0.00     0.010 A 
ATOM     39  C   UNL A   1      43.081  23.162  25.442  1.00  0.00     0.010 A 
ATOM     40  C   UNL A   1      43.367  23.556  26.758  1.00  0.00    -0.014 A 
BRANCH  40  41
ATOM     41  C   UNL A   1      43.853  24.935  27.014  1.00  0.00     0.031 A 
ATOM     42  C   UNL A   1      45.305  25.271  26.779  1.00  0.00     0.074 A 
ATOM     43  C   UNL A   1      43.012  25.867  27.506  1.00  0.00     0.049 A 
ATOM     44  N   UNL A   1      45.934  26.396  26.993  1.00  0.00    -0.248 NA
ATOM     45  C   UNL A   1      46.165  24.192  26.262  1.00  0.00     0.031 C 
ATOM     46  C   UNL A   1      41.595  25.655  27.813  1.00  0.00     0.029 A 
ATOM     47  N   UNL A   1      43.227  27.181  27.841  1.00  0.00    -0.354 N 
ATOM     48  C   UNL A   1      47.263  26.156  26.659  1.00  0.00     0.074 A 
ATOM     49  C   UNL A   1      47.360  24.765  26.278  1.00  0.00     0.031 C 
ATOM     50  C   UNL A   1      41.063  26.805  28.257  1.00  0.00     0.029 A 
ATOM     51  C   UNL A   1      42.106  27.824  28.311  1.00  0.00     0.049 A 
ATOM     52  H   UNL A   1      44.103  27.622  27.751  1.00  0.00     0.167 HD
ATOM     53  C   UNL A   1      48.304  27.020  26.650  1.00  0.00     0.031 A 
ATOM     54  C   UNL A   1      41.939  29.092  28.741  1.00  0.00     0.031 A 
ATOM     55  C   UNL A   1      48.198  28.409  27.004  1.00  0.00     0.049 A 
ATOM     56  C   UNL A   1      43.118  30.029  28.724  1.00  0.00     0.074 A 
ATOM     57  C   UNL A   1      49.180  29.383  26.963  1.00  0.00     0.029 A 
ATOM     58  N   UNL A   1      47.042  29.024  27.462  1.00  0.00    -0.354 N 
ATOM     59  N   UNL A   1      44.350  29.800  28.335  1.00  0.00    -0.248 NA
ATOM     60  C   UNL A   1      42.879  31.403  29.191  1.00  0.00     0.031 C 
ATOM     61  C   UNL A   1      48.634  30.573  27.451  1.00  0.00     0.029 A 
ATOM     62  C   UNL A   1      47.294  30.358  27.730  1.00  0.00     0.049 A 
ATOM     63  H   UNL A   1      46.173  28.578  27.577  1.00  0.00     0.167 HD
ATOM     64  C   UNL A   1      45.021  31.012  28.472  1.00  0.00     0.074 A 
ATOM     65  C   UNL A   1      44.056  31.971  28.968  1.00  0.00     0.031 C 
ATOM     66  C   UNL A   1      46.318  31.304  28.208  1.00  0.00     0.031 A 
BRANCH  53  67
ATOM     67  C   UNL A   1      49.656  26.492  26.245  1.00  0.00    -0.014 A 
ATOM     68  C   UNL A   1      50.147  26.671  24.939  1.00  0.00     0.010 A 
ATOM     69  C   UNL A   1      50.473  25.867  27.204  1.00  0.00     0.010 A 
ATOM     70  C   UNL A   1      51.421  26.213  24.593  1.00  0.00     0.020 A 
ATOM     71  C   UNL A   1      51.760  25.434  26.870  1.00  0.00     0.020 A 
ATOM     72  C   UNL A   1      52.221  25.601  25.563  1.00  0.00     0.054 A 
BRANCH  72  73
ATOM     73  S   UNL A   1      53.892  25.067  25.098  1.00  0.00     0.124 S 
ATOM     74  O   UNL A   1      54.099  25.786  23.844  1.00  0.00    -0.237 OA
ATOM     75  O   UNL A   1      54.698  25.525  26.226  1.00  0.00    -0.237 OA
ATOM     76  O   UNL A   1      53.770  23.617  24.971  1.00  0.00    -0.744 OA
ENDBRANCH  72  73
ENDBRANCH  53  67
BRANCH  54  77
ATOM     77  C   UNL A   1      40.606  29.559  29.215  1.00  0.00    -0.014 A 
ATOM     78  C   UNL A   1      40.333  29.669  30.590  1.00  0.00     0.010 A 
ATOM     79  C   UNL A   1      39.590  29.869  28.292  1.00  0.00     0.010 A 
ATOM     80  C   UNL A   1      39.060  30.040  31.034  1.00  0.00     0.020 A 
ATOM     81  C   UNL A   1      38.326  30.274  28.732  1.00  0.00     0.020 A 
ATOM     82  C   UNL A   1      38.063  30.337  30.101  1.00  0.00     0.054 A 
BRANCH  82  83
ATOM     83  S   UNL A   1      36.422  30.830  30.699  1.00  0.00     0.124 S 
ATOM     84  O   UNL A   1      35.619  30.741  29.484  1.00  0.00    -0.237 OA
ATOM     85  O   UNL A   1      36.143  29.821  31.719  1.00  0.00    -0.237 OA
ATOM     86  O   UNL A   1      36.638  32.181  31.210  1.00  0.00    -0.744 OA
ENDBRANCH  82  83
ENDBRANCH  54  77
BRANCH  66  87
ATOM     87  C   UNL A   1      46.762  32.731  28.390  1.00  0.00    -0.014 A 
ATOM     88  C   UNL A   1      47.316  33.182  29.600  1.00  0.00     0.010 A 
ATOM     89  C   UNL A   1      46.673  33.621  27.303  1.00  0.00     0.010 A 
ATOM     90  C   UNL A   1      47.740  34.507  29.732  1.00  0.00     0.020 A 
ATOM     91  C   UNL A   1      47.127  34.937  27.420  1.00  0.00     0.020 A 
ATOM     92  C   UNL A   1      47.643  35.376  28.640  1.00  0.00     0.054 A 
BRANCH  92  93
ATOM     93  S   UNL A   1      48.239  37.078  28.824  1.00  0.00     0.124 S 
ATOM     94  O   UNL A   1      49.199  37.183  27.727  1.00  0.00    -0.237 OA
ATOM     95  O   UNL A   1      47.018  37.865  28.667  1.00  0.00    -0.237 OA
ATOM     96  O   UNL A   1      48.819  37.100  30.164  1.00  0.00    -0.744 OA
ENDBRANCH  92  93
ENDBRANCH  66  87
ENDBRANCH  40  41
ENDBRANCH  32  35
ENDBRANCH  30  31
ENDBRANCH  29  30
ENDBRANCH   1  29
TORSDOF 20
ENDMDL
