MODEL 1
REMARK VINA RESULT:     -10.7      0.000      0.000
REMARK SMILES C=CCN1C(=O)/C(=C/c2ccc(-c3ccc(Cl)c(C(=O)NCCCCCCNC(=O)c4ccc(-c5c6nc(c(-c7ccc(S(=O)(=O)[O-])cc7)c7ccc([nH]7)c(-c7ccc(S(=O)(=O)[O-])cc7)c7nc(c(-c8ccc(S(=O)(=O)[O-])cc8)c8ccc5[nH]8)C=C7)C=C6)cc4)c3)o2)C(=O)NC1=S
REMARK SMILES IDX 24 1 23 2 22 3 21 4 19 5 20 6 18 8 13 9 14 10 91 11 15 12
REMARK SMILES IDX 16 13 17 14 12 15 9 16 10 17 92 18 11 19 8 20 4 21 5 22
REMARK SMILES IDX 96 23 6 24 7 25 95 26 97 27 93 28 94 30 3 31 2 32 1 33 25 34
REMARK SMILES IDX 26 35 27 36 28 37 29 38 30 40 31 41 32 42 90 43 33 44 89 45
REMARK SMILES IDX 34 46 35 47 36 48 83 49 37 50 88 51 82 52 84 53 38 54 87 55
REMARK SMILES IDX 81 56 80 57 39 59 69 60 50 61 68 62 51 63 54 64 67 65 85 66
REMARK SMILES IDX 52 67 53 68 66 70 86 71 55 72 40 73 41 74 49 75 42 76 48 77
REMARK SMILES IDX 43 78 44 79 45 80 46 81 47 82 70 83 71 84 79 85 72 86 78 87
REMARK SMILES IDX 73 88 74 89 75 90 76 91 77 92 56 93 57 94 65 95 58 96 64 97
REMARK SMILES IDX 59 98 60 99 61 100 62 101 63 102
REMARK H PARENT 21 7 95 29 28 39 84 58 54 69
REMARK Flexibility Score: inf
ROOT
ATOM      1  C   UNL A   1      38.563  22.137  26.069  1.00  0.00     0.002 C 
ENDROOT
BRANCH   1   2
ATOM      2  C   UNL A   1      37.756  21.616  24.876  1.00  0.00     0.021 C 
BRANCH   2   3
ATOM      3  C   UNL A   1      36.361  21.072  25.171  1.00  0.00     0.116 C 
BRANCH   3   4
ATOM      4  N   UNL A   1      35.714  21.636  26.342  1.00  0.00    -0.352 N 
ATOM      5  C   UNL A   1      34.622  22.472  26.447  1.00  0.00     0.252 C 
ATOM      6  O   UNL A   1      34.236  22.786  27.575  1.00  0.00    -0.269 OA
ATOM      7  H   UNL A   1      36.120  21.378  27.202  1.00  0.00     0.163 HD
BRANCH   5   8
ATOM      8  C   UNL A   1      33.943  23.085  25.268  1.00  0.00     0.059 A 
ATOM      9  C   UNL A   1      33.609  25.128  23.948  1.00  0.00     0.018 A 
ATOM     10  C   UNL A   1      32.807  24.397  23.064  1.00  0.00     0.013 A 
ATOM     11  C   UNL A   1      34.236  24.447  25.003  1.00  0.00     0.027 A 
ATOM     12  C   UNL A   1      32.471  23.078  23.342  1.00  0.00     0.022 A 
ATOM     13  C   UNL A   1      32.956  22.458  24.496  1.00  0.00     0.053 A 
ATOM     14  Cl  UNL A   1      32.097  21.042  24.986  1.00  0.00    -0.083 Cl
BRANCH   9  15
ATOM     15  C   UNL A   1      33.580  26.581  23.843  1.00  0.00     0.134 A 
ATOM     16  C   UNL A   1      33.133  28.649  24.513  1.00  0.00     0.128 A 
ATOM     17  C   UNL A   1      33.678  28.728  23.241  1.00  0.00     0.051 A 
ATOM     18  O   UNL A   1      33.087  27.314  24.878  1.00  0.00    -0.457 OA
ATOM     19  C   UNL A   1      33.953  27.418  22.812  1.00  0.00     0.051 A 
BRANCH  16  20
ATOM     20  C   UNL A   1      32.708  29.702  25.360  1.00  0.00     0.066 C 
ATOM     21  N   UNL A   1      33.806  32.137  27.728  1.00  0.00    -0.281 N 
ATOM     22  C   UNL A   1      32.851  31.316  27.123  1.00  0.00     0.266 C 
ATOM     23  C   UNL A   1      35.116  31.735  27.971  1.00  0.00     0.183 C 
ATOM     24  O   UNL A   1      31.642  31.545  27.126  1.00  0.00    -0.268 OA
ATOM     25  C   UNL A   1      33.392  30.118  26.441  1.00  0.00     0.109 C 
ATOM     26  N   UNL A   1      35.445  30.459  27.592  1.00  0.00    -0.298 N 
ATOM     27  S   UNL A   1      36.333  32.627  28.705  1.00  0.00    -0.040 S 
ATOM     28  C   UNL A   1      34.670  29.561  26.914  1.00  0.00     0.263 C 
ATOM     29  H   UNL A   1      36.348  30.154  27.837  1.00  0.00     0.172 HD
ATOM     30  O   UNL A   1      35.034  28.401  26.767  1.00  0.00    -0.269 OA
BRANCH  21  31
ATOM     31  C   UNL A   1      33.318  33.467  28.105  1.00  0.00     0.155 C 
BRANCH  31  32
ATOM     32  C   UNL A   1      34.387  34.468  27.752  1.00  0.00    -0.013 C 
ATOM     33  C   UNL A   1      34.466  35.700  28.272  1.00  0.00     0.006 C 
ENDBRANCH  31  32
ENDBRANCH  21  31
ENDBRANCH  16  20
ENDBRANCH   9  15
ENDBRANCH   5   8
ENDBRANCH   3   4
ENDBRANCH   2   3
ENDBRANCH   1   2
BRANCH   1  34
ATOM     34  C   UNL A   1      40.045  21.750  26.155  1.00  0.00     0.002 C 
BRANCH  34  35
ATOM     35  C   UNL A   1      40.388  20.259  26.188  1.00  0.00     0.021 C 
BRANCH  35  36
ATOM     36  C   UNL A   1      41.792  19.885  26.651  1.00  0.00     0.116 C 
BRANCH  36  37
ATOM     37  N   UNL A   1      42.639  19.387  25.583  1.00  0.00    -0.352 N 
ATOM     38  C   UNL A   1      43.656  20.011  24.900  1.00  0.00     0.251 C 
ATOM     39  H   UNL A   1      42.458  18.460  25.305  1.00  0.00     0.163 HD
ATOM     40  O   UNL A   1      44.185  19.439  23.950  1.00  0.00    -0.269 OA
BRANCH  38  41
ATOM     41  C   UNL A   1      44.101  21.376  25.275  1.00  0.00     0.039 A 
ATOM     42  C   UNL A   1      43.622  22.463  24.535  1.00  0.00     0.014 A 
ATOM     43  C   UNL A   1      44.998  21.594  26.325  1.00  0.00     0.014 A 
ATOM     44  C   UNL A   1      43.987  23.766  24.888  1.00  0.00     0.010 A 
ATOM     45  C   UNL A   1      45.312  22.898  26.715  1.00  0.00     0.010 A 
ATOM     46  C   UNL A   1      44.809  23.998  26.003  1.00  0.00    -0.014 A 
BRANCH  46  47
ATOM     47  C   UNL A   1      45.142  25.380  26.443  1.00  0.00     0.031 A 
ATOM     48  C   UNL A   1      46.512  25.951  26.191  1.00  0.00     0.074 A 
ATOM     49  C   UNL A   1      44.231  26.101  27.129  1.00  0.00     0.049 A 
ATOM     50  N   UNL A   1      47.005  27.106  26.557  1.00  0.00    -0.248 NA
ATOM     51  C   UNL A   1      47.460  25.104  25.447  1.00  0.00     0.031 C 
ATOM     52  C   UNL A   1      42.878  25.655  27.469  1.00  0.00     0.029 A 
ATOM     53  N   UNL A   1      44.309  27.361  27.671  1.00  0.00    -0.354 N 
ATOM     54  C   UNL A   1      48.322  27.116  26.113  1.00  0.00     0.074 A 
ATOM     55  C   UNL A   1      48.563  25.838  25.481  1.00  0.00     0.031 C 
ATOM     56  C   UNL A   1      42.247  26.633  28.139  1.00  0.00     0.029 A 
ATOM     57  C   UNL A   1      43.160  27.758  28.313  1.00  0.00     0.049 A 
ATOM     58  H   UNL A   1      45.113  27.925  27.606  1.00  0.00     0.167 HD
ATOM     59  C   UNL A   1      49.245  28.105  26.212  1.00  0.00     0.031 A 
ATOM     60  C   UNL A   1      42.872  28.898  28.973  1.00  0.00     0.031 A 
ATOM     61  C   UNL A   1      48.998  29.385  26.822  1.00  0.00     0.049 A 
ATOM     62  C   UNL A   1      43.915  29.977  29.071  1.00  0.00     0.074 A 
ATOM     63  C   UNL A   1      49.850  30.473  26.908  1.00  0.00     0.029 A 
ATOM     64  N   UNL A   1      47.819  29.750  27.451  1.00  0.00    -0.354 N 
ATOM     65  N   UNL A   1      45.133  29.991  28.588  1.00  0.00    -0.248 NA
ATOM     66  C   UNL A   1      43.539  31.199  29.797  1.00  0.00     0.031 C 
ATOM     67  C   UNL A   1      49.201  31.480  27.631  1.00  0.00     0.029 A 
ATOM     68  C   UNL A   1      47.928  31.038  27.949  1.00  0.00     0.049 A 
ATOM     69  H   UNL A   1      47.021  29.178  27.532  1.00  0.00     0.167 HD
ATOM     70  C   UNL A   1      45.659  31.232  28.926  1.00  0.00     0.074 A 
ATOM     71  C   UNL A   1      44.624  31.946  29.646  1.00  0.00     0.031 C 
ATOM     72  C   UNL A   1      46.889  31.738  28.660  1.00  0.00     0.031 A 
BRANCH  59  73
ATOM     73  C   UNL A   1      50.618  27.836  25.653  1.00  0.00    -0.014 A 
ATOM     74  C   UNL A   1      50.916  28.088  24.303  1.00  0.00     0.010 A 
ATOM     75  C   UNL A   1      51.637  27.372  26.505  1.00  0.00     0.010 A 
ATOM     76  C   UNL A   1      52.198  27.843  23.804  1.00  0.00     0.020 A 
ATOM     77  C   UNL A   1      52.928  27.151  26.015  1.00  0.00     0.020 A 
ATOM     78  C   UNL A   1      53.195  27.372  24.663  1.00  0.00     0.054 A 
BRANCH  78  79
ATOM     79  S   UNL A   1      54.857  27.084  23.995  1.00  0.00     0.124 S 
ATOM     80  O   UNL A   1      55.246  25.853  24.679  1.00  0.00    -0.237 OA
ATOM     81  O   UNL A   1      54.609  26.953  22.561  1.00  0.00    -0.237 OA
ATOM     82  O   UNL A   1      55.601  28.277  24.388  1.00  0.00    -0.744 OA
ENDBRANCH  78  79
ENDBRANCH  59  73
BRANCH  60  83
ATOM     83  C   UNL A   1      41.526  29.086  29.583  1.00  0.00    -0.014 A 
ATOM     84  C   UNL A   1      40.473  29.625  28.824  1.00  0.00     0.010 A 
ATOM     85  C   UNL A   1      41.291  28.726  30.922  1.00  0.00     0.010 A 
ATOM     86  C   UNL A   1      39.213  29.821  29.398  1.00  0.00     0.020 A 
ATOM     87  C   UNL A   1      40.026  28.896  31.492  1.00  0.00     0.020 A 
ATOM     88  C   UNL A   1      38.999  29.455  30.730  1.00  0.00     0.054 A 
BRANCH  88  89
ATOM     89  S   UNL A   1      37.345  29.676  31.444  1.00  0.00     0.124 S 
ATOM     90  O   UNL A   1      37.329  28.661  32.491  1.00  0.00    -0.237 OA
ATOM     91  O   UNL A   1      37.383  31.062  31.906  1.00  0.00    -0.237 OA
ATOM     92  O   UNL A   1      36.451  29.429  30.315  1.00  0.00    -0.744 OA
ENDBRANCH  88  89
ENDBRANCH  60  83
BRANCH  72  93
ATOM     93  C   UNL A   1      47.175  33.142  29.116  1.00  0.00    -0.014 A 
ATOM     94  C   UNL A   1      46.984  34.241  28.259  1.00  0.00     0.010 A 
ATOM     95  C   UNL A   1      47.590  33.370  30.441  1.00  0.00     0.010 A 
ATOM     96  C   UNL A   1      47.228  35.541  28.712  1.00  0.00     0.020 A 
ATOM     97  C   UNL A   1      47.810  34.670  30.906  1.00  0.00     0.020 A 
ATOM     98  C   UNL A   1      47.640  35.746  30.032  1.00  0.00     0.054 A 
BRANCH  98  99
ATOM     99  S   UNL A   1      47.904  37.445  30.612  1.00  0.00     0.124 S 
ATOM    100  O   UNL A   1      46.937  38.192  29.814  1.00  0.00    -0.237 OA
ATOM    101  O   UNL A   1      47.602  37.348  32.039  1.00  0.00    -0.237 OA
ATOM    102  O   UNL A   1      49.307  37.703  30.296  1.00  0.00    -0.744 OA
ENDBRANCH  98  99
ENDBRANCH  72  93
ENDBRANCH  46  47
ENDBRANCH  38  41
ENDBRANCH  36  37
ENDBRANCH  35  36
ENDBRANCH  34  35
ENDBRANCH   1  34
TORSDOF 20
ENDMDL
MODEL 2
REMARK VINA RESULT:     -10.6      4.823     12.202
REMARK SMILES C=CCN1C(=O)/C(=C/c2ccc(-c3ccc(Cl)c(C(=O)NCCCCCCNC(=O)c4ccc(-c5c6nc(c(-c7ccc(S(=O)(=O)[O-])cc7)c7ccc([nH]7)c(-c7ccc(S(=O)(=O)[O-])cc7)c7nc(c(-c8ccc(S(=O)(=O)[O-])cc8)c8ccc5[nH]8)C=C7)C=C6)cc4)c3)o2)C(=O)NC1=S
REMARK SMILES IDX 24 1 23 2 22 3 21 4 19 5 20 6 18 8 13 9 14 10 91 11 15 12
REMARK SMILES IDX 16 13 17 14 12 15 9 16 10 17 92 18 11 19 8 20 4 21 5 22
REMARK SMILES IDX 96 23 6 24 7 25 95 26 97 27 93 28 94 30 3 31 2 32 1 33 25 34
REMARK SMILES IDX 26 35 27 36 28 37 29 38 30 40 31 41 32 42 90 43 33 44 89 45
REMARK SMILES IDX 34 46 35 47 36 48 83 49 37 50 88 51 82 52 84 53 38 54 87 55
REMARK SMILES IDX 81 56 80 57 39 59 69 60 50 61 68 62 51 63 54 64 67 65 85 66
REMARK SMILES IDX 52 67 53 68 66 70 86 71 55 72 40 73 41 74 49 75 42 76 48 77
REMARK SMILES IDX 43 78 44 79 45 80 46 81 47 82 70 83 71 84 79 85 72 86 78 87
REMARK SMILES IDX 73 88 74 89 75 90 76 91 77 92 56 93 57 94 65 95 58 96 64 97
REMARK SMILES IDX 59 98 60 99 61 100 62 101 63 102
REMARK H PARENT 21 7 95 29 28 39 84 58 54 69
REMARK Flexibility Score: inf
ROOT
ATOM      1  C   UNL A   1      41.058  35.209  28.700  1.00  0.00     0.002 C 
ENDROOT
BRANCH   1   2
ATOM      2  C   UNL A   1      40.096  34.503  29.663  1.00  0.00     0.021 C 
BRANCH   2   3
ATOM      3  C   UNL A   1      38.607  34.777  29.474  1.00  0.00     0.116 C 
BRANCH   3   4
ATOM      4  N   UNL A   1      37.753  34.316  30.554  1.00  0.00    -0.352 N 
ATOM      5  C   UNL A   1      37.095  33.116  30.726  1.00  0.00     0.252 C 
ATOM      6  O   UNL A   1      36.451  32.950  31.763  1.00  0.00    -0.269 OA
ATOM      7  H   UNL A   1      37.622  34.966  31.282  1.00  0.00     0.163 HD
BRANCH   5   8
ATOM      8  C   UNL A   1      37.053  32.049  29.685  1.00  0.00     0.059 A 
ATOM      9  C   UNL A   1      35.651  30.824  28.084  1.00  0.00     0.018 A 
ATOM     10  C   UNL A   1      36.786  30.124  27.661  1.00  0.00     0.013 A 
ATOM     11  C   UNL A   1      35.806  31.839  29.041  1.00  0.00     0.027 A 
ATOM     12  C   UNL A   1      37.999  30.283  28.320  1.00  0.00     0.022 A 
ATOM     13  C   UNL A   1      38.103  31.168  29.395  1.00  0.00     0.053 A 
ATOM     14  Cl  UNL A   1      39.468  30.917  30.424  1.00  0.00    -0.083 Cl
BRANCH   9  15
ATOM     15  C   UNL A   1      34.350  30.321  27.660  1.00  0.00     0.134 A 
ATOM     16  C   UNL A   1      32.847  28.765  27.164  1.00  0.00     0.128 A 
ATOM     17  C   UNL A   1      32.272  30.002  26.911  1.00  0.00     0.051 A 
ATOM     18  O   UNL A   1      34.130  28.978  27.637  1.00  0.00    -0.457 OA
ATOM     19  C   UNL A   1      33.227  30.987  27.216  1.00  0.00     0.051 A 
BRANCH  16  20
ATOM     20  C   UNL A   1      32.273  27.478  27.021  1.00  0.00     0.066 C 
ATOM     21  N   UNL A   1      32.766  24.224  25.639  1.00  0.00    -0.281 N 
ATOM     22  C   UNL A   1      31.987  25.270  26.140  1.00  0.00     0.266 C 
ATOM     23  C   UNL A   1      33.878  24.420  24.826  1.00  0.00     0.183 C 
ATOM     24  O   UNL A   1      30.872  25.123  26.641  1.00  0.00    -0.268 OA
ATOM     25  C   UNL A   1      32.602  26.614  26.044  1.00  0.00     0.109 C 
ATOM     26  N   UNL A   1      34.186  25.719  24.513  1.00  0.00    -0.298 N 
ATOM     27  S   UNL A   1      34.867  23.242  24.156  1.00  0.00    -0.040 S 
ATOM     28  C   UNL A   1      33.592  26.857  24.983  1.00  0.00     0.263 C 
ATOM     29  H   UNL A   1      34.924  25.847  23.875  1.00  0.00     0.172 HD
ATOM     30  O   UNL A   1      33.869  27.952  24.509  1.00  0.00    -0.269 OA
BRANCH  21  31
ATOM     31  C   UNL A   1      32.314  22.885  26.029  1.00  0.00     0.155 C 
BRANCH  31  32
ATOM     32  C   UNL A   1      32.997  22.527  27.324  1.00  0.00    -0.013 C 
ATOM     33  C   UNL A   1      33.802  21.467  27.482  1.00  0.00     0.006 C 
ENDBRANCH  31  32
ENDBRANCH  21  31
ENDBRANCH  16  20
ENDBRANCH   9  15
ENDBRANCH   5   8
ENDBRANCH   3   4
ENDBRANCH   2   3
ENDBRANCH   1   2
BRANCH   1  34
ATOM     34  C   UNL A   1      41.880  36.383  29.242  1.00  0.00     0.002 C 
BRANCH  34  35
ATOM     35  C   UNL A   1      42.058  37.603  28.334  1.00  0.00     0.021 C 
BRANCH  35  36
ATOM     36  C   UNL A   1      42.373  37.330  26.867  1.00  0.00     0.116 C 
BRANCH  36  37
ATOM     37  N   UNL A   1      43.744  37.638  26.505  1.00  0.00    -0.352 N 
ATOM     38  C   UNL A   1      44.910  36.981  26.824  1.00  0.00     0.251 C 
ATOM     39  H   UNL A   1      43.858  38.439  25.943  1.00  0.00     0.163 HD
ATOM     40  O   UNL A   1      45.987  37.472  26.497  1.00  0.00    -0.269 OA
BRANCH  38  41
ATOM     41  C   UNL A   1      44.884  35.708  27.584  1.00  0.00     0.039 A 
ATOM     42  C   UNL A   1      44.276  34.591  26.999  1.00  0.00     0.014 A 
ATOM     43  C   UNL A   1      45.427  35.607  28.868  1.00  0.00     0.014 A 
ATOM     44  C   UNL A   1      44.273  33.364  27.670  1.00  0.00     0.010 A 
ATOM     45  C   UNL A   1      45.479  34.368  29.509  1.00  0.00     0.010 A 
ATOM     46  C   UNL A   1      44.904  33.232  28.917  1.00  0.00    -0.014 A 
BRANCH  46  47
ATOM     47  C   UNL A   1      44.982  31.917  29.609  1.00  0.00     0.031 A 
ATOM     48  C   UNL A   1      44.045  31.596  30.744  1.00  0.00     0.074 A 
ATOM     49  C   UNL A   1      45.939  31.034  29.259  1.00  0.00     0.049 A 
ATOM     50  N   UNL A   1      44.006  30.533  31.506  1.00  0.00    -0.248 NA
ATOM     51  C   UNL A   1      43.033  32.611  31.079  1.00  0.00     0.031 C 
ATOM     52  C   UNL A   1      46.931  31.232  28.200  1.00  0.00     0.029 A 
ATOM     53  N   UNL A   1      46.242  29.792  29.765  1.00  0.00    -0.354 N 
ATOM     54  C   UNL A   1      42.987  30.760  32.424  1.00  0.00     0.074 A 
ATOM     55  C   UNL A   1      42.456  32.076  32.146  1.00  0.00     0.031 C 
ATOM     56  C   UNL A   1      47.714  30.144  28.119  1.00  0.00     0.029 A 
ATOM     57  C   UNL A   1      47.309  29.187  29.144  1.00  0.00     0.049 A 
ATOM     58  H   UNL A   1      45.740  29.376  30.503  1.00  0.00     0.167 HD
ATOM     59  C   UNL A   1      42.527  29.942  33.402  1.00  0.00     0.031 A 
ATOM     60  C   UNL A   1      47.902  27.999  29.376  1.00  0.00     0.031 A 
ATOM     61  C   UNL A   1      43.041  28.623  33.664  1.00  0.00     0.049 A 
ATOM     62  C   UNL A   1      47.374  27.112  30.470  1.00  0.00     0.074 A 
ATOM     63  C   UNL A   1      42.593  27.695  34.589  1.00  0.00     0.029 A 
ATOM     64  N   UNL A   1      44.116  28.046  33.006  1.00  0.00    -0.354 N 
ATOM     65  N   UNL A   1      46.368  27.320  31.285  1.00  0.00    -0.248 NA
ATOM     66  C   UNL A   1      48.057  25.825  30.670  1.00  0.00     0.031 C 
ATOM     67  C   UNL A   1      43.427  26.573  34.522  1.00  0.00     0.029 A 
ATOM     68  C   UNL A   1      44.361  26.783  33.521  1.00  0.00     0.049 A 
ATOM     69  H   UNL A   1      44.629  28.470  32.281  1.00  0.00     0.167 HD
ATOM     70  C   UNL A   1      46.279  26.178  32.073  1.00  0.00     0.074 A 
ATOM     71  C   UNL A   1      47.326  25.280  31.632  1.00  0.00     0.031 C 
ATOM     72  C   UNL A   1      45.405  25.898  33.071  1.00  0.00     0.031 A 
BRANCH  59  73
ATOM     73  C   UNL A   1      41.411  30.455  34.273  1.00  0.00    -0.014 A 
ATOM     74  C   UNL A   1      40.065  30.200  33.958  1.00  0.00     0.010 A 
ATOM     75  C   UNL A   1      41.716  31.162  35.451  1.00  0.00     0.010 A 
ATOM     76  C   UNL A   1      39.042  30.675  34.784  1.00  0.00     0.020 A 
ATOM     77  C   UNL A   1      40.697  31.615  36.294  1.00  0.00     0.020 A 
ATOM     78  C   UNL A   1      39.365  31.384  35.945  1.00  0.00     0.054 A 
BRANCH  78  79
ATOM     79  S   UNL A   1      38.020  31.970  37.011  1.00  0.00     0.124 S 
ATOM     80  O   UNL A   1      37.519  30.720  37.578  1.00  0.00    -0.237 OA
ATOM     81  O   UNL A   1      38.713  32.851  37.948  1.00  0.00    -0.237 OA
ATOM     82  O   UNL A   1      37.112  32.642  36.086  1.00  0.00    -0.744 OA
ENDBRANCH  78  79
ENDBRANCH  59  73
BRANCH  60  83
ATOM     83  C   UNL A   1      49.058  27.568  28.542  1.00  0.00    -0.014 A 
ATOM     84  C   UNL A   1      48.845  27.006  27.271  1.00  0.00     0.010 A 
ATOM     85  C   UNL A   1      50.374  27.718  29.012  1.00  0.00     0.010 A 
ATOM     86  C   UNL A   1      49.926  26.582  26.493  1.00  0.00     0.020 A 
ATOM     87  C   UNL A   1      51.460  27.320  28.227  1.00  0.00     0.020 A 
ATOM     88  C   UNL A   1      51.228  26.742  26.977  1.00  0.00     0.054 A 
BRANCH  88  89
ATOM     89  S   UNL A   1      52.620  26.227  25.933  1.00  0.00     0.124 S 
ATOM     90  O   UNL A   1      52.939  24.913  26.481  1.00  0.00    -0.237 OA
ATOM     91  O   UNL A   1      52.031  26.229  24.596  1.00  0.00    -0.237 OA
ATOM     92  O   UNL A   1      53.622  27.265  26.165  1.00  0.00    -0.744 OA
ENDBRANCH  88  89
ENDBRANCH  60  83
BRANCH  72  93
ATOM     93  C   UNL A   1      45.516  24.552  33.733  1.00  0.00    -0.014 A 
ATOM     94  C   UNL A   1      44.767  23.451  33.280  1.00  0.00     0.010 A 
ATOM     95  C   UNL A   1      46.427  24.373  34.791  1.00  0.00     0.010 A 
ATOM     96  C   UNL A   1      44.907  22.202  33.891  1.00  0.00     0.020 A 
ATOM     97  C   UNL A   1      46.589  23.120  35.388  1.00  0.00     0.020 A 
ATOM     98  C   UNL A   1      45.817  22.045  34.941  1.00  0.00     0.054 A 
BRANCH  98  99
ATOM     99  S   UNL A   1      46.018  20.403  35.687  1.00  0.00     0.124 S 
ATOM    100  O   UNL A   1      45.865  20.694  37.109  1.00  0.00    -0.237 OA
ATOM    101  O   UNL A   1      44.929  19.639  35.081  1.00  0.00    -0.237 OA
ATOM    102  O   UNL A   1      47.359  19.998  35.274  1.00  0.00    -0.744 OA
ENDBRANCH  98  99
ENDBRANCH  72  93
ENDBRANCH  46  47
ENDBRANCH  38  41
ENDBRANCH  36  37
ENDBRANCH  35  36
ENDBRANCH  34  35
ENDBRANCH   1  34
TORSDOF 20
ENDMDL
MODEL 3
REMARK VINA RESULT:     -10.4      6.656     14.091
REMARK SMILES C=CCN1C(=O)/C(=C/c2ccc(-c3ccc(Cl)c(C(=O)NCCCCCCNC(=O)c4ccc(-c5c6nc(c(-c7ccc(S(=O)(=O)[O-])cc7)c7ccc([nH]7)c(-c7ccc(S(=O)(=O)[O-])cc7)c7nc(c(-c8ccc(S(=O)(=O)[O-])cc8)c8ccc5[nH]8)C=C7)C=C6)cc4)c3)o2)C(=O)NC1=S
REMARK SMILES IDX 24 1 23 2 22 3 21 4 19 5 20 6 18 8 13 9 14 10 91 11 15 12
REMARK SMILES IDX 16 13 17 14 12 15 9 16 10 17 92 18 11 19 8 20 4 21 5 22
REMARK SMILES IDX 96 23 6 24 7 25 95 26 97 27 93 28 94 30 3 31 2 32 1 33 25 34
REMARK SMILES IDX 26 35 27 36 28 37 29 38 30 40 31 41 32 42 90 43 33 44 89 45
REMARK SMILES IDX 34 46 35 47 36 48 83 49 37 50 88 51 82 52 84 53 38 54 87 55
REMARK SMILES IDX 81 56 80 57 39 59 69 60 50 61 68 62 51 63 54 64 67 65 85 66
REMARK SMILES IDX 52 67 53 68 66 70 86 71 55 72 40 73 41 74 49 75 42 76 48 77
REMARK SMILES IDX 43 78 44 79 45 80 46 81 47 82 70 83 71 84 79 85 72 86 78 87
REMARK SMILES IDX 73 88 74 89 75 90 76 91 77 92 56 93 57 94 65 95 58 96 64 97
REMARK SMILES IDX 59 98 60 99 61 100 62 101 63 102
REMARK H PARENT 21 7 95 29 28 39 84 58 54 69
REMARK Flexibility Score: inf
ROOT
ATOM      1  C   UNL A   1      35.777  33.576  28.992  1.00  0.00     0.002 C 
ENDROOT
BRANCH   1   2
ATOM      2  C   UNL A   1      35.797  32.064  28.745  1.00  0.00     0.021 C 
BRANCH   2   3
ATOM      3  C   UNL A   1      36.914  31.270  29.416  1.00  0.00     0.116 C 
BRANCH   3   4
ATOM      4  N   UNL A   1      36.525  30.548  30.614  1.00  0.00    -0.352 N 
ATOM      5  C   UNL A   1      37.251  29.702  31.425  1.00  0.00     0.252 C 
ATOM      6  O   UNL A   1      36.697  29.234  32.422  1.00  0.00    -0.269 OA
ATOM      7  H   UNL A   1      35.591  30.685  30.893  1.00  0.00     0.163 HD
BRANCH   5   8
ATOM      8  C   UNL A   1      38.640  29.256  31.110  1.00  0.00     0.059 A 
ATOM      9  C   UNL A   1      40.075  28.026  29.543  1.00  0.00     0.018 A 
ATOM     10  C   UNL A   1      41.185  28.381  30.317  1.00  0.00     0.013 A 
ATOM     11  C   UNL A   1      38.816  28.533  29.903  1.00  0.00     0.027 A 
ATOM     12  C   UNL A   1      41.019  29.041  31.528  1.00  0.00     0.022 A 
ATOM     13  C   UNL A   1      39.739  29.386  31.970  1.00  0.00     0.053 A 
ATOM     14  Cl  UNL A   1      39.613  29.732  33.658  1.00  0.00    -0.083 Cl
BRANCH   9  15
ATOM     15  C   UNL A   1      40.258  26.991  28.533  1.00  0.00     0.134 A 
ATOM     16  C   UNL A   1      41.417  25.670  27.178  1.00  0.00     0.128 A 
ATOM     17  C   UNL A   1      40.070  25.432  26.947  1.00  0.00     0.051 A 
ATOM     18  O   UNL A   1      41.519  26.630  28.170  1.00  0.00    -0.457 OA
ATOM     19  C   UNL A   1      39.336  26.275  27.799  1.00  0.00     0.051 A 
BRANCH  16  20
ATOM     20  C   UNL A   1      42.540  25.055  26.572  1.00  0.00     0.066 C 
ATOM     21  N   UNL A   1      43.934  21.931  25.553  1.00  0.00    -0.281 N 
ATOM     22  C   UNL A   1      44.006  23.276  25.925  1.00  0.00     0.266 C 
ATOM     23  C   UNL A   1      43.065  21.019  26.146  1.00  0.00     0.183 C 
ATOM     24  O   UNL A   1      44.922  24.033  25.606  1.00  0.00    -0.268 OA
ATOM     25  C   UNL A   1      42.873  23.763  26.745  1.00  0.00     0.109 C 
ATOM     26  N   UNL A   1      42.263  21.501  27.148  1.00  0.00    -0.298 N 
ATOM     27  S   UNL A   1      42.910  19.386  25.792  1.00  0.00    -0.040 S 
ATOM     28  C   UNL A   1      42.140  22.793  27.574  1.00  0.00     0.263 C 
ATOM     29  H   UNL A   1      41.708  20.835  27.615  1.00  0.00     0.172 HD
ATOM     30  O   UNL A   1      41.494  23.064  28.579  1.00  0.00    -0.269 OA
BRANCH  21  31
ATOM     31  C   UNL A   1      44.861  21.541  24.487  1.00  0.00     0.155 C 
BRANCH  31  32
ATOM     32  C   UNL A   1      45.972  20.739  25.112  1.00  0.00    -0.013 C 
ATOM     33  C   UNL A   1      46.511  19.643  24.562  1.00  0.00     0.006 C 
ENDBRANCH  31  32
ENDBRANCH  21  31
ENDBRANCH  16  20
ENDBRANCH   9  15
ENDBRANCH   5   8
ENDBRANCH   3   4
ENDBRANCH   2   3
ENDBRANCH   1   2
BRANCH   1  34
ATOM     34  C   UNL A   1      34.771  34.418  28.199  1.00  0.00     0.002 C 
BRANCH  34  35
ATOM     35  C   UNL A   1      33.374  34.604  28.798  1.00  0.00     0.021 C 
BRANCH  35  36
ATOM     36  C   UNL A   1      33.157  35.839  29.666  1.00  0.00     0.116 C 
BRANCH  36  37
ATOM     37  N   UNL A   1      32.228  35.619  30.760  1.00  0.00    -0.352 N 
ATOM     38  C   UNL A   1      32.445  35.076  32.005  1.00  0.00     0.251 C 
ATOM     39  H   UNL A   1      31.302  35.903  30.585  1.00  0.00     0.163 HD
ATOM     40  O   UNL A   1      31.490  34.884  32.754  1.00  0.00    -0.269 OA
BRANCH  38  41
ATOM     41  C   UNL A   1      33.809  34.691  32.442  1.00  0.00     0.039 A 
ATOM     42  C   UNL A   1      34.691  35.698  32.851  1.00  0.00     0.014 A 
ATOM     43  C   UNL A   1      34.235  33.360  32.432  1.00  0.00     0.014 A 
ATOM     44  C   UNL A   1      35.968  35.366  33.311  1.00  0.00     0.010 A 
ATOM     45  C   UNL A   1      35.488  33.024  32.949  1.00  0.00     0.010 A 
ATOM     46  C   UNL A   1      36.368  34.022  33.396  1.00  0.00    -0.014 A 
BRANCH  46  47
ATOM     47  C   UNL A   1      37.693  33.644  33.958  1.00  0.00     0.031 A 
ATOM     48  C   UNL A   1      37.887  33.535  35.447  1.00  0.00     0.074 A 
ATOM     49  C   UNL A   1      38.742  33.462  33.130  1.00  0.00     0.049 A 
ATOM     50  N   UNL A   1      38.980  33.283  36.121  1.00  0.00    -0.248 NA
ATOM     51  C   UNL A   1      36.701  33.758  36.291  1.00  0.00     0.031 C 
ATOM     52  C   UNL A   1      38.699  33.570  31.670  1.00  0.00     0.029 A 
ATOM     53  N   UNL A   1      40.054  33.156  33.400  1.00  0.00    -0.354 N 
ATOM     54  C   UNL A   1      38.623  33.341  37.463  1.00  0.00     0.074 A 
ATOM     55  C   UNL A   1      37.219  33.687  37.509  1.00  0.00     0.031 C 
ATOM     56  C   UNL A   1      39.920  33.310  31.173  1.00  0.00     0.029 A 
ATOM     57  C   UNL A   1      40.841  33.058  32.276  1.00  0.00     0.049 A 
ATOM     58  H   UNL A   1      40.398  33.020  34.312  1.00  0.00     0.167 HD
ATOM     59  C   UNL A   1      39.390  33.116  38.557  1.00  0.00     0.031 A 
ATOM     60  C   UNL A   1      42.158  32.800  32.145  1.00  0.00     0.031 A 
ATOM     61  C   UNL A   1      40.781  32.751  38.510  1.00  0.00     0.049 A 
ATOM     62  C   UNL A   1      42.987  32.558  33.377  1.00  0.00     0.074 A 
ATOM     63  C   UNL A   1      41.623  32.436  39.564  1.00  0.00     0.029 A 
ATOM     64  N   UNL A   1      41.537  32.653  37.352  1.00  0.00    -0.354 N 
ATOM     65  N   UNL A   1      42.615  32.555  34.633  1.00  0.00    -0.248 NA
ATOM     66  C   UNL A   1      44.415  32.274  33.170  1.00  0.00     0.031 C 
ATOM     67  C   UNL A   1      42.900  32.193  39.046  1.00  0.00     0.029 A 
ATOM     68  C   UNL A   1      42.841  32.307  37.667  1.00  0.00     0.049 A 
ATOM     69  H   UNL A   1      41.197  32.807  36.441  1.00  0.00     0.167 HD
ATOM     70  C   UNL A   1      43.754  32.241  35.364  1.00  0.00     0.074 A 
ATOM     71  C   UNL A   1      44.827  32.051  34.410  1.00  0.00     0.031 C 
ATOM     72  C   UNL A   1      43.898  32.117  36.707  1.00  0.00     0.031 A 
BRANCH  59  73
ATOM     73  C   UNL A   1      38.741  33.268  39.908  1.00  0.00    -0.014 A 
ATOM     74  C   UNL A   1      38.096  32.186  40.532  1.00  0.00     0.010 A 
ATOM     75  C   UNL A   1      38.820  34.500  40.584  1.00  0.00     0.010 A 
ATOM     76  C   UNL A   1      37.509  32.342  41.791  1.00  0.00     0.020 A 
ATOM     77  C   UNL A   1      38.257  34.653  41.854  1.00  0.00     0.020 A 
ATOM     78  C   UNL A   1      37.589  33.576  42.442  1.00  0.00     0.054 A 
BRANCH  78  79
ATOM     79  S   UNL A   1      36.837  33.747  44.084  1.00  0.00     0.124 S 
ATOM     80  O   UNL A   1      36.668  32.351  44.483  1.00  0.00    -0.237 OA
ATOM     81  O   UNL A   1      37.851  34.492  44.826  1.00  0.00    -0.237 OA
ATOM     82  O   UNL A   1      35.599  34.476  43.825  1.00  0.00    -0.744 OA
ENDBRANCH  78  79
ENDBRANCH  59  73
BRANCH  60  83
ATOM     83  C   UNL A   1      42.775  32.742  30.792  1.00  0.00    -0.014 A 
ATOM     84  C   UNL A   1      43.167  33.924  30.139  1.00  0.00     0.010 A 
ATOM     85  C   UNL A   1      42.975  31.507  30.150  1.00  0.00     0.010 A 
ATOM     86  C   UNL A   1      43.729  33.875  28.860  1.00  0.00     0.020 A 
ATOM     87  C   UNL A   1      43.561  31.451  28.882  1.00  0.00     0.020 A 
ATOM     88  C   UNL A   1      43.922  32.637  28.240  1.00  0.00     0.054 A 
BRANCH  88  89
ATOM     89  S   UNL A   1      44.694  32.591  26.598  1.00  0.00     0.124 S 
ATOM     90  O   UNL A   1      44.241  31.303  26.086  1.00  0.00    -0.237 OA
ATOM     91  O   UNL A   1      44.122  33.767  25.946  1.00  0.00    -0.237 OA
ATOM     92  O   UNL A   1      46.123  32.685  26.891  1.00  0.00    -0.744 OA
ENDBRANCH  88  89
ENDBRANCH  60  83
BRANCH  72  93
ATOM     93  C   UNL A   1      45.254  31.724  37.227  1.00  0.00    -0.014 A 
ATOM     94  C   UNL A   1      45.580  30.378  37.472  1.00  0.00     0.010 A 
ATOM     95  C   UNL A   1      46.236  32.713  37.420  1.00  0.00     0.010 A 
ATOM     96  C   UNL A   1      46.855  30.032  37.926  1.00  0.00     0.020 A 
ATOM     97  C   UNL A   1      47.520  32.369  37.850  1.00  0.00     0.020 A 
ATOM     98  C   UNL A   1      47.817  31.030  38.112  1.00  0.00     0.054 A 
BRANCH  98  99
ATOM     99  S   UNL A   1      49.480  30.551  38.657  1.00  0.00     0.124 S 
ATOM    100  O   UNL A   1      49.633  29.235  38.046  1.00  0.00    -0.237 OA
ATOM    101  O   UNL A   1      50.319  31.607  38.093  1.00  0.00    -0.237 OA
ATOM    102  O   UNL A   1      49.381  30.555  40.114  1.00  0.00    -0.744 OA
ENDBRANCH  98  99
ENDBRANCH  72  93
ENDBRANCH  46  47
ENDBRANCH  38  41
ENDBRANCH  36  37
ENDBRANCH  35  36
ENDBRANCH  34  35
ENDBRANCH   1  34
TORSDOF 20
ENDMDL
