MODEL 1
REMARK VINA RESULT:      -7.4      0.000      0.000
REMARK SMILES CC(C)[C@H](CO)NS(=O)(=O)c1ccc(Cl)c(C(=O)NCCCCCCNC(=O)c2ccc(-c3c4nc(c(-c5ccc(S(=O)(=O)[O-])cc5)c5ccc([nH]5)c(-c5ccc(S(=O)(=O)[O-])cc5)c5nc(c(-c6ccc(S(=O)(=O)[O-])cc6)c6ccc3[nH]6)C=C5)C=C4)cc2)c1
REMARK SMILES IDX 21 1 20 2 19 3 17 4 18 5 16 7 11 8 12 9 89 10 13 11 14 12
REMARK SMILES IDX 15 13 8 14 9 15 10 16 7 17 4 19 2 20 1 21 3 22 5 23 6 24
REMARK SMILES IDX 22 26 23 27 24 28 25 29 26 30 27 31 28 33 29 34 30 35 88 36
REMARK SMILES IDX 31 37 87 38 32 39 33 40 34 41 81 42 35 43 86 44 80 45 82 46
REMARK SMILES IDX 36 47 85 48 79 49 78 50 37 52 67 53 48 54 66 55 49 56 52 57
REMARK SMILES IDX 65 58 83 59 50 60 51 61 64 63 84 64 53 65 38 66 39 67 47 68
REMARK SMILES IDX 40 69 46 70 41 71 42 72 43 73 44 74 45 75 68 76 69 77 77 78
REMARK SMILES IDX 70 79 76 80 71 81 72 82 73 83 74 84 75 85 54 86 55 87 63 88
REMARK SMILES IDX 56 89 62 90 57 91 58 92 59 93 60 94 61 95
REMARK H PARENT 19 6 7 18 6 25 26 32 82 51 52 62
REMARK Flexibility Score: inf
ROOT
ATOM      1  C   UNL A   1      44.112  23.974  27.144  1.00  0.00     0.021 C 
ENDROOT
BRANCH   1   2
ATOM      2  C   UNL A   1      43.590  24.835  26.002  1.00  0.00     0.116 C 
BRANCH   2   3
ATOM      3  N   UNL A   1      44.596  25.334  25.090  1.00  0.00    -0.352 N 
ATOM      4  C   UNL A   1      45.636  26.211  25.293  1.00  0.00     0.252 C 
ATOM      5  O   UNL A   1      46.412  26.397  24.354  1.00  0.00    -0.269 OA
ATOM      6  H   UNL A   1      44.524  24.988  24.171  1.00  0.00     0.163 HD
BRANCH   4   7
ATOM      7  C   UNL A   1      45.790  27.058  26.515  1.00  0.00     0.059 A 
ATOM      8  C   UNL A   1      44.925  29.031  27.679  1.00  0.00     0.083 A 
ATOM      9  C   UNL A   1      45.699  28.740  28.795  1.00  0.00     0.023 A 
ATOM     10  C   UNL A   1      44.952  28.191  26.558  1.00  0.00     0.037 A 
ATOM     11  C   UNL A   1      46.593  27.673  28.731  1.00  0.00     0.023 A 
ATOM     12  C   UNL A   1      46.696  26.885  27.569  1.00  0.00     0.053 A 
ATOM     13  Cl  UNL A   1      48.115  25.906  27.468  1.00  0.00    -0.083 Cl
BRANCH   8  14
ATOM     14  S   UNL A   1      44.015  30.553  27.619  1.00  0.00     0.240 S 
ATOM     15  O   UNL A   1      43.038  30.565  28.675  1.00  0.00    -0.207 OA
ATOM     16  O   UNL A   1      43.618  30.760  26.238  1.00  0.00    -0.207 OA
BRANCH  14  17
ATOM     17  N   UNL A   1      45.178  31.706  27.924  1.00  0.00    -0.206 NA
ATOM     18  H   UNL A   1      45.035  32.433  27.223  1.00  0.00     0.141 HD
BRANCH  17  19
ATOM     19  C   UNL A   1      46.640  31.441  27.933  1.00  0.00     0.098 C 
BRANCH  19  20
ATOM     20  C   UNL A   1      47.305  31.968  29.241  1.00  0.00     0.003 C 
ATOM     21  C   UNL A   1      46.247  32.068  30.354  1.00  0.00     0.009 C 
ATOM     22  C   UNL A   1      48.468  31.142  29.793  1.00  0.00     0.009 C 
ENDBRANCH  19  20
BRANCH  19  23
ATOM     23  C   UNL A   1      47.186  32.012  26.595  1.00  0.00     0.176 C 
BRANCH  23  24
ATOM     24  O   UNL A   1      46.417  33.133  26.145  1.00  0.00    -0.395 OA
ATOM     25  H   UNL A   1      46.931  33.947  26.263  1.00  0.00     0.210 HD
ENDBRANCH  23  24
ENDBRANCH  19  23
ENDBRANCH  17  19
ENDBRANCH  14  17
ENDBRANCH   8  14
ENDBRANCH   4   7
ENDBRANCH   2   3
ENDBRANCH   1   2
BRANCH   1  26
ATOM     26  C   UNL A   1      43.242  22.788  27.572  1.00  0.00     0.002 C 
BRANCH  26  27
ATOM     27  C   UNL A   1      43.051  21.656  26.558  1.00  0.00     0.002 C 
BRANCH  27  28
ATOM     28  C   UNL A   1      41.643  21.467  25.988  1.00  0.00     0.021 C 
BRANCH  28  29
ATOM     29  C   UNL A   1      40.501  22.017  26.834  1.00  0.00     0.116 C 
BRANCH  29  30
ATOM     30  N   UNL A   1      39.411  22.548  26.035  1.00  0.00    -0.352 N 
ATOM     31  C   UNL A   1      38.756  23.751  26.137  1.00  0.00     0.251 C 
ATOM     32  H   UNL A   1      39.094  21.959  25.313  1.00  0.00     0.163 HD
ATOM     33  O   UNL A   1      37.748  23.954  25.467  1.00  0.00    -0.269 OA
BRANCH  31  34
ATOM     34  C   UNL A   1      39.248  24.793  27.067  1.00  0.00     0.039 A 
ATOM     35  C   UNL A   1      40.141  25.757  26.590  1.00  0.00     0.014 A 
ATOM     36  C   UNL A   1      38.846  24.818  28.405  1.00  0.00     0.014 A 
ATOM     37  C   UNL A   1      40.582  26.776  27.437  1.00  0.00     0.010 A 
ATOM     38  C   UNL A   1      39.224  25.877  29.226  1.00  0.00     0.010 A 
ATOM     39  C   UNL A   1      40.102  26.865  28.754  1.00  0.00    -0.014 A 
BRANCH  39  40
ATOM     40  C   UNL A   1      40.508  27.982  29.648  1.00  0.00     0.031 A 
ATOM     41  C   UNL A   1      39.626  29.194  29.797  1.00  0.00     0.074 A 
ATOM     42  C   UNL A   1      41.694  27.930  30.288  1.00  0.00     0.049 A 
ATOM     43  N   UNL A   1      39.832  30.283  30.492  1.00  0.00    -0.248 NA
ATOM     44  C   UNL A   1      38.358  29.191  29.049  1.00  0.00     0.031 C 
ATOM     45  C   UNL A   1      42.656  26.828  30.199  1.00  0.00     0.029 A 
ATOM     46  N   UNL A   1      42.298  28.827  31.134  1.00  0.00    -0.354 N 
ATOM     47  C   UNL A   1      38.731  31.098  30.255  1.00  0.00     0.074 A 
ATOM     48  C   UNL A   1      37.887  30.402  29.310  1.00  0.00     0.031 C 
ATOM     49  C   UNL A   1      43.711  27.100  30.985  1.00  0.00     0.029 A 
ATOM     50  C   UNL A   1      43.526  28.412  31.594  1.00  0.00     0.049 A 
ATOM     51  H   UNL A   1      41.889  29.685  31.389  1.00  0.00     0.167 HD
ATOM     52  C   UNL A   1      38.438  32.308  30.791  1.00  0.00     0.031 A 
ATOM     53  C   UNL A   1      44.412  29.024  32.407  1.00  0.00     0.031 A 
ATOM     54  C   UNL A   1      39.279  32.995  31.736  1.00  0.00     0.049 A 
ATOM     55  C   UNL A   1      44.076  30.379  32.968  1.00  0.00     0.074 A 
ATOM     56  C   UNL A   1      39.046  34.199  32.376  1.00  0.00     0.029 A 
ATOM     57  N   UNL A   1      40.516  32.544  32.172  1.00  0.00    -0.354 N 
ATOM     58  N   UNL A   1      42.997  31.103  32.785  1.00  0.00    -0.248 NA
ATOM     59  C   UNL A   1      45.073  30.997  33.853  1.00  0.00     0.031 C 
ATOM     60  C   UNL A   1      40.170  34.508  33.149  1.00  0.00     0.029 A 
ATOM     61  C   UNL A   1      41.072  33.461  33.048  1.00  0.00     0.049 A 
ATOM     62  H   UNL A   1      40.936  31.696  31.900  1.00  0.00     0.167 HD
ATOM     63  C   UNL A   1      43.173  32.247  33.555  1.00  0.00     0.074 A 
ATOM     64  C   UNL A   1      44.453  32.110  34.219  1.00  0.00     0.031 C 
ATOM     65  C   UNL A   1      42.349  33.314  33.701  1.00  0.00     0.031 A 
BRANCH  52  66
ATOM     66  C   UNL A   1      37.156  32.972  30.359  1.00  0.00    -0.014 A 
ATOM     67  C   UNL A   1      37.095  33.747  29.186  1.00  0.00     0.010 A 
ATOM     68  C   UNL A   1      35.982  32.782  31.112  1.00  0.00     0.010 A 
ATOM     69  C   UNL A   1      35.897  34.354  28.797  1.00  0.00     0.020 A 
ATOM     70  C   UNL A   1      34.774  33.361  30.710  1.00  0.00     0.020 A 
ATOM     71  C   UNL A   1      34.745  34.158  29.564  1.00  0.00     0.054 A 
BRANCH  71  72
ATOM     72  S   UNL A   1      33.200  34.939  29.022  1.00  0.00     0.124 S 
ATOM     73  O   UNL A   1      32.723  33.995  28.014  1.00  0.00    -0.237 OA
ATOM     74  O   UNL A   1      32.417  34.989  30.254  1.00  0.00    -0.237 OA
ATOM     75  O   UNL A   1      33.629  36.236  28.504  1.00  0.00    -0.744 OA
ENDBRANCH  71  72
ENDBRANCH  52  66
BRANCH  53  76
ATOM     76  C   UNL A   1      45.699  28.354  32.743  1.00  0.00    -0.014 A 
ATOM     77  C   UNL A   1      46.900  28.768  32.139  1.00  0.00     0.010 A 
ATOM     78  C   UNL A   1      45.732  27.300  33.674  1.00  0.00     0.010 A 
ATOM     79  C   UNL A   1      48.105  28.127  32.444  1.00  0.00     0.020 A 
ATOM     80  C   UNL A   1      46.939  26.678  34.005  1.00  0.00     0.020 A 
ATOM     81  C   UNL A   1      48.117  27.087  33.378  1.00  0.00     0.054 A 
BRANCH  81  82
ATOM     82  S   UNL A   1      49.698  26.299  33.791  1.00  0.00     0.124 S 
ATOM     83  O   UNL A   1      49.379  24.883  33.648  1.00  0.00    -0.237 OA
ATOM     84  O   UNL A   1      50.597  26.852  32.779  1.00  0.00    -0.237 OA
ATOM     85  O   UNL A   1      49.959  26.749  35.157  1.00  0.00    -0.744 OA
ENDBRANCH  81  82
ENDBRANCH  53  76
BRANCH  65  86
ATOM     86  C   UNL A   1      42.785  34.408  34.641  1.00  0.00    -0.014 A 
ATOM     87  C   UNL A   1      42.498  34.350  36.017  1.00  0.00     0.010 A 
ATOM     88  C   UNL A   1      43.549  35.481  34.146  1.00  0.00     0.010 A 
ATOM     89  C   UNL A   1      42.939  35.362  36.873  1.00  0.00     0.020 A 
ATOM     90  C   UNL A   1      44.021  36.477  35.005  1.00  0.00     0.020 A 
ATOM     91  C   UNL A   1      43.701  36.418  36.362  1.00  0.00     0.054 A 
BRANCH  91  92
ATOM     92  S   UNL A   1      44.304  37.691  37.504  1.00  0.00     0.124 S 
ATOM     93  O   UNL A   1      45.483  37.049  38.081  1.00  0.00    -0.237 OA
ATOM     94  O   UNL A   1      44.574  38.817  36.613  1.00  0.00    -0.237 OA
ATOM     95  O   UNL A   1      43.188  37.887  38.427  1.00  0.00    -0.744 OA
ENDBRANCH  91  92
ENDBRANCH  65  86
ENDBRANCH  39  40
ENDBRANCH  31  34
ENDBRANCH  29  30
ENDBRANCH  28  29
ENDBRANCH  27  28
ENDBRANCH  26  27
ENDBRANCH   1  26
TORSDOF 22
ENDMDL
MODEL 2
REMARK VINA RESULT:      -7.4      5.755     12.401
REMARK SMILES CC(C)[C@H](CO)NS(=O)(=O)c1ccc(Cl)c(C(=O)NCCCCCCNC(=O)c2ccc(-c3c4nc(c(-c5ccc(S(=O)(=O)[O-])cc5)c5ccc([nH]5)c(-c5ccc(S(=O)(=O)[O-])cc5)c5nc(c(-c6ccc(S(=O)(=O)[O-])cc6)c6ccc3[nH]6)C=C5)C=C4)cc2)c1
REMARK SMILES IDX 21 1 20 2 19 3 17 4 18 5 16 7 11 8 12 9 89 10 13 11 14 12
REMARK SMILES IDX 15 13 8 14 9 15 10 16 7 17 4 19 2 20 1 21 3 22 5 23 6 24
REMARK SMILES IDX 22 26 23 27 24 28 25 29 26 30 27 31 28 33 29 34 30 35 88 36
REMARK SMILES IDX 31 37 87 38 32 39 33 40 34 41 81 42 35 43 86 44 80 45 82 46
REMARK SMILES IDX 36 47 85 48 79 49 78 50 37 52 67 53 48 54 66 55 49 56 52 57
REMARK SMILES IDX 65 58 83 59 50 60 51 61 64 63 84 64 53 65 38 66 39 67 47 68
REMARK SMILES IDX 40 69 46 70 41 71 42 72 43 73 44 74 45 75 68 76 69 77 77 78
REMARK SMILES IDX 70 79 76 80 71 81 72 82 73 83 74 84 75 85 54 86 55 87 63 88
REMARK SMILES IDX 56 89 62 90 57 91 58 92 59 93 60 94 61 95
REMARK H PARENT 19 6 7 18 6 25 26 32 82 51 52 62
REMARK Flexibility Score: inf
ROOT
ATOM      1  C   UNL A   1      32.710  30.453  26.731  1.00  0.00     0.021 C 
ENDROOT
BRANCH   1   2
ATOM      2  C   UNL A   1      33.390  29.173  26.263  1.00  0.00     0.116 C 
BRANCH   2   3
ATOM      3  N   UNL A   1      33.679  29.105  24.846  1.00  0.00    -0.352 N 
ATOM      4  C   UNL A   1      32.980  28.522  23.816  1.00  0.00     0.252 C 
ATOM      5  O   UNL A   1      33.408  28.694  22.673  1.00  0.00    -0.269 OA
ATOM      6  H   UNL A   1      34.515  29.549  24.577  1.00  0.00     0.163 HD
BRANCH   4   7
ATOM      7  C   UNL A   1      31.836  27.579  24.008  1.00  0.00     0.059 A 
ATOM      8  C   UNL A   1      31.171  25.456  25.032  1.00  0.00     0.083 A 
ATOM      9  C   UNL A   1      29.840  25.693  24.711  1.00  0.00     0.023 A 
ATOM     10  C   UNL A   1      32.157  26.395  24.704  1.00  0.00     0.037 A 
ATOM     11  C   UNL A   1      29.524  26.816  23.949  1.00  0.00     0.023 A 
ATOM     12  C   UNL A   1      30.526  27.712  23.532  1.00  0.00     0.053 A 
ATOM     13  Cl  UNL A   1      30.068  28.785  22.258  1.00  0.00    -0.083 Cl
BRANCH   8  14
ATOM     14  S   UNL A   1      31.638  23.892  25.725  1.00  0.00     0.240 S 
ATOM     15  O   UNL A   1      30.490  23.024  25.758  1.00  0.00    -0.207 OA
ATOM     16  O   UNL A   1      32.396  24.166  26.932  1.00  0.00    -0.207 OA
BRANCH  14  17
ATOM     17  N   UNL A   1      32.747  23.304  24.629  1.00  0.00    -0.206 NA
ATOM     18  H   UNL A   1      33.270  24.118  24.304  1.00  0.00     0.141 HD
BRANCH  17  19
ATOM     19  C   UNL A   1      32.394  22.540  23.405  1.00  0.00     0.098 C 
BRANCH  19  20
ATOM     20  C   UNL A   1      32.839  21.051  23.516  1.00  0.00     0.003 C 
ATOM     21  C   UNL A   1      32.587  20.541  24.946  1.00  0.00     0.009 C 
ATOM     22  C   UNL A   1      32.166  20.067  22.558  1.00  0.00     0.009 C 
ENDBRANCH  19  20
BRANCH  19  23
ATOM     23  C   UNL A   1      32.970  23.354  22.213  1.00  0.00     0.176 C 
BRANCH  23  24
ATOM     24  O   UNL A   1      34.172  24.042  22.575  1.00  0.00    -0.395 OA
ATOM     25  H   UNL A   1      34.017  24.565  23.377  1.00  0.00     0.210 HD
ENDBRANCH  23  24
ENDBRANCH  19  23
ENDBRANCH  17  19
ENDBRANCH  14  17
ENDBRANCH   8  14
ENDBRANCH   4   7
ENDBRANCH   2   3
ENDBRANCH   1   2
BRANCH   1  26
ATOM     26  C   UNL A   1      33.552  31.419  27.570  1.00  0.00     0.002 C 
BRANCH  26  27
ATOM     27  C   UNL A   1      35.067  31.197  27.585  1.00  0.00     0.002 C 
BRANCH  27  28
ATOM     28  C   UNL A   1      35.929  32.333  28.142  1.00  0.00     0.021 C 
BRANCH  28  29
ATOM     29  C   UNL A   1      37.025  31.923  29.118  1.00  0.00     0.116 C 
BRANCH  29  30
ATOM     30  N   UNL A   1      36.602  30.879  30.036  1.00  0.00    -0.352 N 
ATOM     31  C   UNL A   1      37.233  29.709  30.381  1.00  0.00     0.251 C 
ATOM     32  H   UNL A   1      35.735  31.033  30.475  1.00  0.00     0.163 HD
ATOM     33  O   UNL A   1      36.639  28.873  31.056  1.00  0.00    -0.269 OA
BRANCH  31  34
ATOM     34  C   UNL A   1      38.615  29.442  29.923  1.00  0.00     0.039 A 
ATOM     35  C   UNL A   1      38.891  29.472  28.554  1.00  0.00     0.014 A 
ATOM     36  C   UNL A   1      39.636  29.151  30.833  1.00  0.00     0.014 A 
ATOM     37  C   UNL A   1      40.197  29.269  28.103  1.00  0.00     0.010 A 
ATOM     38  C   UNL A   1      40.950  29.026  30.389  1.00  0.00     0.010 A 
ATOM     39  C   UNL A   1      41.246  29.077  29.017  1.00  0.00    -0.014 A 
BRANCH  39  40
ATOM     40  C   UNL A   1      42.652  28.927  28.558  1.00  0.00     0.031 A 
ATOM     41  C   UNL A   1      43.610  30.084  28.660  1.00  0.00     0.074 A 
ATOM     42  C   UNL A   1      43.054  27.767  28.003  1.00  0.00     0.049 A 
ATOM     43  N   UNL A   1      44.858  30.158  28.271  1.00  0.00    -0.248 NA
ATOM     44  C   UNL A   1      43.093  31.328  29.254  1.00  0.00     0.031 C 
ATOM     45  C   UNL A   1      42.213  26.581  27.814  1.00  0.00     0.029 A 
ATOM     46  N   UNL A   1      44.271  27.392  27.488  1.00  0.00    -0.354 N 
ATOM     47  C   UNL A   1      45.269  31.455  28.560  1.00  0.00     0.074 A 
ATOM     48  C   UNL A   1      44.124  32.148  29.105  1.00  0.00     0.031 C 
ATOM     49  C   UNL A   1      42.947  25.604  27.256  1.00  0.00     0.029 A 
ATOM     50  C   UNL A   1      44.294  26.105  27.003  1.00  0.00     0.049 A 
ATOM     51  H   UNL A   1      45.054  27.988  27.469  1.00  0.00     0.167 HD
ATOM     52  C   UNL A   1      46.494  32.012  28.405  1.00  0.00     0.031 A 
ATOM     53  C   UNL A   1      45.284  25.406  26.411  1.00  0.00     0.031 A 
ATOM     54  C   UNL A   1      47.633  31.316  27.867  1.00  0.00     0.049 A 
ATOM     55  C   UNL A   1      46.628  26.057  26.225  1.00  0.00     0.074 A 
ATOM     56  C   UNL A   1      48.930  31.776  27.718  1.00  0.00     0.029 A 
ATOM     57  N   UNL A   1      47.613  30.016  27.384  1.00  0.00    -0.354 N 
ATOM     58  N   UNL A   1      47.015  27.262  26.568  1.00  0.00    -0.248 NA
ATOM     59  C   UNL A   1      47.673  25.248  25.580  1.00  0.00     0.031 C 
ATOM     60  C   UNL A   1      49.678  30.779  27.086  1.00  0.00     0.029 A 
ATOM     61  C   UNL A   1      48.867  29.670  26.907  1.00  0.00     0.049 A 
ATOM     62  H   UNL A   1      46.825  29.426  27.381  1.00  0.00     0.167 HD
ATOM     63  C   UNL A   1      48.356  27.346  26.208  1.00  0.00     0.074 A 
ATOM     64  C   UNL A   1      48.716  26.065  25.637  1.00  0.00     0.031 C 
ATOM     65  C   UNL A   1      49.212  28.390  26.339  1.00  0.00     0.031 A 
BRANCH  52  66
ATOM     66  C   UNL A   1      46.664  33.453  28.815  1.00  0.00    -0.014 A 
ATOM     67  C   UNL A   1      46.508  34.499  27.887  1.00  0.00     0.010 A 
ATOM     68  C   UNL A   1      46.938  33.769  30.159  1.00  0.00     0.010 A 
ATOM     69  C   UNL A   1      46.666  35.830  28.284  1.00  0.00     0.020 A 
ATOM     70  C   UNL A   1      47.066  35.101  30.567  1.00  0.00     0.020 A 
ATOM     71  C   UNL A   1      46.946  36.121  29.623  1.00  0.00     0.054 A 
BRANCH  71  72
ATOM     72  S   UNL A   1      47.122  37.858  30.113  1.00  0.00     0.124 S 
ATOM     73  O   UNL A   1      48.318  37.815  30.950  1.00  0.00    -0.237 OA
ATOM     74  O   UNL A   1      47.279  38.538  28.830  1.00  0.00    -0.237 OA
ATOM     75  O   UNL A   1      45.878  38.148  30.822  1.00  0.00    -0.744 OA
ENDBRANCH  71  72
ENDBRANCH  52  66
BRANCH  53  76
ATOM     76  C   UNL A   1      45.041  24.009  25.956  1.00  0.00    -0.014 A 
ATOM     77  C   UNL A   1      45.336  22.921  26.797  1.00  0.00     0.010 A 
ATOM     78  C   UNL A   1      44.507  23.759  24.679  1.00  0.00     0.010 A 
ATOM     79  C   UNL A   1      45.122  21.610  26.361  1.00  0.00     0.020 A 
ATOM     80  C   UNL A   1      44.263  22.451  24.251  1.00  0.00     0.020 A 
ATOM     81  C   UNL A   1      44.584  21.382  25.091  1.00  0.00     0.054 A 
BRANCH  81  82
ATOM     82  S   UNL A   1      44.274  19.674  24.564  1.00  0.00     0.124 S 
ATOM     83  O   UNL A   1      44.526  19.749  23.129  1.00  0.00    -0.237 OA
ATOM     84  O   UNL A   1      45.257  18.924  25.342  1.00  0.00    -0.237 OA
ATOM     85  O   UNL A   1      42.882  19.445  24.946  1.00  0.00    -0.744 OA
ENDBRANCH  81  82
ENDBRANCH  53  76
BRANCH  65  86
ATOM     86  C   UNL A   1      50.636  28.184  25.890  1.00  0.00    -0.014 A 
ATOM     87  C   UNL A   1      51.620  27.702  26.771  1.00  0.00     0.010 A 
ATOM     88  C   UNL A   1      50.977  28.420  24.546  1.00  0.00     0.010 A 
ATOM     89  C   UNL A   1      52.926  27.490  26.323  1.00  0.00     0.020 A 
ATOM     90  C   UNL A   1      52.274  28.178  24.086  1.00  0.00     0.020 A 
ATOM     91  C   UNL A   1      53.244  27.728  24.982  1.00  0.00     0.054 A 
BRANCH  91  92
ATOM     92  S   UNL A   1      54.935  27.397  24.416  1.00  0.00     0.124 S 
ATOM     93  O   UNL A   1      54.727  26.323  23.447  1.00  0.00    -0.237 OA
ATOM     94  O   UNL A   1      55.340  28.682  23.851  1.00  0.00    -0.237 OA
ATOM     95  O   UNL A   1      55.641  27.007  25.634  1.00  0.00    -0.744 OA
ENDBRANCH  91  92
ENDBRANCH  65  86
ENDBRANCH  39  40
ENDBRANCH  31  34
ENDBRANCH  29  30
ENDBRANCH  28  29
ENDBRANCH  27  28
ENDBRANCH  26  27
ENDBRANCH   1  26
TORSDOF 22
ENDMDL
MODEL 3
REMARK VINA RESULT:      -6.9      3.165      9.532
REMARK SMILES CC(C)[C@H](CO)NS(=O)(=O)c1ccc(Cl)c(C(=O)NCCCCCCNC(=O)c2ccc(-c3c4nc(c(-c5ccc(S(=O)(=O)[O-])cc5)c5ccc([nH]5)c(-c5ccc(S(=O)(=O)[O-])cc5)c5nc(c(-c6ccc(S(=O)(=O)[O-])cc6)c6ccc3[nH]6)C=C5)C=C4)cc2)c1
REMARK SMILES IDX 21 1 20 2 19 3 17 4 18 5 16 7 11 8 12 9 89 10 13 11 14 12
REMARK SMILES IDX 15 13 8 14 9 15 10 16 7 17 4 19 2 20 1 21 3 22 5 23 6 24
REMARK SMILES IDX 22 26 23 27 24 28 25 29 26 30 27 31 28 33 29 34 30 35 88 36
REMARK SMILES IDX 31 37 87 38 32 39 33 40 34 41 81 42 35 43 86 44 80 45 82 46
REMARK SMILES IDX 36 47 85 48 79 49 78 50 37 52 67 53 48 54 66 55 49 56 52 57
REMARK SMILES IDX 65 58 83 59 50 60 51 61 64 63 84 64 53 65 38 66 39 67 47 68
REMARK SMILES IDX 40 69 46 70 41 71 42 72 43 73 44 74 45 75 68 76 69 77 77 78
REMARK SMILES IDX 70 79 76 80 71 81 72 82 73 83 74 84 75 85 54 86 55 87 63 88
REMARK SMILES IDX 56 89 62 90 57 91 58 92 59 93 60 94 61 95
REMARK H PARENT 19 6 7 18 6 25 26 32 82 51 52 62
REMARK Flexibility Score: inf
ROOT
ATOM      1  C   UNL A   1      44.345  30.080  27.170  1.00  0.00     0.021 C 
ENDROOT
BRANCH   1   2
ATOM      2  C   UNL A   1      45.807  29.821  26.830  1.00  0.00     0.116 C 
BRANCH   2   3
ATOM      3  N   UNL A   1      46.065  29.409  25.467  1.00  0.00    -0.352 N 
ATOM      4  C   UNL A   1      46.385  28.176  24.948  1.00  0.00     0.252 C 
ATOM      5  O   UNL A   1      46.461  28.081  23.721  1.00  0.00    -0.269 OA
ATOM      6  H   UNL A   1      46.000  30.131  24.801  1.00  0.00     0.163 HD
BRANCH   4   7
ATOM      7  C   UNL A   1      46.790  26.999  25.774  1.00  0.00     0.059 A 
ATOM      8  C   UNL A   1      45.954  25.000  26.916  1.00  0.00     0.083 A 
ATOM      9  C   UNL A   1      47.253  24.581  27.179  1.00  0.00     0.023 A 
ATOM     10  C   UNL A   1      45.722  26.184  26.205  1.00  0.00     0.037 A 
ATOM     11  C   UNL A   1      48.311  25.420  26.835  1.00  0.00     0.023 A 
ATOM     12  C   UNL A   1      48.077  26.658  26.208  1.00  0.00     0.053 A 
ATOM     13  Cl  UNL A   1      49.406  27.761  26.241  1.00  0.00    -0.083 Cl
BRANCH   8  14
ATOM     14  S   UNL A   1      44.589  24.108  27.615  1.00  0.00     0.240 S 
ATOM     15  O   UNL A   1      43.547  25.036  27.969  1.00  0.00    -0.207 OA
ATOM     16  O   UNL A   1      45.134  23.193  28.601  1.00  0.00    -0.207 OA
BRANCH  14  17
ATOM     17  N   UNL A   1      44.074  23.148  26.355  1.00  0.00    -0.206 NA
ATOM     18  H   UNL A   1      43.055  23.187  26.378  1.00  0.00     0.141 HD
BRANCH  17  19
ATOM     19  C   UNL A   1      44.416  21.710  26.201  1.00  0.00     0.098 C 
BRANCH  19  20
ATOM     20  C   UNL A   1      45.541  21.504  25.142  1.00  0.00     0.003 C 
ATOM     21  C   UNL A   1      45.332  20.159  24.422  1.00  0.00     0.009 C 
ATOM     22  C   UNL A   1      45.664  22.581  24.064  1.00  0.00     0.009 C 
ENDBRANCH  19  20
BRANCH  19  23
ATOM     23  C   UNL A   1      43.071  20.977  25.943  1.00  0.00     0.176 C 
BRANCH  23  24
ATOM     24  O   UNL A   1      42.823  19.965  26.925  1.00  0.00    -0.395 OA
ATOM     25  H   UNL A   1      42.478  19.169  26.490  1.00  0.00     0.210 HD
ENDBRANCH  23  24
ENDBRANCH  19  23
ENDBRANCH  17  19
ENDBRANCH  14  17
ENDBRANCH   8  14
ENDBRANCH   4   7
ENDBRANCH   2   3
ENDBRANCH   1   2
BRANCH   1  26
ATOM     26  C   UNL A   1      43.359  28.937  26.906  1.00  0.00     0.002 C 
BRANCH  26  27
ATOM     27  C   UNL A   1      42.044  29.293  26.205  1.00  0.00     0.002 C 
BRANCH  27  28
ATOM     28  C   UNL A   1      41.081  28.140  25.911  1.00  0.00     0.021 C 
BRANCH  28  29
ATOM     29  C   UNL A   1      41.572  26.748  26.290  1.00  0.00     0.116 C 
BRANCH  29  30
ATOM     30  N   UNL A   1      40.488  25.795  26.463  1.00  0.00    -0.352 N 
ATOM     31  C   UNL A   1      39.730  25.526  27.576  1.00  0.00     0.251 C 
ATOM     32  H   UNL A   1      40.266  25.264  25.665  1.00  0.00     0.163 HD
ATOM     33  O   UNL A   1      38.962  24.568  27.572  1.00  0.00    -0.269 OA
BRANCH  31  34
ATOM     34  C   UNL A   1      39.849  26.372  28.785  1.00  0.00     0.039 A 
ATOM     35  C   UNL A   1      41.020  27.110  28.979  1.00  0.00     0.014 A 
ATOM     36  C   UNL A   1      38.823  26.431  29.731  1.00  0.00     0.014 A 
ATOM     37  C   UNL A   1      41.135  27.950  30.089  1.00  0.00     0.010 A 
ATOM     38  C   UNL A   1      38.907  27.327  30.795  1.00  0.00     0.010 A 
ATOM     39  C   UNL A   1      40.067  28.092  30.991  1.00  0.00    -0.014 A 
BRANCH  39  40
ATOM     40  C   UNL A   1      40.148  29.033  32.139  1.00  0.00     0.031 A 
ATOM     41  C   UNL A   1      41.227  28.874  33.176  1.00  0.00     0.074 A 
ATOM     42  C   UNL A   1      39.219  30.001  32.277  1.00  0.00     0.049 A 
ATOM     43  N   UNL A   1      41.430  29.566  34.268  1.00  0.00    -0.248 NA
ATOM     44  C   UNL A   1      42.191  27.779  32.973  1.00  0.00     0.031 C 
ATOM     45  C   UNL A   1      38.101  30.239  31.360  1.00  0.00     0.029 A 
ATOM     46  N   UNL A   1      39.061  30.962  33.245  1.00  0.00    -0.354 N 
ATOM     47  C   UNL A   1      42.532  28.985  34.887  1.00  0.00     0.074 A 
ATOM     48  C   UNL A   1      42.919  27.851  34.078  1.00  0.00     0.031 C 
ATOM     49  C   UNL A   1      37.394  31.296  31.791  1.00  0.00     0.029 A 
ATOM     50  C   UNL A   1      37.977  31.783  33.038  1.00  0.00     0.049 A 
ATOM     51  H   UNL A   1      39.669  31.057  34.013  1.00  0.00     0.167 HD
ATOM     52  C   UNL A   1      43.176  29.371  36.014  1.00  0.00     0.031 A 
ATOM     53  C   UNL A   1      37.496  32.806  33.773  1.00  0.00     0.031 A 
ATOM     54  C   UNL A   1      42.789  30.505  36.814  1.00  0.00     0.049 A 
ATOM     55  C   UNL A   1      38.212  33.199  35.037  1.00  0.00     0.074 A 
ATOM     56  C   UNL A   1      43.408  31.009  37.944  1.00  0.00     0.029 A 
ATOM     57  N   UNL A   1      41.683  31.305  36.573  1.00  0.00    -0.354 N 
ATOM     58  N   UNL A   1      39.293  32.678  35.568  1.00  0.00    -0.248 NA
ATOM     59  C   UNL A   1      37.649  34.324  35.796  1.00  0.00     0.031 C 
ATOM     60  C   UNL A   1      42.639  32.074  38.424  1.00  0.00     0.029 A 
ATOM     61  C   UNL A   1      41.583  32.280  37.551  1.00  0.00     0.049 A 
ATOM     62  H   UNL A   1      41.061  31.198  35.817  1.00  0.00     0.167 HD
ATOM     63  C   UNL A   1      39.556  33.432  36.706  1.00  0.00     0.074 A 
ATOM     64  C   UNL A   1      38.532  34.453  36.777  1.00  0.00     0.031 C 
ATOM     65  C   UNL A   1      40.557  33.292  37.611  1.00  0.00     0.031 A 
BRANCH  52  66
ATOM     66  C   UNL A   1      44.362  28.555  36.458  1.00  0.00    -0.014 A 
ATOM     67  C   UNL A   1      45.678  28.969  36.181  1.00  0.00     0.010 A 
ATOM     68  C   UNL A   1      44.161  27.378  37.204  1.00  0.00     0.010 A 
ATOM     69  C   UNL A   1      46.768  28.202  36.603  1.00  0.00     0.020 A 
ATOM     70  C   UNL A   1      45.250  26.624  37.655  1.00  0.00     0.020 A 
ATOM     71  C   UNL A   1      46.545  27.033  37.336  1.00  0.00     0.054 A 
BRANCH  71  72
ATOM     72  S   UNL A   1      47.980  26.071  37.889  1.00  0.00     0.124 S 
ATOM     73  O   UNL A   1      47.766  24.795  37.211  1.00  0.00    -0.237 OA
ATOM     74  O   UNL A   1      49.104  26.862  37.397  1.00  0.00    -0.237 OA
ATOM     75  O   UNL A   1      47.834  26.033  39.342  1.00  0.00    -0.744 OA
ENDBRANCH  71  72
ENDBRANCH  52  66
BRANCH  53  76
ATOM     76  C   UNL A   1      36.275  33.533  33.328  1.00  0.00    -0.014 A 
ATOM     77  C   UNL A   1      36.380  34.704  32.556  1.00  0.00     0.010 A 
ATOM     78  C   UNL A   1      34.997  33.056  33.671  1.00  0.00     0.010 A 
ATOM     79  C   UNL A   1      35.232  35.394  32.154  1.00  0.00     0.020 A 
ATOM     80  C   UNL A   1      33.846  33.725  33.245  1.00  0.00     0.020 A 
ATOM     81  C   UNL A   1      33.971  34.898  32.498  1.00  0.00     0.054 A 
BRANCH  81  82
ATOM     82  S   UNL A   1      32.496  35.787  31.929  1.00  0.00     0.124 S 
ATOM     83  O   UNL A   1      32.537  35.552  30.489  1.00  0.00    -0.237 OA
ATOM     84  O   UNL A   1      31.423  35.107  32.651  1.00  0.00    -0.237 OA
ATOM     85  O   UNL A   1      32.743  37.165  32.348  1.00  0.00    -0.744 OA
ENDBRANCH  81  82
ENDBRANCH  53  76
BRANCH  65  86
ATOM     86  C   UNL A   1      40.618  34.286  38.742  1.00  0.00    -0.014 A 
ATOM     87  C   UNL A   1      41.302  35.508  38.607  1.00  0.00     0.010 A 
ATOM     88  C   UNL A   1      39.927  34.018  39.937  1.00  0.00     0.010 A 
ATOM     89  C   UNL A   1      41.319  36.427  39.658  1.00  0.00     0.020 A 
ATOM     90  C   UNL A   1      39.914  34.949  40.979  1.00  0.00     0.020 A 
ATOM     91  C   UNL A   1      40.623  36.143  40.837  1.00  0.00     0.054 A 
BRANCH  91  92
ATOM     92  S   UNL A   1      40.620  37.376  42.167  1.00  0.00     0.124 S 
ATOM     93  O   UNL A   1      39.453  38.187  41.828  1.00  0.00    -0.237 OA
ATOM     94  O   UNL A   1      40.485  36.552  43.366  1.00  0.00    -0.237 OA
ATOM     95  O   UNL A   1      41.908  38.048  42.022  1.00  0.00    -0.744 OA
ENDBRANCH  91  92
ENDBRANCH  65  86
ENDBRANCH  39  40
ENDBRANCH  31  34
ENDBRANCH  29  30
ENDBRANCH  28  29
ENDBRANCH  27  28
ENDBRANCH  26  27
ENDBRANCH   1  26
TORSDOF 22
ENDMDL
