MODEL 1
REMARK VINA RESULT:      -9.1      0.000      0.000
REMARK SMILES C[N@H+](CCC(=O)Nc1sccc1C#N)CC(=O)NCCCCCCNC(=O)c1ccc(-c2c3nc(c(-c4ccc(S(=O)(=O)[O-])cc4)c4ccc([nH]4)c(-c4ccc(S(=O)(=O)[O-])cc4)c4nc(c(-c5ccc(S(=O)(=O)[O-])cc5)c5ccc2[nH]5)C=C4)C=C3)cc1
REMARK SMILES IDX 20 1 19 2 18 3 16 4 17 5 15 7 2 8 1 9 3 11 4 12 5 13 6 14
REMARK SMILES IDX 7 15 8 17 9 18 12 19 10 20 11 21 13 22 14 23 21 24 22 25
REMARK SMILES IDX 23 26 24 27 25 28 26 29 27 31 28 32 29 33 87 34 30 35 86 36
REMARK SMILES IDX 31 37 32 38 33 39 80 40 34 41 85 42 79 43 81 44 35 45 84 46
REMARK SMILES IDX 78 47 77 48 36 50 66 51 47 52 65 53 48 54 51 55 64 56 82 57
REMARK SMILES IDX 49 58 50 59 63 61 83 62 52 63 37 64 38 65 46 66 39 67 45 68
REMARK SMILES IDX 40 69 41 70 42 71 43 72 44 73 67 74 68 75 76 76 69 77 75 78
REMARK SMILES IDX 70 79 71 80 72 81 73 82 74 83 53 84 54 85 62 86 55 87 61 88
REMARK SMILES IDX 56 89 57 90 58 91 59 92 60 93
REMARK H PARENT 18 6 2 10 7 16 25 30 81 49 51 60
REMARK Flexibility Score: inf
ROOT
ATOM      1  C   UNL A   1      40.403  21.396  26.967  1.00  0.00     0.021 C 
ENDROOT
BRANCH   1   2
ATOM      2  C   UNL A   1      39.358  22.442  26.606  1.00  0.00     0.116 C 
BRANCH   2   3
ATOM      3  N   UNL A   1      38.626  22.116  25.399  1.00  0.00    -0.351 N 
ATOM      4  C   UNL A   1      37.366  21.745  25.088  1.00  0.00     0.275 C 
ATOM      5  O   UNL A   1      37.182  21.513  23.882  1.00  0.00    -0.269 OA
ATOM      6  H   UNL A   1      39.195  22.181  24.598  1.00  0.00     0.163 HD
BRANCH   4   7
ATOM      7  C   UNL A   1      36.144  21.783  25.991  1.00  0.00     0.363 C 
BRANCH   7   8
ATOM      8  N   UNL A   1      35.648  23.067  26.502  1.00  0.00    -0.329 N 
ATOM      9  C   UNL A   1      34.407  22.800  27.273  1.00  0.00     0.333 C 
ATOM     10  H   UNL A   1      36.379  23.485  27.077  1.00  0.00     0.348 HD
BRANCH   8  11
ATOM     11  C   UNL A   1      35.325  24.025  25.410  1.00  0.00     0.272 C 
BRANCH  11  12
ATOM     12  C   UNL A   1      34.354  25.193  25.672  1.00  0.00     0.161 C 
BRANCH  12  13
ATOM     13  C   UNL A   1      33.016  25.570  24.984  1.00  0.00     0.230 C 
ATOM     14  O   UNL A   1      32.721  26.777  24.951  1.00  0.00    -0.274 OA
ATOM     15  N   UNL A   1      32.138  24.764  24.333  1.00  0.00    -0.316 N 
ATOM     16  H   UNL A   1      31.526  25.230  23.719  1.00  0.00     0.170 HD
BRANCH  15  17
ATOM     17  C   UNL A   1      31.968  23.408  24.392  1.00  0.00     0.113 A 
ATOM     18  S   UNL A   1      32.559  22.575  23.018  1.00  0.00    -0.125 S 
ATOM     19  C   UNL A   1      31.444  22.552  25.326  1.00  0.00     0.087 A 
ATOM     20  C   UNL A   1      32.557  21.093  23.885  1.00  0.00     0.068 A 
ATOM     21  C   UNL A   1      31.858  21.207  25.071  1.00  0.00     0.033 A 
BRANCH  19  22
ATOM     22  C   UNL A   1      30.628  22.984  26.410  1.00  0.00     0.102 C 
ATOM     23  N   UNL A   1      29.941  23.305  27.295  1.00  0.00    -0.192 NA
ENDBRANCH  19  22
ENDBRANCH  15  17
ENDBRANCH  12  13
ENDBRANCH  11  12
ENDBRANCH   8  11
ENDBRANCH   7   8
ENDBRANCH   4   7
ENDBRANCH   2   3
ENDBRANCH   1   2
BRANCH   1  24
ATOM     24  C   UNL A   1      41.329  21.929  28.060  1.00  0.00     0.002 C 
BRANCH  24  25
ATOM     25  C   UNL A   1      42.345  22.962  27.546  1.00  0.00     0.002 C 
BRANCH  25  26
ATOM     26  C   UNL A   1      42.542  24.171  28.466  1.00  0.00     0.021 C 
BRANCH  26  27
ATOM     27  C   UNL A   1      42.620  25.492  27.711  1.00  0.00     0.116 C 
BRANCH  27  28
ATOM     28  N   UNL A   1      41.486  25.623  26.802  1.00  0.00    -0.352 N 
ATOM     29  C   UNL A   1      40.223  26.062  27.096  1.00  0.00     0.251 C 
ATOM     30  H   UNL A   1      41.648  25.364  25.866  1.00  0.00     0.163 HD
ATOM     31  O   UNL A   1      39.265  25.757  26.398  1.00  0.00    -0.269 OA
BRANCH  29  32
ATOM     32  C   UNL A   1      40.065  26.928  28.275  1.00  0.00     0.039 A 
ATOM     33  C   UNL A   1      39.353  26.466  29.379  1.00  0.00     0.014 A 
ATOM     34  C   UNL A   1      40.689  28.180  28.283  1.00  0.00     0.014 A 
ATOM     35  C   UNL A   1      39.311  27.254  30.526  1.00  0.00     0.010 A 
ATOM     36  C   UNL A   1      40.713  28.923  29.452  1.00  0.00     0.010 A 
ATOM     37  C   UNL A   1      40.021  28.468  30.582  1.00  0.00    -0.014 A 
BRANCH  37  38
ATOM     38  C   UNL A   1      40.073  29.258  31.831  1.00  0.00     0.031 A 
ATOM     39  C   UNL A   1      39.028  30.301  32.105  1.00  0.00     0.074 A 
ATOM     40  C   UNL A   1      41.101  29.065  32.683  1.00  0.00     0.049 A 
ATOM     41  N   UNL A   1      38.925  31.105  33.130  1.00  0.00    -0.248 NA
ATOM     42  C   UNL A   1      37.970  30.481  31.094  1.00  0.00     0.031 C 
ATOM     43  C   UNL A   1      42.197  28.111  32.484  1.00  0.00     0.029 A 
ATOM     44  N   UNL A   1      41.394  29.660  33.882  1.00  0.00    -0.354 N 
ATOM     45  C   UNL A   1      37.807  31.892  32.882  1.00  0.00     0.074 A 
ATOM     46  C   UNL A   1      37.285  31.500  31.593  1.00  0.00     0.031 C 
ATOM     47  C   UNL A   1      43.023  28.164  33.541  1.00  0.00     0.029 A 
ATOM     48  C   UNL A   1      42.550  29.190  34.462  1.00  0.00     0.049 A 
ATOM     49  H   UNL A   1      40.831  30.357  34.290  1.00  0.00     0.167 HD
ATOM     50  C   UNL A   1      37.261  32.845  33.670  1.00  0.00     0.031 A 
ATOM     51  C   UNL A   1      43.169  29.561  35.599  1.00  0.00     0.031 A 
ATOM     52  C   UNL A   1      37.786  33.217  34.957  1.00  0.00     0.049 A 
ATOM     53  C   UNL A   1      42.547  30.645  36.438  1.00  0.00     0.074 A 
ATOM     54  C   UNL A   1      37.263  34.120  35.866  1.00  0.00     0.029 A 
ATOM     55  N   UNL A   1      38.957  32.722  35.511  1.00  0.00    -0.354 N 
ATOM     56  N   UNL A   1      41.427  31.298  36.241  1.00  0.00    -0.248 NA
ATOM     57  C   UNL A   1      43.267  31.037  37.657  1.00  0.00     0.031 C 
ATOM     58  C   UNL A   1      38.159  34.234  36.930  1.00  0.00     0.029 A 
ATOM     59  C   UNL A   1      39.199  33.340  36.725  1.00  0.00     0.049 A 
ATOM     60  H   UNL A   1      39.529  32.034  35.102  1.00  0.00     0.167 HD
ATOM     61  C   UNL A   1      41.299  32.164  37.321  1.00  0.00     0.074 A 
ATOM     62  C   UNL A   1      42.436  31.924  38.185  1.00  0.00     0.031 C 
ATOM     63  C   UNL A   1      40.337  33.084  37.572  1.00  0.00     0.031 A 
BRANCH  50  64
ATOM     64  C   UNL A   1      36.041  33.575  33.173  1.00  0.00    -0.014 A 
ATOM     65  C   UNL A   1      34.746  33.099  33.440  1.00  0.00     0.010 A 
ATOM     66  C   UNL A   1      36.197  34.817  32.530  1.00  0.00     0.010 A 
ATOM     67  C   UNL A   1      33.628  33.854  33.073  1.00  0.00     0.020 A 
ATOM     68  C   UNL A   1      35.083  35.586  32.187  1.00  0.00     0.020 A 
ATOM     69  C   UNL A   1      33.805  35.098  32.460  1.00  0.00     0.054 A 
BRANCH  69  70
ATOM     70  S   UNL A   1      32.337  36.095  32.082  1.00  0.00     0.124 S 
ATOM     71  O   UNL A   1      32.651  37.360  32.741  1.00  0.00    -0.237 OA
ATOM     72  O   UNL A   1      32.343  36.128  30.622  1.00  0.00    -0.237 OA
ATOM     73  O   UNL A   1      31.239  35.339  32.682  1.00  0.00    -0.744 OA
ENDBRANCH  69  70
ENDBRANCH  50  64
BRANCH  51  74
ATOM     74  C   UNL A   1      44.464  28.938  35.994  1.00  0.00    -0.014 A 
ATOM     75  C   UNL A   1      45.690  29.526  35.635  1.00  0.00     0.010 A 
ATOM     76  C   UNL A   1      44.475  27.719  36.698  1.00  0.00     0.010 A 
ATOM     77  C   UNL A   1      46.897  28.883  35.925  1.00  0.00     0.020 A 
ATOM     78  C   UNL A   1      45.680  27.095  37.027  1.00  0.00     0.020 A 
ATOM     79  C   UNL A   1      46.883  27.668  36.616  1.00  0.00     0.054 A 
BRANCH  79  80
ATOM     80  S   UNL A   1      48.460  26.847  36.973  1.00  0.00     0.124 S 
ATOM     81  O   UNL A   1      49.427  27.877  36.612  1.00  0.00    -0.237 OA
ATOM     82  O   UNL A   1      48.345  26.557  38.401  1.00  0.00    -0.237 OA
ATOM     83  O   UNL A   1      48.439  25.673  36.103  1.00  0.00    -0.744 OA
ENDBRANCH  79  80
ENDBRANCH  51  74
BRANCH  63  84
ATOM     84  C   UNL A   1      40.457  33.885  38.842  1.00  0.00    -0.014 A 
ATOM     85  C   UNL A   1      39.922  33.411  40.053  1.00  0.00     0.010 A 
ATOM     86  C   UNL A   1      41.169  35.099  38.836  1.00  0.00     0.010 A 
ATOM     87  C   UNL A   1      40.069  34.153  41.227  1.00  0.00     0.020 A 
ATOM     88  C   UNL A   1      41.350  35.824  40.014  1.00  0.00     0.020 A 
ATOM     89  C   UNL A   1      40.787  35.352  41.201  1.00  0.00     0.054 A 
BRANCH  89  90
ATOM     90  S   UNL A   1      41.007  36.264  42.751  1.00  0.00     0.124 S 
ATOM     91  O   UNL A   1      41.563  35.241  43.632  1.00  0.00    -0.237 OA
ATOM     92  O   UNL A   1      41.928  37.330  42.366  1.00  0.00    -0.237 OA
ATOM     93  O   UNL A   1      39.656  36.707  43.089  1.00  0.00    -0.744 OA
ENDBRANCH  89  90
ENDBRANCH  63  84
ENDBRANCH  37  38
ENDBRANCH  29  32
ENDBRANCH  27  28
ENDBRANCH  26  27
ENDBRANCH  25  26
ENDBRANCH  24  25
ENDBRANCH   1  24
TORSDOF 22
ENDMDL
MODEL 2
REMARK VINA RESULT:      -8.9      1.851      2.665
REMARK SMILES C[N@H+](CCC(=O)Nc1sccc1C#N)CC(=O)NCCCCCCNC(=O)c1ccc(-c2c3nc(c(-c4ccc(S(=O)(=O)[O-])cc4)c4ccc([nH]4)c(-c4ccc(S(=O)(=O)[O-])cc4)c4nc(c(-c5ccc(S(=O)(=O)[O-])cc5)c5ccc2[nH]5)C=C4)C=C3)cc1
REMARK SMILES IDX 20 1 19 2 18 3 16 4 17 5 15 7 2 8 1 9 3 11 4 12 5 13 6 14
REMARK SMILES IDX 7 15 8 17 9 18 12 19 10 20 11 21 13 22 14 23 21 24 22 25
REMARK SMILES IDX 23 26 24 27 25 28 26 29 27 31 28 32 29 33 87 34 30 35 86 36
REMARK SMILES IDX 31 37 32 38 33 39 80 40 34 41 85 42 79 43 81 44 35 45 84 46
REMARK SMILES IDX 78 47 77 48 36 50 66 51 47 52 65 53 48 54 51 55 64 56 82 57
REMARK SMILES IDX 49 58 50 59 63 61 83 62 52 63 37 64 38 65 46 66 39 67 45 68
REMARK SMILES IDX 40 69 41 70 42 71 43 72 44 73 67 74 68 75 76 76 69 77 75 78
REMARK SMILES IDX 70 79 71 80 72 81 73 82 74 83 53 84 54 85 62 86 55 87 61 88
REMARK SMILES IDX 56 89 57 90 58 91 59 92 60 93
REMARK H PARENT 18 6 2 10 7 16 25 30 81 49 51 60
REMARK Flexibility Score: inf
ROOT
ATOM      1  C   UNL A   1      39.537  21.861  26.239  1.00  0.00     0.021 C 
ENDROOT
BRANCH   1   2
ATOM      2  C   UNL A   1      38.624  23.065  26.056  1.00  0.00     0.116 C 
BRANCH   2   3
ATOM      3  N   UNL A   1      37.874  23.023  24.817  1.00  0.00    -0.351 N 
ATOM      4  C   UNL A   1      36.743  22.432  24.377  1.00  0.00     0.275 C 
ATOM      5  O   UNL A   1      36.488  22.640  23.180  1.00  0.00    -0.269 OA
ATOM      6  H   UNL A   1      38.301  23.563  24.114  1.00  0.00     0.163 HD
BRANCH   4   7
ATOM      7  C   UNL A   1      35.678  21.741  25.214  1.00  0.00     0.363 C 
BRANCH   7   8
ATOM      8  N   UNL A   1      35.206  22.359  26.458  1.00  0.00    -0.329 N 
ATOM      9  C   UNL A   1      34.086  21.535  26.979  1.00  0.00     0.333 C 
ATOM     10  H   UNL A   1      35.990  22.404  27.110  1.00  0.00     0.348 HD
BRANCH   8  11
ATOM     11  C   UNL A   1      34.710  23.747  26.250  1.00  0.00     0.272 C 
BRANCH  11  12
ATOM     12  C   UNL A   1      33.211  24.063  26.418  1.00  0.00     0.161 C 
BRANCH  12  13
ATOM     13  C   UNL A   1      32.087  24.226  25.364  1.00  0.00     0.230 C 
ATOM     14  O   UNL A   1      31.388  23.226  25.127  1.00  0.00    -0.274 OA
ATOM     15  N   UNL A   1      31.697  25.347  24.703  1.00  0.00    -0.316 N 
ATOM     16  H   UNL A   1      30.791  25.307  24.320  1.00  0.00     0.170 HD
BRANCH  15  17
ATOM     17  C   UNL A   1      32.360  26.523  24.485  1.00  0.00     0.113 A 
ATOM     18  S   UNL A   1      32.153  27.676  25.733  1.00  0.00    -0.125 S 
ATOM     19  C   UNL A   1      33.182  26.985  23.491  1.00  0.00     0.087 A 
ATOM     20  C   UNL A   1      33.521  28.555  25.183  1.00  0.00     0.068 A 
ATOM     21  C   UNL A   1      33.920  28.128  23.931  1.00  0.00     0.033 A 
BRANCH  19  22
ATOM     22  C   UNL A   1      33.286  26.364  22.214  1.00  0.00     0.102 C 
ATOM     23  N   UNL A   1      33.373  25.891  21.151  1.00  0.00    -0.192 NA
ENDBRANCH  19  22
ENDBRANCH  15  17
ENDBRANCH  12  13
ENDBRANCH  11  12
ENDBRANCH   8  11
ENDBRANCH   7   8
ENDBRANCH   4   7
ENDBRANCH   2   3
ENDBRANCH   1   2
BRANCH   1  24
ATOM     24  C   UNL A   1      40.491  22.094  27.410  1.00  0.00     0.002 C 
BRANCH  24  25
ATOM     25  C   UNL A   1      41.971  22.119  26.994  1.00  0.00     0.002 C 
BRANCH  25  26
ATOM     26  C   UNL A   1      42.944  22.450  28.130  1.00  0.00     0.021 C 
BRANCH  26  27
ATOM     27  C   UNL A   1      43.769  23.703  27.866  1.00  0.00     0.116 C 
BRANCH  27  28
ATOM     28  N   UNL A   1      43.476  24.231  26.538  1.00  0.00    -0.352 N 
ATOM     29  C   UNL A   1      42.539  25.171  26.199  1.00  0.00     0.251 C 
ATOM     30  H   UNL A   1      44.013  23.869  25.797  1.00  0.00     0.163 HD
ATOM     31  O   UNL A   1      42.095  25.244  25.060  1.00  0.00    -0.269 OA
BRANCH  29  32
ATOM     32  C   UNL A   1      42.098  26.098  27.251  1.00  0.00     0.039 A 
ATOM     33  C   UNL A   1      41.005  25.769  28.048  1.00  0.00     0.014 A 
ATOM     34  C   UNL A   1      42.832  27.270  27.471  1.00  0.00     0.014 A 
ATOM     35  C   UNL A   1      40.673  26.605  29.111  1.00  0.00     0.010 A 
ATOM     36  C   UNL A   1      42.549  28.055  28.577  1.00  0.00     0.010 A 
ATOM     37  C   UNL A   1      41.465  27.730  29.404  1.00  0.00    -0.014 A 
BRANCH  37  38
ATOM     38  C   UNL A   1      41.189  28.562  30.595  1.00  0.00     0.031 A 
ATOM     39  C   UNL A   1      40.076  29.571  30.566  1.00  0.00     0.074 A 
ATOM     40  C   UNL A   1      41.984  28.437  31.677  1.00  0.00     0.049 A 
ATOM     41  N   UNL A   1      39.703  30.402  31.502  1.00  0.00    -0.248 NA
ATOM     42  C   UNL A   1      39.291  29.676  29.323  1.00  0.00     0.031 C 
ATOM     43  C   UNL A   1      43.124  27.522  31.788  1.00  0.00     0.029 A 
ATOM     44  N   UNL A   1      41.958  29.081  32.886  1.00  0.00    -0.354 N 
ATOM     45  C   UNL A   1      38.655  31.136  30.959  1.00  0.00     0.074 A 
ATOM     46  C   UNL A   1      38.475  30.682  29.599  1.00  0.00     0.031 C 
ATOM     47  C   UNL A   1      43.666  27.641  33.011  1.00  0.00     0.029 A 
ATOM     48  C   UNL A   1      42.953  28.677  33.747  1.00  0.00     0.049 A 
ATOM     49  H   UNL A   1      41.292  29.768  33.118  1.00  0.00     0.167 HD
ATOM     50  C   UNL A   1      37.905  32.092  31.552  1.00  0.00     0.031 A 
ATOM     51  C   UNL A   1      43.265  29.109  34.984  1.00  0.00     0.031 A 
ATOM     52  C   UNL A   1      38.091  32.526  32.911  1.00  0.00     0.049 A 
ATOM     53  C   UNL A   1      42.426  30.194  35.603  1.00  0.00     0.074 A 
ATOM     54  C   UNL A   1      37.335  33.436  33.629  1.00  0.00     0.029 A 
ATOM     55  N   UNL A   1      39.106  32.096  33.752  1.00  0.00    -0.354 N 
ATOM     56  N   UNL A   1      41.367  30.795  35.114  1.00  0.00    -0.248 NA
ATOM     57  C   UNL A   1      42.815  30.653  36.942  1.00  0.00     0.031 C 
ATOM     58  C   UNL A   1      37.942  33.619  34.873  1.00  0.00     0.029 A 
ATOM     59  C   UNL A   1      39.027  32.762  34.962  1.00  0.00     0.049 A 
ATOM     60  H   UNL A   1      39.781  31.418  33.522  1.00  0.00     0.167 HD
ATOM     61  C   UNL A   1      40.955  31.690  36.095  1.00  0.00     0.074 A 
ATOM     62  C   UNL A   1      41.854  31.523  37.218  1.00  0.00     0.031 C 
ATOM     63  C   UNL A   1      39.932  32.579  36.068  1.00  0.00     0.031 A 
BRANCH  50  64
ATOM     64  C   UNL A   1      36.821  32.756  30.745  1.00  0.00    -0.014 A 
ATOM     65  C   UNL A   1      35.473  32.382  30.885  1.00  0.00     0.010 A 
ATOM     66  C   UNL A   1      37.148  33.851  29.923  1.00  0.00     0.010 A 
ATOM     67  C   UNL A   1      34.472  33.092  30.216  1.00  0.00     0.020 A 
ATOM     68  C   UNL A   1      36.147  34.579  29.276  1.00  0.00     0.020 A 
ATOM     69  C   UNL A   1      34.815  34.193  29.426  1.00  0.00     0.054 A 
BRANCH  69  70
ATOM     70  S   UNL A   1      33.484  35.150  28.648  1.00  0.00     0.124 S 
ATOM     71  O   UNL A   1      33.002  35.961  29.764  1.00  0.00    -0.237 OA
ATOM     72  O   UNL A   1      34.191  35.881  27.600  1.00  0.00    -0.237 OA
ATOM     73  O   UNL A   1      32.552  34.130  28.174  1.00  0.00    -0.744 OA
ENDBRANCH  69  70
ENDBRANCH  50  64
BRANCH  51  74
ATOM     74  C   UNL A   1      44.445  28.550  35.706  1.00  0.00    -0.014 A 
ATOM     75  C   UNL A   1      45.732  29.080  35.508  1.00  0.00     0.010 A 
ATOM     76  C   UNL A   1      44.288  27.447  36.566  1.00  0.00     0.010 A 
ATOM     77  C   UNL A   1      46.844  28.487  36.113  1.00  0.00     0.020 A 
ATOM     78  C   UNL A   1      45.391  26.878  37.206  1.00  0.00     0.020 A 
ATOM     79  C   UNL A   1      46.665  27.386  36.955  1.00  0.00     0.054 A 
BRANCH  79  80
ATOM     80  S   UNL A   1      48.122  26.626  37.723  1.00  0.00     0.124 S 
ATOM     81  O   UNL A   1      48.906  27.795  38.107  1.00  0.00    -0.237 OA
ATOM     82  O   UNL A   1      47.536  25.865  38.824  1.00  0.00    -0.237 OA
ATOM     83  O   UNL A   1      48.692  25.815  36.648  1.00  0.00    -0.744 OA
ENDBRANCH  79  80
ENDBRANCH  51  74
BRANCH  63  84
ATOM     84  C   UNL A   1      39.716  33.424  37.296  1.00  0.00    -0.014 A 
ATOM     85  C   UNL A   1      38.800  33.039  38.291  1.00  0.00     0.010 A 
ATOM     86  C   UNL A   1      40.485  34.587  37.485  1.00  0.00     0.010 A 
ATOM     87  C   UNL A   1      38.633  33.820  39.436  1.00  0.00     0.020 A 
ATOM     88  C   UNL A   1      40.349  35.350  38.647  1.00  0.00     0.020 A 
ATOM     89  C   UNL A   1      39.414  34.967  39.610  1.00  0.00     0.054 A 
BRANCH  89  90
ATOM     90  S   UNL A   1      39.214  35.929  41.132  1.00  0.00     0.124 S 
ATOM     91  O   UNL A   1      38.334  35.073  41.921  1.00  0.00    -0.237 OA
ATOM     92  O   UNL A   1      40.586  36.042  41.621  1.00  0.00    -0.237 OA
ATOM     93  O   UNL A   1      38.616  37.182  40.676  1.00  0.00    -0.744 OA
ENDBRANCH  89  90
ENDBRANCH  63  84
ENDBRANCH  37  38
ENDBRANCH  29  32
ENDBRANCH  27  28
ENDBRANCH  26  27
ENDBRANCH  25  26
ENDBRANCH  24  25
ENDBRANCH   1  24
TORSDOF 22
ENDMDL
MODEL 3
REMARK VINA RESULT:      -8.2      5.881     11.870
REMARK SMILES C[N@H+](CCC(=O)Nc1sccc1C#N)CC(=O)NCCCCCCNC(=O)c1ccc(-c2c3nc(c(-c4ccc(S(=O)(=O)[O-])cc4)c4ccc([nH]4)c(-c4ccc(S(=O)(=O)[O-])cc4)c4nc(c(-c5ccc(S(=O)(=O)[O-])cc5)c5ccc2[nH]5)C=C4)C=C3)cc1
REMARK SMILES IDX 20 1 19 2 18 3 16 4 17 5 15 7 2 8 1 9 3 11 4 12 5 13 6 14
REMARK SMILES IDX 7 15 8 17 9 18 12 19 10 20 11 21 13 22 14 23 21 24 22 25
REMARK SMILES IDX 23 26 24 27 25 28 26 29 27 31 28 32 29 33 87 34 30 35 86 36
REMARK SMILES IDX 31 37 32 38 33 39 80 40 34 41 85 42 79 43 81 44 35 45 84 46
REMARK SMILES IDX 78 47 77 48 36 50 66 51 47 52 65 53 48 54 51 55 64 56 82 57
REMARK SMILES IDX 49 58 50 59 63 61 83 62 52 63 37 64 38 65 46 66 39 67 45 68
REMARK SMILES IDX 40 69 41 70 42 71 43 72 44 73 67 74 68 75 76 76 69 77 75 78
REMARK SMILES IDX 70 79 71 80 72 81 73 82 74 83 53 84 54 85 62 86 55 87 61 88
REMARK SMILES IDX 56 89 57 90 58 91 59 92 60 93
REMARK H PARENT 18 6 2 10 7 16 25 30 81 49 51 60
REMARK Flexibility Score: inf
ROOT
ATOM      1  C   UNL A   1      40.059  27.505  28.890  1.00  0.00     0.021 C 
ENDROOT
BRANCH   1   2
ATOM      2  C   UNL A   1      39.637  26.436  27.892  1.00  0.00     0.116 C 
BRANCH   2   3
ATOM      3  N   UNL A   1      40.451  26.430  26.693  1.00  0.00    -0.351 N 
ATOM      4  C   UNL A   1      41.317  25.581  26.102  1.00  0.00     0.275 C 
ATOM      5  O   UNL A   1      41.842  26.021  25.066  1.00  0.00    -0.269 OA
ATOM      6  H   UNL A   1      40.344  27.262  26.176  1.00  0.00     0.163 HD
BRANCH   4   7
ATOM      7  C   UNL A   1      41.551  24.117  26.441  1.00  0.00     0.363 C 
BRANCH   7   8
ATOM      8  N   UNL A   1      42.108  23.748  27.748  1.00  0.00    -0.329 N 
ATOM      9  C   UNL A   1      43.132  24.762  28.108  1.00  0.00     0.333 C 
ATOM     10  H   UNL A   1      41.344  23.712  28.423  1.00  0.00     0.348 HD
BRANCH   8  11
ATOM     11  C   UNL A   1      42.760  22.410  27.730  1.00  0.00     0.272 C 
BRANCH  11  12
ATOM     12  C   UNL A   1      41.909  21.141  27.531  1.00  0.00     0.161 C 
BRANCH  12  13
ATOM     13  C   UNL A   1      41.699  20.248  26.281  1.00  0.00     0.230 C 
ATOM     14  O   UNL A   1      40.559  19.788  26.103  1.00  0.00    -0.274 OA
ATOM     15  N   UNL A   1      42.580  19.952  25.290  1.00  0.00    -0.316 N 
ATOM     16  H   UNL A   1      42.169  19.632  24.454  1.00  0.00     0.170 HD
BRANCH  15  17
ATOM     17  C   UNL A   1      43.945  20.028  25.266  1.00  0.00     0.113 A 
ATOM     18  S   UNL A   1      44.727  18.628  25.864  1.00  0.00    -0.125 S 
ATOM     19  C   UNL A   1      44.840  20.976  24.843  1.00  0.00     0.087 A 
ATOM     20  C   UNL A   1      46.197  19.096  25.110  1.00  0.00     0.068 A 
ATOM     21  C   UNL A   1      46.142  20.407  24.676  1.00  0.00     0.033 A 
BRANCH  19  22
ATOM     22  C   UNL A   1      44.480  22.328  24.584  1.00  0.00     0.102 C 
ATOM     23  N   UNL A   1      44.154  23.424  24.351  1.00  0.00    -0.192 NA
ENDBRANCH  19  22
ENDBRANCH  15  17
ENDBRANCH  12  13
ENDBRANCH  11  12
ENDBRANCH   8  11
ENDBRANCH   7   8
ENDBRANCH   4   7
ENDBRANCH   2   3
ENDBRANCH   1   2
BRANCH   1  24
ATOM     24  C   UNL A   1      39.392  28.838  28.551  1.00  0.00     0.002 C 
BRANCH  24  25
ATOM     25  C   UNL A   1      37.867  28.822  28.742  1.00  0.00     0.002 C 
BRANCH  25  26
ATOM     26  C   UNL A   1      37.370  29.615  29.954  1.00  0.00     0.021 C 
BRANCH  26  27
ATOM     27  C   UNL A   1      38.330  30.716  30.386  1.00  0.00     0.116 C 
BRANCH  27  28
ATOM     28  N   UNL A   1      37.982  31.197  31.719  1.00  0.00    -0.352 N 
ATOM     29  C   UNL A   1      38.481  30.770  32.920  1.00  0.00     0.251 C 
ATOM     30  H   UNL A   1      37.306  31.912  31.760  1.00  0.00     0.163 HD
ATOM     31  O   UNL A   1      37.856  30.929  33.961  1.00  0.00    -0.269 OA
BRANCH  29  32
ATOM     32  C   UNL A   1      39.804  30.129  32.914  1.00  0.00     0.039 A 
ATOM     33  C   UNL A   1      40.953  30.915  32.938  1.00  0.00     0.014 A 
ATOM     34  C   UNL A   1      39.878  28.731  32.947  1.00  0.00     0.014 A 
ATOM     35  C   UNL A   1      42.192  30.290  33.046  1.00  0.00     0.010 A 
ATOM     36  C   UNL A   1      41.106  28.118  33.135  1.00  0.00     0.010 A 
ATOM     37  C   UNL A   1      42.273  28.892  33.183  1.00  0.00    -0.014 A 
BRANCH  37  38
ATOM     38  C   UNL A   1      43.574  28.227  33.409  1.00  0.00     0.031 A 
ATOM     39  C   UNL A   1      44.106  28.068  34.805  1.00  0.00     0.074 A 
ATOM     40  C   UNL A   1      44.292  27.819  32.343  1.00  0.00     0.049 A 
ATOM     41  N   UNL A   1      45.234  27.536  35.194  1.00  0.00    -0.248 NA
ATOM     42  C   UNL A   1      43.277  28.590  35.907  1.00  0.00     0.031 C 
ATOM     43  C   UNL A   1      43.888  27.972  30.941  1.00  0.00     0.029 A 
ATOM     44  N   UNL A   1      45.512  27.198  32.269  1.00  0.00    -0.354 N 
ATOM     45  C   UNL A   1      45.258  27.671  36.577  1.00  0.00     0.074 A 
ATOM     46  C   UNL A   1      44.052  28.370  36.959  1.00  0.00     0.031 C 
ATOM     47  C   UNL A   1      44.827  27.428  30.151  1.00  0.00     0.029 A 
ATOM     48  C   UNL A   1      45.922  26.942  30.981  1.00  0.00     0.049 A 
ATOM     49  H   UNL A   1      46.044  26.958  33.061  1.00  0.00     0.167 HD
ATOM     50  C   UNL A   1      46.197  27.235  37.446  1.00  0.00     0.031 A 
ATOM     51  C   UNL A   1      47.064  26.394  30.521  1.00  0.00     0.031 A 
ATOM     52  C   UNL A   1      47.388  26.531  37.050  1.00  0.00     0.049 A 
ATOM     53  C   UNL A   1      48.101  25.946  31.516  1.00  0.00     0.074 A 
ATOM     54  C   UNL A   1      48.366  25.982  37.861  1.00  0.00     0.029 A 
ATOM     55  N   UNL A   1      47.771  26.290  35.739  1.00  0.00    -0.354 N 
ATOM     56  N   UNL A   1      48.053  25.980  32.827  1.00  0.00    -0.248 NA
ATOM     57  C   UNL A   1      49.341  25.378  30.973  1.00  0.00     0.031 C 
ATOM     58  C   UNL A   1      49.381  25.485  37.041  1.00  0.00     0.029 A 
ATOM     59  C   UNL A   1      48.997  25.648  35.718  1.00  0.00     0.049 A 
ATOM     60  H   UNL A   1      47.249  26.539  34.943  1.00  0.00     0.167 HD
ATOM     61  C   UNL A   1      49.248  25.420  33.263  1.00  0.00     0.074 A 
ATOM     62  C   UNL A   1      49.980  25.022  32.078  1.00  0.00     0.031 C 
ATOM     63  C   UNL A   1      49.707  25.259  34.527  1.00  0.00     0.031 A 
BRANCH  50  64
ATOM     64  C   UNL A   1      46.001  27.512  38.913  1.00  0.00    -0.014 A 
ATOM     65  C   UNL A   1      46.440  28.714  39.494  1.00  0.00     0.010 A 
ATOM     66  C   UNL A   1      45.261  26.602  39.692  1.00  0.00     0.010 A 
ATOM     67  C   UNL A   1      46.141  29.001  40.830  1.00  0.00     0.020 A 
ATOM     68  C   UNL A   1      44.937  26.899  41.017  1.00  0.00     0.020 A 
ATOM     69  C   UNL A   1      45.381  28.097  41.578  1.00  0.00     0.054 A 
BRANCH  69  70
ATOM     70  S   UNL A   1      44.930  28.542  43.278  1.00  0.00     0.124 S 
ATOM     71  O   UNL A   1      43.611  27.930  43.412  1.00  0.00    -0.237 OA
ATOM     72  O   UNL A   1      45.994  27.919  44.061  1.00  0.00    -0.237 OA
ATOM     73  O   UNL A   1      44.939  30.003  43.269  1.00  0.00    -0.744 OA
ENDBRANCH  69  70
ENDBRANCH  50  64
BRANCH  51  74
ATOM     74  C   UNL A   1      47.310  26.275  29.055  1.00  0.00    -0.014 A 
ATOM     75  C   UNL A   1      47.737  27.382  28.300  1.00  0.00     0.010 A 
ATOM     76  C   UNL A   1      47.072  25.055  28.397  1.00  0.00     0.010 A 
ATOM     77  C   UNL A   1      47.870  27.285  26.912  1.00  0.00     0.020 A 
ATOM     78  C   UNL A   1      47.245  24.941  27.016  1.00  0.00     0.020 A 
ATOM     79  C   UNL A   1      47.618  26.065  26.279  1.00  0.00     0.054 A 
BRANCH  79  80
ATOM     80  S   UNL A   1      47.788  25.964  24.476  1.00  0.00     0.124 S 
ATOM     81  O   UNL A   1      49.230  26.101  24.299  1.00  0.00    -0.237 OA
ATOM     82  O   UNL A   1      47.236  24.643  24.183  1.00  0.00    -0.237 OA
ATOM     83  O   UNL A   1      46.987  27.087  23.993  1.00  0.00    -0.744 OA
ENDBRANCH  79  80
ENDBRANCH  51  74
BRANCH  63  84
ATOM     84  C   UNL A   1      51.053  24.605  34.698  1.00  0.00    -0.014 A 
ATOM     85  C   UNL A   1      51.177  23.206  34.776  1.00  0.00     0.010 A 
ATOM     86  C   UNL A   1      52.215  25.399  34.719  1.00  0.00     0.010 A 
ATOM     87  C   UNL A   1      52.436  22.616  34.905  1.00  0.00     0.020 A 
ATOM     88  C   UNL A   1      53.478  24.810  34.810  1.00  0.00     0.020 A 
ATOM     89  C   UNL A   1      53.579  23.422  34.915  1.00  0.00     0.054 A 
BRANCH  89  90
ATOM     90  S   UNL A   1      55.201  22.623  35.028  1.00  0.00     0.124 S 
ATOM     91  O   UNL A   1      54.839  21.231  35.279  1.00  0.00    -0.237 OA
ATOM     92  O   UNL A   1      55.783  22.895  33.717  1.00  0.00    -0.237 OA
ATOM     93  O   UNL A   1      55.849  23.307  36.146  1.00  0.00    -0.744 OA
ENDBRANCH  89  90
ENDBRANCH  63  84
ENDBRANCH  37  38
ENDBRANCH  29  32
ENDBRANCH  27  28
ENDBRANCH  26  27
ENDBRANCH  25  26
ENDBRANCH  24  25
ENDBRANCH   1  24
TORSDOF 22
ENDMDL
