MODEL 1
REMARK VINA RESULT:     -10.6      0.000      0.000
REMARK SMILES COC(=O)c1nccc(N2CCO[C@H](CC(=O)NCCCCCCNC(=O)c3ccc(-c4c5nc(c(-c6ccc(S(=O)(=O)[O-])cc6)c6ccc([nH]6)c(-c6ccc(S(=O)(=O)[O-])cc6)c6nc(c(-c7ccc(S(=O)(=O)[O-])cc7)c7ccc4[nH]7)C=C6)C=C5)cc3)C2)n1
REMARK SMILES IDX 21 1 20 2 19 3 18 4 16 5 17 6 15 8 14 9 10 10 11 11 88 12
REMARK SMILES IDX 12 13 13 14 9 15 5 16 6 17 89 18 7 19 8 20 3 21 4 22 2 23
REMARK SMILES IDX 1 24 22 25 23 26 24 27 25 28 26 29 27 31 28 32 29 33 87 34
REMARK SMILES IDX 30 35 86 36 31 37 32 38 33 39 80 40 34 41 85 42 79 43 81 44
REMARK SMILES IDX 35 45 84 46 78 47 77 48 36 50 66 51 47 52 65 53 48 54 51 55
REMARK SMILES IDX 64 56 82 57 49 58 50 59 63 61 83 62 52 63 37 64 38 65 46 66
REMARK SMILES IDX 39 67 45 68 40 69 41 70 42 71 43 72 44 73 67 74 68 75 76 76
REMARK SMILES IDX 69 77 75 78 70 79 71 80 72 81 73 82 74 83 53 84 54 85 62 86
REMARK SMILES IDX 55 87 61 88 56 89 57 90 58 91 59 92 60 93
REMARK H PARENT 18 7 25 30 81 49 51 60
REMARK Flexibility Score: inf
ROOT
ATOM      1  C   UNL A   1      30.472  26.695  25.287  1.00  0.00     0.002 C 
ENDROOT
BRANCH   1   2
ATOM      2  C   UNL A   1      30.003  26.256  23.893  1.00  0.00     0.021 C 
BRANCH   2   3
ATOM      3  C   UNL A   1      30.646  24.953  23.414  1.00  0.00     0.116 C 
BRANCH   3   4
ATOM      4  N   UNL A   1      31.504  25.201  22.271  1.00  0.00    -0.356 N 
ATOM      5  C   UNL A   1      32.797  24.827  22.075  1.00  0.00     0.222 C 
ATOM      6  O   UNL A   1      33.408  25.278  21.105  1.00  0.00    -0.275 OA
ATOM      7  H   UNL A   1      31.094  25.711  21.535  1.00  0.00     0.163 HD
BRANCH   5   8
ATOM      8  C   UNL A   1      33.440  23.829  23.008  1.00  0.00     0.133 C 
BRANCH   8   9
ATOM      9  C   UNL A   1      34.659  24.404  23.752  1.00  0.00     0.147 C 
ATOM     10  N   UNL A   1      35.112  22.409  25.062  1.00  0.00    -0.352 N 
ATOM     11  C   UNL A   1      34.678  23.029  26.308  1.00  0.00     0.146 C 
ATOM     12  C   UNL A   1      35.704  23.308  24.077  1.00  0.00     0.150 C 
ATOM     13  C   UNL A   1      33.757  24.217  25.996  1.00  0.00     0.182 C 
ATOM     14  O   UNL A   1      34.277  25.091  24.974  1.00  0.00    -0.374 OA
BRANCH  10  15
ATOM     15  C   UNL A   1      35.088  21.060  24.835  1.00  0.00     0.133 A 
ATOM     16  C   UNL A   1      33.916  19.136  24.414  1.00  0.00     0.241 A 
ATOM     17  N   UNL A   1      34.990  18.330  24.554  1.00  0.00    -0.231 NA
ATOM     18  N   UNL A   1      33.909  20.476  24.577  1.00  0.00    -0.205 NA
ATOM     19  C   UNL A   1      36.142  18.955  24.826  1.00  0.00     0.117 A 
ATOM     20  C   UNL A   1      36.250  20.319  24.949  1.00  0.00     0.067 A 
BRANCH  16  21
ATOM     21  C   UNL A   1      32.643  18.470  23.976  1.00  0.00     0.376 C 
ATOM     22  O   UNL A   1      32.177  18.515  22.845  1.00  0.00    -0.242 OA
BRANCH  21  23
ATOM     23  O   UNL A   1      32.041  17.881  25.048  1.00  0.00    -0.463 OA
ATOM     24  C   UNL A   1      32.680  16.689  25.502  1.00  0.00     0.282 C 
ENDBRANCH  21  23
ENDBRANCH  16  21
ENDBRANCH  10  15
ENDBRANCH   8   9
ENDBRANCH   5   8
ENDBRANCH   3   4
ENDBRANCH   2   3
ENDBRANCH   1   2
BRANCH   1  25
ATOM     25  C   UNL A   1      31.808  27.448  25.313  1.00  0.00     0.002 C 
BRANCH  25  26
ATOM     26  C   UNL A   1      32.358  27.744  26.710  1.00  0.00     0.021 C 
BRANCH  26  27
ATOM     27  C   UNL A   1      33.703  28.465  26.721  1.00  0.00     0.116 C 
BRANCH  27  28
ATOM     28  N   UNL A   1      33.575  29.848  27.153  1.00  0.00    -0.352 N 
ATOM     29  C   UNL A   1      34.437  30.601  27.914  1.00  0.00     0.251 C 
ATOM     30  H   UNL A   1      32.756  30.310  26.861  1.00  0.00     0.163 HD
ATOM     31  O   UNL A   1      34.080  31.691  28.354  1.00  0.00    -0.269 OA
BRANCH  29  32
ATOM     32  C   UNL A   1      35.787  30.082  28.217  1.00  0.00     0.039 A 
ATOM     33  C   UNL A   1      36.768  30.121  27.222  1.00  0.00     0.014 A 
ATOM     34  C   UNL A   1      36.084  29.565  29.481  1.00  0.00     0.014 A 
ATOM     35  C   UNL A   1      38.068  29.704  27.519  1.00  0.00     0.010 A 
ATOM     36  C   UNL A   1      37.392  29.206  29.791  1.00  0.00     0.010 A 
ATOM     37  C   UNL A   1      38.398  29.276  28.815  1.00  0.00    -0.014 A 
BRANCH  37  38
ATOM     38  C   UNL A   1      39.790  28.915  29.181  1.00  0.00     0.031 A 
ATOM     39  C   UNL A   1      40.693  29.936  29.817  1.00  0.00     0.074 A 
ATOM     40  C   UNL A   1      40.267  27.695  28.866  1.00  0.00     0.049 A 
ATOM     41  N   UNL A   1      41.963  29.840  30.116  1.00  0.00    -0.248 NA
ATOM     42  C   UNL A   1      40.096  31.243  30.137  1.00  0.00     0.031 C 
ATOM     43  C   UNL A   1      39.502  26.627  28.217  1.00  0.00     0.029 A 
ATOM     44  N   UNL A   1      41.516  27.150  29.037  1.00  0.00    -0.354 N 
ATOM     45  C   UNL A   1      42.323  31.076  30.640  1.00  0.00     0.074 A 
ATOM     46  C   UNL A   1      41.147  31.918  30.582  1.00  0.00     0.031 C 
ATOM     47  C   UNL A   1      40.292  25.553  28.059  1.00  0.00     0.029 A 
ATOM     48  C   UNL A   1      41.628  25.867  28.555  1.00  0.00     0.049 A 
ATOM     49  H   UNL A   1      42.260  27.632  29.463  1.00  0.00     0.167 HD
ATOM     50  C   UNL A   1      43.519  31.471  31.137  1.00  0.00     0.031 A 
ATOM     51  C   UNL A   1      42.690  25.039  28.504  1.00  0.00     0.031 A 
ATOM     52  C   UNL A   1      44.684  30.630  31.205  1.00  0.00     0.049 A 
ATOM     53  C   UNL A   1      44.012  25.505  29.050  1.00  0.00     0.074 A 
ATOM     54  C   UNL A   1      45.925  30.920  31.742  1.00  0.00     0.029 A 
ATOM     55  N   UNL A   1      44.752  29.333  30.718  1.00  0.00    -0.354 N 
ATOM     56  N   UNL A   1      44.317  26.659  29.592  1.00  0.00    -0.248 NA
ATOM     57  C   UNL A   1      45.130  24.555  28.981  1.00  0.00     0.031 C 
ATOM     58  C   UNL A   1      46.759  29.815  31.539  1.00  0.00     0.029 A 
ATOM     59  C   UNL A   1      46.021  28.818  30.921  1.00  0.00     0.049 A 
ATOM     60  H   UNL A   1      44.008  28.850  30.291  1.00  0.00     0.167 HD
ATOM     61  C   UNL A   1      45.656  26.565  29.950  1.00  0.00     0.074 A 
ATOM     62  C   UNL A   1      46.100  25.239  29.573  1.00  0.00     0.031 C 
ATOM     63  C   UNL A   1      46.448  27.496  30.538  1.00  0.00     0.031 A 
BRANCH  50  64
ATOM     64  C   UNL A   1      43.629  32.885  31.643  1.00  0.00    -0.014 A 
ATOM     65  C   UNL A   1      44.025  33.932  30.791  1.00  0.00     0.010 A 
ATOM     66  C   UNL A   1      43.299  33.178  32.979  1.00  0.00     0.010 A 
ATOM     67  C   UNL A   1      44.132  35.237  31.275  1.00  0.00     0.020 A 
ATOM     68  C   UNL A   1      43.379  34.488  33.461  1.00  0.00     0.020 A 
ATOM     69  C   UNL A   1      43.813  35.506  32.609  1.00  0.00     0.054 A 
BRANCH  69  70
ATOM     70  S   UNL A   1      43.946  37.213  33.210  1.00  0.00     0.124 S 
ATOM     71  O   UNL A   1      45.195  37.167  33.966  1.00  0.00    -0.237 OA
ATOM     72  O   UNL A   1      43.990  37.987  31.972  1.00  0.00    -0.237 OA
ATOM     73  O   UNL A   1      42.739  37.393  34.012  1.00  0.00    -0.744 OA
ENDBRANCH  69  70
ENDBRANCH  50  64
BRANCH  51  74
ATOM     74  C   UNL A   1      42.543  23.682  27.916  1.00  0.00    -0.014 A 
ATOM     75  C   UNL A   1      42.068  22.614  28.698  1.00  0.00     0.010 A 
ATOM     76  C   UNL A   1      42.859  23.452  26.564  1.00  0.00     0.010 A 
ATOM     77  C   UNL A   1      41.924  21.340  28.145  1.00  0.00     0.020 A 
ATOM     78  C   UNL A   1      42.693  22.184  26.001  1.00  0.00     0.020 A 
ATOM     79  C   UNL A   1      42.236  21.133  26.797  1.00  0.00     0.054 A 
BRANCH  79  80
ATOM     80  S   UNL A   1      41.985  19.483  26.082  1.00  0.00     0.124 S 
ATOM     81  O   UNL A   1      42.474  18.614  27.148  1.00  0.00    -0.237 OA
ATOM     82  O   UNL A   1      40.543  19.454  25.850  1.00  0.00    -0.237 OA
ATOM     83  O   UNL A   1      42.801  19.511  24.870  1.00  0.00    -0.744 OA
ENDBRANCH  79  80
ENDBRANCH  51  74
BRANCH  63  84
ATOM     84  C   UNL A   1      47.870  27.107  30.838  1.00  0.00    -0.014 A 
ATOM     85  C   UNL A   1      48.896  27.332  29.903  1.00  0.00     0.010 A 
ATOM     86  C   UNL A   1      48.192  26.571  32.098  1.00  0.00     0.010 A 
ATOM     87  C   UNL A   1      50.218  27.007  30.216  1.00  0.00     0.020 A 
ATOM     88  C   UNL A   1      49.517  26.267  32.424  1.00  0.00     0.020 A 
ATOM     89  C   UNL A   1      50.520  26.477  31.476  1.00  0.00     0.054 A 
BRANCH  89  90
ATOM     90  S   UNL A   1      52.252  26.118  31.879  1.00  0.00     0.124 S 
ATOM     91  O   UNL A   1      52.962  26.780  30.788  1.00  0.00    -0.237 OA
ATOM     92  O   UNL A   1      52.410  26.730  33.196  1.00  0.00    -0.237 OA
ATOM     93  O   UNL A   1      52.314  24.657  31.867  1.00  0.00    -0.744 OA
ENDBRANCH  89  90
ENDBRANCH  63  84
ENDBRANCH  37  38
ENDBRANCH  29  32
ENDBRANCH  27  28
ENDBRANCH  26  27
ENDBRANCH  25  26
ENDBRANCH   1  25
TORSDOF 20
ENDMDL
MODEL 2
REMARK VINA RESULT:     -10.4      3.625      8.652
REMARK SMILES COC(=O)c1nccc(N2CCO[C@H](CC(=O)NCCCCCCNC(=O)c3ccc(-c4c5nc(c(-c6ccc(S(=O)(=O)[O-])cc6)c6ccc([nH]6)c(-c6ccc(S(=O)(=O)[O-])cc6)c6nc(c(-c7ccc(S(=O)(=O)[O-])cc7)c7ccc4[nH]7)C=C6)C=C5)cc3)C2)n1
REMARK SMILES IDX 21 1 20 2 19 3 18 4 16 5 17 6 15 8 14 9 10 10 11 11 88 12
REMARK SMILES IDX 12 13 13 14 9 15 5 16 6 17 89 18 7 19 8 20 3 21 4 22 2 23
REMARK SMILES IDX 1 24 22 25 23 26 24 27 25 28 26 29 27 31 28 32 29 33 87 34
REMARK SMILES IDX 30 35 86 36 31 37 32 38 33 39 80 40 34 41 85 42 79 43 81 44
REMARK SMILES IDX 35 45 84 46 78 47 77 48 36 50 66 51 47 52 65 53 48 54 51 55
REMARK SMILES IDX 64 56 82 57 49 58 50 59 63 61 83 62 52 63 37 64 38 65 46 66
REMARK SMILES IDX 39 67 45 68 40 69 41 70 42 71 43 72 44 73 67 74 68 75 76 76
REMARK SMILES IDX 69 77 75 78 70 79 71 80 72 81 73 82 74 83 53 84 54 85 62 86
REMARK SMILES IDX 55 87 61 88 56 89 57 90 58 91 59 92 60 93
REMARK H PARENT 18 7 25 30 81 49 51 60
REMARK Flexibility Score: inf
ROOT
ATOM      1  C   UNL A   1      35.534  21.640  24.792  1.00  0.00     0.002 C 
ENDROOT
BRANCH   1   2
ATOM      2  C   UNL A   1      35.054  21.543  26.247  1.00  0.00     0.021 C 
BRANCH   2   3
ATOM      3  C   UNL A   1      34.571  22.875  26.821  1.00  0.00     0.116 C 
BRANCH   3   4
ATOM      4  N   UNL A   1      33.155  22.810  27.133  1.00  0.00    -0.356 N 
ATOM      5  C   UNL A   1      32.196  23.757  26.954  1.00  0.00     0.222 C 
ATOM      6  O   UNL A   1      31.079  23.573  27.438  1.00  0.00    -0.275 OA
ATOM      7  H   UNL A   1      32.846  21.962  27.528  1.00  0.00     0.163 HD
BRANCH   5   8
ATOM      8  C   UNL A   1      32.495  24.984  26.126  1.00  0.00     0.133 C 
BRANCH   8   9
ATOM      9  C   UNL A   1      32.991  24.645  24.709  1.00  0.00     0.147 C 
ATOM     10  N   UNL A   1      31.471  26.145  23.551  1.00  0.00    -0.352 N 
ATOM     11  C   UNL A   1      30.679  25.051  23.003  1.00  0.00     0.146 C 
ATOM     12  C   UNL A   1      32.888  25.863  23.757  1.00  0.00     0.150 C 
ATOM     13  C   UNL A   1      30.890  23.789  23.852  1.00  0.00     0.182 C 
ATOM     14  O   UNL A   1      32.277  23.517  24.137  1.00  0.00    -0.374 OA
BRANCH  10  15
ATOM     15  C   UNL A   1      30.982  27.404  23.766  1.00  0.00     0.133 A 
ATOM     16  C   UNL A   1      29.495  29.073  23.261  1.00  0.00     0.241 A 
ATOM     17  N   UNL A   1      30.095  29.988  24.052  1.00  0.00    -0.231 NA
ATOM     18  N   UNL A   1      29.915  27.805  23.063  1.00  0.00    -0.205 NA
ATOM     19  C   UNL A   1      31.166  29.548  24.724  1.00  0.00     0.117 A 
ATOM     20  C   UNL A   1      31.634  28.258  24.638  1.00  0.00     0.067 A 
BRANCH  16  21
ATOM     21  C   UNL A   1      28.216  29.506  22.604  1.00  0.00     0.376 C 
ATOM     22  O   UNL A   1      27.113  29.498  23.136  1.00  0.00    -0.242 OA
BRANCH  21  23
ATOM     23  O   UNL A   1      28.454  29.827  21.300  1.00  0.00    -0.463 OA
ATOM     24  C   UNL A   1      28.098  31.162  20.948  1.00  0.00     0.282 C 
ENDBRANCH  21  23
ENDBRANCH  16  21
ENDBRANCH  10  15
ENDBRANCH   8   9
ENDBRANCH   5   8
ENDBRANCH   3   4
ENDBRANCH   2   3
ENDBRANCH   1   2
BRANCH   1  25
ATOM     25  C   UNL A   1      37.048  21.811  24.622  1.00  0.00     0.002 C 
BRANCH  25  26
ATOM     26  C   UNL A   1      37.886  20.590  25.011  1.00  0.00     0.021 C 
BRANCH  26  27
ATOM     27  C   UNL A   1      39.125  20.912  25.843  1.00  0.00     0.116 C 
BRANCH  27  28
ATOM     28  N   UNL A   1      40.002  19.759  25.980  1.00  0.00    -0.352 N 
ATOM     29  C   UNL A   1      41.364  19.724  26.155  1.00  0.00     0.251 C 
ATOM     30  H   UNL A   1      39.558  18.881  25.942  1.00  0.00     0.163 HD
ATOM     31  O   UNL A   1      41.972  18.662  26.053  1.00  0.00    -0.269 OA
BRANCH  29  32
ATOM     32  C   UNL A   1      42.095  20.974  26.448  1.00  0.00     0.039 A 
ATOM     33  C   UNL A   1      42.526  21.774  25.387  1.00  0.00     0.014 A 
ATOM     34  C   UNL A   1      42.348  21.357  27.769  1.00  0.00     0.014 A 
ATOM     35  C   UNL A   1      43.151  22.995  25.652  1.00  0.00     0.010 A 
ATOM     36  C   UNL A   1      42.917  22.600  28.031  1.00  0.00     0.010 A 
ATOM     37  C   UNL A   1      43.320  23.434  26.975  1.00  0.00    -0.014 A 
BRANCH  37  38
ATOM     38  C   UNL A   1      43.897  24.766  27.283  1.00  0.00     0.031 A 
ATOM     39  C   UNL A   1      43.001  25.896  27.712  1.00  0.00     0.074 A 
ATOM     40  C   UNL A   1      45.214  24.981  27.097  1.00  0.00     0.049 A 
ATOM     41  N   UNL A   1      43.304  27.150  27.928  1.00  0.00    -0.248 NA
ATOM     42  C   UNL A   1      41.577  25.579  27.901  1.00  0.00     0.031 C 
ATOM     43  C   UNL A   1      46.182  23.976  26.650  1.00  0.00     0.029 A 
ATOM     44  N   UNL A   1      45.965  26.121  27.246  1.00  0.00    -0.354 N 
ATOM     45  C   UNL A   1      42.108  27.777  28.257  1.00  0.00     0.074 A 
ATOM     46  C   UNL A   1      41.069  26.772  28.176  1.00  0.00     0.031 C 
ATOM     47  C   UNL A   1      47.399  24.540  26.578  1.00  0.00     0.029 A 
ATOM     48  C   UNL A   1      47.292  25.952  26.929  1.00  0.00     0.049 A 
ATOM     49  H   UNL A   1      45.588  26.978  27.550  1.00  0.00     0.167 HD
ATOM     50  C   UNL A   1      41.896  29.066  28.610  1.00  0.00     0.031 A 
ATOM     51  C   UNL A   1      48.308  26.837  26.909  1.00  0.00     0.031 A 
ATOM     52  C   UNL A   1      42.931  30.060  28.702  1.00  0.00     0.049 A 
ATOM     53  C   UNL A   1      48.045  28.267  27.292  1.00  0.00     0.074 A 
ATOM     54  C   UNL A   1      42.824  31.380  29.105  1.00  0.00     0.029 A 
ATOM     55  N   UNL A   1      44.264  29.846  28.386  1.00  0.00    -0.354 N 
ATOM     56  N   UNL A   1      46.917  28.827  27.655  1.00  0.00    -0.248 NA
ATOM     57  C   UNL A   1      49.194  29.183  27.267  1.00  0.00     0.031 C 
ATOM     58  C   UNL A   1      44.084  31.976  28.988  1.00  0.00     0.029 A 
ATOM     59  C   UNL A   1      44.986  31.014  28.562  1.00  0.00     0.049 A 
ATOM     60  H   UNL A   1      44.642  28.989  28.081  1.00  0.00     0.167 HD
ATOM     61  C   UNL A   1      47.223  30.156  27.923  1.00  0.00     0.074 A 
ATOM     62  C   UNL A   1      48.645  30.313  27.692  1.00  0.00     0.031 C 
ATOM     63  C   UNL A   1      46.400  31.155  28.325  1.00  0.00     0.031 A 
BRANCH  50  64
ATOM     64  C   UNL A   1      40.480  29.479  28.917  1.00  0.00    -0.014 A 
ATOM     65  C   UNL A   1      40.115  29.919  30.202  1.00  0.00     0.010 A 
ATOM     66  C   UNL A   1      39.509  29.458  27.899  1.00  0.00     0.010 A 
ATOM     67  C   UNL A   1      38.796  30.290  30.475  1.00  0.00     0.020 A 
ATOM     68  C   UNL A   1      38.194  29.854  28.162  1.00  0.00     0.020 A 
ATOM     69  C   UNL A   1      37.843  30.250  29.455  1.00  0.00     0.054 A 
BRANCH  69  70
ATOM     70  S   UNL A   1      36.140  30.751  29.832  1.00  0.00     0.124 S 
ATOM     71  O   UNL A   1      35.425  30.295  28.643  1.00  0.00    -0.237 OA
ATOM     72  O   UNL A   1      35.853  30.014  31.059  1.00  0.00    -0.237 OA
ATOM     73  O   UNL A   1      36.231  32.201  29.985  1.00  0.00    -0.744 OA
ENDBRANCH  69  70
ENDBRANCH  50  64
BRANCH  51  74
ATOM     74  C   UNL A   1      49.671  26.390  26.517  1.00  0.00    -0.014 A 
ATOM     75  C   UNL A   1      50.533  25.814  27.467  1.00  0.00     0.010 A 
ATOM     76  C   UNL A   1      50.108  26.520  25.186  1.00  0.00     0.010 A 
ATOM     77  C   UNL A   1      51.812  25.389  27.097  1.00  0.00     0.020 A 
ATOM     78  C   UNL A   1      51.377  26.074  24.807  1.00  0.00     0.020 A 
ATOM     79  C   UNL A   1      52.225  25.520  25.768  1.00  0.00     0.054 A 
BRANCH  79  80
ATOM     80  S   UNL A   1      53.867  24.906  25.295  1.00  0.00     0.124 S 
ATOM     81  O   UNL A   1      54.669  25.258  26.463  1.00  0.00    -0.237 OA
ATOM     82  O   UNL A   1      53.627  23.480  25.096  1.00  0.00    -0.237 OA
ATOM     83  O   UNL A   1      54.171  25.655  24.077  1.00  0.00    -0.744 OA
ENDBRANCH  79  80
ENDBRANCH  51  74
BRANCH  63  84
ATOM     84  C   UNL A   1      47.018  32.506  28.568  1.00  0.00    -0.014 A 
ATOM     85  C   UNL A   1      47.610  32.821  29.804  1.00  0.00     0.010 A 
ATOM     86  C   UNL A   1      47.066  33.445  27.522  1.00  0.00     0.010 A 
ATOM     87  C   UNL A   1      48.220  34.063  29.996  1.00  0.00     0.020 A 
ATOM     88  C   UNL A   1      47.697  34.679  27.703  1.00  0.00     0.020 A 
ATOM     89  C   UNL A   1      48.260  34.984  28.943  1.00  0.00     0.054 A 
BRANCH  89  90
ATOM     90  S   UNL A   1      49.109  36.567  29.200  1.00  0.00     0.124 S 
ATOM     91  O   UNL A   1      48.390  37.115  30.347  1.00  0.00    -0.237 OA
ATOM     92  O   UNL A   1      50.486  36.155  29.461  1.00  0.00    -0.237 OA
ATOM     93  O   UNL A   1      48.906  37.277  27.939  1.00  0.00    -0.744 OA
ENDBRANCH  89  90
ENDBRANCH  63  84
ENDBRANCH  37  38
ENDBRANCH  29  32
ENDBRANCH  27  28
ENDBRANCH  26  27
ENDBRANCH  25  26
ENDBRANCH   1  25
TORSDOF 20
ENDMDL
MODEL 3
REMARK VINA RESULT:     -10.4      4.738     10.852
REMARK SMILES COC(=O)c1nccc(N2CCO[C@H](CC(=O)NCCCCCCNC(=O)c3ccc(-c4c5nc(c(-c6ccc(S(=O)(=O)[O-])cc6)c6ccc([nH]6)c(-c6ccc(S(=O)(=O)[O-])cc6)c6nc(c(-c7ccc(S(=O)(=O)[O-])cc7)c7ccc4[nH]7)C=C6)C=C5)cc3)C2)n1
REMARK SMILES IDX 21 1 20 2 19 3 18 4 16 5 17 6 15 8 14 9 10 10 11 11 88 12
REMARK SMILES IDX 12 13 13 14 9 15 5 16 6 17 89 18 7 19 8 20 3 21 4 22 2 23
REMARK SMILES IDX 1 24 22 25 23 26 24 27 25 28 26 29 27 31 28 32 29 33 87 34
REMARK SMILES IDX 30 35 86 36 31 37 32 38 33 39 80 40 34 41 85 42 79 43 81 44
REMARK SMILES IDX 35 45 84 46 78 47 77 48 36 50 66 51 47 52 65 53 48 54 51 55
REMARK SMILES IDX 64 56 82 57 49 58 50 59 63 61 83 62 52 63 37 64 38 65 46 66
REMARK SMILES IDX 39 67 45 68 40 69 41 70 42 71 43 72 44 73 67 74 68 75 76 76
REMARK SMILES IDX 69 77 75 78 70 79 71 80 72 81 73 82 74 83 53 84 54 85 62 86
REMARK SMILES IDX 55 87 61 88 56 89 57 90 58 91 59 92 60 93
REMARK H PARENT 18 7 25 30 81 49 51 60
REMARK Flexibility Score: inf
ROOT
ATOM      1  C   UNL A   1      35.549  22.706  25.048  1.00  0.00     0.002 C 
ENDROOT
BRANCH   1   2
ATOM      2  C   UNL A   1      34.038  22.768  25.316  1.00  0.00     0.021 C 
BRANCH   2   3
ATOM      3  C   UNL A   1      33.676  23.512  26.602  1.00  0.00     0.116 C 
BRANCH   3   4
ATOM      4  N   UNL A   1      32.241  23.710  26.687  1.00  0.00    -0.356 N 
ATOM      5  C   UNL A   1      31.504  24.791  26.319  1.00  0.00     0.222 C 
ATOM      6  O   UNL A   1      30.312  24.833  26.626  1.00  0.00    -0.275 OA
ATOM      7  H   UNL A   1      31.731  22.956  27.064  1.00  0.00     0.163 HD
BRANCH   5   8
ATOM      8  C   UNL A   1      32.138  25.889  25.498  1.00  0.00     0.133 C 
BRANCH   8   9
ATOM      9  C   UNL A   1      32.588  27.090  26.349  1.00  0.00     0.147 C 
ATOM     10  N   UNL A   1      31.739  28.794  24.840  1.00  0.00    -0.352 N 
ATOM     11  C   UNL A   1      33.074  29.212  24.430  1.00  0.00     0.146 C 
ATOM     12  C   UNL A   1      31.621  28.292  26.204  1.00  0.00     0.150 C 
ATOM     13  C   UNL A   1      34.074  28.081  24.709  1.00  0.00     0.182 C 
ATOM     14  O   UNL A   1      33.940  27.511  26.026  1.00  0.00    -0.374 OA
BRANCH  10  15
ATOM     15  C   UNL A   1      30.622  28.949  24.065  1.00  0.00     0.133 A 
ATOM     16  C   UNL A   1      28.864  30.232  23.346  1.00  0.00     0.241 A 
ATOM     17  N   UNL A   1      28.279  29.228  22.659  1.00  0.00    -0.231 NA
ATOM     18  N   UNL A   1      29.994  30.133  24.079  1.00  0.00    -0.205 NA
ATOM     19  C   UNL A   1      28.933  28.060  22.686  1.00  0.00     0.117 A 
ATOM     20  C   UNL A   1      30.122  27.876  23.350  1.00  0.00     0.067 A 
BRANCH  16  21
ATOM     21  C   UNL A   1      28.219  31.582  23.219  1.00  0.00     0.376 C 
ATOM     22  O   UNL A   1      27.065  31.845  23.534  1.00  0.00    -0.242 OA
BRANCH  21  23
ATOM     23  O   UNL A   1      29.084  32.450  22.620  1.00  0.00    -0.463 OA
ATOM     24  C   UNL A   1      29.173  33.725  23.256  1.00  0.00     0.282 C 
ENDBRANCH  21  23
ENDBRANCH  16  21
ENDBRANCH  10  15
ENDBRANCH   8   9
ENDBRANCH   5   8
ENDBRANCH   3   4
ENDBRANCH   2   3
ENDBRANCH   1   2
BRANCH   1  25
ATOM     25  C   UNL A   1      36.422  23.379  26.113  1.00  0.00     0.002 C 
BRANCH  25  26
ATOM     26  C   UNL A   1      37.828  23.765  25.648  1.00  0.00     0.021 C 
BRANCH  26  27
ATOM     27  C   UNL A   1      38.849  23.913  26.773  1.00  0.00     0.116 C 
BRANCH  27  28
ATOM     28  N   UNL A   1      40.212  23.972  26.266  1.00  0.00    -0.352 N 
ATOM     29  C   UNL A   1      41.169  24.937  26.466  1.00  0.00     0.251 C 
ATOM     30  H   UNL A   1      40.487  23.215  25.700  1.00  0.00     0.163 HD
ATOM     31  O   UNL A   1      42.201  24.930  25.802  1.00  0.00    -0.269 OA
BRANCH  29  32
ATOM     32  C   UNL A   1      40.939  25.996  27.472  1.00  0.00     0.039 A 
ATOM     33  C   UNL A   1      39.975  25.793  28.463  1.00  0.00     0.014 A 
ATOM     34  C   UNL A   1      41.679  27.182  27.438  1.00  0.00     0.014 A 
ATOM     35  C   UNL A   1      39.801  26.753  29.463  1.00  0.00     0.010 A 
ATOM     36  C   UNL A   1      41.546  28.108  28.468  1.00  0.00     0.010 A 
ATOM     37  C   UNL A   1      40.609  27.902  29.493  1.00  0.00    -0.014 A 
BRANCH  37  38
ATOM     38  C   UNL A   1      40.509  28.891  30.595  1.00  0.00     0.031 A 
ATOM     39  C   UNL A   1      41.377  28.754  31.815  1.00  0.00     0.074 A 
ATOM     40  C   UNL A   1      39.580  29.865  30.533  1.00  0.00     0.049 A 
ATOM     41  N   UNL A   1      41.366  29.458  32.917  1.00  0.00    -0.248 NA
ATOM     42  C   UNL A   1      42.374  27.671  31.802  1.00  0.00     0.031 C 
ATOM     43  C   UNL A   1      38.653  30.083  29.419  1.00  0.00     0.029 A 
ATOM     44  N   UNL A   1      39.249  30.846  31.435  1.00  0.00    -0.354 N 
ATOM     45  C   UNL A   1      42.334  28.892  33.738  1.00  0.00     0.074 A 
ATOM     46  C   UNL A   1      42.888  27.763  33.021  1.00  0.00     0.031 C 
ATOM     47  C   UNL A   1      37.872  31.140  29.697  1.00  0.00     0.029 A 
ATOM     48  C   UNL A   1      38.211  31.647  31.023  1.00  0.00     0.049 A 
ATOM     49  H   UNL A   1      39.712  30.964  32.295  1.00  0.00     0.167 HD
ATOM     50  C   UNL A   1      42.737  29.284  34.969  1.00  0.00     0.031 A 
ATOM     51  C   UNL A   1      37.589  32.667  31.646  1.00  0.00     0.031 A 
ATOM     52  C   UNL A   1      42.194  30.414  35.676  1.00  0.00     0.049 A 
ATOM     53  C   UNL A   1      38.045  33.076  33.019  1.00  0.00     0.074 A 
ATOM     54  C   UNL A   1      42.574  30.925  36.905  1.00  0.00     0.029 A 
ATOM     55  N   UNL A   1      41.152  31.207  35.218  1.00  0.00    -0.354 N 
ATOM     56  N   UNL A   1      39.001  32.563  33.755  1.00  0.00    -0.248 NA
ATOM     57  C   UNL A   1      37.341  34.205  33.644  1.00  0.00     0.031 C 
ATOM     58  C   UNL A   1      41.732  31.999  37.211  1.00  0.00     0.029 A 
ATOM     59  C   UNL A   1      40.861  32.189  36.150  1.00  0.00     0.049 A 
ATOM     60  H   UNL A   1      40.688  31.089  34.358  1.00  0.00     0.167 HD
ATOM     61  C   UNL A   1      39.029  33.321  34.920  1.00  0.00     0.074 A 
ATOM     62  C   UNL A   1      38.002  34.334  34.787  1.00  0.00     0.031 C 
ATOM     63  C   UNL A   1      39.834  33.188  36.003  1.00  0.00     0.031 A 
BRANCH  50  64
ATOM     64  C   UNL A   1      43.819  28.477  35.637  1.00  0.00    -0.014 A 
ATOM     65  C   UNL A   1      43.502  27.386  36.467  1.00  0.00     0.010 A 
ATOM     66  C   UNL A   1      45.170  28.791  35.407  1.00  0.00     0.010 A 
ATOM     67  C   UNL A   1      44.514  26.650  37.087  1.00  0.00     0.020 A 
ATOM     68  C   UNL A   1      46.188  28.042  36.005  1.00  0.00     0.020 A 
ATOM     69  C   UNL A   1      45.851  26.987  36.857  1.00  0.00     0.054 A 
BRANCH  69  70
ATOM     70  S   UNL A   1      47.148  26.007  37.663  1.00  0.00     0.124 S 
ATOM     71  O   UNL A   1      47.293  26.699  38.941  1.00  0.00    -0.237 OA
ATOM     72  O   UNL A   1      46.548  24.678  37.734  1.00  0.00    -0.237 OA
ATOM     73  O   UNL A   1      48.287  26.126  36.757  1.00  0.00    -0.744 OA
ENDBRANCH  69  70
ENDBRANCH  50  64
BRANCH  51  74
ATOM     74  C   UNL A   1      36.470  33.376  30.971  1.00  0.00    -0.014 A 
ATOM     75  C   UNL A   1      35.195  33.422  31.561  1.00  0.00     0.010 A 
ATOM     76  C   UNL A   1      36.678  34.026  29.740  1.00  0.00     0.010 A 
ATOM     77  C   UNL A   1      34.145  34.092  30.929  1.00  0.00     0.020 A 
ATOM     78  C   UNL A   1      35.636  34.718  29.117  1.00  0.00     0.020 A 
ATOM     79  C   UNL A   1      34.373  34.739  29.711  1.00  0.00     0.054 A 
BRANCH  79  80
ATOM     80  S   UNL A   1      33.011  35.654  28.936  1.00  0.00     0.124 S 
ATOM     81  O   UNL A   1      33.726  36.682  28.186  1.00  0.00    -0.237 OA
ATOM     82  O   UNL A   1      32.353  34.626  28.135  1.00  0.00    -0.237 OA
ATOM     83  O   UNL A   1      32.234  36.136  30.076  1.00  0.00    -0.744 OA
ENDBRANCH  79  80
ENDBRANCH  51  74
BRANCH  63  84
ATOM     84  C   UNL A   1      39.657  34.178  37.123  1.00  0.00    -0.014 A 
ATOM     85  C   UNL A   1      38.955  33.835  38.291  1.00  0.00     0.010 A 
ATOM     86  C   UNL A   1      40.261  35.445  37.030  1.00  0.00     0.010 A 
ATOM     87  C   UNL A   1      38.840  34.751  39.340  1.00  0.00     0.020 A 
ATOM     88  C   UNL A   1      40.170  36.355  38.087  1.00  0.00     0.020 A 
ATOM     89  C   UNL A   1      39.450  36.005  39.231  1.00  0.00     0.054 A 
BRANCH  89  90
ATOM     90  S   UNL A   1      39.336  37.155  40.630  1.00  0.00     0.124 S 
ATOM     91  O   UNL A   1      40.719  37.602  40.770  1.00  0.00    -0.237 OA
ATOM     92  O   UNL A   1      38.396  38.162  40.144  1.00  0.00    -0.237 OA
ATOM     93  O   UNL A   1      38.836  36.322  41.722  1.00  0.00    -0.744 OA
ENDBRANCH  89  90
ENDBRANCH  63  84
ENDBRANCH  37  38
ENDBRANCH  29  32
ENDBRANCH  27  28
ENDBRANCH  26  27
ENDBRANCH  25  26
ENDBRANCH   1  25
TORSDOF 20
ENDMDL
