MODEL 1
REMARK VINA RESULT:     -11.3      0.000      0.000
REMARK SMILES O=C(NCCCCCCNC(=O)c1cccc2c(=O)oc(=O)[nH]c12)c1ccc(-c2c3nc(c(-c4ccc(S(=O)(=O)[O-])cc4)c4ccc([nH]4)c(-c4ccc(S(=O)(=O)[O-])cc4)c4nc(c(-c5ccc(S(=O)(=O)[O-])cc5)c5ccc2[nH]5)C=C4)C=C3)cc1
REMARK SMILES IDX 5 1 4 2 3 3 1 4 2 5 25 7 26 8 84 9 27 10 83 11 28 12 29 13
REMARK SMILES IDX 30 14 77 15 31 16 82 17 76 18 78 19 32 20 81 21 75 22 74 23
REMARK SMILES IDX 33 25 63 26 44 27 62 28 45 29 48 30 61 31 79 32 46 33 47 34
REMARK SMILES IDX 60 36 80 37 49 38 34 39 35 40 43 41 36 42 42 43 37 44 38 45
REMARK SMILES IDX 39 46 40 47 41 48 64 49 65 50 73 51 66 52 72 53 67 54 68 55
REMARK SMILES IDX 69 56 70 57 71 58 50 59 51 60 59 61 52 62 58 63 53 64 54 65
REMARK SMILES IDX 55 66 56 67 57 68 6 69 7 70 8 71 9 72 10 73 11 74 12 76
REMARK SMILES IDX 13 77 14 78 24 79 15 80 17 81 23 82 16 83 18 84 21 85 19 87
REMARK SMILES IDX 20 88 22 89
REMARK H PARENT 3 6 78 24 48 35 10 75 23 86
REMARK Flexibility Score: inf
ROOT
ATOM      1  C   UNL A   1      32.140  27.964  26.634  1.00  0.00     0.021 C 
ENDROOT
BRANCH   1   2
ATOM      2  C   UNL A   1      33.512  28.510  27.008  1.00  0.00     0.116 C 
BRANCH   2   3
ATOM      3  N   UNL A   1      33.453  29.915  27.368  1.00  0.00    -0.352 N 
ATOM      4  O   UNL A   1      34.044  31.785  28.468  1.00  0.00    -0.269 OA
ATOM      5  C   UNL A   1      34.366  30.673  28.055  1.00  0.00     0.251 C 
ATOM      6  H   UNL A   1      32.642  30.392  27.077  1.00  0.00     0.163 HD
BRANCH   5   7
ATOM      7  C   UNL A   1      35.733  30.159  28.296  1.00  0.00     0.039 A 
ATOM      8  C   UNL A   1      36.054  29.654  29.559  1.00  0.00     0.014 A 
ATOM      9  C   UNL A   1      36.715  30.239  27.305  1.00  0.00     0.014 A 
ATOM     10  C   UNL A   1      37.358  29.230  29.827  1.00  0.00     0.010 A 
ATOM     11  C   UNL A   1      37.990  29.737  27.544  1.00  0.00     0.010 A 
ATOM     12  C   UNL A   1      38.337  29.273  28.822  1.00  0.00    -0.014 A 
BRANCH  12  13
ATOM     13  C   UNL A   1      39.762  28.970  29.108  1.00  0.00     0.031 A 
ATOM     14  C   UNL A   1      40.311  27.624  28.709  1.00  0.00     0.074 A 
ATOM     15  C   UNL A   1      40.547  29.864  29.741  1.00  0.00     0.049 A 
ATOM     16  N   UNL A   1      41.479  27.100  28.970  1.00  0.00    -0.248 NA
ATOM     17  C   UNL A   1      39.419  26.738  27.936  1.00  0.00     0.031 C 
ATOM     18  C   UNL A   1      40.132  31.203  30.161  1.00  0.00     0.029 A 
ATOM     19  N   UNL A   1      41.857  29.779  30.144  1.00  0.00    -0.354 N 
ATOM     20  C   UNL A   1      41.452  25.826  28.413  1.00  0.00     0.074 A 
ATOM     21  C   UNL A   1      40.137  25.628  27.853  1.00  0.00     0.031 C 
ATOM     22  C   UNL A   1      41.174  31.821  30.742  1.00  0.00     0.029 A 
ATOM     23  C   UNL A   1      42.314  30.907  30.787  1.00  0.00     0.049 A 
ATOM     24  H   UNL A   1      42.418  28.985  29.987  1.00  0.00     0.167 HD
ATOM     25  C   UNL A   1      42.449  24.917  28.345  1.00  0.00     0.031 A 
ATOM     26  C   UNL A   1      43.508  31.170  31.360  1.00  0.00     0.031 A 
ATOM     27  C   UNL A   1      43.773  25.146  28.858  1.00  0.00     0.049 A 
ATOM     28  C   UNL A   1      44.593  30.126  31.304  1.00  0.00     0.074 A 
ATOM     29  C   UNL A   1      44.866  24.301  28.795  1.00  0.00     0.029 A 
ATOM     30  N   UNL A   1      44.190  26.300  29.503  1.00  0.00    -0.354 N 
ATOM     31  N   UNL A   1      44.561  28.940  30.745  1.00  0.00    -0.248 NA
ATOM     32  C   UNL A   1      45.877  30.452  31.942  1.00  0.00     0.031 C 
ATOM     33  C   UNL A   1      45.921  24.911  29.471  1.00  0.00     0.029 A 
ATOM     34  C   UNL A   1      45.516  26.175  29.870  1.00  0.00     0.049 A 
ATOM     35  H   UNL A   1      43.625  27.089  29.674  1.00  0.00     0.167 HD
ATOM     36  C   UNL A   1      45.826  28.394  30.933  1.00  0.00     0.074 A 
ATOM     37  C   UNL A   1      46.606  29.381  31.649  1.00  0.00     0.031 C 
ATOM     38  C   UNL A   1      46.295  27.181  30.551  1.00  0.00     0.031 A 
BRANCH  25  39
ATOM     39  C   UNL A   1      42.188  23.599  27.663  1.00  0.00    -0.014 A 
ATOM     40  C   UNL A   1      41.468  22.596  28.339  1.00  0.00     0.010 A 
ATOM     41  C   UNL A   1      42.794  23.295  26.430  1.00  0.00     0.010 A 
ATOM     42  C   UNL A   1      41.411  21.298  27.826  1.00  0.00     0.020 A 
ATOM     43  C   UNL A   1      42.709  22.007  25.898  1.00  0.00     0.020 A 
ATOM     44  C   UNL A   1      42.048  21.009  26.617  1.00  0.00     0.054 A 
BRANCH  44  45
ATOM     45  S   UNL A   1      42.039  19.298  26.015  1.00  0.00     0.124 S 
ATOM     46  O   UNL A   1      40.616  19.052  25.807  1.00  0.00    -0.237 OA
ATOM     47  O   UNL A   1      42.850  19.385  24.803  1.00  0.00    -0.237 OA
ATOM     48  O   UNL A   1      42.649  18.546  27.110  1.00  0.00    -0.744 OA
ENDBRANCH  44  45
ENDBRANCH  25  39
BRANCH  26  49
ATOM     49  C   UNL A   1      43.734  32.495  32.010  1.00  0.00    -0.014 A 
ATOM     50  C   UNL A   1      43.461  32.675  33.379  1.00  0.00     0.010 A 
ATOM     51  C   UNL A   1      44.162  33.600  31.254  1.00  0.00     0.010 A 
ATOM     52  C   UNL A   1      43.553  33.940  33.965  1.00  0.00     0.020 A 
ATOM     53  C   UNL A   1      44.294  34.862  31.845  1.00  0.00     0.020 A 
ATOM     54  C   UNL A   1      43.958  35.029  33.191  1.00  0.00     0.054 A 
BRANCH  54  55
ATOM     55  S   UNL A   1      44.024  36.670  33.964  1.00  0.00     0.124 S 
ATOM     56  O   UNL A   1      44.660  37.467  32.918  1.00  0.00    -0.237 OA
ATOM     57  O   UNL A   1      42.614  36.962  34.208  1.00  0.00    -0.237 OA
ATOM     58  O   UNL A   1      44.831  36.453  35.162  1.00  0.00    -0.744 OA
ENDBRANCH  54  55
ENDBRANCH  26  49
BRANCH  38  59
ATOM     59  C   UNL A   1      47.727  26.819  30.852  1.00  0.00    -0.014 A 
ATOM     60  C   UNL A   1      48.044  26.239  32.097  1.00  0.00     0.010 A 
ATOM     61  C   UNL A   1      48.768  27.249  30.011  1.00  0.00     0.010 A 
ATOM     62  C   UNL A   1      49.370  26.166  32.529  1.00  0.00     0.020 A 
ATOM     63  C   UNL A   1      50.099  27.144  30.426  1.00  0.00     0.020 A 
ATOM     64  C   UNL A   1      50.388  26.638  31.697  1.00  0.00     0.054 A 
BRANCH  64  65
ATOM     65  S   UNL A   1      52.092  26.635  32.320  1.00  0.00     0.124 S 
ATOM     66  O   UNL A   1      52.861  26.362  31.110  1.00  0.00    -0.237 OA
ATOM     67  O   UNL A   1      52.232  27.982  32.867  1.00  0.00    -0.237 OA
ATOM     68  O   UNL A   1      52.092  25.563  33.314  1.00  0.00    -0.744 OA
ENDBRANCH  64  65
ENDBRANCH  38  59
ENDBRANCH  12  13
ENDBRANCH   5   7
ENDBRANCH   2   3
ENDBRANCH   1   2
BRANCH   1  69
ATOM     69  C   UNL A   1      31.883  27.870  25.129  1.00  0.00     0.002 C 
BRANCH  69  70
ATOM     70  C   UNL A   1      30.700  26.984  24.727  1.00  0.00     0.002 C 
BRANCH  70  71
ATOM     71  C   UNL A   1      30.982  25.997  23.588  1.00  0.00     0.021 C 
BRANCH  71  72
ATOM     72  C   UNL A   1      30.638  24.543  23.904  1.00  0.00     0.116 C 
BRANCH  72  73
ATOM     73  N   UNL A   1      30.425  24.347  25.328  1.00  0.00    -0.352 N 
ATOM     74  C   UNL A   1      31.262  23.790  26.256  1.00  0.00     0.253 C 
ATOM     75  H   UNL A   1      29.556  24.657  25.673  1.00  0.00     0.163 HD
ATOM     76  O   UNL A   1      30.827  23.422  27.344  1.00  0.00    -0.269 OA
BRANCH  74  77
ATOM     77  C   UNL A   1      32.694  23.599  25.948  1.00  0.00     0.064 A 
ATOM     78  C   UNL A   1      33.572  24.690  26.012  1.00  0.00     0.016 A 
ATOM     79  C   UNL A   1      33.185  22.321  25.646  1.00  0.00     0.071 A 
ATOM     80  C   UNL A   1      34.924  24.517  25.719  1.00  0.00     0.002 A 
ATOM     81  C   UNL A   1      34.529  22.152  25.372  1.00  0.00     0.085 A 
ATOM     82  N   UNL A   1      32.370  21.198  25.600  1.00  0.00    -0.289 N 
ATOM     83  C   UNL A   1      35.404  23.248  25.396  1.00  0.00     0.018 A 
ATOM     84  C   UNL A   1      35.018  20.799  25.074  1.00  0.00     0.349 A 
ATOM     85  C   UNL A   1      32.814  19.952  25.277  1.00  0.00     0.419 A 
ATOM     86  H   UNL A   1      31.416  21.309  25.815  1.00  0.00     0.173 HD
ATOM     87  O   UNL A   1      36.218  20.619  24.887  1.00  0.00    -0.246 OA
ATOM     88  O   UNL A   1      34.133  19.782  25.009  1.00  0.00    -0.372 OA
ATOM     89  O   UNL A   1      32.029  19.006  25.231  1.00  0.00    -0.224 OA
ENDBRANCH  74  77
ENDBRANCH  72  73
ENDBRANCH  71  72
ENDBRANCH  70  71
ENDBRANCH  69  70
ENDBRANCH   1  69
TORSDOF 16
ENDMDL
MODEL 2
REMARK VINA RESULT:     -11.3      2.607      7.940
REMARK SMILES O=C(NCCCCCCNC(=O)c1cccc2c(=O)oc(=O)[nH]c12)c1ccc(-c2c3nc(c(-c4ccc(S(=O)(=O)[O-])cc4)c4ccc([nH]4)c(-c4ccc(S(=O)(=O)[O-])cc4)c4nc(c(-c5ccc(S(=O)(=O)[O-])cc5)c5ccc2[nH]5)C=C4)C=C3)cc1
REMARK SMILES IDX 5 1 4 2 3 3 1 4 2 5 25 7 26 8 84 9 27 10 83 11 28 12 29 13
REMARK SMILES IDX 30 14 77 15 31 16 82 17 76 18 78 19 32 20 81 21 75 22 74 23
REMARK SMILES IDX 33 25 63 26 44 27 62 28 45 29 48 30 61 31 79 32 46 33 47 34
REMARK SMILES IDX 60 36 80 37 49 38 34 39 35 40 43 41 36 42 42 43 37 44 38 45
REMARK SMILES IDX 39 46 40 47 41 48 64 49 65 50 73 51 66 52 72 53 67 54 68 55
REMARK SMILES IDX 69 56 70 57 71 58 50 59 51 60 59 61 52 62 58 63 53 64 54 65
REMARK SMILES IDX 55 66 56 67 57 68 6 69 7 70 8 71 9 72 10 73 11 74 12 76
REMARK SMILES IDX 13 77 14 78 24 79 15 80 17 81 23 82 16 83 18 84 21 85 19 87
REMARK SMILES IDX 20 88 22 89
REMARK H PARENT 3 6 78 24 48 35 10 75 23 86
REMARK Flexibility Score: inf
ROOT
ATOM      1  C   UNL A   1      35.619  22.808  25.262  1.00  0.00     0.021 C 
ENDROOT
BRANCH   1   2
ATOM      2  C   UNL A   1      37.053  23.282  25.059  1.00  0.00     0.116 C 
BRANCH   2   3
ATOM      3  N   UNL A   1      38.014  22.351  25.623  1.00  0.00    -0.352 N 
ATOM      4  O   UNL A   1      39.973  21.704  26.516  1.00  0.00    -0.269 OA
ATOM      5  C   UNL A   1      39.167  22.610  26.317  1.00  0.00     0.251 C 
ATOM      6  H   UNL A   1      37.808  21.398  25.488  1.00  0.00     0.163 HD
BRANCH   5   7
ATOM      7  C   UNL A   1      39.441  23.972  26.829  1.00  0.00     0.039 A 
ATOM      8  C   UNL A   1      40.122  24.878  26.011  1.00  0.00     0.014 A 
ATOM      9  C   UNL A   1      39.093  24.333  28.133  1.00  0.00     0.014 A 
ATOM     10  C   UNL A   1      40.452  26.144  26.501  1.00  0.00     0.010 A 
ATOM     11  C   UNL A   1      39.344  25.622  28.590  1.00  0.00     0.010 A 
ATOM     12  C   UNL A   1      40.069  26.524  27.796  1.00  0.00    -0.014 A 
BRANCH  12  13
ATOM     13  C   UNL A   1      40.526  27.800  28.403  1.00  0.00     0.031 A 
ATOM     14  C   UNL A   1      41.956  27.908  28.870  1.00  0.00     0.074 A 
ATOM     15  C   UNL A   1      39.677  28.832  28.568  1.00  0.00     0.049 A 
ATOM     16  N   UNL A   1      42.534  28.871  29.537  1.00  0.00    -0.248 NA
ATOM     17  C   UNL A   1      42.848  26.772  28.570  1.00  0.00     0.031 C 
ATOM     18  C   UNL A   1      38.277  28.850  28.142  1.00  0.00     0.029 A 
ATOM     19  N   UNL A   1      39.867  30.067  29.139  1.00  0.00    -0.354 N 
ATOM     20  C   UNL A   1      43.841  28.449  29.749  1.00  0.00     0.074 A 
ATOM     21  C   UNL A   1      43.960  27.121  29.198  1.00  0.00     0.031 C 
ATOM     22  C   UNL A   1      37.742  30.044  28.447  1.00  0.00     0.029 A 
ATOM     23  C   UNL A   1      38.741  30.858  29.138  1.00  0.00     0.049 A 
ATOM     24  H   UNL A   1      40.730  30.359  29.513  1.00  0.00     0.167 HD
ATOM     25  C   UNL A   1      44.861  29.125  30.323  1.00  0.00     0.031 A 
ATOM     26  C   UNL A   1      38.531  32.090  29.649  1.00  0.00     0.031 A 
ATOM     27  C   UNL A   1      44.746  30.470  30.820  1.00  0.00     0.049 A 
ATOM     28  C   UNL A   1      39.673  32.810  30.318  1.00  0.00     0.074 A 
ATOM     29  C   UNL A   1      45.737  31.256  31.378  1.00  0.00     0.029 A 
ATOM     30  N   UNL A   1      43.587  31.230  30.802  1.00  0.00    -0.354 N 
ATOM     31  N   UNL A   1      40.912  32.409  30.481  1.00  0.00    -0.248 NA
ATOM     32  C   UNL A   1      39.402  34.149  30.861  1.00  0.00     0.031 C 
ATOM     33  C   UNL A   1      45.160  32.463  31.769  1.00  0.00     0.029 A 
ATOM     34  C   UNL A   1      43.833  32.467  31.367  1.00  0.00     0.049 A 
ATOM     35  H   UNL A   1      42.720  30.933  30.441  1.00  0.00     0.167 HD
ATOM     36  C   UNL A   1      41.573  33.456  31.113  1.00  0.00     0.074 A 
ATOM     37  C   UNL A   1      40.603  34.515  31.295  1.00  0.00     0.031 C 
ATOM     38  C   UNL A   1      42.866  33.529  31.510  1.00  0.00     0.031 A 
BRANCH  25  39
ATOM     39  C   UNL A   1      46.210  28.462  30.421  1.00  0.00    -0.014 A 
ATOM     40  C   UNL A   1      47.107  28.544  29.340  1.00  0.00     0.010 A 
ATOM     41  C   UNL A   1      46.522  27.625  31.509  1.00  0.00     0.010 A 
ATOM     42  C   UNL A   1      48.259  27.754  29.314  1.00  0.00     0.020 A 
ATOM     43  C   UNL A   1      47.691  26.862  31.502  1.00  0.00     0.020 A 
ATOM     44  C   UNL A   1      48.533  26.905  30.389  1.00  0.00     0.054 A 
BRANCH  44  45
ATOM     45  S   UNL A   1      49.985  25.822  30.295  1.00  0.00     0.124 S 
ATOM     46  O   UNL A   1      51.086  26.779  30.338  1.00  0.00    -0.237 OA
ATOM     47  O   UNL A   1      49.831  24.982  31.481  1.00  0.00    -0.237 OA
ATOM     48  O   UNL A   1      49.812  25.125  29.022  1.00  0.00    -0.744 OA
ENDBRANCH  44  45
ENDBRANCH  25  39
BRANCH  26  49
ATOM     49  C   UNL A   1      37.184  32.720  29.515  1.00  0.00    -0.014 A 
ATOM     50  C   UNL A   1      36.849  33.451  28.360  1.00  0.00     0.010 A 
ATOM     51  C   UNL A   1      36.252  32.649  30.565  1.00  0.00     0.010 A 
ATOM     52  C   UNL A   1      35.638  34.144  28.280  1.00  0.00     0.020 A 
ATOM     53  C   UNL A   1      35.022  33.309  30.475  1.00  0.00     0.020 A 
ATOM     54  C   UNL A   1      34.736  34.079  29.344  1.00  0.00     0.054 A 
BRANCH  54  55
ATOM     55  S   UNL A   1      33.192  35.026  29.235  1.00  0.00     0.124 S 
ATOM     56  O   UNL A   1      32.717  34.981  30.615  1.00  0.00    -0.237 OA
ATOM     57  O   UNL A   1      33.654  36.332  28.772  1.00  0.00    -0.237 OA
ATOM     58  O   UNL A   1      32.393  34.272  28.273  1.00  0.00    -0.744 OA
ENDBRANCH  54  55
ENDBRANCH  26  49
BRANCH  38  59
ATOM     59  C   UNL A   1      43.364  34.794  32.163  1.00  0.00    -0.014 A 
ATOM     60  C   UNL A   1      43.193  34.967  33.551  1.00  0.00     0.010 A 
ATOM     61  C   UNL A   1      43.790  35.884  31.384  1.00  0.00     0.010 A 
ATOM     62  C   UNL A   1      43.363  36.223  34.136  1.00  0.00     0.020 A 
ATOM     63  C   UNL A   1      43.997  37.134  31.973  1.00  0.00     0.020 A 
ATOM     64  C   UNL A   1      43.745  37.304  33.338  1.00  0.00     0.054 A 
BRANCH  64  65
ATOM     65  S   UNL A   1      43.854  38.949  34.096  1.00  0.00     0.124 S 
ATOM     66  O   UNL A   1      43.832  38.634  35.521  1.00  0.00    -0.237 OA
ATOM     67  O   UNL A   1      45.124  39.452  33.581  1.00  0.00    -0.237 OA
ATOM     68  O   UNL A   1      42.668  39.639  33.592  1.00  0.00    -0.744 OA
ENDBRANCH  64  65
ENDBRANCH  38  59
ENDBRANCH  12  13
ENDBRANCH   5   7
ENDBRANCH   2   3
ENDBRANCH   1   2
BRANCH   1  69
ATOM     69  C   UNL A   1      34.694  23.841  25.906  1.00  0.00     0.002 C 
BRANCH  69  70
ATOM     70  C   UNL A   1      34.779  25.249  25.311  1.00  0.00     0.002 C 
BRANCH  70  71
ATOM     71  C   UNL A   1      33.667  26.210  25.748  1.00  0.00     0.021 C 
BRANCH  71  72
ATOM     72  C   UNL A   1      33.275  27.250  24.700  1.00  0.00     0.116 C 
BRANCH  72  73
ATOM     73  N   UNL A   1      31.838  27.263  24.479  1.00  0.00    -0.352 N 
ATOM     74  C   UNL A   1      31.057  26.340  23.839  1.00  0.00     0.253 C 
ATOM     75  H   UNL A   1      31.362  28.045  24.840  1.00  0.00     0.163 HD
ATOM     76  O   UNL A   1      29.923  26.635  23.472  1.00  0.00    -0.269 OA
BRANCH  74  77
ATOM     77  C   UNL A   1      31.581  24.988  23.556  1.00  0.00     0.064 A 
ATOM     78  C   UNL A   1      32.398  24.778  22.436  1.00  0.00     0.016 A 
ATOM     79  C   UNL A   1      31.307  23.930  24.432  1.00  0.00     0.071 A 
ATOM     80  C   UNL A   1      32.892  23.503  22.161  1.00  0.00     0.002 A 
ATOM     81  C   UNL A   1      31.813  22.672  24.164  1.00  0.00     0.085 A 
ATOM     82  N   UNL A   1      30.532  24.084  25.573  1.00  0.00    -0.289 N 
ATOM     83  C   UNL A   1      32.598  22.448  23.024  1.00  0.00     0.018 A 
ATOM     84  C   UNL A   1      31.523  21.584  25.108  1.00  0.00     0.349 A 
ATOM     85  C   UNL A   1      30.223  23.066  26.424  1.00  0.00     0.419 A 
ATOM     86  H   UNL A   1      30.187  24.982  25.781  1.00  0.00     0.173 HD
ATOM     87  O   UNL A   1      32.013  20.474  24.920  1.00  0.00    -0.246 OA
ATOM     88  O   UNL A   1      30.719  21.831  26.164  1.00  0.00    -0.372 OA
ATOM     89  O   UNL A   1      29.508  23.271  27.403  1.00  0.00    -0.224 OA
ENDBRANCH  74  77
ENDBRANCH  72  73
ENDBRANCH  71  72
ENDBRANCH  70  71
ENDBRANCH  69  70
ENDBRANCH   1  69
TORSDOF 16
ENDMDL
MODEL 3
REMARK VINA RESULT:     -11.1      1.291      8.486
REMARK SMILES O=C(NCCCCCCNC(=O)c1cccc2c(=O)oc(=O)[nH]c12)c1ccc(-c2c3nc(c(-c4ccc(S(=O)(=O)[O-])cc4)c4ccc([nH]4)c(-c4ccc(S(=O)(=O)[O-])cc4)c4nc(c(-c5ccc(S(=O)(=O)[O-])cc5)c5ccc2[nH]5)C=C4)C=C3)cc1
REMARK SMILES IDX 5 1 4 2 3 3 1 4 2 5 25 7 26 8 84 9 27 10 83 11 28 12 29 13
REMARK SMILES IDX 30 14 77 15 31 16 82 17 76 18 78 19 32 20 81 21 75 22 74 23
REMARK SMILES IDX 33 25 63 26 44 27 62 28 45 29 48 30 61 31 79 32 46 33 47 34
REMARK SMILES IDX 60 36 80 37 49 38 34 39 35 40 43 41 36 42 42 43 37 44 38 45
REMARK SMILES IDX 39 46 40 47 41 48 64 49 65 50 73 51 66 52 72 53 67 54 68 55
REMARK SMILES IDX 69 56 70 57 71 58 50 59 51 60 59 61 52 62 58 63 53 64 54 65
REMARK SMILES IDX 55 66 56 67 57 68 6 69 7 70 8 71 9 72 10 73 11 74 12 76
REMARK SMILES IDX 13 77 14 78 24 79 15 80 17 81 23 82 16 83 18 84 21 85 19 87
REMARK SMILES IDX 20 88 22 89
REMARK H PARENT 3 6 78 24 48 35 10 75 23 86
REMARK Flexibility Score: inf
ROOT
ATOM      1  C   UNL A   1      32.319  28.279  27.229  1.00  0.00     0.021 C 
ENDROOT
BRANCH   1   2
ATOM      2  C   UNL A   1      33.690  28.929  27.087  1.00  0.00     0.116 C 
BRANCH   2   3
ATOM      3  N   UNL A   1      33.705  30.277  27.626  1.00  0.00    -0.352 N 
ATOM      4  O   UNL A   1      34.390  31.953  28.959  1.00  0.00    -0.269 OA
ATOM      5  C   UNL A   1      34.654  30.889  28.404  1.00  0.00     0.251 C 
ATOM      6  H   UNL A   1      32.922  30.831  27.402  1.00  0.00     0.163 HD
BRANCH   5   7
ATOM      7  C   UNL A   1      35.990  30.275  28.573  1.00  0.00     0.039 A 
ATOM      8  C   UNL A   1      36.314  29.684  29.797  1.00  0.00     0.014 A 
ATOM      9  C   UNL A   1      36.945  30.342  27.555  1.00  0.00     0.014 A 
ATOM     10  C   UNL A   1      37.594  29.162  30.000  1.00  0.00     0.010 A 
ATOM     11  C   UNL A   1      38.189  29.745  27.726  1.00  0.00     0.010 A 
ATOM     12  C   UNL A   1      38.543  29.193  28.967  1.00  0.00    -0.014 A 
BRANCH  12  13
ATOM     13  C   UNL A   1      39.953  28.784  29.189  1.00  0.00     0.031 A 
ATOM     14  C   UNL A   1      40.906  29.776  29.805  1.00  0.00     0.074 A 
ATOM     15  C   UNL A   1      40.386  27.563  28.820  1.00  0.00     0.049 A 
ATOM     16  N   UNL A   1      42.199  29.681  29.973  1.00  0.00    -0.248 NA
ATOM     17  C   UNL A   1      40.337  31.056  30.269  1.00  0.00     0.031 C 
ATOM     18  C   UNL A   1      39.554  26.514  28.230  1.00  0.00     0.029 A 
ATOM     19  N   UNL A   1      41.636  26.998  28.885  1.00  0.00    -0.354 N 
ATOM     20  C   UNL A   1      42.593  30.887  30.541  1.00  0.00     0.074 A 
ATOM     21  C   UNL A   1      41.420  31.724  30.634  1.00  0.00     0.031 C 
ATOM     22  C   UNL A   1      40.311  25.427  28.008  1.00  0.00     0.029 A 
ATOM     23  C   UNL A   1      41.693  25.717  28.387  1.00  0.00     0.049 A 
ATOM     24  H   UNL A   1      42.420  27.467  29.254  1.00  0.00     0.167 HD
ATOM     25  C   UNL A   1      43.818  31.250  30.978  1.00  0.00     0.031 A 
ATOM     26  C   UNL A   1      42.739  24.876  28.237  1.00  0.00     0.031 A 
ATOM     27  C   UNL A   1      44.969  30.389  30.931  1.00  0.00     0.049 A 
ATOM     28  C   UNL A   1      44.104  25.317  28.698  1.00  0.00     0.074 A 
ATOM     29  C   UNL A   1      46.246  30.652  31.392  1.00  0.00     0.029 A 
ATOM     30  N   UNL A   1      44.981  29.102  30.416  1.00  0.00    -0.354 N 
ATOM     31  N   UNL A   1      44.453  26.449  29.262  1.00  0.00    -0.248 NA
ATOM     32  C   UNL A   1      45.216  24.372  28.516  1.00  0.00     0.031 C 
ATOM     33  C   UNL A   1      47.049  29.554  31.085  1.00  0.00     0.029 A 
ATOM     34  C   UNL A   1      46.252  28.570  30.521  1.00  0.00     0.049 A 
ATOM     35  H   UNL A   1      44.201  28.638  30.032  1.00  0.00     0.167 HD
ATOM     36  C   UNL A   1      45.813  26.339  29.533  1.00  0.00     0.074 A 
ATOM     37  C   UNL A   1      46.225  25.027  29.081  1.00  0.00     0.031 C 
ATOM     38  C   UNL A   1      46.643  27.246  30.100  1.00  0.00     0.031 A 
BRANCH  25  39
ATOM     39  C   UNL A   1      44.000  32.617  31.586  1.00  0.00    -0.014 A 
ATOM     40  C   UNL A   1      43.909  32.777  32.981  1.00  0.00     0.010 A 
ATOM     41  C   UNL A   1      44.094  33.760  30.770  1.00  0.00     0.010 A 
ATOM     42  C   UNL A   1      43.844  34.053  33.545  1.00  0.00     0.020 A 
ATOM     43  C   UNL A   1      44.066  35.037  31.334  1.00  0.00     0.020 A 
ATOM     44  C   UNL A   1      43.905  35.175  32.714  1.00  0.00     0.054 A 
BRANCH  44  45
ATOM     45  S   UNL A   1      43.729  36.820  33.457  1.00  0.00     0.124 S 
ATOM     46  O   UNL A   1      44.882  36.880  34.349  1.00  0.00    -0.237 OA
ATOM     47  O   UNL A   1      43.783  37.700  32.293  1.00  0.00    -0.237 OA
ATOM     48  O   UNL A   1      42.428  36.759  34.121  1.00  0.00    -0.744 OA
ENDBRANCH  44  45
ENDBRANCH  25  39
BRANCH  26  49
ATOM     49  C   UNL A   1      42.515  23.523  27.647  1.00  0.00    -0.014 A 
ATOM     50  C   UNL A   1      42.086  22.453  28.455  1.00  0.00     0.010 A 
ATOM     51  C   UNL A   1      42.789  23.279  26.290  1.00  0.00     0.010 A 
ATOM     52  C   UNL A   1      41.992  21.159  27.935  1.00  0.00     0.020 A 
ATOM     53  C   UNL A   1      42.659  21.992  25.755  1.00  0.00     0.020 A 
ATOM     54  C   UNL A   1      42.291  20.935  26.590  1.00  0.00     0.054 A 
BRANCH  54  55
ATOM     55  S   UNL A   1      42.207  19.238  25.952  1.00  0.00     0.124 S 
ATOM     56  O   UNL A   1      43.068  19.319  24.776  1.00  0.00    -0.237 OA
ATOM     57  O   UNL A   1      42.736  18.455  27.066  1.00  0.00    -0.237 OA
ATOM     58  O   UNL A   1      40.787  19.044  25.675  1.00  0.00    -0.744 OA
ENDBRANCH  54  55
ENDBRANCH  26  49
BRANCH  38  59
ATOM     59  C   UNL A   1      48.091  26.885  30.313  1.00  0.00    -0.014 A 
ATOM     60  C   UNL A   1      48.501  26.386  31.566  1.00  0.00     0.010 A 
ATOM     61  C   UNL A   1      49.067  27.241  29.365  1.00  0.00     0.010 A 
ATOM     62  C   UNL A   1      49.857  26.324  31.896  1.00  0.00     0.020 A 
ATOM     63  C   UNL A   1      50.425  27.145  29.680  1.00  0.00     0.020 A 
ATOM     64  C   UNL A   1      50.809  26.723  30.957  1.00  0.00     0.054 A 
BRANCH  64  65
ATOM     65  S   UNL A   1      52.557  26.738  31.443  1.00  0.00     0.124 S 
ATOM     66  O   UNL A   1      52.519  27.468  32.706  1.00  0.00    -0.237 OA
ATOM     67  O   UNL A   1      52.870  25.316  31.545  1.00  0.00    -0.237 OA
ATOM     68  O   UNL A   1      53.215  27.436  30.340  1.00  0.00    -0.744 OA
ENDBRANCH  64  65
ENDBRANCH  38  59
ENDBRANCH  12  13
ENDBRANCH   5   7
ENDBRANCH   2   3
ENDBRANCH   1   2
BRANCH   1  69
ATOM     69  C   UNL A   1      31.856  27.497  25.999  1.00  0.00     0.002 C 
BRANCH  69  70
ATOM     70  C   UNL A   1      31.386  28.357  24.823  1.00  0.00     0.002 C 
BRANCH  70  71
ATOM     71  C   UNL A   1      32.187  28.184  23.527  1.00  0.00     0.021 C 
BRANCH  71  72
ATOM     72  C   UNL A   1      33.492  27.405  23.684  1.00  0.00     0.116 C 
BRANCH  72  73
ATOM     73  N   UNL A   1      33.597  26.344  22.696  1.00  0.00    -0.352 N 
ATOM     74  C   UNL A   1      33.360  25.005  22.842  1.00  0.00     0.253 C 
ATOM     75  H   UNL A   1      33.879  26.630  21.797  1.00  0.00     0.163 HD
ATOM     76  O   UNL A   1      33.780  24.206  22.010  1.00  0.00    -0.269 OA
BRANCH  74  77
ATOM     77  C   UNL A   1      32.620  24.503  24.018  1.00  0.00     0.064 A 
ATOM     78  C   UNL A   1      31.218  24.533  24.024  1.00  0.00     0.016 A 
ATOM     79  C   UNL A   1      33.314  23.949  25.102  1.00  0.00     0.071 A 
ATOM     80  C   UNL A   1      30.515  24.063  25.133  1.00  0.00     0.002 A 
ATOM     81  C   UNL A   1      32.610  23.471  26.192  1.00  0.00     0.085 A 
ATOM     82  N   UNL A   1      34.699  23.863  25.140  1.00  0.00    -0.289 N 
ATOM     83  C   UNL A   1      31.210  23.534  26.219  1.00  0.00     0.018 A 
ATOM     84  C   UNL A   1      33.363  22.881  27.308  1.00  0.00     0.349 A 
ATOM     85  C   UNL A   1      35.400  23.360  26.194  1.00  0.00     0.419 A 
ATOM     86  H   UNL A   1      35.204  24.182  24.358  1.00  0.00     0.173 HD
ATOM     87  O   UNL A   1      32.755  22.397  28.257  1.00  0.00    -0.246 OA
ATOM     88  O   UNL A   1      34.712  22.889  27.264  1.00  0.00    -0.372 OA
ATOM     89  O   UNL A   1      36.629  23.339  26.169  1.00  0.00    -0.224 OA
ENDBRANCH  74  77
ENDBRANCH  72  73
ENDBRANCH  71  72
ENDBRANCH  70  71
ENDBRANCH  69  70
ENDBRANCH   1  69
TORSDOF 16
ENDMDL
