MODEL 1
REMARK VINA RESULT:     -10.5      0.000      0.000
REMARK SMILES CSc1ccc(NS(=O)(=O)c2ccc(C(=O)NCCCCCCNC(=O)c3ccc(-c4c5nc(c(-c6ccc(S(=O)(=O)[O-])cc6)c6ccc([nH]6)c(-c6ccc(S(=O)(=O)[O-])cc6)c6nc(c(-c7ccc(S(=O)(=O)[O-])cc7)c7ccc4[nH]7)C=C6)C=C5)cc3)cc2)cc1
REMARK SMILES IDX 20 1 19 2 18 3 17 4 15 5 16 6 14 8 11 9 12 10 88 11 13 12
REMARK SMILES IDX 87 13 8 14 9 15 10 16 7 17 6 19 3 20 4 21 90 22 5 23 89 24
REMARK SMILES IDX 2 25 1 26 21 27 22 28 23 29 24 30 25 31 26 33 27 34 28 35
REMARK SMILES IDX 86 36 29 37 85 38 30 39 31 40 32 41 79 42 33 43 84 44 78 45
REMARK SMILES IDX 80 46 34 47 83 48 77 49 76 50 35 52 65 53 46 54 64 55 47 56
REMARK SMILES IDX 50 57 63 58 81 59 48 60 49 61 62 63 82 64 51 65 36 66 37 67
REMARK SMILES IDX 45 68 38 69 44 70 39 71 40 72 41 73 42 74 43 75 66 76 67 77
REMARK SMILES IDX 75 78 68 79 74 80 69 81 70 82 71 83 72 84 73 85 52 86 53 87
REMARK SMILES IDX 61 88 54 89 60 90 55 91 56 92 57 93 58 94 59 95
REMARK H PARENT 17 7 7 18 24 32 80 51 50 62
REMARK Flexibility Score: inf
ROOT
ATOM      1  C   UNL A   1      36.228  22.638  25.482  1.00  0.00     0.002 C 
ENDROOT
BRANCH   1   2
ATOM      2  C   UNL A   1      35.670  21.317  26.033  1.00  0.00     0.021 C 
BRANCH   2   3
ATOM      3  C   UNL A   1      35.463  20.247  24.963  1.00  0.00     0.116 C 
BRANCH   3   4
ATOM      4  N   UNL A   1      34.212  19.551  25.192  1.00  0.00    -0.352 N 
ATOM      5  C   UNL A   1      32.919  19.948  24.999  1.00  0.00     0.251 C 
ATOM      6  O   UNL A   1      32.008  19.151  25.220  1.00  0.00    -0.269 OA
ATOM      7  H   UNL A   1      34.310  18.637  25.546  1.00  0.00     0.163 HD
BRANCH   5   8
ATOM      8  C   UNL A   1      32.577  21.298  24.494  1.00  0.00     0.039 A 
ATOM      9  C   UNL A   1      32.200  23.952  23.728  1.00  0.00     0.087 A 
ATOM     10  C   UNL A   1      32.098  23.602  25.078  1.00  0.00     0.023 A 
ATOM     11  C   UNL A   1      32.417  22.976  22.747  1.00  0.00     0.023 A 
ATOM     12  C   UNL A   1      32.306  22.278  25.458  1.00  0.00     0.015 A 
ATOM     13  C   UNL A   1      32.628  21.648  23.137  1.00  0.00     0.015 A 
BRANCH   9  14
ATOM     14  S   UNL A   1      32.168  25.674  23.291  1.00  0.00     0.261 S 
ATOM     15  O   UNL A   1      31.556  25.811  21.990  1.00  0.00    -0.201 OA
ATOM     16  O   UNL A   1      33.484  26.227  23.551  1.00  0.00    -0.201 OA
BRANCH  14  17
ATOM     17  N   UNL A   1      31.113  26.396  24.430  1.00  0.00    -0.280 N 
ATOM     18  H   UNL A   1      30.920  25.961  25.293  1.00  0.00     0.180 HD
BRANCH  17  19
ATOM     19  C   UNL A   1      30.519  27.655  24.087  1.00  0.00     0.049 A 
ATOM     20  C   UNL A   1      29.417  30.101  23.225  1.00  0.00     0.007 A 
ATOM     21  C   UNL A   1      28.898  28.884  22.774  1.00  0.00     0.017 A 
ATOM     22  C   UNL A   1      30.484  30.078  24.131  1.00  0.00     0.017 A 
ATOM     23  C   UNL A   1      29.425  27.673  23.225  1.00  0.00     0.028 A 
ATOM     24  C   UNL A   1      31.047  28.859  24.549  1.00  0.00     0.028 A 
BRANCH  20  25
ATOM     25  S   UNL A   1      28.705  31.584  22.527  1.00  0.00    -0.130 SA
ATOM     26  C   UNL A   1      27.981  30.996  20.978  1.00  0.00     0.091 C 
ENDBRANCH  20  25
ENDBRANCH  17  19
ENDBRANCH  14  17
ENDBRANCH   9  14
ENDBRANCH   5   8
ENDBRANCH   3   4
ENDBRANCH   2   3
ENDBRANCH   1   2
BRANCH   1  27
ATOM     27  C   UNL A   1      37.755  22.769  25.539  1.00  0.00     0.002 C 
BRANCH  27  28
ATOM     28  C   UNL A   1      38.523  21.454  25.379  1.00  0.00     0.021 C 
BRANCH  28  29
ATOM     29  C   UNL A   1      39.501  21.156  26.511  1.00  0.00     0.116 C 
BRANCH  29  30
ATOM     30  N   UNL A   1      40.390  20.052  26.180  1.00  0.00    -0.352 N 
ATOM     31  C   UNL A   1      41.739  20.073  25.925  1.00  0.00     0.251 C 
ATOM     32  H   UNL A   1      39.965  19.165  26.133  1.00  0.00     0.163 HD
ATOM     33  O   UNL A   1      42.295  19.095  25.437  1.00  0.00    -0.269 OA
BRANCH  31  34
ATOM     34  C   UNL A   1      42.513  21.295  26.229  1.00  0.00     0.039 A 
ATOM     35  C   UNL A   1      42.784  22.204  25.204  1.00  0.00     0.014 A 
ATOM     36  C   UNL A   1      42.948  21.548  27.533  1.00  0.00     0.014 A 
ATOM     37  C   UNL A   1      43.424  23.409  25.503  1.00  0.00     0.010 A 
ATOM     38  C   UNL A   1      43.531  22.773  27.840  1.00  0.00     0.010 A 
ATOM     39  C   UNL A   1      43.761  23.721  26.831  1.00  0.00    -0.014 A 
BRANCH  39  40
ATOM     40  C   UNL A   1      44.310  25.049  27.200  1.00  0.00     0.031 A 
ATOM     41  C   UNL A   1      43.410  26.115  27.757  1.00  0.00     0.074 A 
ATOM     42  C   UNL A   1      45.605  25.321  26.943  1.00  0.00     0.049 A 
ATOM     43  N   UNL A   1      43.688  27.362  28.040  1.00  0.00    -0.248 NA
ATOM     44  C   UNL A   1      42.012  25.735  28.013  1.00  0.00     0.031 C 
ATOM     45  C   UNL A   1      46.573  24.378  26.378  1.00  0.00     0.029 A 
ATOM     46  N   UNL A   1      46.327  26.477  27.108  1.00  0.00    -0.354 N 
ATOM     47  C   UNL A   1      42.499  27.920  28.494  1.00  0.00     0.074 A 
ATOM     48  C   UNL A   1      41.489  26.887  28.409  1.00  0.00     0.031 C 
ATOM     49  C   UNL A   1      47.764  24.986  26.261  1.00  0.00     0.029 A 
ATOM     50  C   UNL A   1      47.634  26.374  26.695  1.00  0.00     0.049 A 
ATOM     51  H   UNL A   1      45.945  27.301  27.487  1.00  0.00     0.167 HD
ATOM     52  C   UNL A   1      42.274  29.174  28.953  1.00  0.00     0.031 A 
ATOM     53  C   UNL A   1      48.616  27.295  26.648  1.00  0.00     0.031 A 
ATOM     54  C   UNL A   1      43.281  30.198  29.029  1.00  0.00     0.049 A 
ATOM     55  C   UNL A   1      48.327  28.697  27.108  1.00  0.00     0.074 A 
ATOM     56  C   UNL A   1      43.166  31.483  29.530  1.00  0.00     0.029 A 
ATOM     57  N   UNL A   1      44.586  30.060  28.579  1.00  0.00    -0.354 N 
ATOM     58  N   UNL A   1      47.213  29.188  27.597  1.00  0.00    -0.248 NA
ATOM     59  C   UNL A   1      49.424  29.670  27.004  1.00  0.00     0.031 C 
ATOM     60  C   UNL A   1      44.384  32.141  29.328  1.00  0.00     0.029 A 
ATOM     61  C   UNL A   1      45.276  31.248  28.754  1.00  0.00     0.049 A 
ATOM     62  H   UNL A   1      44.966  29.238  28.193  1.00  0.00     0.167 HD
ATOM     63  C   UNL A   1      47.479  30.525  27.873  1.00  0.00     0.074 A 
ATOM     64  C   UNL A   1      48.862  30.760  27.512  1.00  0.00     0.031 C 
ATOM     65  C   UNL A   1      46.649  31.471  28.376  1.00  0.00     0.031 A 
BRANCH  52  66
ATOM     66  C   UNL A   1      40.873  29.509  29.394  1.00  0.00    -0.014 A 
ATOM     67  C   UNL A   1      40.533  29.561  30.759  1.00  0.00     0.010 A 
ATOM     68  C   UNL A   1      39.886  29.797  28.434  1.00  0.00     0.010 A 
ATOM     69  C   UNL A   1      39.224  29.845  31.153  1.00  0.00     0.020 A 
ATOM     70  C   UNL A   1      38.580  30.109  28.824  1.00  0.00     0.020 A 
ATOM     71  C   UNL A   1      38.253  30.110  30.182  1.00  0.00     0.054 A 
BRANCH  71  72
ATOM     72  S   UNL A   1      36.560  30.473  30.722  1.00  0.00     0.124 S 
ATOM     73  O   UNL A   1      36.471  29.710  31.964  1.00  0.00    -0.237 OA
ATOM     74  O   UNL A   1      36.576  31.925  30.878  1.00  0.00    -0.237 OA
ATOM     75  O   UNL A   1      35.732  29.976  29.626  1.00  0.00    -0.744 OA
ENDBRANCH  71  72
ENDBRANCH  52  66
BRANCH  53  76
ATOM     76  C   UNL A   1      49.963  26.915  26.145  1.00  0.00    -0.014 A 
ATOM     77  C   UNL A   1      50.343  27.228  24.829  1.00  0.00     0.010 A 
ATOM     78  C   UNL A   1      50.886  26.271  26.989  1.00  0.00     0.010 A 
ATOM     79  C   UNL A   1      51.620  26.901  24.364  1.00  0.00     0.020 A 
ATOM     80  C   UNL A   1      52.173  25.965  26.536  1.00  0.00     0.020 A 
ATOM     81  C   UNL A   1      52.529  26.277  25.222  1.00  0.00     0.054 A 
BRANCH  81  82
ATOM     82  S   UNL A   1      54.205  25.929  24.619  1.00  0.00     0.124 S 
ATOM     83  O   UNL A   1      54.366  24.521  24.965  1.00  0.00    -0.237 OA
ATOM     84  O   UNL A   1      54.092  26.222  23.192  1.00  0.00    -0.237 OA
ATOM     85  O   UNL A   1      55.039  26.862  25.373  1.00  0.00    -0.744 OA
ENDBRANCH  81  82
ENDBRANCH  53  76
BRANCH  65  86
ATOM     86  C   UNL A   1      47.211  32.854  28.572  1.00  0.00    -0.014 A 
ATOM     87  C   UNL A   1      47.882  33.196  29.759  1.00  0.00     0.010 A 
ATOM     88  C   UNL A   1      47.135  33.794  27.528  1.00  0.00     0.010 A 
ATOM     89  C   UNL A   1      48.460  34.460  29.903  1.00  0.00     0.020 A 
ATOM     90  C   UNL A   1      47.733  35.050  27.659  1.00  0.00     0.020 A 
ATOM     91  C   UNL A   1      48.387  35.377  28.849  1.00  0.00     0.054 A 
BRANCH  91  92
ATOM     92  S   UNL A   1      49.212  36.982  29.033  1.00  0.00     0.124 S 
ATOM     93  O   UNL A   1      49.939  36.808  30.287  1.00  0.00    -0.237 OA
ATOM     94  O   UNL A   1      50.039  37.056  27.832  1.00  0.00    -0.237 OA
ATOM     95  O   UNL A   1      48.106  37.937  29.082  1.00  0.00    -0.744 OA
ENDBRANCH  91  92
ENDBRANCH  65  86
ENDBRANCH  39  40
ENDBRANCH  31  34
ENDBRANCH  29  30
ENDBRANCH  28  29
ENDBRANCH  27  28
ENDBRANCH   1  27
TORSDOF 20
ENDMDL
MODEL 2
REMARK VINA RESULT:     -10.0      6.337     11.328
REMARK SMILES CSc1ccc(NS(=O)(=O)c2ccc(C(=O)NCCCCCCNC(=O)c3ccc(-c4c5nc(c(-c6ccc(S(=O)(=O)[O-])cc6)c6ccc([nH]6)c(-c6ccc(S(=O)(=O)[O-])cc6)c6nc(c(-c7ccc(S(=O)(=O)[O-])cc7)c7ccc4[nH]7)C=C6)C=C5)cc3)cc2)cc1
REMARK SMILES IDX 20 1 19 2 18 3 17 4 15 5 16 6 14 8 11 9 12 10 88 11 13 12
REMARK SMILES IDX 87 13 8 14 9 15 10 16 7 17 6 19 3 20 4 21 90 22 5 23 89 24
REMARK SMILES IDX 2 25 1 26 21 27 22 28 23 29 24 30 25 31 26 33 27 34 28 35
REMARK SMILES IDX 86 36 29 37 85 38 30 39 31 40 32 41 79 42 33 43 84 44 78 45
REMARK SMILES IDX 80 46 34 47 83 48 77 49 76 50 35 52 65 53 46 54 64 55 47 56
REMARK SMILES IDX 50 57 63 58 81 59 48 60 49 61 62 63 82 64 51 65 36 66 37 67
REMARK SMILES IDX 45 68 38 69 44 70 39 71 40 72 41 73 42 74 43 75 66 76 67 77
REMARK SMILES IDX 75 78 68 79 74 80 69 81 70 82 71 83 72 84 73 85 52 86 53 87
REMARK SMILES IDX 61 88 54 89 60 90 55 91 56 92 57 93 58 94 59 95
REMARK H PARENT 17 7 7 18 24 32 80 51 50 62
REMARK Flexibility Score: inf
ROOT
ATOM      1  C   UNL A   1      47.707  24.726  27.429  1.00  0.00     0.002 C 
ENDROOT
BRANCH   1   2
ATOM      2  C   UNL A   1      46.386  25.385  27.852  1.00  0.00     0.021 C 
BRANCH   2   3
ATOM      3  C   UNL A   1      45.196  24.986  26.980  1.00  0.00     0.116 C 
BRANCH   3   4
ATOM      4  N   UNL A   1      44.946  26.010  25.984  1.00  0.00    -0.352 N 
ATOM      5  C   UNL A   1      44.067  27.056  25.978  1.00  0.00     0.251 C 
ATOM      6  O   UNL A   1      44.072  27.836  25.026  1.00  0.00    -0.269 OA
ATOM      7  H   UNL A   1      45.502  25.938  25.175  1.00  0.00     0.163 HD
BRANCH   5   8
ATOM      8  C   UNL A   1      43.134  27.308  27.101  1.00  0.00     0.039 A 
ATOM      9  C   UNL A   1      41.432  28.114  29.156  1.00  0.00     0.087 A 
ATOM     10  C   UNL A   1      42.789  28.447  29.212  1.00  0.00     0.023 A 
ATOM     11  C   UNL A   1      40.930  27.319  28.118  1.00  0.00     0.023 A 
ATOM     12  C   UNL A   1      43.631  28.058  28.174  1.00  0.00     0.015 A 
ATOM     13  C   UNL A   1      41.783  26.934  27.076  1.00  0.00     0.015 A 
BRANCH   9  14
ATOM     14  S   UNL A   1      40.332  28.817  30.361  1.00  0.00     0.261 S 
ATOM     15  O   UNL A   1      40.762  28.408  31.677  1.00  0.00    -0.201 OA
ATOM     16  O   UNL A   1      38.970  28.577  29.920  1.00  0.00    -0.201 OA
BRANCH  14  17
ATOM     17  N   UNL A   1      40.579  30.508  30.245  1.00  0.00    -0.280 N 
ATOM     18  H   UNL A   1      41.452  30.878  29.978  1.00  0.00     0.180 HD
BRANCH  17  19
ATOM     19  C   UNL A   1      39.473  31.367  30.550  1.00  0.00     0.049 A 
ATOM     20  C   UNL A   1      37.176  32.904  31.106  1.00  0.00     0.007 A 
ATOM     21  C   UNL A   1      37.532  31.827  31.923  1.00  0.00     0.017 A 
ATOM     22  C   UNL A   1      37.998  33.215  30.016  1.00  0.00     0.017 A 
ATOM     23  C   UNL A   1      38.686  31.086  31.664  1.00  0.00     0.028 A 
ATOM     24  C   UNL A   1      39.135  32.440  29.727  1.00  0.00     0.028 A 
BRANCH  20  25
ATOM     25  S   UNL A   1      35.644  33.735  31.496  1.00  0.00    -0.130 SA
ATOM     26  C   UNL A   1      34.663  33.506  29.994  1.00  0.00     0.091 C 
ENDBRANCH  20  25
ENDBRANCH  17  19
ENDBRANCH  14  17
ENDBRANCH   9  14
ENDBRANCH   5   8
ENDBRANCH   3   4
ENDBRANCH   2   3
ENDBRANCH   1   2
BRANCH   1  27
ATOM     27  C   UNL A   1      48.971  25.390  27.989  1.00  0.00     0.002 C 
BRANCH  27  28
ATOM     28  C   UNL A   1      50.215  25.262  27.105  1.00  0.00     0.021 C 
BRANCH  28  29
ATOM     29  C   UNL A   1      51.179  26.440  27.201  1.00  0.00     0.116 C 
BRANCH  29  30
ATOM     30  N   UNL A   1      51.213  27.213  25.968  1.00  0.00    -0.352 N 
ATOM     31  C   UNL A   1      50.345  28.183  25.530  1.00  0.00     0.251 C 
ATOM     32  H   UNL A   1      51.963  27.012  25.363  1.00  0.00     0.163 HD
ATOM     33  O   UNL A   1      50.384  28.572  24.368  1.00  0.00    -0.269 OA
BRANCH  31  34
ATOM     34  C   UNL A   1      49.351  28.742  26.470  1.00  0.00     0.039 A 
ATOM     35  C   UNL A   1      47.995  28.473  26.269  1.00  0.00     0.014 A 
ATOM     36  C   UNL A   1      49.767  29.510  27.561  1.00  0.00     0.014 A 
ATOM     37  C   UNL A   1      47.060  28.909  27.210  1.00  0.00     0.010 A 
ATOM     38  C   UNL A   1      48.842  29.892  28.527  1.00  0.00     0.010 A 
ATOM     39  C   UNL A   1      47.482  29.583  28.368  1.00  0.00    -0.014 A 
BRANCH  39  40
ATOM     40  C   UNL A   1      46.531  29.933  29.452  1.00  0.00     0.031 A 
ATOM     41  C   UNL A   1      46.226  28.947  30.543  1.00  0.00     0.074 A 
ATOM     42  C   UNL A   1      45.872  31.108  29.397  1.00  0.00     0.049 A 
ATOM     43  N   UNL A   1      45.350  29.034  31.511  1.00  0.00    -0.248 NA
ATOM     44  C   UNL A   1      46.992  27.691  30.534  1.00  0.00     0.031 C 
ATOM     45  C   UNL A   1      46.060  32.137  28.372  1.00  0.00     0.029 A 
ATOM     46  N   UNL A   1      44.898  31.627  30.212  1.00  0.00    -0.354 N 
ATOM     47  C   UNL A   1      45.450  27.843  32.219  1.00  0.00     0.074 A 
ATOM     48  C   UNL A   1      46.440  27.032  31.543  1.00  0.00     0.031 C 
ATOM     49  C   UNL A   1      45.245  33.171  28.631  1.00  0.00     0.029 A 
ATOM     50  C   UNL A   1      44.440  32.859  29.807  1.00  0.00     0.049 A 
ATOM     51  H   UNL A   1      44.561  31.163  31.011  1.00  0.00     0.167 HD
ATOM     52  C   UNL A   1      44.786  27.465  33.338  1.00  0.00     0.031 A 
ATOM     53  C   UNL A   1      43.467  33.643  30.312  1.00  0.00     0.031 A 
ATOM     54  C   UNL A   1      43.798  28.273  34.001  1.00  0.00     0.049 A 
ATOM     55  C   UNL A   1      42.703  33.177  31.519  1.00  0.00     0.074 A 
ATOM     56  C   UNL A   1      43.109  28.003  35.170  1.00  0.00     0.029 A 
ATOM     57  N   UNL A   1      43.346  29.503  33.546  1.00  0.00    -0.354 N 
ATOM     58  N   UNL A   1      42.857  32.075  32.215  1.00  0.00    -0.248 NA
ATOM     59  C   UNL A   1      41.630  34.055  32.007  1.00  0.00     0.031 C 
ATOM     60  C   UNL A   1      42.198  29.042  35.390  1.00  0.00     0.029 A 
ATOM     61  C   UNL A   1      42.359  29.987  34.389  1.00  0.00     0.049 A 
ATOM     62  H   UNL A   1      43.678  29.965  32.742  1.00  0.00     0.167 HD
ATOM     63  C   UNL A   1      41.910  32.135  33.231  1.00  0.00     0.074 A 
ATOM     64  C   UNL A   1      41.200  33.387  33.070  1.00  0.00     0.031 C 
ATOM     65  C   UNL A   1      41.652  31.230  34.207  1.00  0.00     0.031 A 
BRANCH  52  66
ATOM     66  C   UNL A   1      45.101  26.105  33.904  1.00  0.00    -0.014 A 
ATOM     67  C   UNL A   1      46.183  25.916  34.783  1.00  0.00     0.010 A 
ATOM     68  C   UNL A   1      44.291  25.003  33.571  1.00  0.00     0.010 A 
ATOM     69  C   UNL A   1      46.481  24.644  35.278  1.00  0.00     0.020 A 
ATOM     70  C   UNL A   1      44.569  23.733  34.086  1.00  0.00     0.020 A 
ATOM     71  C   UNL A   1      45.676  23.559  34.920  1.00  0.00     0.054 A 
BRANCH  71  72
ATOM     72  S   UNL A   1      46.087  21.918  35.575  1.00  0.00     0.124 S 
ATOM     73  O   UNL A   1      47.542  21.906  35.462  1.00  0.00    -0.237 OA
ATOM     74  O   UNL A   1      45.564  21.976  36.938  1.00  0.00    -0.237 OA
ATOM     75  O   UNL A   1      45.386  21.001  34.680  1.00  0.00    -0.744 OA
ENDBRANCH  71  72
ENDBRANCH  52  66
BRANCH  53  76
ATOM     76  C   UNL A   1      43.163  34.950  29.669  1.00  0.00    -0.014 A 
ATOM     77  C   UNL A   1      43.840  36.113  30.073  1.00  0.00     0.010 A 
ATOM     78  C   UNL A   1      42.224  35.031  28.625  1.00  0.00     0.010 A 
ATOM     79  C   UNL A   1      43.580  37.336  29.448  1.00  0.00     0.020 A 
ATOM     80  C   UNL A   1      41.980  36.248  27.979  1.00  0.00     0.020 A 
ATOM     81  C   UNL A   1      42.656  37.395  28.401  1.00  0.00     0.054 A 
BRANCH  81  82
ATOM     82  S   UNL A   1      42.391  38.978  27.556  1.00  0.00     0.124 S 
ATOM     83  O   UNL A   1      41.769  39.781  28.603  1.00  0.00    -0.237 OA
ATOM     84  O   UNL A   1      43.749  39.366  27.182  1.00  0.00    -0.237 OA
ATOM     85  O   UNL A   1      41.522  38.626  26.435  1.00  0.00    -0.744 OA
ENDBRANCH  81  82
ENDBRANCH  53  76
BRANCH  65  86
ATOM     86  C   UNL A   1      40.555  31.557  35.184  1.00  0.00    -0.014 A 
ATOM     87  C   UNL A   1      39.300  30.930  35.094  1.00  0.00     0.010 A 
ATOM     88  C   UNL A   1      40.807  32.442  36.248  1.00  0.00     0.010 A 
ATOM     89  C   UNL A   1      38.311  31.190  36.047  1.00  0.00     0.020 A 
ATOM     90  C   UNL A   1      39.829  32.685  37.216  1.00  0.00     0.020 A 
ATOM     91  C   UNL A   1      38.585  32.062  37.106  1.00  0.00     0.054 A 
BRANCH  91  92
ATOM     92  S   UNL A   1      37.311  32.322  38.370  1.00  0.00     0.124 S 
ATOM     93  O   UNL A   1      36.954  30.952  38.728  1.00  0.00    -0.237 OA
ATOM     94  O   UNL A   1      38.027  33.073  39.397  1.00  0.00    -0.237 OA
ATOM     95  O   UNL A   1      36.272  33.072  37.667  1.00  0.00    -0.744 OA
ENDBRANCH  91  92
ENDBRANCH  65  86
ENDBRANCH  39  40
ENDBRANCH  31  34
ENDBRANCH  29  30
ENDBRANCH  28  29
ENDBRANCH  27  28
ENDBRANCH   1  27
TORSDOF 20
ENDMDL
MODEL 3
REMARK VINA RESULT:     -10.0      6.364      9.043
REMARK SMILES CSc1ccc(NS(=O)(=O)c2ccc(C(=O)NCCCCCCNC(=O)c3ccc(-c4c5nc(c(-c6ccc(S(=O)(=O)[O-])cc6)c6ccc([nH]6)c(-c6ccc(S(=O)(=O)[O-])cc6)c6nc(c(-c7ccc(S(=O)(=O)[O-])cc7)c7ccc4[nH]7)C=C6)C=C5)cc3)cc2)cc1
REMARK SMILES IDX 20 1 19 2 18 3 17 4 15 5 16 6 14 8 11 9 12 10 88 11 13 12
REMARK SMILES IDX 87 13 8 14 9 15 10 16 7 17 6 19 3 20 4 21 90 22 5 23 89 24
REMARK SMILES IDX 2 25 1 26 21 27 22 28 23 29 24 30 25 31 26 33 27 34 28 35
REMARK SMILES IDX 86 36 29 37 85 38 30 39 31 40 32 41 79 42 33 43 84 44 78 45
REMARK SMILES IDX 80 46 34 47 83 48 77 49 76 50 35 52 65 53 46 54 64 55 47 56
REMARK SMILES IDX 50 57 63 58 81 59 48 60 49 61 62 63 82 64 51 65 36 66 37 67
REMARK SMILES IDX 45 68 38 69 44 70 39 71 40 72 41 73 42 74 43 75 66 76 67 77
REMARK SMILES IDX 75 78 68 79 74 80 69 81 70 82 71 83 72 84 73 85 52 86 53 87
REMARK SMILES IDX 61 88 54 89 60 90 55 91 56 92 57 93 58 94 59 95
REMARK H PARENT 17 7 7 18 24 32 80 51 50 62
REMARK Flexibility Score: inf
ROOT
ATOM      1  C   UNL A   1      39.332  24.934  26.854  1.00  0.00     0.002 C 
ENDROOT
BRANCH   1   2
ATOM      2  C   UNL A   1      38.787  23.497  26.840  1.00  0.00     0.021 C 
BRANCH   2   3
ATOM      3  C   UNL A   1      37.594  23.304  25.905  1.00  0.00     0.116 C 
BRANCH   3   4
ATOM      4  N   UNL A   1      37.482  21.910  25.525  1.00  0.00    -0.352 N 
ATOM      5  C   UNL A   1      36.383  21.136  25.278  1.00  0.00     0.251 C 
ATOM      6  O   UNL A   1      36.542  19.971  24.913  1.00  0.00    -0.269 OA
ATOM      7  H   UNL A   1      38.342  21.441  25.428  1.00  0.00     0.163 HD
BRANCH   5   8
ATOM      8  C   UNL A   1      35.005  21.664  25.397  1.00  0.00     0.039 A 
ATOM      9  C   UNL A   1      32.547  22.917  25.800  1.00  0.00     0.087 A 
ATOM     10  C   UNL A   1      33.282  22.468  26.902  1.00  0.00     0.023 A 
ATOM     11  C   UNL A   1      32.994  22.681  24.494  1.00  0.00     0.023 A 
ATOM     12  C   UNL A   1      34.518  21.860  26.696  1.00  0.00     0.015 A 
ATOM     13  C   UNL A   1      34.239  22.071  24.295  1.00  0.00     0.015 A 
BRANCH   9  14
ATOM     14  S   UNL A   1      31.094  23.898  26.089  1.00  0.00     0.261 S 
ATOM     15  O   UNL A   1      31.500  25.200  26.563  1.00  0.00    -0.201 OA
ATOM     16  O   UNL A   1      30.154  23.094  26.848  1.00  0.00    -0.201 OA
BRANCH  14  17
ATOM     17  N   UNL A   1      30.396  24.113  24.540  1.00  0.00    -0.280 N 
ATOM     18  H   UNL A   1      30.061  23.346  24.021  1.00  0.00     0.180 HD
BRANCH  17  19
ATOM     19  C   UNL A   1      30.316  25.448  24.023  1.00  0.00     0.049 A 
ATOM     20  C   UNL A   1      30.018  28.007  22.881  1.00  0.00     0.007 A 
ATOM     21  C   UNL A   1      28.990  27.437  23.637  1.00  0.00     0.017 A 
ATOM     22  C   UNL A   1      31.208  27.286  22.720  1.00  0.00     0.017 A 
ATOM     23  C   UNL A   1      29.151  26.183  24.228  1.00  0.00     0.028 A 
ATOM     24  C   UNL A   1      31.353  26.003  23.274  1.00  0.00     0.028 A 
BRANCH  20  25
ATOM     25  S   UNL A   1      29.673  29.586  22.120  1.00  0.00    -0.130 SA
ATOM     26  C   UNL A   1      27.990  29.945  22.675  1.00  0.00     0.091 C 
ENDBRANCH  20  25
ENDBRANCH  17  19
ENDBRANCH  14  17
ENDBRANCH   9  14
ENDBRANCH   5   8
ENDBRANCH   3   4
ENDBRANCH   2   3
ENDBRANCH   1   2
BRANCH   1  27
ATOM     27  C   UNL A   1      40.686  25.120  26.160  1.00  0.00     0.002 C 
BRANCH  27  28
ATOM     28  C   UNL A   1      41.907  24.802  27.029  1.00  0.00     0.021 C 
BRANCH  28  29
ATOM     29  C   UNL A   1      42.909  25.947  27.148  1.00  0.00     0.116 C 
BRANCH  29  30
ATOM     30  N   UNL A   1      42.758  26.911  26.068  1.00  0.00    -0.352 N 
ATOM     31  C   UNL A   1      42.171  28.152  26.091  1.00  0.00     0.251 C 
ATOM     32  H   UNL A   1      43.130  26.635  25.199  1.00  0.00     0.163 HD
ATOM     33  O   UNL A   1      41.922  28.741  25.044  1.00  0.00    -0.269 OA
BRANCH  31  34
ATOM     34  C   UNL A   1      41.826  28.765  27.391  1.00  0.00     0.039 A 
ATOM     35  C   UNL A   1      40.747  28.258  28.119  1.00  0.00     0.014 A 
ATOM     36  C   UNL A   1      42.586  29.824  27.895  1.00  0.00     0.014 A 
ATOM     37  C   UNL A   1      40.480  28.762  29.394  1.00  0.00     0.010 A 
ATOM     38  C   UNL A   1      42.355  30.283  29.188  1.00  0.00     0.010 A 
ATOM     39  C   UNL A   1      41.309  29.747  29.955  1.00  0.00    -0.014 A 
BRANCH  39  40
ATOM     40  C   UNL A   1      41.138  30.200  31.358  1.00  0.00     0.031 A 
ATOM     41  C   UNL A   1      39.954  31.039  31.745  1.00  0.00     0.074 A 
ATOM     42  C   UNL A   1      42.103  29.930  32.259  1.00  0.00     0.049 A 
ATOM     43  N   UNL A   1      39.691  31.611  32.892  1.00  0.00    -0.248 NA
ATOM     44  C   UNL A   1      38.945  31.283  30.703  1.00  0.00     0.031 C 
ATOM     45  C   UNL A   1      43.314  29.148  31.997  1.00  0.00     0.029 A 
ATOM     46  N   UNL A   1      42.226  30.298  33.575  1.00  0.00    -0.354 N 
ATOM     47  C   UNL A   1      38.494  32.292  32.709  1.00  0.00     0.074 A 
ATOM     48  C   UNL A   1      38.105  32.097  31.327  1.00  0.00     0.031 C 
ATOM     49  C   UNL A   1      44.046  29.079  33.120  1.00  0.00     0.029 A 
ATOM     50  C   UNL A   1      43.384  29.852  34.167  1.00  0.00     0.049 A 
ATOM     51  H   UNL A   1      41.549  30.830  34.052  1.00  0.00     0.167 HD
ATOM     52  C   UNL A   1      37.777  33.003  33.611  1.00  0.00     0.031 A 
ATOM     53  C   UNL A   1      43.874  30.057  35.406  1.00  0.00     0.031 A 
ATOM     54  C   UNL A   1      38.173  33.198  34.981  1.00  0.00     0.049 A 
ATOM     55  C   UNL A   1      43.090  30.899  36.373  1.00  0.00     0.074 A 
ATOM     56  C   UNL A   1      37.488  33.856  35.988  1.00  0.00     0.029 A 
ATOM     57  N   UNL A   1      39.363  32.750  35.533  1.00  0.00    -0.354 N 
ATOM     58  N   UNL A   1      41.926  31.480  36.201  1.00  0.00    -0.248 NA
ATOM     59  C   UNL A   1      43.685  31.118  37.698  1.00  0.00     0.031 C 
ATOM     60  C   UNL A   1      38.293  33.856  37.133  1.00  0.00     0.029 A 
ATOM     61  C   UNL A   1      39.453  33.150  36.856  1.00  0.00     0.049 A 
ATOM     62  H   UNL A   1      40.044  32.223  35.055  1.00  0.00     0.167 HD
ATOM     63  C   UNL A   1      41.644  32.122  37.401  1.00  0.00     0.074 A 
ATOM     64  C   UNL A   1      42.749  31.844  38.295  1.00  0.00     0.031 C 
ATOM     65  C   UNL A   1      40.566  32.877  37.729  1.00  0.00     0.031 A 
BRANCH  52  66
ATOM     66  C   UNL A   1      36.496  33.637  33.135  1.00  0.00    -0.014 A 
ATOM     67  C   UNL A   1      35.320  32.879  32.991  1.00  0.00     0.010 A 
ATOM     68  C   UNL A   1      36.460  35.014  32.848  1.00  0.00     0.010 A 
ATOM     69  C   UNL A   1      34.146  33.473  32.521  1.00  0.00     0.020 A 
ATOM     70  C   UNL A   1      35.281  35.619  32.403  1.00  0.00     0.020 A 
ATOM     71  C   UNL A   1      34.137  34.838  32.222  1.00  0.00     0.054 A 
BRANCH  71  72
ATOM     72  S   UNL A   1      32.600  35.584  31.612  1.00  0.00     0.124 S 
ATOM     73  O   UNL A   1      32.507  35.021  30.267  1.00  0.00    -0.237 OA
ATOM     74  O   UNL A   1      31.606  35.098  32.565  1.00  0.00    -0.237 OA
ATOM     75  O   UNL A   1      32.864  37.019  31.668  1.00  0.00    -0.744 OA
ENDBRANCH  71  72
ENDBRANCH  52  66
BRANCH  53  76
ATOM     76  C   UNL A   1      45.176  29.452  35.795  1.00  0.00    -0.014 A 
ATOM     77  C   UNL A   1      45.214  28.208  36.448  1.00  0.00     0.010 A 
ATOM     78  C   UNL A   1      46.386  30.099  35.483  1.00  0.00     0.010 A 
ATOM     79  C   UNL A   1      46.437  27.623  36.785  1.00  0.00     0.020 A 
ATOM     80  C   UNL A   1      47.613  29.505  35.796  1.00  0.00     0.020 A 
ATOM     81  C   UNL A   1      47.629  28.272  36.452  1.00  0.00     0.054 A 
BRANCH  81  82
ATOM     82  S   UNL A   1      49.205  27.457  36.833  1.00  0.00     0.124 S 
ATOM     83  O   UNL A   1      49.855  27.427  35.527  1.00  0.00    -0.237 OA
ATOM     84  O   UNL A   1      49.797  28.363  37.815  1.00  0.00    -0.237 OA
ATOM     85  O   UNL A   1      48.798  26.158  37.363  1.00  0.00    -0.744 OA
ENDBRANCH  81  82
ENDBRANCH  53  76
BRANCH  65  86
ATOM     86  C   UNL A   1      40.524  33.459  39.117  1.00  0.00    -0.014 A 
ATOM     87  C   UNL A   1      41.119  34.701  39.395  1.00  0.00     0.010 A 
ATOM     88  C   UNL A   1      39.814  32.793  40.133  1.00  0.00     0.010 A 
ATOM     89  C   UNL A   1      41.014  35.264  40.670  1.00  0.00     0.020 A 
ATOM     90  C   UNL A   1      39.686  33.364  41.401  1.00  0.00     0.020 A 
ATOM     91  C   UNL A   1      40.293  34.594  41.663  1.00  0.00     0.054 A 
BRANCH  91  92
ATOM     92  S   UNL A   1      40.107  35.383  43.286  1.00  0.00     0.124 S 
ATOM     93  O   UNL A   1      41.489  35.447  43.753  1.00  0.00    -0.237 OA
ATOM     94  O   UNL A   1      39.497  36.667  42.950  1.00  0.00    -0.237 OA
ATOM     95  O   UNL A   1      39.243  34.462  44.023  1.00  0.00    -0.744 OA
ENDBRANCH  91  92
ENDBRANCH  65  86
ENDBRANCH  39  40
ENDBRANCH  31  34
ENDBRANCH  29  30
ENDBRANCH  28  29
ENDBRANCH  27  28
ENDBRANCH   1  27
TORSDOF 20
ENDMDL
