MODEL 1
REMARK VINA RESULT:     -10.6      0.000      0.000
REMARK SMILES O=C(Cc1csc(NC(=O)[C@H]2CC(=O)N(C3CC3)C2)n1)NCCCCCCNC(=O)c1ccc(-c2c3nc(c(-c4ccc(S(=O)(=O)[O-])cc4)c4ccc([nH]4)c(-c4ccc(S(=O)(=O)[O-])cc4)c4nc(c(-c5ccc(S(=O)(=O)[O-])cc5)c5ccc2[nH]5)C=C4)C=C3)cc1
REMARK SMILES IDX 24 1 23 2 22 3 21 4 1 5 2 6 3 8 4 9 5 10 20 11 6 12 7 13
REMARK SMILES IDX 8 14 9 15 10 17 11 18 12 19 19 20 13 21 15 22 14 23 16 24
REMARK SMILES IDX 17 25 18 26 25 27 26 28 27 29 28 30 29 31 30 33 31 34 32 35
REMARK SMILES IDX 90 36 33 37 89 38 34 39 35 40 36 41 83 42 37 43 88 44 82 45
REMARK SMILES IDX 84 46 38 47 87 48 81 49 80 50 39 52 69 53 50 54 68 55 51 56
REMARK SMILES IDX 54 57 67 58 85 59 52 60 53 61 66 63 86 64 55 65 40 66 41 67
REMARK SMILES IDX 49 68 42 69 48 70 43 71 44 72 45 73 46 74 47 75 70 76 71 77
REMARK SMILES IDX 79 78 72 79 78 80 73 81 74 82 75 83 76 84 77 85 56 86 57 87
REMARK SMILES IDX 65 88 58 89 64 90 59 91 60 92 61 93 62 94 63 95
REMARK H PARENT 21 7 8 16 28 32 84 51 54 62
REMARK Flexibility Score: inf
ROOT
ATOM      1  C   UNL A   1      39.696  22.568  27.101  1.00  0.00     0.002 C 
ENDROOT
BRANCH   1   2
ATOM      2  C   UNL A   1      39.135  23.935  26.682  1.00  0.00     0.021 C 
BRANCH   2   3
ATOM      3  C   UNL A   1      37.731  23.888  26.086  1.00  0.00     0.116 C 
BRANCH   3   4
ATOM      4  N   UNL A   1      37.227  22.531  26.022  1.00  0.00    -0.356 N 
ATOM      5  O   UNL A   1      37.058  22.410  23.731  1.00  0.00    -0.275 OA
ATOM      6  C   UNL A   1      36.948  21.888  24.836  1.00  0.00     0.226 C 
ATOM      7  H   UNL A   1      37.078  22.047  26.866  1.00  0.00     0.163 HD
BRANCH   6   8
ATOM      8  C   UNL A   1      36.502  20.451  25.010  1.00  0.00     0.157 C 
BRANCH   8   9
ATOM      9  C   UNL A   1      35.013  20.318  25.089  1.00  0.00     0.063 A 
ATOM     10  C   UNL A   1      34.213  19.320  24.559  1.00  0.00     0.093 A 
ATOM     11  N   UNL A   1      34.308  21.298  25.771  1.00  0.00    -0.224 NA
ATOM     12  S   UNL A   1      32.565  19.686  24.842  1.00  0.00    -0.105 S 
ATOM     13  C   UNL A   1      33.026  21.015  25.780  1.00  0.00     0.189 A 
BRANCH  13  14
ATOM     14  N   UNL A   1      32.152  21.847  26.406  1.00  0.00    -0.302 N 
ATOM     15  C   UNL A   1      32.046  23.171  26.624  1.00  0.00     0.231 C 
ATOM     16  H   UNL A   1      31.400  21.352  26.804  1.00  0.00     0.172 HD
ATOM     17  O   UNL A   1      31.182  23.482  27.462  1.00  0.00    -0.274 OA
BRANCH  15  18
ATOM     18  C   UNL A   1      32.837  24.299  25.977  1.00  0.00     0.107 C 
ATOM     19  C   UNL A   1      32.993  24.427  24.469  1.00  0.00     0.115 C 
ATOM     20  C   UNL A   1      32.062  25.585  26.308  1.00  0.00     0.133 C 
ATOM     21  C   UNL A   1      32.986  25.910  24.198  1.00  0.00     0.223 C 
ATOM     22  N   UNL A   1      32.457  26.541  25.312  1.00  0.00    -0.339 N 
ATOM     23  O   UNL A   1      33.358  26.409  23.148  1.00  0.00    -0.275 OA
BRANCH  22  24
ATOM     24  C   UNL A   1      32.106  27.921  25.447  1.00  0.00     0.085 C 
ATOM     25  C   UNL A   1      32.050  28.645  26.762  1.00  0.00     0.027 C 
ATOM     26  C   UNL A   1      33.142  28.961  25.779  1.00  0.00     0.027 C 
ENDBRANCH  22  24
ENDBRANCH  15  18
ENDBRANCH  13  14
ENDBRANCH   8   9
ENDBRANCH   6   8
ENDBRANCH   3   4
ENDBRANCH   2   3
ENDBRANCH   1   2
BRANCH   1  27
ATOM     27  C   UNL A   1      41.009  22.162  26.426  1.00  0.00     0.002 C 
BRANCH  27  28
ATOM     28  C   UNL A   1      42.220  22.079  27.356  1.00  0.00     0.021 C 
BRANCH  28  29
ATOM     29  C   UNL A   1      43.082  23.336  27.399  1.00  0.00     0.116 C 
BRANCH  29  30
ATOM     30  N   UNL A   1      42.983  24.123  26.179  1.00  0.00    -0.352 N 
ATOM     31  C   UNL A   1      42.622  25.441  26.035  1.00  0.00     0.251 C 
ATOM     32  H   UNL A   1      43.205  23.648  25.345  1.00  0.00     0.163 HD
ATOM     33  O   UNL A   1      42.433  25.914  24.918  1.00  0.00    -0.269 OA
BRANCH  31  34
ATOM     34  C   UNL A   1      42.436  26.277  27.241  1.00  0.00     0.039 A 
ATOM     35  C   UNL A   1      43.240  27.406  27.419  1.00  0.00     0.014 A 
ATOM     36  C   UNL A   1      41.448  25.961  28.176  1.00  0.00     0.014 A 
ATOM     37  C   UNL A   1      43.007  28.255  28.505  1.00  0.00     0.010 A 
ATOM     38  C   UNL A   1      41.169  26.847  29.213  1.00  0.00     0.010 A 
ATOM     39  C   UNL A   1      41.946  28.003  29.390  1.00  0.00    -0.014 A 
BRANCH  39  40
ATOM     40  C   UNL A   1      41.629  28.923  30.514  1.00  0.00     0.031 A 
ATOM     41  C   UNL A   1      42.426  28.844  31.790  1.00  0.00     0.074 A 
ATOM     42  C   UNL A   1      40.581  29.766  30.421  1.00  0.00     0.049 A 
ATOM     43  N   UNL A   1      42.234  29.473  32.921  1.00  0.00    -0.248 NA
ATOM     44  C   UNL A   1      43.572  27.919  31.807  1.00  0.00     0.031 C 
ATOM     45  C   UNL A   1      39.711  29.918  29.252  1.00  0.00     0.029 A 
ATOM     46  N   UNL A   1      40.056  30.647  31.336  1.00  0.00    -0.354 N 
ATOM     47  C   UNL A   1      43.212  29.000  33.788  1.00  0.00     0.074 A 
ATOM     48  C   UNL A   1      43.974  28.004  33.068  1.00  0.00     0.031 C 
ATOM     49  C   UNL A   1      38.775  30.845  29.513  1.00  0.00     0.029 A 
ATOM     50  C   UNL A   1      38.943  31.319  30.883  1.00  0.00     0.049 A 
ATOM     51  H   UNL A   1      40.439  30.784  32.232  1.00  0.00     0.167 HD
ATOM     52  C   UNL A   1      43.462  29.371  35.066  1.00  0.00     0.031 A 
ATOM     53  C   UNL A   1      38.137  32.203  31.506  1.00  0.00     0.031 A 
ATOM     54  C   UNL A   1      42.723  30.384  35.769  1.00  0.00     0.049 A 
ATOM     55  C   UNL A   1      38.434  32.587  32.934  1.00  0.00     0.074 A 
ATOM     56  C   UNL A   1      42.949  30.880  37.042  1.00  0.00     0.029 A 
ATOM     57  N   UNL A   1      41.621  31.057  35.266  1.00  0.00    -0.354 N 
ATOM     58  N   UNL A   1      39.409  32.180  33.711  1.00  0.00    -0.248 NA
ATOM     59  C   UNL A   1      37.528  33.559  33.564  1.00  0.00     0.031 C 
ATOM     60  C   UNL A   1      41.946  31.808  37.332  1.00  0.00     0.029 A 
ATOM     61  C   UNL A   1      41.139  31.942  36.213  1.00  0.00     0.049 A 
ATOM     62  H   UNL A   1      41.238  30.924  34.369  1.00  0.00     0.167 HD
ATOM     63  C   UNL A   1      39.256  32.878  34.905  1.00  0.00     0.074 A 
ATOM     64  C   UNL A   1      38.103  33.738  34.745  1.00  0.00     0.031 C 
ATOM     65  C   UNL A   1      40.007  32.813  36.031  1.00  0.00     0.031 A 
BRANCH  52  66
ATOM     66  C   UNL A   1      44.581  28.682  35.801  1.00  0.00    -0.014 A 
ATOM     67  C   UNL A   1      44.329  27.603  36.666  1.00  0.00     0.010 A 
ATOM     68  C   UNL A   1      45.914  29.059  35.546  1.00  0.00     0.010 A 
ATOM     69  C   UNL A   1      45.388  26.923  37.275  1.00  0.00     0.020 A 
ATOM     70  C   UNL A   1      46.975  28.364  36.131  1.00  0.00     0.020 A 
ATOM     71  C   UNL A   1      46.704  27.304  36.997  1.00  0.00     0.054 A 
BRANCH  71  72
ATOM     72  S   UNL A   1      48.057  26.357  37.747  1.00  0.00     0.124 S 
ATOM     73  O   UNL A   1      49.128  27.350  37.799  1.00  0.00    -0.237 OA
ATOM     74  O   UNL A   1      47.497  25.969  39.040  1.00  0.00    -0.237 OA
ATOM     75  O   UNL A   1      48.274  25.258  36.809  1.00  0.00    -0.744 OA
ENDBRANCH  71  72
ENDBRANCH  52  66
BRANCH  53  76
ATOM     76  C   UNL A   1      36.961  32.788  30.799  1.00  0.00    -0.014 A 
ATOM     77  C   UNL A   1      37.099  33.949  30.018  1.00  0.00     0.010 A 
ATOM     78  C   UNL A   1      35.687  32.209  30.940  1.00  0.00     0.010 A 
ATOM     79  C   UNL A   1      35.979  34.548  29.432  1.00  0.00     0.020 A 
ATOM     80  C   UNL A   1      34.570  32.785  30.326  1.00  0.00     0.020 A 
ATOM     81  C   UNL A   1      34.720  33.964  29.595  1.00  0.00     0.054 A 
BRANCH  81  82
ATOM     82  S   UNL A   1      33.280  34.759  28.829  1.00  0.00     0.124 S 
ATOM     83  O   UNL A   1      32.766  33.694  27.973  1.00  0.00    -0.237 OA
ATOM     84  O   UNL A   1      32.454  35.096  29.986  1.00  0.00    -0.237 OA
ATOM     85  O   UNL A   1      33.856  35.904  28.127  1.00  0.00    -0.744 OA
ENDBRANCH  81  82
ENDBRANCH  53  76
BRANCH  65  86
ATOM     86  C   UNL A   1      39.657  33.742  37.164  1.00  0.00    -0.014 A 
ATOM     87  C   UNL A   1      38.805  33.344  38.207  1.00  0.00     0.010 A 
ATOM     88  C   UNL A   1      40.266  35.011  37.222  1.00  0.00     0.010 A 
ATOM     89  C   UNL A   1      38.550  34.205  39.277  1.00  0.00     0.020 A 
ATOM     90  C   UNL A   1      40.038  35.863  38.305  1.00  0.00     0.020 A 
ATOM     91  C   UNL A   1      39.172  35.457  39.322  1.00  0.00     0.054 A 
BRANCH  91  92
ATOM     92  S   UNL A   1      38.877  36.530  40.755  1.00  0.00     0.124 S 
ATOM     93  O   UNL A   1      37.913  35.749  41.526  1.00  0.00    -0.237 OA
ATOM     94  O   UNL A   1      40.208  36.647  41.346  1.00  0.00    -0.237 OA
ATOM     95  O   UNL A   1      38.352  37.760  40.167  1.00  0.00    -0.744 OA
ENDBRANCH  91  92
ENDBRANCH  65  86
ENDBRANCH  39  40
ENDBRANCH  31  34
ENDBRANCH  29  30
ENDBRANCH  28  29
ENDBRANCH  27  28
ENDBRANCH   1  27
TORSDOF 20
ENDMDL
MODEL 2
REMARK VINA RESULT:     -10.1      0.734      8.036
REMARK SMILES O=C(Cc1csc(NC(=O)[C@H]2CC(=O)N(C3CC3)C2)n1)NCCCCCCNC(=O)c1ccc(-c2c3nc(c(-c4ccc(S(=O)(=O)[O-])cc4)c4ccc([nH]4)c(-c4ccc(S(=O)(=O)[O-])cc4)c4nc(c(-c5ccc(S(=O)(=O)[O-])cc5)c5ccc2[nH]5)C=C4)C=C3)cc1
REMARK SMILES IDX 24 1 23 2 22 3 21 4 1 5 2 6 3 8 4 9 5 10 20 11 6 12 7 13
REMARK SMILES IDX 8 14 9 15 10 17 11 18 12 19 19 20 13 21 15 22 14 23 16 24
REMARK SMILES IDX 17 25 18 26 25 27 26 28 27 29 28 30 29 31 30 33 31 34 32 35
REMARK SMILES IDX 90 36 33 37 89 38 34 39 35 40 36 41 83 42 37 43 88 44 82 45
REMARK SMILES IDX 84 46 38 47 87 48 81 49 80 50 39 52 69 53 50 54 68 55 51 56
REMARK SMILES IDX 54 57 67 58 85 59 52 60 53 61 66 63 86 64 55 65 40 66 41 67
REMARK SMILES IDX 49 68 42 69 48 70 43 71 44 72 45 73 46 74 47 75 70 76 71 77
REMARK SMILES IDX 79 78 72 79 78 80 73 81 74 82 75 83 76 84 77 85 56 86 57 87
REMARK SMILES IDX 65 88 58 89 64 90 59 91 60 92 61 93 62 94 63 95
REMARK H PARENT 21 7 8 16 28 32 84 51 54 62
REMARK Flexibility Score: inf
ROOT
ATOM      1  C   UNL A   1      40.174  22.426  27.127  1.00  0.00     0.002 C 
ENDROOT
BRANCH   1   2
ATOM      2  C   UNL A   1      39.469  23.486  26.269  1.00  0.00     0.021 C 
BRANCH   2   3
ATOM      3  C   UNL A   1      37.963  23.587  26.498  1.00  0.00     0.116 C 
BRANCH   3   4
ATOM      4  N   UNL A   1      37.312  22.306  26.312  1.00  0.00    -0.356 N 
ATOM      5  O   UNL A   1      37.220  22.377  24.015  1.00  0.00    -0.275 OA
ATOM      6  C   UNL A   1      37.009  21.790  25.071  1.00  0.00     0.226 C 
ATOM      7  H   UNL A   1      37.076  21.781  27.111  1.00  0.00     0.163 HD
BRANCH   6   8
ATOM      8  C   UNL A   1      36.396  20.406  25.117  1.00  0.00     0.157 C 
BRANCH   8   9
ATOM      9  C   UNL A   1      34.900  20.440  25.125  1.00  0.00     0.063 A 
ATOM     10  C   UNL A   1      34.020  19.611  24.450  1.00  0.00     0.093 A 
ATOM     11  N   UNL A   1      34.275  21.411  25.894  1.00  0.00    -0.224 NA
ATOM     12  S   UNL A   1      32.412  20.132  24.715  1.00  0.00    -0.105 S 
ATOM     13  C   UNL A   1      32.971  21.281  25.822  1.00  0.00     0.189 A 
BRANCH  13  14
ATOM     14  N   UNL A   1      32.166  22.133  26.510  1.00  0.00    -0.302 N 
ATOM     15  C   UNL A   1      31.761  23.410  26.390  1.00  0.00     0.231 C 
ATOM     16  H   UNL A   1      31.777  21.702  27.307  1.00  0.00     0.172 HD
ATOM     17  O   UNL A   1      31.190  23.861  27.398  1.00  0.00    -0.274 OA
BRANCH  15  18
ATOM     18  C   UNL A   1      31.914  24.338  25.193  1.00  0.00     0.107 C 
ATOM     19  C   UNL A   1      30.740  24.732  24.310  1.00  0.00     0.115 C 
ATOM     20  C   UNL A   1      32.317  25.701  25.781  1.00  0.00     0.133 C 
ATOM     21  C   UNL A   1      31.010  26.162  23.913  1.00  0.00     0.223 C 
ATOM     22  N   UNL A   1      31.956  26.672  24.787  1.00  0.00    -0.339 N 
ATOM     23  O   UNL A   1      30.438  26.731  22.996  1.00  0.00    -0.275 OA
BRANCH  22  24
ATOM     24  C   UNL A   1      32.396  28.029  24.899  1.00  0.00     0.085 C 
ATOM     25  C   UNL A   1      33.733  28.431  25.456  1.00  0.00     0.027 C 
ATOM     26  C   UNL A   1      33.456  28.583  23.986  1.00  0.00     0.027 C 
ENDBRANCH  22  24
ENDBRANCH  15  18
ENDBRANCH  13  14
ENDBRANCH   8   9
ENDBRANCH   6   8
ENDBRANCH   3   4
ENDBRANCH   2   3
ENDBRANCH   1   2
BRANCH   1  27
ATOM     27  C   UNL A   1      41.195  21.556  26.387  1.00  0.00     0.002 C 
BRANCH  27  28
ATOM     28  C   UNL A   1      42.651  21.763  26.805  1.00  0.00     0.021 C 
BRANCH  28  29
ATOM     29  C   UNL A   1      43.015  23.198  27.168  1.00  0.00     0.116 C 
BRANCH  29  30
ATOM     30  N   UNL A   1      42.909  24.106  26.035  1.00  0.00    -0.352 N 
ATOM     31  C   UNL A   1      42.538  25.429  26.028  1.00  0.00     0.251 C 
ATOM     32  H   UNL A   1      43.132  23.721  25.157  1.00  0.00     0.163 HD
ATOM     33  O   UNL A   1      42.343  26.013  24.966  1.00  0.00    -0.269 OA
BRANCH  31  34
ATOM     34  C   UNL A   1      42.348  26.136  27.313  1.00  0.00     0.039 A 
ATOM     35  C   UNL A   1      43.226  27.166  27.661  1.00  0.00     0.014 A 
ATOM     36  C   UNL A   1      41.286  25.800  28.156  1.00  0.00     0.014 A 
ATOM     37  C   UNL A   1      42.997  27.904  28.827  1.00  0.00     0.010 A 
ATOM     38  C   UNL A   1      41.017  26.583  29.275  1.00  0.00     0.010 A 
ATOM     39  C   UNL A   1      41.870  27.643  29.624  1.00  0.00    -0.014 A 
BRANCH  39  40
ATOM     40  C   UNL A   1      41.561  28.453  30.832  1.00  0.00     0.031 A 
ATOM     41  C   UNL A   1      40.400  29.412  30.810  1.00  0.00     0.074 A 
ATOM     42  C   UNL A   1      42.368  28.390  31.911  1.00  0.00     0.049 A 
ATOM     43  N   UNL A   1      40.038  30.287  31.711  1.00  0.00    -0.248 NA
ATOM     44  C   UNL A   1      39.550  29.406  29.606  1.00  0.00     0.031 C 
ATOM     45  C   UNL A   1      43.542  27.524  32.048  1.00  0.00     0.029 A 
ATOM     46  N   UNL A   1      42.331  29.081  33.098  1.00  0.00    -0.354 N 
ATOM     47  C   UNL A   1      38.942  30.953  31.175  1.00  0.00     0.074 A 
ATOM     48  C   UNL A   1      38.719  30.408  29.854  1.00  0.00     0.031 C 
ATOM     49  C   UNL A   1      44.101  27.724  33.252  1.00  0.00     0.029 A 
ATOM     50  C   UNL A   1      43.360  28.765  33.956  1.00  0.00     0.049 A 
ATOM     51  H   UNL A   1      41.635  29.742  33.314  1.00  0.00     0.167 HD
ATOM     52  C   UNL A   1      38.180  31.921  31.736  1.00  0.00     0.031 A 
ATOM     53  C   UNL A   1      43.682  29.269  35.165  1.00  0.00     0.031 A 
ATOM     54  C   UNL A   1      38.386  32.439  33.063  1.00  0.00     0.049 A 
ATOM     55  C   UNL A   1      42.822  30.356  35.759  1.00  0.00     0.074 A 
ATOM     56  C   UNL A   1      37.621  33.369  33.746  1.00  0.00     0.029 A 
ATOM     57  N   UNL A   1      39.423  32.073  33.906  1.00  0.00    -0.354 N 
ATOM     58  N   UNL A   1      41.747  30.919  35.263  1.00  0.00    -0.248 NA
ATOM     59  C   UNL A   1      43.214  30.867  37.081  1.00  0.00     0.031 C 
ATOM     60  C   UNL A   1      38.231  33.612  34.979  1.00  0.00     0.029 A 
ATOM     61  C   UNL A   1      39.334  32.781  35.091  1.00  0.00     0.049 A 
ATOM     62  H   UNL A   1      40.118  31.410  33.693  1.00  0.00     0.167 HD
ATOM     63  C   UNL A   1      41.311  31.819  36.231  1.00  0.00     0.074 A 
ATOM     64  C   UNL A   1      42.232  31.719  37.343  1.00  0.00     0.031 C 
ATOM     65  C   UNL A   1      40.242  32.651  36.201  1.00  0.00     0.031 A 
BRANCH  52  66
ATOM     66  C   UNL A   1      37.049  32.497  30.927  1.00  0.00    -0.014 A 
ATOM     67  C   UNL A   1      37.269  33.531  30.000  1.00  0.00     0.010 A 
ATOM     68  C   UNL A   1      35.765  31.927  31.026  1.00  0.00     0.010 A 
ATOM     69  C   UNL A   1      36.222  33.995  29.198  1.00  0.00     0.020 A 
ATOM     70  C   UNL A   1      34.724  32.370  30.206  1.00  0.00     0.020 A 
ATOM     71  C   UNL A   1      34.958  33.406  29.302  1.00  0.00     0.054 A 
BRANCH  71  72
ATOM     72  S   UNL A   1      33.640  33.982  28.198  1.00  0.00     0.124 S 
ATOM     73  O   UNL A   1      32.745  34.666  29.128  1.00  0.00    -0.237 OA
ATOM     74  O   UNL A   1      34.359  34.849  27.267  1.00  0.00    -0.237 OA
ATOM     75  O   UNL A   1      33.110  32.751  27.617  1.00  0.00    -0.744 OA
ENDBRANCH  71  72
ENDBRANCH  52  66
BRANCH  53  76
ATOM     76  C   UNL A   1      44.877  28.769  35.902  1.00  0.00    -0.014 A 
ATOM     77  C   UNL A   1      46.146  29.331  35.676  1.00  0.00     0.010 A 
ATOM     78  C   UNL A   1      44.759  27.695  36.804  1.00  0.00     0.010 A 
ATOM     79  C   UNL A   1      47.281  28.799  36.299  1.00  0.00     0.020 A 
ATOM     80  C   UNL A   1      45.885  27.184  37.456  1.00  0.00     0.020 A 
ATOM     81  C   UNL A   1      47.142  27.725  37.182  1.00  0.00     0.054 A 
BRANCH  81  82
ATOM     82  S   UNL A   1      48.626  27.047  37.977  1.00  0.00     0.124 S 
ATOM     83  O   UNL A   1      49.526  26.875  36.841  1.00  0.00    -0.237 OA
ATOM     84  O   UNL A   1      48.989  28.104  38.918  1.00  0.00    -0.237 OA
ATOM     85  O   UNL A   1      48.149  25.811  38.592  1.00  0.00    -0.744 OA
ENDBRANCH  81  82
ENDBRANCH  53  76
BRANCH  65  86
ATOM     86  C   UNL A   1      39.958  33.475  37.430  1.00  0.00    -0.014 A 
ATOM     87  C   UNL A   1      40.643  34.676  37.686  1.00  0.00     0.010 A 
ATOM     88  C   UNL A   1      38.923  33.077  38.298  1.00  0.00     0.010 A 
ATOM     89  C   UNL A   1      40.313  35.452  38.800  1.00  0.00     0.020 A 
ATOM     90  C   UNL A   1      38.570  33.865  39.396  1.00  0.00     0.020 A 
ATOM     91  C   UNL A   1      39.275  35.044  39.645  1.00  0.00     0.054 A 
BRANCH  91  92
ATOM     92  S   UNL A   1      38.822  36.103  41.046  1.00  0.00     0.124 S 
ATOM     93  O   UNL A   1      40.081  36.190  41.781  1.00  0.00    -0.237 OA
ATOM     94  O   UNL A   1      38.391  37.335  40.389  1.00  0.00    -0.237 OA
ATOM     95  O   UNL A   1      37.760  35.357  41.718  1.00  0.00    -0.744 OA
ENDBRANCH  91  92
ENDBRANCH  65  86
ENDBRANCH  39  40
ENDBRANCH  31  34
ENDBRANCH  29  30
ENDBRANCH  28  29
ENDBRANCH  27  28
ENDBRANCH   1  27
TORSDOF 20
ENDMDL
MODEL 3
REMARK VINA RESULT:      -9.7      6.480      8.674
REMARK SMILES O=C(Cc1csc(NC(=O)[C@H]2CC(=O)N(C3CC3)C2)n1)NCCCCCCNC(=O)c1ccc(-c2c3nc(c(-c4ccc(S(=O)(=O)[O-])cc4)c4ccc([nH]4)c(-c4ccc(S(=O)(=O)[O-])cc4)c4nc(c(-c5ccc(S(=O)(=O)[O-])cc5)c5ccc2[nH]5)C=C4)C=C3)cc1
REMARK SMILES IDX 24 1 23 2 22 3 21 4 1 5 2 6 3 8 4 9 5 10 20 11 6 12 7 13
REMARK SMILES IDX 8 14 9 15 10 17 11 18 12 19 19 20 13 21 15 22 14 23 16 24
REMARK SMILES IDX 17 25 18 26 25 27 26 28 27 29 28 30 29 31 30 33 31 34 32 35
REMARK SMILES IDX 90 36 33 37 89 38 34 39 35 40 36 41 83 42 37 43 88 44 82 45
REMARK SMILES IDX 84 46 38 47 87 48 81 49 80 50 39 52 69 53 50 54 68 55 51 56
REMARK SMILES IDX 54 57 67 58 85 59 52 60 53 61 66 63 86 64 55 65 40 66 41 67
REMARK SMILES IDX 49 68 42 69 48 70 43 71 44 72 45 73 46 74 47 75 70 76 71 77
REMARK SMILES IDX 79 78 72 79 78 80 73 81 74 82 75 83 76 84 77 85 56 86 57 87
REMARK SMILES IDX 65 88 58 89 64 90 59 91 60 92 61 93 62 94 63 95
REMARK H PARENT 21 7 8 16 28 32 84 51 54 62
REMARK Flexibility Score: inf
ROOT
ATOM      1  C   UNL A   1      40.831  21.106  27.423  1.00  0.00     0.002 C 
ENDROOT
BRANCH   1   2
ATOM      2  C   UNL A   1      40.712  22.365  26.552  1.00  0.00     0.021 C 
BRANCH   2   3
ATOM      3  C   UNL A   1      39.618  23.336  26.988  1.00  0.00     0.116 C 
BRANCH   3   4
ATOM      4  N   UNL A   1      38.670  23.582  25.920  1.00  0.00    -0.356 N 
ATOM      5  O   UNL A   1      37.852  21.436  25.783  1.00  0.00    -0.275 OA
ATOM      6  C   UNL A   1      37.840  22.606  25.413  1.00  0.00     0.226 C 
ATOM      7  H   UNL A   1      38.618  24.488  25.540  1.00  0.00     0.163 HD
BRANCH   6   8
ATOM      8  C   UNL A   1      36.883  23.108  24.352  1.00  0.00     0.157 C 
BRANCH   8   9
ATOM      9  C   UNL A   1      35.496  23.307  24.878  1.00  0.00     0.063 A 
ATOM     10  C   UNL A   1      35.087  23.412  26.196  1.00  0.00     0.093 A 
ATOM     11  N   UNL A   1      34.460  23.405  23.961  1.00  0.00    -0.224 NA
ATOM     12  S   UNL A   1      33.381  23.531  26.267  1.00  0.00    -0.105 S 
ATOM     13  C   UNL A   1      33.321  23.613  24.579  1.00  0.00     0.189 A 
BRANCH  13  14
ATOM     14  N   UNL A   1      32.174  23.747  23.862  1.00  0.00    -0.302 N 
ATOM     15  C   UNL A   1      31.200  24.665  23.736  1.00  0.00     0.231 C 
ATOM     16  H   UNL A   1      32.014  22.966  23.284  1.00  0.00     0.172 HD
ATOM     17  O   UNL A   1      30.197  24.264  23.120  1.00  0.00    -0.274 OA
BRANCH  15  18
ATOM     18  C   UNL A   1      31.187  26.101  24.242  1.00  0.00     0.107 C 
ATOM     19  C   UNL A   1      32.455  26.933  24.371  1.00  0.00     0.115 C 
ATOM     20  C   UNL A   1      30.410  26.902  23.184  1.00  0.00     0.133 C 
ATOM     21  C   UNL A   1      32.040  28.338  24.016  1.00  0.00     0.223 C 
ATOM     22  N   UNL A   1      30.828  28.265  23.348  1.00  0.00    -0.339 N 
ATOM     23  O   UNL A   1      32.711  29.327  24.266  1.00  0.00    -0.275 OA
BRANCH  22  24
ATOM     24  C   UNL A   1      30.137  29.325  22.681  1.00  0.00     0.085 C 
ATOM     25  C   UNL A   1      28.646  29.367  22.500  1.00  0.00     0.027 C 
ATOM     26  C   UNL A   1      29.312  30.324  23.448  1.00  0.00     0.027 C 
ENDBRANCH  22  24
ENDBRANCH  15  18
ENDBRANCH  13  14
ENDBRANCH   8   9
ENDBRANCH   6   8
ENDBRANCH   3   4
ENDBRANCH   2   3
ENDBRANCH   1   2
BRANCH   1  27
ATOM     27  C   UNL A   1      42.250  20.550  27.583  1.00  0.00     0.002 C 
BRANCH  27  28
ATOM     28  C   UNL A   1      42.503  19.206  26.899  1.00  0.00     0.021 C 
BRANCH  28  29
ATOM     29  C   UNL A   1      42.496  19.252  25.374  1.00  0.00     0.116 C 
BRANCH  29  30
ATOM     30  N   UNL A   1      43.761  18.822  24.798  1.00  0.00    -0.352 N 
ATOM     31  C   UNL A   1      44.860  19.582  24.474  1.00  0.00     0.251 C 
ATOM     32  H   UNL A   1      43.841  17.858  24.614  1.00  0.00     0.163 HD
ATOM     33  O   UNL A   1      45.792  19.090  23.846  1.00  0.00    -0.269 OA
BRANCH  31  34
ATOM     34  C   UNL A   1      44.896  21.008  24.868  1.00  0.00     0.039 A 
ATOM     35  C   UNL A   1      45.334  21.351  26.150  1.00  0.00     0.014 A 
ATOM     36  C   UNL A   1      44.526  22.003  23.960  1.00  0.00     0.014 A 
ATOM     37  C   UNL A   1      45.464  22.699  26.497  1.00  0.00     0.010 A 
ATOM     38  C   UNL A   1      44.727  23.342  24.282  1.00  0.00     0.010 A 
ATOM     39  C   UNL A   1      45.196  23.705  25.555  1.00  0.00    -0.014 A 
BRANCH  39  40
ATOM     40  C   UNL A   1      45.389  25.145  25.871  1.00  0.00     0.031 A 
ATOM     41  C   UNL A   1      46.768  25.747  25.794  1.00  0.00     0.074 A 
ATOM     42  C   UNL A   1      44.350  25.886  26.306  1.00  0.00     0.049 A 
ATOM     43  N   UNL A   1      47.164  26.945  26.140  1.00  0.00    -0.248 NA
ATOM     44  C   UNL A   1      47.848  24.883  25.286  1.00  0.00     0.031 C 
ATOM     45  C   UNL A   1      42.970  25.414  26.454  1.00  0.00     0.029 A 
ATOM     46  N   UNL A   1      44.294  27.195  26.720  1.00  0.00    -0.354 N 
ATOM     47  C   UNL A   1      48.537  26.968  25.921  1.00  0.00     0.074 A 
ATOM     48  C   UNL A   1      48.914  25.655  25.447  1.00  0.00     0.031 C 
ATOM     49  C   UNL A   1      42.205  26.420  26.908  1.00  0.00     0.029 A 
ATOM     50  C   UNL A   1      43.042  27.594  27.132  1.00  0.00     0.049 A 
ATOM     51  H   UNL A   1      45.076  27.792  26.723  1.00  0.00     0.167 HD
ATOM     52  C   UNL A   1      49.403  27.995  26.085  1.00  0.00     0.031 A 
ATOM     53  C   UNL A   1      42.620  28.765  27.649  1.00  0.00     0.031 A 
ATOM     54  C   UNL A   1      49.020  29.309  26.527  1.00  0.00     0.049 A 
ATOM     55  C   UNL A   1      43.611  29.886  27.833  1.00  0.00     0.074 A 
ATOM     56  C   UNL A   1      49.815  30.435  26.654  1.00  0.00     0.029 A 
ATOM     57  N   UNL A   1      47.739  29.676  26.908  1.00  0.00    -0.354 N 
ATOM     58  N   UNL A   1      44.892  29.908  27.550  1.00  0.00    -0.248 NA
ATOM     59  C   UNL A   1      43.098  31.144  28.396  1.00  0.00     0.031 C 
ATOM     60  C   UNL A   1      49.029  31.467  27.173  1.00  0.00     0.029 A 
ATOM     61  C   UNL A   1      47.729  31.003  27.300  1.00  0.00     0.049 A 
ATOM     62  H   UNL A   1      46.955  29.082  26.903  1.00  0.00     0.167 HD
ATOM     63  C   UNL A   1      45.325  31.194  27.860  1.00  0.00     0.074 A 
ATOM     64  C   UNL A   1      44.171  31.921  28.344  1.00  0.00     0.031 C 
ATOM     65  C   UNL A   1      46.567  31.723  27.752  1.00  0.00     0.031 A 
BRANCH  52  66
ATOM     66  C   UNL A   1      50.859  27.751  25.792  1.00  0.00    -0.014 A 
ATOM     67  C   UNL A   1      51.484  28.325  24.670  1.00  0.00     0.010 A 
ATOM     68  C   UNL A   1      51.637  27.016  26.707  1.00  0.00     0.010 A 
ATOM     69  C   UNL A   1      52.855  28.155  24.461  1.00  0.00     0.020 A 
ATOM     70  C   UNL A   1      53.013  26.868  26.515  1.00  0.00     0.020 A 
ATOM     71  C   UNL A   1      53.612  27.433  25.389  1.00  0.00     0.054 A 
BRANCH  71  72
ATOM     72  S   UNL A   1      55.401  27.292  25.126  1.00  0.00     0.124 S 
ATOM     73  O   UNL A   1      55.889  27.073  26.486  1.00  0.00    -0.237 OA
ATOM     74  O   UNL A   1      55.501  26.141  24.231  1.00  0.00    -0.237 OA
ATOM     75  O   UNL A   1      55.768  28.574  24.533  1.00  0.00    -0.744 OA
ENDBRANCH  71  72
ENDBRANCH  52  66
BRANCH  53  76
ATOM     76  C   UNL A   1      41.194  28.950  28.045  1.00  0.00    -0.014 A 
ATOM     77  C   UNL A   1      40.197  29.129  27.070  1.00  0.00     0.010 A 
ATOM     78  C   UNL A   1      40.832  28.992  29.404  1.00  0.00     0.010 A 
ATOM     79  C   UNL A   1      38.875  29.395  27.444  1.00  0.00     0.020 A 
ATOM     80  C   UNL A   1      39.506  29.222  29.783  1.00  0.00     0.020 A 
ATOM     81  C   UNL A   1      38.540  29.445  28.800  1.00  0.00     0.054 A 
BRANCH  81  82
ATOM     82  S   UNL A   1      36.821  29.794  29.265  1.00  0.00     0.124 S 
ATOM     83  O   UNL A   1      36.696  29.071  30.527  1.00  0.00    -0.237 OA
ATOM     84  O   UNL A   1      36.812  31.252  29.367  1.00  0.00    -0.237 OA
ATOM     85  O   UNL A   1      36.049  29.249  28.151  1.00  0.00    -0.744 OA
ENDBRANCH  81  82
ENDBRANCH  53  76
BRANCH  65  86
ATOM     86  C   UNL A   1      46.744  33.179  28.094  1.00  0.00    -0.014 A 
ATOM     87  C   UNL A   1      47.089  33.595  29.392  1.00  0.00     0.010 A 
ATOM     88  C   UNL A   1      46.642  34.141  27.070  1.00  0.00     0.010 A 
ATOM     89  C   UNL A   1      47.308  34.947  29.664  1.00  0.00     0.020 A 
ATOM     90  C   UNL A   1      46.891  35.490  27.332  1.00  0.00     0.020 A 
ATOM     91  C   UNL A   1      47.213  35.886  28.631  1.00  0.00     0.054 A 
BRANCH  91  92
ATOM     92  S   UNL A   1      47.568  37.627  28.997  1.00  0.00     0.124 S 
ATOM     93  O   UNL A   1      49.005  37.704  28.748  1.00  0.00    -0.237 OA
ATOM     94  O   UNL A   1      46.725  38.334  28.035  1.00  0.00    -0.237 OA
ATOM     95  O   UNL A   1      47.169  37.778  30.395  1.00  0.00    -0.744 OA
ENDBRANCH  91  92
ENDBRANCH  65  86
ENDBRANCH  39  40
ENDBRANCH  31  34
ENDBRANCH  29  30
ENDBRANCH  28  29
ENDBRANCH  27  28
ENDBRANCH   1  27
TORSDOF 20
ENDMDL
