MODEL 1
REMARK VINA RESULT:     -10.2      0.000      0.000
REMARK SMILES Cc1nc(C)c(C(=O)N[C@@H](CCS(C)(=O)=O)C(=O)NCCCCCCNC(=O)c2ccc(-c3c4nc(c(-c5ccc(S(=O)(=O)[O-])cc5)c5ccc([nH]5)c(-c5ccc(S(=O)(=O)[O-])cc5)c5nc(c(-c6ccc(S(=O)(=O)[O-])cc6)c6ccc3[nH]6)C=C5)C=C4)cc2)s1
REMARK SMILES IDX 22 1 21 2 20 3 19 4 17 5 18 6 10 8 9 9 7 10 8 11 6 13 1 14
REMARK SMILES IDX 2 15 3 16 89 17 4 18 5 19 11 20 12 21 13 22 14 23 15 24
REMARK SMILES IDX 16 25 23 26 24 27 25 28 26 29 27 30 28 32 29 33 30 34 88 35
REMARK SMILES IDX 31 36 87 37 32 38 33 39 34 40 81 41 35 42 86 43 80 44 82 45
REMARK SMILES IDX 36 46 85 47 79 48 78 49 37 51 67 52 48 53 66 54 49 55 52 56
REMARK SMILES IDX 65 57 83 58 50 59 51 60 64 62 84 63 53 64 38 65 39 66 47 67
REMARK SMILES IDX 40 68 46 69 41 70 42 71 43 72 44 73 45 74 68 75 69 76 77 77
REMARK SMILES IDX 70 78 76 79 71 80 72 81 73 82 74 83 75 84 54 85 55 86 63 87
REMARK SMILES IDX 56 88 62 89 57 90 58 91 59 92 60 93 61 94
REMARK H PARENT 19 7 9 12 26 31 82 50 52 61
REMARK Flexibility Score: inf
ROOT
ATOM      1  C   UNL A   1      36.835  21.994  25.316  1.00  0.00     0.002 C 
ENDROOT
BRANCH   1   2
ATOM      2  C   UNL A   1      37.019  22.669  23.951  1.00  0.00     0.021 C 
BRANCH   2   3
ATOM      3  C   UNL A   1      35.769  23.301  23.347  1.00  0.00     0.116 C 
BRANCH   3   4
ATOM      4  N   UNL A   1      35.240  24.395  24.136  1.00  0.00    -0.354 N 
ATOM      5  C   UNL A   1      34.182  24.461  24.988  1.00  0.00     0.242 C 
ATOM      6  O   UNL A   1      34.135  25.416  25.773  1.00  0.00    -0.273 OA
ATOM      7  H   UNL A   1      35.732  25.242  24.036  1.00  0.00     0.163 HD
BRANCH   5   8
ATOM      8  C   UNL A   1      33.099  23.372  25.079  1.00  0.00     0.172 C 
BRANCH   8   9
ATOM      9  N   UNL A   1      32.152  23.589  26.175  1.00  0.00    -0.339 N 
ATOM     10  C   UNL A   1      31.044  24.406  26.309  1.00  0.00     0.263 C 
ATOM     11  O   UNL A   1      30.276  24.020  27.196  1.00  0.00    -0.268 OA
ATOM     12  H   UNL A   1      32.342  23.046  26.974  1.00  0.00     0.164 HD
BRANCH  10  13
ATOM     13  C   UNL A   1      30.785  25.634  25.554  1.00  0.00     0.115 A 
ATOM     14  C   UNL A   1      29.934  28.138  22.674  1.00  0.00     0.079 C 
ATOM     15  C   UNL A   1      30.311  27.383  23.899  1.00  0.00     0.091 A 
ATOM     16  N   UNL A   1      30.798  27.930  24.985  1.00  0.00    -0.246 NA
ATOM     17  S   UNL A   1      30.180  25.689  23.948  1.00  0.00    -0.113 S 
ATOM     18  C   UNL A   1      31.095  26.947  25.929  1.00  0.00     0.061 A 
ATOM     19  C   UNL A   1      31.748  27.443  27.176  1.00  0.00     0.068 C 
ENDBRANCH  10  13
ENDBRANCH   8   9
BRANCH   8  20
ATOM     20  C   UNL A   1      32.424  22.876  23.783  1.00  0.00     0.051 C 
BRANCH  20  21
ATOM     21  C   UNL A   1      32.756  21.522  23.172  1.00  0.00     0.139 C 
BRANCH  21  22
ATOM     22  S   UNL A   1      32.746  20.110  24.281  1.00  0.00     0.147 S 
ATOM     23  C   UNL A   1      32.155  18.734  23.332  1.00  0.00     0.158 C 
ATOM     24  O   UNL A   1      34.131  19.837  24.625  1.00  0.00    -0.229 OA
ATOM     25  O   UNL A   1      31.777  20.328  25.327  1.00  0.00    -0.229 OA
ENDBRANCH  21  22
ENDBRANCH  20  21
ENDBRANCH   8  20
ENDBRANCH   5   8
ENDBRANCH   3   4
ENDBRANCH   2   3
ENDBRANCH   1   2
BRANCH   1  26
ATOM     26  C   UNL A   1      36.991  20.471  25.371  1.00  0.00     0.002 C 
BRANCH  26  27
ATOM     27  C   UNL A   1      38.361  19.910  25.001  1.00  0.00     0.021 C 
BRANCH  27  28
ATOM     28  C   UNL A   1      39.507  20.388  25.878  1.00  0.00     0.116 C 
BRANCH  28  29
ATOM     29  N   UNL A   1      40.507  19.362  26.115  1.00  0.00    -0.352 N 
ATOM     30  C   UNL A   1      41.844  19.504  26.388  1.00  0.00     0.251 C 
ATOM     31  H   UNL A   1      40.180  18.434  26.072  1.00  0.00     0.163 HD
ATOM     32  O   UNL A   1      42.571  18.516  26.430  1.00  0.00    -0.269 OA
BRANCH  30  33
ATOM     33  C   UNL A   1      42.408  20.854  26.603  1.00  0.00     0.039 A 
ATOM     34  C   UNL A   1      42.802  21.603  25.492  1.00  0.00     0.014 A 
ATOM     35  C   UNL A   1      42.541  21.384  27.890  1.00  0.00     0.014 A 
ATOM     36  C   UNL A   1      43.285  22.899  25.670  1.00  0.00     0.010 A 
ATOM     37  C   UNL A   1      42.935  22.707  28.058  1.00  0.00     0.010 A 
ATOM     38  C   UNL A   1      43.329  23.473  26.952  1.00  0.00    -0.014 A 
BRANCH  38  39
ATOM     39  C   UNL A   1      43.807  24.864  27.154  1.00  0.00     0.031 A 
ATOM     40  C   UNL A   1      45.257  25.202  26.924  1.00  0.00     0.074 A 
ATOM     41  C   UNL A   1      42.949  25.811  27.584  1.00  0.00     0.049 A 
ATOM     42  N   UNL A   1      45.870  26.349  27.072  1.00  0.00    -0.248 NA
ATOM     43  C   UNL A   1      46.140  24.104  26.496  1.00  0.00     0.031 C 
ATOM     44  C   UNL A   1      41.531  25.596  27.883  1.00  0.00     0.029 A 
ATOM     45  N   UNL A   1      43.144  27.143  27.844  1.00  0.00    -0.354 N 
ATOM     46  C   UNL A   1      47.206  26.106  26.770  1.00  0.00     0.074 A 
ATOM     47  C   UNL A   1      47.326  24.693  26.492  1.00  0.00     0.031 C 
ATOM     48  C   UNL A   1      40.977  26.763  28.247  1.00  0.00     0.029 A 
ATOM     49  C   UNL A   1      42.005  27.798  28.253  1.00  0.00     0.049 A 
ATOM     50  H   UNL A   1      44.016  27.589  27.747  1.00  0.00     0.167 HD
ATOM     51  C   UNL A   1      48.235  26.984  26.708  1.00  0.00     0.031 A 
ATOM     52  C   UNL A   1      41.811  29.086  28.598  1.00  0.00     0.031 A 
ATOM     53  C   UNL A   1      48.105  28.392  26.978  1.00  0.00     0.049 A 
ATOM     54  C   UNL A   1      42.973  30.040  28.531  1.00  0.00     0.074 A 
ATOM     55  C   UNL A   1      49.074  29.376  26.895  1.00  0.00     0.029 A 
ATOM     56  N   UNL A   1      46.935  29.015  27.387  1.00  0.00    -0.354 N 
ATOM     57  N   UNL A   1      44.216  29.803  28.182  1.00  0.00    -0.248 NA
ATOM     58  C   UNL A   1      42.703  31.439  28.890  1.00  0.00     0.031 C 
ATOM     59  C   UNL A   1      48.505  30.583  27.310  1.00  0.00     0.029 A 
ATOM     60  C   UNL A   1      47.163  30.366  27.582  1.00  0.00     0.049 A 
ATOM     61  H   UNL A   1      46.070  28.563  27.517  1.00  0.00     0.167 HD
ATOM     62  C   UNL A   1      44.867  31.032  28.245  1.00  0.00     0.074 A 
ATOM     63  C   UNL A   1      43.877  32.008  28.650  1.00  0.00     0.031 C 
ATOM     64  C   UNL A   1      46.166  31.326  27.986  1.00  0.00     0.031 A 
BRANCH  51  65
ATOM     65  C   UNL A   1      49.592  26.444  26.338  1.00  0.00    -0.014 A 
ATOM     66  C   UNL A   1      50.072  26.518  25.016  1.00  0.00     0.010 A 
ATOM     67  C   UNL A   1      50.420  25.892  27.332  1.00  0.00     0.010 A 
ATOM     68  C   UNL A   1      51.332  26.011  24.689  1.00  0.00     0.020 A 
ATOM     69  C   UNL A   1      51.695  25.415  27.016  1.00  0.00     0.020 A 
ATOM     70  C   UNL A   1      52.137  25.464  25.693  1.00  0.00     0.054 A 
BRANCH  70  71
ATOM     71  S   UNL A   1      53.781  24.842  25.244  1.00  0.00     0.124 S 
ATOM     72  O   UNL A   1      53.527  23.414  25.073  1.00  0.00    -0.237 OA
ATOM     73  O   UNL A   1      54.076  25.578  24.018  1.00  0.00    -0.237 OA
ATOM     74  O   UNL A   1      54.611  25.193  26.394  1.00  0.00    -0.744 OA
ENDBRANCH  70  71
ENDBRANCH  51  65
BRANCH  52  75
ATOM     75  C   UNL A   1      40.460  29.551  29.019  1.00  0.00    -0.014 A 
ATOM     76  C   UNL A   1      39.434  29.725  28.072  1.00  0.00     0.010 A 
ATOM     77  C   UNL A   1      40.191  29.818  30.374  1.00  0.00     0.010 A 
ATOM     78  C   UNL A   1      38.174  30.182  28.469  1.00  0.00     0.020 A 
ATOM     79  C   UNL A   1      38.922  30.243  30.779  1.00  0.00     0.020 A 
ATOM     80  C   UNL A   1      37.926  30.436  29.820  1.00  0.00     0.054 A 
BRANCH  80  81
ATOM     81  S   UNL A   1      36.270  30.990  30.318  1.00  0.00     0.124 S 
ATOM     82  O   UNL A   1      36.526  32.360  30.750  1.00  0.00    -0.237 OA
ATOM     83  O   UNL A   1      35.506  30.848  29.082  1.00  0.00    -0.237 OA
ATOM     84  O   UNL A   1      35.902  30.057  31.381  1.00  0.00    -0.744 OA
ENDBRANCH  80  81
ENDBRANCH  52  75
BRANCH  64  85
ATOM     85  C   UNL A   1      46.582  32.770  28.087  1.00  0.00    -0.014 A 
ATOM     86  C   UNL A   1      46.478  33.645  26.992  1.00  0.00     0.010 A 
ATOM     87  C   UNL A   1      47.048  33.267  29.320  1.00  0.00     0.010 A 
ATOM     88  C   UNL A   1      46.874  34.980  27.115  1.00  0.00     0.020 A 
ATOM     89  C   UNL A   1      47.411  34.609  29.456  1.00  0.00     0.020 A 
ATOM     90  C   UNL A   1      47.339  35.453  28.346  1.00  0.00     0.054 A 
BRANCH  90  91
ATOM     91  S   UNL A   1      47.819  37.196  28.486  1.00  0.00     0.124 S 
ATOM     92  O   UNL A   1      46.742  37.867  27.765  1.00  0.00    -0.237 OA
ATOM     93  O   UNL A   1      47.838  37.408  29.931  1.00  0.00    -0.237 OA
ATOM     94  O   UNL A   1      49.128  37.248  27.838  1.00  0.00    -0.744 OA
ENDBRANCH  90  91
ENDBRANCH  64  85
ENDBRANCH  38  39
ENDBRANCH  30  33
ENDBRANCH  28  29
ENDBRANCH  27  28
ENDBRANCH  26  27
ENDBRANCH   1  26
TORSDOF 21
ENDMDL
MODEL 2
REMARK VINA RESULT:      -9.5      6.356     11.179
REMARK SMILES Cc1nc(C)c(C(=O)N[C@@H](CCS(C)(=O)=O)C(=O)NCCCCCCNC(=O)c2ccc(-c3c4nc(c(-c5ccc(S(=O)(=O)[O-])cc5)c5ccc([nH]5)c(-c5ccc(S(=O)(=O)[O-])cc5)c5nc(c(-c6ccc(S(=O)(=O)[O-])cc6)c6ccc3[nH]6)C=C5)C=C4)cc2)s1
REMARK SMILES IDX 22 1 21 2 20 3 19 4 17 5 18 6 10 8 9 9 7 10 8 11 6 13 1 14
REMARK SMILES IDX 2 15 3 16 89 17 4 18 5 19 11 20 12 21 13 22 14 23 15 24
REMARK SMILES IDX 16 25 23 26 24 27 25 28 26 29 27 30 28 32 29 33 30 34 88 35
REMARK SMILES IDX 31 36 87 37 32 38 33 39 34 40 81 41 35 42 86 43 80 44 82 45
REMARK SMILES IDX 36 46 85 47 79 48 78 49 37 51 67 52 48 53 66 54 49 55 52 56
REMARK SMILES IDX 65 57 83 58 50 59 51 60 64 62 84 63 53 64 38 65 39 66 47 67
REMARK SMILES IDX 40 68 46 69 41 70 42 71 43 72 44 73 45 74 68 75 69 76 77 77
REMARK SMILES IDX 70 78 76 79 71 80 72 81 73 82 74 83 75 84 54 85 55 86 63 87
REMARK SMILES IDX 56 88 62 89 57 90 58 91 59 92 60 93 61 94
REMARK H PARENT 19 7 9 12 26 31 82 50 52 61
REMARK Flexibility Score: inf
ROOT
ATOM      1  C   UNL A   1      35.833  21.860  26.030  1.00  0.00     0.002 C 
ENDROOT
BRANCH   1   2
ATOM      2  C   UNL A   1      34.603  22.016  25.126  1.00  0.00     0.021 C 
BRANCH   2   3
ATOM      3  C   UNL A   1      34.006  23.418  25.052  1.00  0.00     0.116 C 
BRANCH   3   4
ATOM      4  N   UNL A   1      32.940  23.641  26.008  1.00  0.00    -0.354 N 
ATOM      5  C   UNL A   1      32.289  24.775  26.381  1.00  0.00     0.242 C 
ATOM      6  O   UNL A   1      31.211  24.650  26.976  1.00  0.00    -0.273 OA
ATOM      7  H   UNL A   1      32.634  22.828  26.471  1.00  0.00     0.163 HD
BRANCH   5   8
ATOM      8  C   UNL A   1      32.781  26.190  26.027  1.00  0.00     0.172 C 
BRANCH   8   9
ATOM      9  N   UNL A   1      33.219  26.317  24.636  1.00  0.00    -0.339 N 
ATOM     10  C   UNL A   1      32.682  26.967  23.539  1.00  0.00     0.263 C 
ATOM     11  O   UNL A   1      33.524  27.193  22.664  1.00  0.00    -0.268 OA
ATOM     12  H   UNL A   1      34.062  25.848  24.443  1.00  0.00     0.164 HD
BRANCH  10  13
ATOM     13  C   UNL A   1      31.272  27.321  23.354  1.00  0.00     0.115 A 
ATOM     14  C   UNL A   1      27.947  29.344  22.987  1.00  0.00     0.079 C 
ATOM     15  C   UNL A   1      29.070  28.378  23.128  1.00  0.00     0.091 A 
ATOM     16  N   UNL A   1      28.920  27.087  23.287  1.00  0.00    -0.246 NA
ATOM     17  S   UNL A   1      30.681  28.919  23.150  1.00  0.00    -0.113 S 
ATOM     18  C   UNL A   1      30.162  26.472  23.440  1.00  0.00     0.061 A 
ATOM     19  C   UNL A   1      30.113  25.008  23.725  1.00  0.00     0.068 C 
ENDBRANCH  10  13
ENDBRANCH   8   9
BRANCH   8  20
ATOM     20  C   UNL A   1      31.976  27.409  26.524  1.00  0.00     0.051 C 
BRANCH  20  21
ATOM     21  C   UNL A   1      32.570  28.422  27.492  1.00  0.00     0.139 C 
BRANCH  21  22
ATOM     22  S   UNL A   1      33.841  29.512  26.843  1.00  0.00     0.147 S 
ATOM     23  C   UNL A   1      33.648  31.061  27.684  1.00  0.00     0.158 C 
ATOM     24  O   UNL A   1      35.119  28.954  27.248  1.00  0.00    -0.229 OA
ATOM     25  O   UNL A   1      33.582  29.773  25.448  1.00  0.00    -0.229 OA
ENDBRANCH  21  22
ENDBRANCH  20  21
ENDBRANCH   8  20
ENDBRANCH   5   8
ENDBRANCH   3   4
ENDBRANCH   2   3
ENDBRANCH   1   2
BRANCH   1  26
ATOM     26  C   UNL A   1      37.138  22.502  25.551  1.00  0.00     0.002 C 
BRANCH  26  27
ATOM     27  C   UNL A   1      37.388  23.946  25.979  1.00  0.00     0.021 C 
BRANCH  27  28
ATOM     28  C   UNL A   1      38.664  24.166  26.776  1.00  0.00     0.116 C 
BRANCH  28  29
ATOM     29  N   UNL A   1      39.795  24.534  25.944  1.00  0.00    -0.352 N 
ATOM     30  C   UNL A   1      40.635  25.615  26.054  1.00  0.00     0.251 C 
ATOM     31  H   UNL A   1      39.988  23.924  25.196  1.00  0.00     0.163 HD
ATOM     32  O   UNL A   1      41.464  25.840  25.178  1.00  0.00    -0.269 OA
BRANCH  30  33
ATOM     33  C   UNL A   1      40.515  26.519  27.217  1.00  0.00     0.039 A 
ATOM     34  C   UNL A   1      39.767  26.100  28.320  1.00  0.00     0.014 A 
ATOM     35  C   UNL A   1      41.140  27.770  27.227  1.00  0.00     0.014 A 
ATOM     36  C   UNL A   1      39.687  26.916  29.449  1.00  0.00     0.010 A 
ATOM     37  C   UNL A   1      41.135  28.538  28.385  1.00  0.00     0.010 A 
ATOM     38  C   UNL A   1      40.394  28.129  29.503  1.00  0.00    -0.014 A 
BRANCH  38  39
ATOM     39  C   UNL A   1      40.347  28.991  30.711  1.00  0.00     0.031 A 
ATOM     40  C   UNL A   1      39.337  30.105  30.801  1.00  0.00     0.074 A 
ATOM     41  C   UNL A   1      41.238  28.800  31.704  1.00  0.00     0.049 A 
ATOM     42  N   UNL A   1      39.157  30.980  31.758  1.00  0.00    -0.248 NA
ATOM     43  C   UNL A   1      38.427  30.277  29.656  1.00  0.00     0.031 C 
ATOM     44  C   UNL A   1      42.291  27.781  31.713  1.00  0.00     0.029 A 
ATOM     45  N   UNL A   1      41.400  29.453  32.898  1.00  0.00    -0.354 N 
ATOM     46  C   UNL A   1      38.128  31.809  31.325  1.00  0.00     0.074 A 
ATOM     47  C   UNL A   1      37.765  31.373  29.996  1.00  0.00     0.031 C 
ATOM     48  C   UNL A   1      42.963  27.854  32.872  1.00  0.00     0.029 A 
ATOM     49  C   UNL A   1      42.422  28.950  33.669  1.00  0.00     0.049 A 
ATOM     50  H   UNL A   1      40.838  30.212  33.179  1.00  0.00     0.167 HD
ATOM     51  C   UNL A   1      37.524  32.826  31.984  1.00  0.00     0.031 A 
ATOM     52  C   UNL A   1      42.875  29.330  34.880  1.00  0.00     0.031 A 
ATOM     53  C   UNL A   1      37.885  33.248  33.312  1.00  0.00     0.049 A 
ATOM     54  C   UNL A   1      42.194  30.470  35.587  1.00  0.00     0.074 A 
ATOM     55  C   UNL A   1      37.303  34.234  34.089  1.00  0.00     0.029 A 
ATOM     56  N   UNL A   1      38.923  32.710  34.058  1.00  0.00    -0.354 N 
ATOM     57  N   UNL A   1      41.180  31.201  35.187  1.00  0.00    -0.248 NA
ATOM     58  C   UNL A   1      42.708  30.826  36.917  1.00  0.00     0.031 C 
ATOM     59  C   UNL A   1      38.027  34.333  35.280  1.00  0.00     0.029 A 
ATOM     60  C   UNL A   1      39.014  33.360  35.277  1.00  0.00     0.049 A 
ATOM     61  H   UNL A   1      39.508  31.975  33.765  1.00  0.00     0.167 HD
ATOM     62  C   UNL A   1      40.913  32.080  36.232  1.00  0.00     0.074 A 
ATOM     63  C   UNL A   1      41.861  31.778  37.284  1.00  0.00     0.031 C 
ATOM     64  C   UNL A   1      39.965  33.048  36.315  1.00  0.00     0.031 A 
BRANCH  51  65
ATOM     65  C   UNL A   1      36.412  33.555  31.274  1.00  0.00    -0.014 A 
ATOM     66  C   UNL A   1      36.312  33.543  29.870  1.00  0.00     0.010 A 
ATOM     67  C   UNL A   1      35.427  34.227  32.021  1.00  0.00     0.010 A 
ATOM     68  C   UNL A   1      35.275  34.225  29.227  1.00  0.00     0.020 A 
ATOM     69  C   UNL A   1      34.370  34.882  31.383  1.00  0.00     0.020 A 
ATOM     70  C   UNL A   1      34.310  34.889  29.989  1.00  0.00     0.054 A 
BRANCH  70  71
ATOM     71  S   UNL A   1      32.959  35.739  29.128  1.00  0.00     0.124 S 
ATOM     72  O   UNL A   1      32.558  34.743  28.137  1.00  0.00    -0.237 OA
ATOM     73  O   UNL A   1      31.997  35.979  30.200  1.00  0.00    -0.237 OA
ATOM     74  O   UNL A   1      33.594  36.938  28.583  1.00  0.00    -0.744 OA
ENDBRANCH  70  71
ENDBRANCH  51  65
BRANCH  52  75
ATOM     75  C   UNL A   1      44.021  28.613  35.506  1.00  0.00    -0.014 A 
ATOM     76  C   UNL A   1      45.342  28.884  35.106  1.00  0.00     0.010 A 
ATOM     77  C   UNL A   1      43.797  27.656  36.513  1.00  0.00     0.010 A 
ATOM     78  C   UNL A   1      46.413  28.194  35.682  1.00  0.00     0.020 A 
ATOM     79  C   UNL A   1      44.867  26.987  37.114  1.00  0.00     0.020 A 
ATOM     80  C   UNL A   1      46.169  27.251  36.683  1.00  0.00     0.054 A 
BRANCH  80  81
ATOM     81  S   UNL A   1      47.577  26.396  37.445  1.00  0.00     0.124 S 
ATOM     82  O   UNL A   1      47.058  25.042  37.606  1.00  0.00    -0.237 OA
ATOM     83  O   UNL A   1      48.624  26.558  36.440  1.00  0.00    -0.237 OA
ATOM     84  O   UNL A   1      47.795  27.134  38.686  1.00  0.00    -0.744 OA
ENDBRANCH  80  81
ENDBRANCH  52  75
BRANCH  64  85
ATOM     85  C   UNL A   1      39.874  33.820  37.605  1.00  0.00    -0.014 A 
ATOM     86  C   UNL A   1      40.683  34.943  37.850  1.00  0.00     0.010 A 
ATOM     87  C   UNL A   1      38.927  33.432  38.573  1.00  0.00     0.010 A 
ATOM     88  C   UNL A   1      40.577  35.639  39.058  1.00  0.00     0.020 A 
ATOM     89  C   UNL A   1      38.794  34.146  39.766  1.00  0.00     0.020 A 
ATOM     90  C   UNL A   1      39.634  35.235  40.009  1.00  0.00     0.054 A 
BRANCH  90  91
ATOM     91  S   UNL A   1      39.499  36.172  41.555  1.00  0.00     0.124 S 
ATOM     92  O   UNL A   1      40.601  35.624  42.340  1.00  0.00    -0.237 OA
ATOM     93  O   UNL A   1      39.668  37.552  41.109  1.00  0.00    -0.237 OA
ATOM     94  O   UNL A   1      38.163  35.841  42.045  1.00  0.00    -0.744 OA
ENDBRANCH  90  91
ENDBRANCH  64  85
ENDBRANCH  38  39
ENDBRANCH  30  33
ENDBRANCH  28  29
ENDBRANCH  27  28
ENDBRANCH  26  27
ENDBRANCH   1  26
TORSDOF 21
ENDMDL
MODEL 3
REMARK VINA RESULT:      -9.4      1.840      8.307
REMARK SMILES Cc1nc(C)c(C(=O)N[C@@H](CCS(C)(=O)=O)C(=O)NCCCCCCNC(=O)c2ccc(-c3c4nc(c(-c5ccc(S(=O)(=O)[O-])cc5)c5ccc([nH]5)c(-c5ccc(S(=O)(=O)[O-])cc5)c5nc(c(-c6ccc(S(=O)(=O)[O-])cc6)c6ccc3[nH]6)C=C5)C=C4)cc2)s1
REMARK SMILES IDX 22 1 21 2 20 3 19 4 17 5 18 6 10 8 9 9 7 10 8 11 6 13 1 14
REMARK SMILES IDX 2 15 3 16 89 17 4 18 5 19 11 20 12 21 13 22 14 23 15 24
REMARK SMILES IDX 16 25 23 26 24 27 25 28 26 29 27 30 28 32 29 33 30 34 88 35
REMARK SMILES IDX 31 36 87 37 32 38 33 39 34 40 81 41 35 42 86 43 80 44 82 45
REMARK SMILES IDX 36 46 85 47 79 48 78 49 37 51 67 52 48 53 66 54 49 55 52 56
REMARK SMILES IDX 65 57 83 58 50 59 51 60 64 62 84 63 53 64 38 65 39 66 47 67
REMARK SMILES IDX 40 68 46 69 41 70 42 71 43 72 44 73 45 74 68 75 69 76 77 77
REMARK SMILES IDX 70 78 76 79 71 80 72 81 73 82 74 83 75 84 54 85 55 86 63 87
REMARK SMILES IDX 56 88 62 89 57 90 58 91 59 92 60 93 61 94
REMARK H PARENT 19 7 9 12 26 31 82 50 52 61
REMARK Flexibility Score: inf
ROOT
ATOM      1  C   UNL A   1      38.226  23.326  26.091  1.00  0.00     0.002 C 
ENDROOT
BRANCH   1   2
ATOM      2  C   UNL A   1      37.364  23.521  24.837  1.00  0.00     0.021 C 
BRANCH   2   3
ATOM      3  C   UNL A   1      35.880  23.774  25.082  1.00  0.00     0.116 C 
BRANCH   3   4
ATOM      4  N   UNL A   1      35.019  23.131  24.110  1.00  0.00    -0.354 N 
ATOM      5  C   UNL A   1      33.966  23.602  23.389  1.00  0.00     0.242 C 
ATOM      6  O   UNL A   1      33.607  22.948  22.401  1.00  0.00    -0.273 OA
ATOM      7  H   UNL A   1      35.232  22.184  23.942  1.00  0.00     0.163 HD
BRANCH   5   8
ATOM      8  C   UNL A   1      33.265  24.939  23.689  1.00  0.00     0.172 C 
BRANCH   8   9
ATOM      9  N   UNL A   1      33.425  25.928  22.621  1.00  0.00    -0.339 N 
ATOM     10  C   UNL A   1      33.406  27.311  22.614  1.00  0.00     0.263 C 
ATOM     11  O   UNL A   1      33.977  27.787  21.627  1.00  0.00    -0.268 OA
ATOM     12  H   UNL A   1      33.577  25.529  21.734  1.00  0.00     0.164 HD
BRANCH  10  13
ATOM     13  C   UNL A   1      32.749  28.168  23.603  1.00  0.00     0.115 A 
ATOM     14  C   UNL A   1      31.925  30.133  26.882  1.00  0.00     0.079 C 
ATOM     15  C   UNL A   1      32.018  29.453  25.561  1.00  0.00     0.091 A 
ATOM     16  N   UNL A   1      31.039  29.384  24.694  1.00  0.00    -0.246 NA
ATOM     17  S   UNL A   1      33.439  28.642  25.102  1.00  0.00    -0.113 S 
ATOM     18  C   UNL A   1      31.430  28.637  23.583  1.00  0.00     0.061 A 
ATOM     19  C   UNL A   1      30.362  28.408  22.566  1.00  0.00     0.068 C 
ENDBRANCH  10  13
ENDBRANCH   8   9
BRANCH   8  20
ATOM     20  C   UNL A   1      31.844  24.920  24.291  1.00  0.00     0.051 C 
BRANCH  20  21
ATOM     21  C   UNL A   1      31.001  23.654  24.319  1.00  0.00     0.139 C 
BRANCH  21  22
ATOM     22  S   UNL A   1      31.166  22.604  25.766  1.00  0.00     0.147 S 
ATOM     23  C   UNL A   1      32.410  23.350  26.786  1.00  0.00     0.158 C 
ATOM     24  O   UNL A   1      29.908  22.685  26.488  1.00  0.00    -0.229 OA
ATOM     25  O   UNL A   1      31.684  21.318  25.369  1.00  0.00    -0.229 OA
ENDBRANCH  21  22
ENDBRANCH  20  21
ENDBRANCH   8  20
ENDBRANCH   5   8
ENDBRANCH   3   4
ENDBRANCH   2   3
ENDBRANCH   1   2
BRANCH   1  26
ATOM     26  C   UNL A   1      38.603  21.890  26.463  1.00  0.00     0.002 C 
BRANCH  26  27
ATOM     27  C   UNL A   1      39.868  21.326  25.820  1.00  0.00     0.021 C 
BRANCH  27  28
ATOM     28  C   UNL A   1      40.517  20.180  26.580  1.00  0.00     0.116 C 
BRANCH  28  29
ATOM     29  N   UNL A   1      41.564  19.517  25.823  1.00  0.00    -0.352 N 
ATOM     30  C   UNL A   1      42.763  20.019  25.383  1.00  0.00     0.251 C 
ATOM     31  H   UNL A   1      41.389  18.577  25.591  1.00  0.00     0.163 HD
ATOM     32  O   UNL A   1      43.473  19.351  24.638  1.00  0.00    -0.269 OA
BRANCH  30  33
ATOM     33  C   UNL A   1      43.181  21.379  25.789  1.00  0.00     0.039 A 
ATOM     34  C   UNL A   1      43.698  21.567  27.072  1.00  0.00     0.014 A 
ATOM     35  C   UNL A   1      43.070  22.460  24.910  1.00  0.00     0.014 A 
ATOM     36  C   UNL A   1      44.149  22.831  27.455  1.00  0.00     0.010 A 
ATOM     37  C   UNL A   1      43.604  23.696  25.261  1.00  0.00     0.010 A 
ATOM     38  C   UNL A   1      44.132  23.900  26.543  1.00  0.00    -0.014 A 
BRANCH  38  39
ATOM     39  C   UNL A   1      44.640  25.242  26.924  1.00  0.00     0.031 A 
ATOM     40  C   UNL A   1      43.775  26.171  27.734  1.00  0.00     0.074 A 
ATOM     41  C   UNL A   1      45.859  25.639  26.506  1.00  0.00     0.049 A 
ATOM     42  N   UNL A   1      44.029  27.389  28.141  1.00  0.00    -0.248 NA
ATOM     43  C   UNL A   1      42.440  25.681  28.115  1.00  0.00     0.031 C 
ATOM     44  C   UNL A   1      46.772  24.844  25.682  1.00  0.00     0.029 A 
ATOM     45  N   UNL A   1      46.540  26.810  26.719  1.00  0.00    -0.354 N 
ATOM     46  C   UNL A   1      42.886  27.811  28.810  1.00  0.00     0.074 A 
ATOM     47  C   UNL A   1      41.915  26.746  28.702  1.00  0.00     0.031 C 
ATOM     48  C   UNL A   1      47.907  25.534  25.491  1.00  0.00     0.029 A 
ATOM     49  C   UNL A   1      47.787  26.836  26.140  1.00  0.00     0.049 A 
ATOM     50  H   UNL A   1      46.171  27.561  27.238  1.00  0.00     0.167 HD
ATOM     51  C   UNL A   1      42.671  28.971  29.476  1.00  0.00     0.031 A 
ATOM     52  C   UNL A   1      48.727  27.801  26.129  1.00  0.00     0.031 A 
ATOM     53  C   UNL A   1      43.646  30.024  29.587  1.00  0.00     0.049 A 
ATOM     54  C   UNL A   1      48.461  29.086  26.866  1.00  0.00     0.074 A 
ATOM     55  C   UNL A   1      43.548  31.217  30.280  1.00  0.00     0.029 A 
ATOM     56  N   UNL A   1      44.898  30.010  28.988  1.00  0.00    -0.354 N 
ATOM     57  N   UNL A   1      47.396  29.441  27.546  1.00  0.00    -0.248 NA
ATOM     58  C   UNL A   1      49.529  30.095  26.847  1.00  0.00     0.031 C 
ATOM     59  C   UNL A   1      44.715  31.951  30.051  1.00  0.00     0.029 A 
ATOM     60  C   UNL A   1      45.571  31.185  29.276  1.00  0.00     0.049 A 
ATOM     61  H   UNL A   1      45.254  29.274  28.440  1.00  0.00     0.167 HD
ATOM     62  C   UNL A   1      47.683  30.699  28.066  1.00  0.00     0.074 A 
ATOM     63  C   UNL A   1      49.023  31.035  27.633  1.00  0.00     0.031 C 
ATOM     64  C   UNL A   1      46.907  31.504  28.836  1.00  0.00     0.031 A 
BRANCH  51  65
ATOM     65  C   UNL A   1      41.327  29.162  30.130  1.00  0.00    -0.014 A 
ATOM     66  C   UNL A   1      41.043  28.606  31.391  1.00  0.00     0.010 A 
ATOM     67  C   UNL A   1      40.346  29.946  29.495  1.00  0.00     0.010 A 
ATOM     68  C   UNL A   1      39.791  28.792  31.983  1.00  0.00     0.020 A 
ATOM     69  C   UNL A   1      39.104  30.163  30.099  1.00  0.00     0.020 A 
ATOM     70  C   UNL A   1      38.829  29.571  31.333  1.00  0.00     0.054 A 
BRANCH  70  71
ATOM     71  S   UNL A   1      37.225  29.821  32.140  1.00  0.00     0.124 S 
ATOM     72  O   UNL A   1      36.292  29.457  31.076  1.00  0.00    -0.237 OA
ATOM     73  O   UNL A   1      37.285  28.892  33.265  1.00  0.00    -0.237 OA
ATOM     74  O   UNL A   1      37.234  31.236  32.503  1.00  0.00    -0.744 OA
ENDBRANCH  70  71
ENDBRANCH  51  65
BRANCH  52  75
ATOM     75  C   UNL A   1      50.014  27.582  25.410  1.00  0.00    -0.014 A 
ATOM     76  C   UNL A   1      50.121  27.849  24.033  1.00  0.00     0.010 A 
ATOM     77  C   UNL A   1      51.143  27.108  26.102  1.00  0.00     0.010 A 
ATOM     78  C   UNL A   1      51.324  27.621  23.358  1.00  0.00     0.020 A 
ATOM     79  C   UNL A   1      52.356  26.910  25.438  1.00  0.00     0.020 A 
ATOM     80  C   UNL A   1      52.435  27.155  24.066  1.00  0.00     0.054 A 
BRANCH  80  81
ATOM     81  S   UNL A   1      53.998  26.904  23.178  1.00  0.00     0.124 S 
ATOM     82  O   UNL A   1      54.712  25.998  24.071  1.00  0.00    -0.237 OA
ATOM     83  O   UNL A   1      53.551  26.326  21.913  1.00  0.00    -0.237 OA
ATOM     84  O   UNL A   1      54.554  28.251  23.077  1.00  0.00    -0.744 OA
ENDBRANCH  80  81
ENDBRANCH  52  75
BRANCH  64  85
ATOM     85  C   UNL A   1      47.506  32.805  29.301  1.00  0.00    -0.014 A 
ATOM     86  C   UNL A   1      47.346  33.993  28.567  1.00  0.00     0.010 A 
ATOM     87  C   UNL A   1      48.208  32.842  30.521  1.00  0.00     0.010 A 
ATOM     88  C   UNL A   1      47.915  35.186  29.023  1.00  0.00     0.020 A 
ATOM     89  C   UNL A   1      48.748  34.039  30.997  1.00  0.00     0.020 A 
ATOM     90  C   UNL A   1      48.614  35.201  30.235  1.00  0.00     0.054 A 
BRANCH  90  91
ATOM     91  S   UNL A   1      49.318  36.767  30.816  1.00  0.00     0.124 S 
ATOM     92  O   UNL A   1      49.626  37.446  29.562  1.00  0.00    -0.237 OA
ATOM     93  O   UNL A   1      48.222  37.343  31.592  1.00  0.00    -0.237 OA
ATOM     94  O   UNL A   1      50.479  36.355  31.602  1.00  0.00    -0.744 OA
ENDBRANCH  90  91
ENDBRANCH  64  85
ENDBRANCH  38  39
ENDBRANCH  30  33
ENDBRANCH  28  29
ENDBRANCH  27  28
ENDBRANCH  26  27
ENDBRANCH   1  26
TORSDOF 21
ENDMDL
