MODEL 1
REMARK VINA RESULT:      -9.4      0.000      0.000
REMARK SMILES NC(=O)C[C@@H](NC(=O)c1ccc(CO)cc1)C(=O)NCCCCCCNC(=O)c1ccc(-c2c3nc(c(-c4ccc(S(=O)(=O)[O-])cc4)c4ccc([nH]4)c(-c4ccc(S(=O)(=O)[O-])cc4)c4nc(c(-c5ccc(S(=O)(=O)[O-])cc5)c5ccc2[nH]5)C=C4)C=C3)cc1
REMARK SMILES IDX 22 1 21 2 20 3 19 4 17 5 18 6 5 8 4 9 2 10 1 11 3 14 6 15
REMARK SMILES IDX 7 16 8 18 9 19 10 20 16 21 11 22 15 23 12 24 13 25 14 26
REMARK SMILES IDX 23 28 24 29 25 30 26 31 27 32 28 34 29 35 30 36 88 37 31 38
REMARK SMILES IDX 87 39 32 40 33 41 34 42 81 43 35 44 86 45 80 46 82 47 36 48
REMARK SMILES IDX 85 49 79 50 78 51 37 53 67 54 48 55 66 56 49 57 52 58 65 59
REMARK SMILES IDX 83 60 50 61 51 62 64 64 84 65 53 66 38 67 39 68 47 69 40 70
REMARK SMILES IDX 46 71 41 72 42 73 43 74 44 75 45 76 68 77 69 78 77 79 70 80
REMARK SMILES IDX 76 81 71 82 72 83 73 84 74 85 75 86 54 87 55 88 63 89 56 90
REMARK SMILES IDX 62 91 57 92 58 93 59 94 60 95 61 96
REMARK H PARENT 19 7 1 12 1 13 6 17 14 27 26 33 82 52 52 63
REMARK Flexibility Score: inf
ROOT
ATOM      1  C   UNL A   1      34.352  30.688  27.309  1.00  0.00     0.002 C 
ENDROOT
BRANCH   1   2
ATOM      2  C   UNL A   1      34.555  29.194  27.588  1.00  0.00     0.021 C 
BRANCH   2   3
ATOM      3  C   UNL A   1      33.892  28.302  26.548  1.00  0.00     0.116 C 
BRANCH   3   4
ATOM      4  N   UNL A   1      34.023  28.904  25.235  1.00  0.00    -0.354 N 
ATOM      5  C   UNL A   1      33.681  28.420  24.012  1.00  0.00     0.243 C 
ATOM      6  O   UNL A   1      34.053  29.048  23.016  1.00  0.00    -0.273 OA
ATOM      7  H   UNL A   1      34.421  29.805  25.229  1.00  0.00     0.163 HD
BRANCH   5   8
ATOM      8  C   UNL A   1      32.968  27.071  23.866  1.00  0.00     0.180 C 
BRANCH   8   9
ATOM      9  C   UNL A   1      34.101  26.028  23.816  1.00  0.00     0.134 C 
BRANCH   9  10
ATOM     10  C   UNL A   1      33.737  24.756  23.105  1.00  0.00     0.220 C 
ATOM     11  N   UNL A   1      33.524  23.678  23.915  1.00  0.00    -0.370 N 
ATOM     12  H   UNL A   1      33.282  22.809  23.522  1.00  0.00     0.159 HD
ATOM     13  H   UNL A   1      33.613  23.770  24.891  1.00  0.00     0.159 HD
ATOM     14  O   UNL A   1      33.654  24.667  21.888  1.00  0.00    -0.275 OA
ENDBRANCH   9  10
ENDBRANCH   8   9
BRANCH   8  15
ATOM     15  N   UNL A   1      31.942  26.771  24.888  1.00  0.00    -0.340 N 
ATOM     16  C   UNL A   1      30.576  26.964  24.905  1.00  0.00     0.251 C 
ATOM     17  H   UNL A   1      32.299  26.357  25.706  1.00  0.00     0.164 HD
ATOM     18  O   UNL A   1      29.901  26.325  25.709  1.00  0.00    -0.269 OA
BRANCH  16  19
ATOM     19  C   UNL A   1      29.925  28.037  24.123  1.00  0.00     0.039 A 
ATOM     20  C   UNL A   1      30.451  29.331  24.244  1.00  0.00     0.014 A 
ATOM     21  C   UNL A   1      28.868  27.801  23.246  1.00  0.00     0.014 A 
ATOM     22  C   UNL A   1      30.023  30.346  23.385  1.00  0.00     0.007 A 
ATOM     23  C   UNL A   1      28.450  28.818  22.378  1.00  0.00     0.007 A 
ATOM     24  C   UNL A   1      29.058  30.081  22.407  1.00  0.00    -0.023 A 
BRANCH  24  25
ATOM     25  C   UNL A   1      28.699  31.140  21.395  1.00  0.00     0.191 C 
BRANCH  25  26
ATOM     26  O   UNL A   1      28.531  32.408  22.009  1.00  0.00    -0.392 OA
ATOM     27  H   UNL A   1      28.986  32.415  22.866  1.00  0.00     0.211 HD
ENDBRANCH  25  26
ENDBRANCH  24  25
ENDBRANCH  16  19
ENDBRANCH   8  15
ENDBRANCH   5   8
ENDBRANCH   3   4
ENDBRANCH   2   3
ENDBRANCH   1   2
BRANCH   1  28
ATOM     28  C   UNL A   1      35.592  31.554  27.559  1.00  0.00     0.002 C 
BRANCH  28  29
ATOM     29  C   UNL A   1      35.477  32.499  28.756  1.00  0.00     0.021 C 
BRANCH  29  30
ATOM     30  C   UNL A   1      36.616  32.369  29.756  1.00  0.00     0.116 C 
BRANCH  30  31
ATOM     31  N   UNL A   1      36.254  31.520  30.880  1.00  0.00    -0.352 N 
ATOM     32  C   UNL A   1      36.826  30.341  31.279  1.00  0.00     0.251 C 
ATOM     33  H   UNL A   1      35.497  31.834  31.425  1.00  0.00     0.163 HD
ATOM     34  O   UNL A   1      36.278  29.640  32.125  1.00  0.00    -0.269 OA
BRANCH  32  35
ATOM     35  C   UNL A   1      38.098  29.919  30.663  1.00  0.00     0.039 A 
ATOM     36  C   UNL A   1      38.215  29.932  29.272  1.00  0.00     0.014 A 
ATOM     37  C   UNL A   1      39.180  29.540  31.464  1.00  0.00     0.014 A 
ATOM     38  C   UNL A   1      39.438  29.613  28.684  1.00  0.00     0.010 A 
ATOM     39  C   UNL A   1      40.419  29.304  30.880  1.00  0.00     0.010 A 
ATOM     40  C   UNL A   1      40.558  29.327  29.485  1.00  0.00    -0.014 A 
BRANCH  40  41
ATOM     41  C   UNL A   1      41.882  29.043  28.879  1.00  0.00     0.031 A 
ATOM     42  C   UNL A   1      42.194  27.665  28.363  1.00  0.00     0.074 A 
ATOM     43  C   UNL A   1      42.820  30.011  28.845  1.00  0.00     0.049 A 
ATOM     44  N   UNL A   1      43.305  27.213  27.840  1.00  0.00    -0.248 NA
ATOM     45  C   UNL A   1      41.128  26.655  28.469  1.00  0.00     0.031 C 
ATOM     46  C   UNL A   1      42.650  31.375  29.352  1.00  0.00     0.029 A 
ATOM     47  N   UNL A   1      44.105  29.994  28.365  1.00  0.00    -0.354 N 
ATOM     48  C   UNL A   1      43.077  25.869  27.571  1.00  0.00     0.074 A 
ATOM     49  C   UNL A   1      41.744  25.564  28.040  1.00  0.00     0.031 C 
ATOM     50  C   UNL A   1      43.774  32.072  29.125  1.00  0.00     0.029 A 
ATOM     51  C   UNL A   1      44.761  31.195  28.502  1.00  0.00     0.049 A 
ATOM     52  H   UNL A   1      44.518  29.198  27.960  1.00  0.00     0.167 HD
ATOM     53  C   UNL A   1      43.896  24.974  26.968  1.00  0.00     0.031 A 
ATOM     54  C   UNL A   1      46.018  31.551  28.170  1.00  0.00     0.031 A 
ATOM     55  C   UNL A   1      45.220  25.287  26.499  1.00  0.00     0.049 A 
ATOM     56  C   UNL A   1      46.915  30.533  27.520  1.00  0.00     0.074 A 
ATOM     57  C   UNL A   1      46.109  24.467  25.828  1.00  0.00     0.029 A 
ATOM     58  N   UNL A   1      45.847  26.514  26.657  1.00  0.00    -0.354 N 
ATOM     59  N   UNL A   1      46.657  29.284  27.210  1.00  0.00    -0.248 NA
ATOM     60  C   UNL A   1      48.269  30.976  27.163  1.00  0.00     0.031 C 
ATOM     61  C   UNL A   1      47.297  25.179  25.635  1.00  0.00     0.029 A 
ATOM     62  C   UNL A   1      47.123  26.464  26.122  1.00  0.00     0.049 A 
ATOM     63  H   UNL A   1      45.444  27.304  27.085  1.00  0.00     0.167 HD
ATOM     64  C   UNL A   1      47.807  28.802  26.596  1.00  0.00     0.074 A 
ATOM     65  C   UNL A   1      48.754  29.898  26.563  1.00  0.00     0.031 C 
ATOM     66  C   UNL A   1      48.056  27.563  26.101  1.00  0.00     0.031 A 
BRANCH  53  67
ATOM     67  C   UNL A   1      43.384  23.568  26.793  1.00  0.00    -0.014 A 
ATOM     68  C   UNL A   1      43.070  23.058  25.519  1.00  0.00     0.010 A 
ATOM     69  C   UNL A   1      43.246  22.730  27.914  1.00  0.00     0.010 A 
ATOM     70  C   UNL A   1      42.589  21.755  25.375  1.00  0.00     0.020 A 
ATOM     71  C   UNL A   1      42.795  21.414  27.772  1.00  0.00     0.020 A 
ATOM     72  C   UNL A   1      42.453  20.941  26.504  1.00  0.00     0.054 A 
BRANCH  72  73
ATOM     73  S   UNL A   1      41.845  19.246  26.283  1.00  0.00     0.124 S 
ATOM     74  O   UNL A   1      42.579  18.816  25.095  1.00  0.00    -0.237 OA
ATOM     75  O   UNL A   1      42.240  18.601  27.533  1.00  0.00    -0.237 OA
ATOM     76  O   UNL A   1      40.406  19.415  26.098  1.00  0.00    -0.744 OA
ENDBRANCH  72  73
ENDBRANCH  53  67
BRANCH  54  77
ATOM     77  C   UNL A   1      46.494  32.936  28.437  1.00  0.00    -0.014 A 
ATOM     78  C   UNL A   1      47.126  33.254  29.652  1.00  0.00     0.010 A 
ATOM     79  C   UNL A   1      46.329  33.944  27.469  1.00  0.00     0.010 A 
ATOM     80  C   UNL A   1      47.569  34.557  29.900  1.00  0.00     0.020 A 
ATOM     81  C   UNL A   1      46.798  35.239  27.701  1.00  0.00     0.020 A 
ATOM     82  C   UNL A   1      47.405  35.540  28.922  1.00  0.00     0.054 A 
BRANCH  82  83
ATOM     83  S   UNL A   1      48.032  37.211  29.248  1.00  0.00     0.124 S 
ATOM     84  O   UNL A   1      46.806  38.002  29.244  1.00  0.00    -0.237 OA
ATOM     85  O   UNL A   1      48.683  37.053  30.546  1.00  0.00    -0.237 OA
ATOM     86  O   UNL A   1      48.941  37.458  28.130  1.00  0.00    -0.744 OA
ENDBRANCH  82  83
ENDBRANCH  54  77
BRANCH  66  87
ATOM     87  C   UNL A   1      49.394  27.333  25.447  1.00  0.00    -0.014 A 
ATOM     88  C   UNL A   1      49.587  27.558  24.074  1.00  0.00     0.010 A 
ATOM     89  C   UNL A   1      50.489  26.936  26.237  1.00  0.00     0.010 A 
ATOM     90  C   UNL A   1      50.844  27.361  23.495  1.00  0.00     0.020 A 
ATOM     91  C   UNL A   1      51.755  26.770  25.670  1.00  0.00     0.020 A 
ATOM     92  C   UNL A   1      51.920  26.969  24.299  1.00  0.00     0.054 A 
BRANCH  92  93
ATOM     93  S   UNL A   1      53.550  26.764  23.531  1.00  0.00     0.124 S 
ATOM     94  O   UNL A   1      54.234  25.905  24.495  1.00  0.00    -0.237 OA
ATOM     95  O   UNL A   1      53.225  26.138  22.251  1.00  0.00    -0.237 OA
ATOM     96  O   UNL A   1      54.065  28.129  23.438  1.00  0.00    -0.744 OA
ENDBRANCH  92  93
ENDBRANCH  66  87
ENDBRANCH  40  41
ENDBRANCH  32  35
ENDBRANCH  30  31
ENDBRANCH  29  30
ENDBRANCH  28  29
ENDBRANCH   1  28
TORSDOF 22
ENDMDL
MODEL 2
REMARK VINA RESULT:      -9.3      6.426     10.609
REMARK SMILES NC(=O)C[C@@H](NC(=O)c1ccc(CO)cc1)C(=O)NCCCCCCNC(=O)c1ccc(-c2c3nc(c(-c4ccc(S(=O)(=O)[O-])cc4)c4ccc([nH]4)c(-c4ccc(S(=O)(=O)[O-])cc4)c4nc(c(-c5ccc(S(=O)(=O)[O-])cc5)c5ccc2[nH]5)C=C4)C=C3)cc1
REMARK SMILES IDX 22 1 21 2 20 3 19 4 17 5 18 6 5 8 4 9 2 10 1 11 3 14 6 15
REMARK SMILES IDX 7 16 8 18 9 19 10 20 16 21 11 22 15 23 12 24 13 25 14 26
REMARK SMILES IDX 23 28 24 29 25 30 26 31 27 32 28 34 29 35 30 36 88 37 31 38
REMARK SMILES IDX 87 39 32 40 33 41 34 42 81 43 35 44 86 45 80 46 82 47 36 48
REMARK SMILES IDX 85 49 79 50 78 51 37 53 67 54 48 55 66 56 49 57 52 58 65 59
REMARK SMILES IDX 83 60 50 61 51 62 64 64 84 65 53 66 38 67 39 68 47 69 40 70
REMARK SMILES IDX 46 71 41 72 42 73 43 74 44 75 45 76 68 77 69 78 77 79 70 80
REMARK SMILES IDX 76 81 71 82 72 83 73 84 74 85 75 86 54 87 55 88 63 89 56 90
REMARK SMILES IDX 62 91 57 92 58 93 59 94 60 95 61 96
REMARK H PARENT 19 7 1 12 1 13 6 17 14 27 26 33 82 52 52 63
REMARK Flexibility Score: inf
ROOT
ATOM      1  C   UNL A   1      33.097  31.933  27.821  1.00  0.00     0.002 C 
ENDROOT
BRANCH   1   2
ATOM      2  C   UNL A   1      34.249  30.922  27.795  1.00  0.00     0.021 C 
BRANCH   2   3
ATOM      3  C   UNL A   1      33.944  29.699  26.942  1.00  0.00     0.116 C 
BRANCH   3   4
ATOM      4  N   UNL A   1      32.894  28.918  27.567  1.00  0.00    -0.354 N 
ATOM      5  C   UNL A   1      32.081  27.965  27.042  1.00  0.00     0.243 C 
ATOM      6  O   UNL A   1      31.140  27.562  27.731  1.00  0.00    -0.273 OA
ATOM      7  H   UNL A   1      32.749  29.107  28.523  1.00  0.00     0.163 HD
BRANCH   5   8
ATOM      8  C   UNL A   1      32.247  27.495  25.592  1.00  0.00     0.180 C 
BRANCH   8   9
ATOM      9  C   UNL A   1      33.720  27.054  25.484  1.00  0.00     0.134 C 
BRANCH   9  10
ATOM     10  C   UNL A   1      33.946  25.872  24.586  1.00  0.00     0.220 C 
ATOM     11  N   UNL A   1      34.425  24.754  25.205  1.00  0.00    -0.370 N 
ATOM     12  H   UNL A   1      34.599  23.939  24.682  1.00  0.00     0.159 HD
ATOM     13  H   UNL A   1      34.597  24.764  26.175  1.00  0.00     0.159 HD
ATOM     14  O   UNL A   1      33.743  25.897  23.379  1.00  0.00    -0.275 OA
ENDBRANCH   9  10
ENDBRANCH   8   9
BRANCH   8  15
ATOM     15  N   UNL A   1      31.293  26.460  25.136  1.00  0.00    -0.340 N 
ATOM     16  C   UNL A   1      30.407  26.426  24.080  1.00  0.00     0.251 C 
ATOM     17  H   UNL A   1      31.290  25.646  25.689  1.00  0.00     0.164 HD
ATOM     18  O   UNL A   1      29.978  25.337  23.705  1.00  0.00    -0.269 OA
BRANCH  16  19
ATOM     19  C   UNL A   1      29.819  27.658  23.508  1.00  0.00     0.039 A 
ATOM     20  C   UNL A   1      30.688  28.538  22.846  1.00  0.00     0.014 A 
ATOM     21  C   UNL A   1      28.455  27.937  23.554  1.00  0.00     0.014 A 
ATOM     22  C   UNL A   1      30.175  29.608  22.109  1.00  0.00     0.007 A 
ATOM     23  C   UNL A   1      27.943  29.004  22.803  1.00  0.00     0.007 A 
ATOM     24  C   UNL A   1      28.793  29.815  22.037  1.00  0.00    -0.023 A 
BRANCH  24  25
ATOM     25  C   UNL A   1      28.238  30.885  21.132  1.00  0.00     0.191 C 
BRANCH  25  26
ATOM     26  O   UNL A   1      27.869  32.043  21.863  1.00  0.00    -0.392 OA
ATOM     27  H   UNL A   1      28.668  32.498  22.172  1.00  0.00     0.211 HD
ENDBRANCH  25  26
ENDBRANCH  24  25
ENDBRANCH  16  19
ENDBRANCH   8  15
ENDBRANCH   5   8
ENDBRANCH   3   4
ENDBRANCH   2   3
ENDBRANCH   1   2
BRANCH   1  28
ATOM     28  C   UNL A   1      33.481  33.344  27.361  1.00  0.00     0.002 C 
BRANCH  28  29
ATOM     29  C   UNL A   1      32.956  34.470  28.253  1.00  0.00     0.021 C 
BRANCH  29  30
ATOM     30  C   UNL A   1      33.750  34.659  29.538  1.00  0.00     0.116 C 
BRANCH  30  31
ATOM     31  N   UNL A   1      32.926  35.200  30.606  1.00  0.00    -0.352 N 
ATOM     32  C   UNL A   1      33.101  35.087  31.960  1.00  0.00     0.251 C 
ATOM     33  H   UNL A   1      32.138  35.716  30.319  1.00  0.00     0.163 HD
ATOM     34  O   UNL A   1      32.209  35.427  32.732  1.00  0.00    -0.269 OA
BRANCH  32  35
ATOM     35  C   UNL A   1      34.368  34.533  32.474  1.00  0.00     0.039 A 
ATOM     36  C   UNL A   1      34.369  33.259  33.044  1.00  0.00     0.014 A 
ATOM     37  C   UNL A   1      35.556  35.263  32.362  1.00  0.00     0.014 A 
ATOM     38  C   UNL A   1      35.575  32.695  33.458  1.00  0.00     0.010 A 
ATOM     39  C   UNL A   1      36.765  34.666  32.698  1.00  0.00     0.010 A 
ATOM     40  C   UNL A   1      36.786  33.381  33.259  1.00  0.00    -0.014 A 
BRANCH  40  41
ATOM     41  C   UNL A   1      38.084  32.771  33.638  1.00  0.00     0.031 A 
ATOM     42  C   UNL A   1      38.657  33.012  35.008  1.00  0.00     0.074 A 
ATOM     43  C   UNL A   1      38.771  32.049  32.731  1.00  0.00     0.049 A 
ATOM     44  N   UNL A   1      39.794  32.602  35.509  1.00  0.00    -0.248 NA
ATOM     45  C   UNL A   1      37.862  33.842  35.929  1.00  0.00     0.031 C 
ATOM     46  C   UNL A   1      38.337  31.780  31.357  1.00  0.00     0.029 A 
ATOM     47  N   UNL A   1      39.981  31.410  32.827  1.00  0.00    -0.354 N 
ATOM     48  C   UNL A   1      39.856  33.134  36.791  1.00  0.00     0.074 A 
ATOM     49  C   UNL A   1      38.672  33.943  36.971  1.00  0.00     0.031 C 
ATOM     50  C   UNL A   1      39.251  31.005  30.752  1.00  0.00     0.029 A 
ATOM     51  C   UNL A   1      40.356  30.761  31.673  1.00  0.00     0.049 A 
ATOM     52  H   UNL A   1      40.530  31.416  33.644  1.00  0.00     0.167 HD
ATOM     53  C   UNL A   1      40.804  32.949  37.741  1.00  0.00     0.031 A 
ATOM     54  C   UNL A   1      41.466  30.053  31.387  1.00  0.00     0.031 A 
ATOM     55  C   UNL A   1      41.978  32.138  37.556  1.00  0.00     0.049 A 
ATOM     56  C   UNL A   1      42.513  29.878  32.452  1.00  0.00     0.074 A 
ATOM     57  C   UNL A   1      42.971  31.842  38.473  1.00  0.00     0.029 A 
ATOM     58  N   UNL A   1      42.320  31.497  36.374  1.00  0.00    -0.354 N 
ATOM     59  N   UNL A   1      42.522  30.332  33.683  1.00  0.00    -0.248 NA
ATOM     60  C   UNL A   1      43.697  29.084  32.094  1.00  0.00     0.031 C 
ATOM     61  C   UNL A   1      43.946  31.075  37.827  1.00  0.00     0.029 A 
ATOM     62  C   UNL A   1      43.525  30.832  36.529  1.00  0.00     0.049 A 
ATOM     63  H   UNL A   1      41.785  31.512  35.547  1.00  0.00     0.167 HD
ATOM     64  C   UNL A   1      43.696  29.855  34.255  1.00  0.00     0.074 A 
ATOM     65  C   UNL A   1      44.362  29.064  33.240  1.00  0.00     0.031 C 
ATOM     66  C   UNL A   1      44.177  30.052  35.508  1.00  0.00     0.031 A 
BRANCH  53  67
ATOM     67  C   UNL A   1      40.612  33.647  39.062  1.00  0.00    -0.014 A 
ATOM     68  C   UNL A   1      41.263  34.862  39.349  1.00  0.00     0.010 A 
ATOM     69  C   UNL A   1      39.741  33.099  40.021  1.00  0.00     0.010 A 
ATOM     70  C   UNL A   1      41.080  35.491  40.582  1.00  0.00     0.020 A 
ATOM     71  C   UNL A   1      39.530  33.742  41.245  1.00  0.00     0.020 A 
ATOM     72  C   UNL A   1      40.214  34.925  41.524  1.00  0.00     0.054 A 
BRANCH  72  73
ATOM     73  S   UNL A   1      39.981  35.776  43.109  1.00  0.00     0.124 S 
ATOM     74  O   UNL A   1      40.381  37.142  42.779  1.00  0.00    -0.237 OA
ATOM     75  O   UNL A   1      38.557  35.584  43.367  1.00  0.00    -0.237 OA
ATOM     76  O   UNL A   1      40.878  35.068  44.018  1.00  0.00    -0.744 OA
ENDBRANCH  72  73
ENDBRANCH  53  67
BRANCH  54  77
ATOM     77  C   UNL A   1      41.635  29.449  30.037  1.00  0.00    -0.014 A 
ATOM     78  C   UNL A   1      42.242  30.175  28.998  1.00  0.00     0.010 A 
ATOM     79  C   UNL A   1      41.200  28.134  29.786  1.00  0.00     0.010 A 
ATOM     80  C   UNL A   1      42.396  29.606  27.731  1.00  0.00     0.020 A 
ATOM     81  C   UNL A   1      41.379  27.551  28.530  1.00  0.00     0.020 A 
ATOM     82  C   UNL A   1      41.967  28.296  27.505  1.00  0.00     0.054 A 
BRANCH  82  83
ATOM     83  S   UNL A   1      42.223  27.561  25.867  1.00  0.00     0.124 S 
ATOM     84  O   UNL A   1      43.525  26.923  26.020  1.00  0.00    -0.237 OA
ATOM     85  O   UNL A   1      41.082  26.657  25.748  1.00  0.00    -0.237 OA
ATOM     86  O   UNL A   1      42.190  28.713  24.967  1.00  0.00    -0.744 OA
ENDBRANCH  82  83
ENDBRANCH  54  77
BRANCH  66  87
ATOM     87  C   UNL A   1      45.474  29.372  35.868  1.00  0.00    -0.014 A 
ATOM     88  C   UNL A   1      46.711  30.013  35.684  1.00  0.00     0.010 A 
ATOM     89  C   UNL A   1      45.444  28.092  36.452  1.00  0.00     0.010 A 
ATOM     90  C   UNL A   1      47.899  29.371  36.050  1.00  0.00     0.020 A 
ATOM     91  C   UNL A   1      46.625  27.462  36.849  1.00  0.00     0.020 A 
ATOM     92  C   UNL A   1      47.847  28.100  36.630  1.00  0.00     0.054 A 
BRANCH  92  93
ATOM     93  S   UNL A   1      49.398  27.310  37.137  1.00  0.00     0.124 S 
ATOM     94  O   UNL A   1      49.987  28.326  38.006  1.00  0.00    -0.237 OA
ATOM     95  O   UNL A   1      48.936  26.098  37.810  1.00  0.00    -0.237 OA
ATOM     96  O   UNL A   1      50.102  27.085  35.876  1.00  0.00    -0.744 OA
ENDBRANCH  92  93
ENDBRANCH  66  87
ENDBRANCH  40  41
ENDBRANCH  32  35
ENDBRANCH  30  31
ENDBRANCH  29  30
ENDBRANCH  28  29
ENDBRANCH   1  28
TORSDOF 22
ENDMDL
MODEL 3
REMARK VINA RESULT:      -9.3      7.096     10.719
REMARK SMILES NC(=O)C[C@@H](NC(=O)c1ccc(CO)cc1)C(=O)NCCCCCCNC(=O)c1ccc(-c2c3nc(c(-c4ccc(S(=O)(=O)[O-])cc4)c4ccc([nH]4)c(-c4ccc(S(=O)(=O)[O-])cc4)c4nc(c(-c5ccc(S(=O)(=O)[O-])cc5)c5ccc2[nH]5)C=C4)C=C3)cc1
REMARK SMILES IDX 22 1 21 2 20 3 19 4 17 5 18 6 5 8 4 9 2 10 1 11 3 14 6 15
REMARK SMILES IDX 7 16 8 18 9 19 10 20 16 21 11 22 15 23 12 24 13 25 14 26
REMARK SMILES IDX 23 28 24 29 25 30 26 31 27 32 28 34 29 35 30 36 88 37 31 38
REMARK SMILES IDX 87 39 32 40 33 41 34 42 81 43 35 44 86 45 80 46 82 47 36 48
REMARK SMILES IDX 85 49 79 50 78 51 37 53 67 54 48 55 66 56 49 57 52 58 65 59
REMARK SMILES IDX 83 60 50 61 51 62 64 64 84 65 53 66 38 67 39 68 47 69 40 70
REMARK SMILES IDX 46 71 41 72 42 73 43 74 44 75 45 76 68 77 69 78 77 79 70 80
REMARK SMILES IDX 76 81 71 82 72 83 73 84 74 85 75 86 54 87 55 88 63 89 56 90
REMARK SMILES IDX 62 91 57 92 58 93 59 94 60 95 61 96
REMARK H PARENT 19 7 1 12 1 13 6 17 14 27 26 33 82 52 52 63
REMARK Flexibility Score: inf
ROOT
ATOM      1  C   UNL A   1      40.219  29.151  29.568  1.00  0.00     0.002 C 
ENDROOT
BRANCH   1   2
ATOM      2  C   UNL A   1      40.121  28.074  28.480  1.00  0.00     0.021 C 
BRANCH   2   3
ATOM      3  C   UNL A   1      39.897  26.679  29.047  1.00  0.00     0.116 C 
BRANCH   3   4
ATOM      4  N   UNL A   1      39.236  25.851  28.057  1.00  0.00    -0.354 N 
ATOM      5  C   UNL A   1      39.747  24.904  27.226  1.00  0.00     0.243 C 
ATOM      6  O   UNL A   1      39.013  24.453  26.342  1.00  0.00    -0.273 OA
ATOM      7  H   UNL A   1      38.266  25.996  27.975  1.00  0.00     0.163 HD
BRANCH   5   8
ATOM      8  C   UNL A   1      41.224  24.500  27.300  1.00  0.00     0.180 C 
BRANCH   8   9
ATOM      9  C   UNL A   1      41.218  23.092  27.927  1.00  0.00     0.134 C 
BRANCH   9  10
ATOM     10  C   UNL A   1      42.569  22.440  27.990  1.00  0.00     0.220 C 
ATOM     11  N   UNL A   1      42.556  21.075  27.999  1.00  0.00    -0.370 N 
ATOM     12  H   UNL A   1      43.403  20.576  28.039  1.00  0.00     0.159 HD
ATOM     13  H   UNL A   1      41.699  20.591  27.965  1.00  0.00     0.159 HD
ATOM     14  O   UNL A   1      43.617  23.069  28.052  1.00  0.00    -0.275 OA
ENDBRANCH   9  10
ENDBRANCH   8   9
BRANCH   8  15
ATOM     15  N   UNL A   1      41.975  24.570  26.028  1.00  0.00    -0.340 N 
ATOM     16  C   UNL A   1      42.921  25.462  25.565  1.00  0.00     0.251 C 
ATOM     17  H   UNL A   1      41.761  23.847  25.395  1.00  0.00     0.164 HD
ATOM     18  O   UNL A   1      43.646  25.120  24.633  1.00  0.00    -0.269 OA
BRANCH  16  19
ATOM     19  C   UNL A   1      42.968  26.866  26.026  1.00  0.00     0.039 A 
ATOM     20  C   UNL A   1      44.011  27.225  26.893  1.00  0.00     0.014 A 
ATOM     21  C   UNL A   1      42.066  27.836  25.593  1.00  0.00     0.014 A 
ATOM     22  C   UNL A   1      44.237  28.568  27.201  1.00  0.00     0.007 A 
ATOM     23  C   UNL A   1      42.302  29.183  25.895  1.00  0.00     0.007 A 
ATOM     24  C   UNL A   1      43.416  29.564  26.658  1.00  0.00    -0.023 A 
BRANCH  24  25
ATOM     25  C   UNL A   1      43.745  31.017  26.882  1.00  0.00     0.191 C 
BRANCH  25  26
ATOM     26  O   UNL A   1      44.659  31.498  25.909  1.00  0.00    -0.392 OA
ATOM     27  H   UNL A   1      44.534  31.010  25.079  1.00  0.00     0.211 HD
ENDBRANCH  25  26
ENDBRANCH  24  25
ENDBRANCH  16  19
ENDBRANCH   8  15
ENDBRANCH   5   8
ENDBRANCH   3   4
ENDBRANCH   2   3
ENDBRANCH   1   2
BRANCH   1  28
ATOM     28  C   UNL A   1      39.458  30.444  29.250  1.00  0.00     0.002 C 
BRANCH  28  29
ATOM     29  C   UNL A   1      37.950  30.369  29.486  1.00  0.00     0.021 C 
BRANCH  29  30
ATOM     30  C   UNL A   1      37.557  29.559  30.713  1.00  0.00     0.116 C 
BRANCH  30  31
ATOM     31  N   UNL A   1      37.322  30.408  31.869  1.00  0.00    -0.352 N 
ATOM     32  C   UNL A   1      38.080  30.536  33.003  1.00  0.00     0.251 C 
ATOM     33  H   UNL A   1      36.510  30.963  31.833  1.00  0.00     0.163 HD
ATOM     34  O   UNL A   1      37.642  31.142  33.977  1.00  0.00    -0.269 OA
BRANCH  32  35
ATOM     35  C   UNL A   1      39.419  29.919  33.041  1.00  0.00     0.039 A 
ATOM     36  C   UNL A   1      40.546  30.744  33.050  1.00  0.00     0.014 A 
ATOM     37  C   UNL A   1      39.556  28.529  33.099  1.00  0.00     0.014 A 
ATOM     38  C   UNL A   1      41.812  30.172  33.168  1.00  0.00     0.010 A 
ATOM     39  C   UNL A   1      40.811  27.968  33.300  1.00  0.00     0.010 A 
ATOM     40  C   UNL A   1      41.952  28.782  33.327  1.00  0.00    -0.014 A 
BRANCH  40  41
ATOM     41  C   UNL A   1      43.287  28.163  33.513  1.00  0.00     0.031 A 
ATOM     42  C   UNL A   1      43.871  28.032  34.894  1.00  0.00     0.074 A 
ATOM     43  C   UNL A   1      43.995  27.771  32.435  1.00  0.00     0.049 A 
ATOM     44  N   UNL A   1      45.036  27.560  35.254  1.00  0.00    -0.248 NA
ATOM     45  C   UNL A   1      43.049  28.518  36.015  1.00  0.00     0.031 C 
ATOM     46  C   UNL A   1      43.553  27.883  31.043  1.00  0.00     0.029 A 
ATOM     47  N   UNL A   1      45.240  27.199  32.342  1.00  0.00    -0.354 N 
ATOM     48  C   UNL A   1      45.092  27.705  36.634  1.00  0.00     0.074 A 
ATOM     49  C   UNL A   1      43.871  28.361  37.042  1.00  0.00     0.031 C 
ATOM     50  C   UNL A   1      44.495  27.367  30.239  1.00  0.00     0.029 A 
ATOM     51  C   UNL A   1      45.628  26.930  31.050  1.00  0.00     0.049 A 
ATOM     52  H   UNL A   1      45.801  27.001  33.126  1.00  0.00     0.167 HD
ATOM     53  C   UNL A   1      46.065  27.308  37.490  1.00  0.00     0.031 A 
ATOM     54  C   UNL A   1      46.769  26.397  30.571  1.00  0.00     0.031 A 
ATOM     55  C   UNL A   1      47.277  26.650  37.077  1.00  0.00     0.049 A 
ATOM     56  C   UNL A   1      47.842  25.983  31.540  1.00  0.00     0.074 A 
ATOM     57  C   UNL A   1      48.300  26.160  37.870  1.00  0.00     0.029 A 
ATOM     58  N   UNL A   1      47.632  26.396  35.761  1.00  0.00    -0.354 N 
ATOM     59  N   UNL A   1      47.848  26.065  32.849  1.00  0.00    -0.248 NA
ATOM     60  C   UNL A   1      49.059  25.392  30.967  1.00  0.00     0.031 C 
ATOM     61  C   UNL A   1      49.302  25.666  37.029  1.00  0.00     0.029 A 
ATOM     62  C   UNL A   1      48.872  25.782  35.717  1.00  0.00     0.049 A 
ATOM     63  H   UNL A   1      47.082  26.618  34.975  1.00  0.00     0.167 HD
ATOM     64  C   UNL A   1      49.056  25.509  33.258  1.00  0.00     0.074 A 
ATOM     65  C   UNL A   1      49.745  25.081  32.058  1.00  0.00     0.031 C 
ATOM     66  C   UNL A   1      49.548  25.365  34.514  1.00  0.00     0.031 A 
BRANCH  53  67
ATOM     67  C   UNL A   1      45.860  27.585  38.957  1.00  0.00    -0.014 A 
ATOM     68  C   UNL A   1      46.242  28.813  39.528  1.00  0.00     0.010 A 
ATOM     69  C   UNL A   1      45.243  26.618  39.771  1.00  0.00     0.010 A 
ATOM     70  C   UNL A   1      46.051  29.051  40.891  1.00  0.00     0.020 A 
ATOM     71  C   UNL A   1      45.021  26.863  41.129  1.00  0.00     0.020 A 
ATOM     72  C   UNL A   1      45.443  28.073  41.684  1.00  0.00     0.054 A 
BRANCH  72  73
ATOM     73  S   UNL A   1      45.190  28.417  43.447  1.00  0.00     0.124 S 
ATOM     74  O   UNL A   1      45.612  29.813  43.544  1.00  0.00    -0.237 OA
ATOM     75  O   UNL A   1      43.759  28.182  43.616  1.00  0.00    -0.237 OA
ATOM     76  O   UNL A   1      46.061  27.456  44.117  1.00  0.00    -0.744 OA
ENDBRANCH  72  73
ENDBRANCH  53  67
BRANCH  54  77
ATOM     77  C   UNL A   1      46.946  26.216  29.104  1.00  0.00    -0.014 A 
ATOM     78  C   UNL A   1      47.535  27.226  28.324  1.00  0.00     0.010 A 
ATOM     79  C   UNL A   1      46.537  25.023  28.480  1.00  0.00     0.010 A 
ATOM     80  C   UNL A   1      47.697  27.054  26.946  1.00  0.00     0.020 A 
ATOM     81  C   UNL A   1      46.725  24.834  27.108  1.00  0.00     0.020 A 
ATOM     82  C   UNL A   1      47.294  25.857  26.347  1.00  0.00     0.054 A 
BRANCH  82  83
ATOM     83  S   UNL A   1      47.559  25.637  24.566  1.00  0.00     0.124 S 
ATOM     84  O   UNL A   1      46.778  26.734  24.005  1.00  0.00    -0.237 OA
ATOM     85  O   UNL A   1      49.010  25.764  24.448  1.00  0.00    -0.237 OA
ATOM     86  O   UNL A   1      47.036  24.298  24.306  1.00  0.00    -0.744 OA
ENDBRANCH  82  83
ENDBRANCH  54  77
BRANCH  66  87
ATOM     87  C   UNL A   1      50.884  24.684  34.662  1.00  0.00    -0.014 A 
ATOM     88  C   UNL A   1      52.084  25.416  34.645  1.00  0.00     0.010 A 
ATOM     89  C   UNL A   1      50.931  23.294  34.876  1.00  0.00     0.010 A 
ATOM     90  C   UNL A   1      53.310  24.764  34.809  1.00  0.00     0.020 A 
ATOM     91  C   UNL A   1      52.152  22.644  35.074  1.00  0.00     0.020 A 
ATOM     92  C   UNL A   1      53.335  23.382  35.024  1.00  0.00     0.054 A 
BRANCH  92  93
ATOM     93  S   UNL A   1      54.935  22.569  35.279  1.00  0.00     0.124 S 
ATOM     94  O   UNL A   1      54.564  21.156  35.262  1.00  0.00    -0.237 OA
ATOM     95  O   UNL A   1      55.715  23.028  34.131  1.00  0.00    -0.237 OA
ATOM     96  O   UNL A   1      55.383  23.080  36.573  1.00  0.00    -0.744 OA
ENDBRANCH  92  93
ENDBRANCH  66  87
ENDBRANCH  40  41
ENDBRANCH  32  35
ENDBRANCH  30  31
ENDBRANCH  29  30
ENDBRANCH  28  29
ENDBRANCH   1  28
TORSDOF 22
ENDMDL
