MODEL 1
REMARK VINA RESULT:     -10.3      0.000      0.000
REMARK SMILES CC(C)Cc1ccc([C@@H](C)C(=O)NCCCCCCNC(=O)c2ccc(-c3c4nc(c(-c5ccc(S(=O)(=O)[O-])cc5)c5ccc([nH]5)c(-c5ccc(S(=O)(=O)[O-])cc5)c5nc(c(-c6ccc(S(=O)(=O)[O-])cc6)c6ccc3[nH]6)C=C5)C=C4)cc2)cc1
REMARK SMILES IDX 16 1 15 2 14 3 13 4 11 5 12 6 9 8 10 9 8 10 5 11 6 12 84 13
REMARK SMILES IDX 7 14 83 15 4 16 2 17 1 18 3 19 17 20 18 21 19 22 20 23 21 24
REMARK SMILES IDX 22 26 23 27 24 28 82 29 25 30 81 31 26 32 27 33 28 34 75 35
REMARK SMILES IDX 29 36 80 37 74 38 76 39 30 40 79 41 73 42 72 43 31 45 61 46
REMARK SMILES IDX 42 47 60 48 43 49 46 50 59 51 77 52 44 53 45 54 58 56 78 57
REMARK SMILES IDX 47 58 32 59 33 60 41 61 34 62 40 63 35 64 36 65 37 66 38 67
REMARK SMILES IDX 39 68 62 69 63 70 71 71 64 72 70 73 65 74 66 75 67 76 68 77
REMARK SMILES IDX 69 78 48 79 49 80 57 81 50 82 56 83 51 84 52 85 53 86 54 87
REMARK SMILES IDX 55 88
REMARK H PARENT 13 7 20 25 76 44 46 55
REMARK Flexibility Score: inf
ROOT
ATOM      1  C   UNL A   1      38.769  21.858  26.125  1.00  0.00     0.002 C 
ENDROOT
BRANCH   1   2
ATOM      2  C   UNL A   1      38.332  23.327  26.148  1.00  0.00     0.021 C 
BRANCH   2   3
ATOM      3  C   UNL A   1      37.428  23.727  24.980  1.00  0.00     0.116 C 
BRANCH   3   4
ATOM      4  N   UNL A   1      36.204  24.353  25.435  1.00  0.00    -0.356 N 
ATOM      5  C   UNL A   1      34.939  24.326  24.933  1.00  0.00     0.227 C 
ATOM      6  O   UNL A   1      34.104  25.039  25.506  1.00  0.00    -0.274 OA
ATOM      7  H   UNL A   1      36.304  24.892  26.252  1.00  0.00     0.163 HD
BRANCH   5   8
ATOM      8  C   UNL A   1      34.516  23.467  23.730  1.00  0.00     0.105 C 
ATOM      9  C   UNL A   1      33.708  24.214  22.671  1.00  0.00     0.023 C 
BRANCH   8  10
ATOM     10  C   UNL A   1      34.005  22.093  24.130  1.00  0.00    -0.036 A 
ATOM     11  C   UNL A   1      33.098  19.441  24.582  1.00  0.00    -0.048 A 
ATOM     12  C   UNL A   1      34.251  19.925  25.210  1.00  0.00     0.004 A 
ATOM     13  C   UNL A   1      32.348  20.331  23.807  1.00  0.00     0.004 A 
ATOM     14  C   UNL A   1      34.686  21.238  25.003  1.00  0.00     0.005 A 
ATOM     15  C   UNL A   1      32.809  21.626  23.561  1.00  0.00     0.005 A 
BRANCH  11  16
ATOM     16  C   UNL A   1      32.688  17.998  24.777  1.00  0.00     0.038 C 
BRANCH  16  17
ATOM     17  C   UNL A   1      33.779  16.943  24.486  1.00  0.00    -0.013 C 
ATOM     18  C   UNL A   1      33.480  15.595  25.148  1.00  0.00     0.008 C 
ATOM     19  C   UNL A   1      33.930  16.748  22.976  1.00  0.00     0.008 C 
ENDBRANCH  16  17
ENDBRANCH  11  16
ENDBRANCH   8  10
ENDBRANCH   5   8
ENDBRANCH   3   4
ENDBRANCH   2   3
ENDBRANCH   1   2
BRANCH   1  20
ATOM     20  C   UNL A   1      40.274  21.620  26.299  1.00  0.00     0.002 C 
BRANCH  20  21
ATOM     21  C   UNL A   1      40.852  21.989  27.669  1.00  0.00     0.021 C 
BRANCH  21  22
ATOM     22  C   UNL A   1      41.956  23.045  27.644  1.00  0.00     0.116 C 
BRANCH  22  23
ATOM     23  N   UNL A   1      41.958  23.798  26.401  1.00  0.00    -0.352 N 
ATOM     24  C   UNL A   1      41.627  25.108  26.162  1.00  0.00     0.251 C 
ATOM     25  H   UNL A   1      42.241  23.290  25.607  1.00  0.00     0.163 HD
ATOM     26  O   UNL A   1      41.477  25.492  25.006  1.00  0.00    -0.269 OA
BRANCH  24  27
ATOM     27  C   UNL A   1      41.443  26.057  27.284  1.00  0.00     0.039 A 
ATOM     28  C   UNL A   1      40.347  25.885  28.136  1.00  0.00     0.014 A 
ATOM     29  C   UNL A   1      42.307  27.140  27.469  1.00  0.00     0.014 A 
ATOM     30  C   UNL A   1      40.146  26.770  29.198  1.00  0.00     0.010 A 
ATOM     31  C   UNL A   1      42.140  27.986  28.566  1.00  0.00     0.010 A 
ATOM     32  C   UNL A   1      41.054  27.814  29.437  1.00  0.00    -0.014 A 
BRANCH  32  33
ATOM     33  C   UNL A   1      40.880  28.723  30.599  1.00  0.00     0.031 A 
ATOM     34  C   UNL A   1      41.732  28.567  31.831  1.00  0.00     0.074 A 
ATOM     35  C   UNL A   1      39.916  29.664  30.564  1.00  0.00     0.049 A 
ATOM     36  N   UNL A   1      41.714  29.265  32.938  1.00  0.00    -0.248 NA
ATOM     37  C   UNL A   1      42.715  27.471  31.827  1.00  0.00     0.031 C 
ATOM     38  C   UNL A   1      38.986  29.880  29.452  1.00  0.00     0.029 A 
ATOM     39  N   UNL A   1      39.553  30.611  31.487  1.00  0.00    -0.354 N 
ATOM     40  C   UNL A   1      42.666  28.685  33.769  1.00  0.00     0.074 A 
ATOM     41  C   UNL A   1      43.213  27.552  33.054  1.00  0.00     0.031 C 
ATOM     42  C   UNL A   1      38.178  30.911  29.748  1.00  0.00     0.029 A 
ATOM     43  C   UNL A   1      38.510  31.409  31.080  1.00  0.00     0.049 A 
ATOM     44  H   UNL A   1      39.998  30.710  32.360  1.00  0.00     0.167 HD
ATOM     45  C   UNL A   1      43.063  29.070  35.006  1.00  0.00     0.031 A 
ATOM     46  C   UNL A   1      37.889  32.427  31.704  1.00  0.00     0.031 A 
ATOM     47  C   UNL A   1      42.526  30.205  35.710  1.00  0.00     0.049 A 
ATOM     48  C   UNL A   1      38.363  32.854  33.065  1.00  0.00     0.074 A 
ATOM     49  C   UNL A   1      42.910  30.718  36.937  1.00  0.00     0.029 A 
ATOM     50  N   UNL A   1      41.487  31.002  35.253  1.00  0.00    -0.354 N 
ATOM     51  N   UNL A   1      39.322  32.342  33.800  1.00  0.00    -0.248 NA
ATOM     52  C   UNL A   1      37.682  34.005  33.673  1.00  0.00     0.031 C 
ATOM     53  C   UNL A   1      42.072  31.797  37.243  1.00  0.00     0.029 A 
ATOM     54  C   UNL A   1      41.201  31.988  36.183  1.00  0.00     0.049 A 
ATOM     55  H   UNL A   1      41.022  30.884  34.394  1.00  0.00     0.167 HD
ATOM     56  C   UNL A   1      39.372  33.120  34.950  1.00  0.00     0.074 A 
ATOM     57  C   UNL A   1      38.361  34.148  34.804  1.00  0.00     0.031 C 
ATOM     58  C   UNL A   1      40.181  32.994  36.030  1.00  0.00     0.031 A 
BRANCH  45  59
ATOM     59  C   UNL A   1      44.126  28.245  35.682  1.00  0.00    -0.014 A 
ATOM     60  C   UNL A   1      45.492  28.524  35.494  1.00  0.00     0.010 A 
ATOM     61  C   UNL A   1      43.755  27.196  36.545  1.00  0.00     0.010 A 
ATOM     62  C   UNL A   1      46.468  27.740  36.117  1.00  0.00     0.020 A 
ATOM     63  C   UNL A   1      44.728  26.427  37.190  1.00  0.00     0.020 A 
ATOM     64  C   UNL A   1      46.079  26.692  36.957  1.00  0.00     0.054 A 
BRANCH  64  65
ATOM     65  S   UNL A   1      47.365  25.697  37.761  1.00  0.00     0.124 S 
ATOM     66  O   UNL A   1      46.916  24.337  37.474  1.00  0.00    -0.237 OA
ATOM     67  O   UNL A   1      48.579  26.117  37.067  1.00  0.00    -0.237 OA
ATOM     68  O   UNL A   1      47.284  26.096  39.164  1.00  0.00    -0.744 OA
ENDBRANCH  64  65
ENDBRANCH  45  59
BRANCH  46  69
ATOM     69  C   UNL A   1      36.764  33.128  31.029  1.00  0.00    -0.014 A 
ATOM     70  C   UNL A   1      36.998  33.934  29.901  1.00  0.00     0.010 A 
ATOM     71  C   UNL A   1      35.446  32.965  31.494  1.00  0.00     0.010 A 
ATOM     72  C   UNL A   1      35.935  34.573  29.256  1.00  0.00     0.020 A 
ATOM     73  C   UNL A   1      34.379  33.582  30.836  1.00  0.00     0.020 A 
ATOM     74  C   UNL A   1      34.632  34.390  29.726  1.00  0.00     0.054 A 
BRANCH  74  75
ATOM     75  S   UNL A   1      33.259  35.171  28.831  1.00  0.00     0.124 S 
ATOM     76  O   UNL A   1      32.451  35.704  29.922  1.00  0.00    -0.237 OA
ATOM     77  O   UNL A   1      33.942  36.163  28.005  1.00  0.00    -0.237 OA
ATOM     78  O   UNL A   1      32.661  34.062  28.091  1.00  0.00    -0.744 OA
ENDBRANCH  74  75
ENDBRANCH  46  69
BRANCH  58  79
ATOM     79  C   UNL A   1      40.015  34.005  37.134  1.00  0.00    -0.014 A 
ATOM     80  C   UNL A   1      40.659  35.254  37.078  1.00  0.00     0.010 A 
ATOM     81  C   UNL A   1      39.179  33.712  38.227  1.00  0.00     0.010 A 
ATOM     82  C   UNL A   1      40.503  36.175  38.117  1.00  0.00     0.020 A 
ATOM     83  C   UNL A   1      39.000  34.642  39.254  1.00  0.00     0.020 A 
ATOM     84  C   UNL A   1      39.678  35.861  39.201  1.00  0.00     0.054 A 
BRANCH  84  85
ATOM     85  S   UNL A   1      39.472  37.082  40.527  1.00  0.00     0.124 S 
ATOM     86  O   UNL A   1      38.435  36.464  41.349  1.00  0.00    -0.237 OA
ATOM     87  O   UNL A   1      40.803  37.134  41.127  1.00  0.00    -0.237 OA
ATOM     88  O   UNL A   1      39.068  38.295  39.820  1.00  0.00    -0.744 OA
ENDBRANCH  84  85
ENDBRANCH  58  79
ENDBRANCH  32  33
ENDBRANCH  24  27
ENDBRANCH  22  23
ENDBRANCH  21  22
ENDBRANCH  20  21
ENDBRANCH   1  20
TORSDOF 19
ENDMDL
MODEL 2
REMARK VINA RESULT:     -10.3      1.575      3.478
REMARK SMILES CC(C)Cc1ccc([C@@H](C)C(=O)NCCCCCCNC(=O)c2ccc(-c3c4nc(c(-c5ccc(S(=O)(=O)[O-])cc5)c5ccc([nH]5)c(-c5ccc(S(=O)(=O)[O-])cc5)c5nc(c(-c6ccc(S(=O)(=O)[O-])cc6)c6ccc3[nH]6)C=C5)C=C4)cc2)cc1
REMARK SMILES IDX 16 1 15 2 14 3 13 4 11 5 12 6 9 8 10 9 8 10 5 11 6 12 84 13
REMARK SMILES IDX 7 14 83 15 4 16 2 17 1 18 3 19 17 20 18 21 19 22 20 23 21 24
REMARK SMILES IDX 22 26 23 27 24 28 82 29 25 30 81 31 26 32 27 33 28 34 75 35
REMARK SMILES IDX 29 36 80 37 74 38 76 39 30 40 79 41 73 42 72 43 31 45 61 46
REMARK SMILES IDX 42 47 60 48 43 49 46 50 59 51 77 52 44 53 45 54 58 56 78 57
REMARK SMILES IDX 47 58 32 59 33 60 41 61 34 62 40 63 35 64 36 65 37 66 38 67
REMARK SMILES IDX 39 68 62 69 63 70 71 71 64 72 70 73 65 74 66 75 67 76 68 77
REMARK SMILES IDX 69 78 48 79 49 80 57 81 50 82 56 83 51 84 52 85 53 86 54 87
REMARK SMILES IDX 55 88
REMARK H PARENT 13 7 20 25 76 44 46 55
REMARK Flexibility Score: inf
ROOT
ATOM      1  C   UNL A   1      38.208  23.344  26.518  1.00  0.00     0.002 C 
ENDROOT
BRANCH   1   2
ATOM      2  C   UNL A   1      37.343  23.732  25.315  1.00  0.00     0.021 C 
BRANCH   2   3
ATOM      3  C   UNL A   1      36.616  22.554  24.663  1.00  0.00     0.116 C 
BRANCH   3   4
ATOM      4  N   UNL A   1      35.811  22.974  23.535  1.00  0.00    -0.356 N 
ATOM      5  C   UNL A   1      34.481  23.247  23.431  1.00  0.00     0.227 C 
ATOM      6  O   UNL A   1      34.060  23.509  22.297  1.00  0.00    -0.274 OA
ATOM      7  H   UNL A   1      36.313  23.081  22.696  1.00  0.00     0.163 HD
BRANCH   5   8
ATOM      8  C   UNL A   1      33.515  23.253  24.627  1.00  0.00     0.105 C 
ATOM      9  C   UNL A   1      32.297  22.345  24.463  1.00  0.00     0.023 C 
BRANCH   8  10
ATOM     10  C   UNL A   1      33.254  24.647  25.174  1.00  0.00    -0.036 A 
ATOM     11  C   UNL A   1      32.719  27.115  26.471  1.00  0.00    -0.048 A 
ATOM     12  C   UNL A   1      33.982  26.844  25.931  1.00  0.00     0.004 A 
ATOM     13  C   UNL A   1      31.700  26.181  26.264  1.00  0.00     0.004 A 
ATOM     14  C   UNL A   1      34.239  25.636  25.274  1.00  0.00     0.005 A 
ATOM     15  C   UNL A   1      31.970  24.955  25.652  1.00  0.00     0.005 A 
BRANCH  11  16
ATOM     16  C   UNL A   1      32.490  28.403  27.230  1.00  0.00     0.038 C 
BRANCH  16  17
ATOM     17  C   UNL A   1      32.995  29.690  26.538  1.00  0.00    -0.013 C 
ATOM     18  C   UNL A   1      31.879  30.720  26.334  1.00  0.00     0.008 C 
ATOM     19  C   UNL A   1      34.125  30.317  27.358  1.00  0.00     0.008 C 
ENDBRANCH  16  17
ENDBRANCH  11  16
ENDBRANCH   8  10
ENDBRANCH   5   8
ENDBRANCH   3   4
ENDBRANCH   2   3
ENDBRANCH   1   2
BRANCH   1  20
ATOM     20  C   UNL A   1      39.396  22.426  26.202  1.00  0.00     0.002 C 
BRANCH  20  21
ATOM     21  C   UNL A   1      40.395  22.213  27.344  1.00  0.00     0.021 C 
BRANCH  21  22
ATOM     22  C   UNL A   1      41.467  23.294  27.476  1.00  0.00     0.116 C 
BRANCH  22  23
ATOM     23  N   UNL A   1      41.534  24.138  26.295  1.00  0.00    -0.352 N 
ATOM     24  C   UNL A   1      41.279  25.479  26.151  1.00  0.00     0.251 C 
ATOM     25  H   UNL A   1      41.807  23.677  25.469  1.00  0.00     0.163 HD
ATOM     26  O   UNL A   1      41.174  25.957  25.026  1.00  0.00    -0.269 OA
BRANCH  24  27
ATOM     27  C   UNL A   1      41.122  26.349  27.340  1.00  0.00     0.039 A 
ATOM     28  C   UNL A   1      42.095  27.322  27.593  1.00  0.00     0.014 A 
ATOM     29  C   UNL A   1      40.059  26.177  28.231  1.00  0.00     0.014 A 
ATOM     30  C   UNL A   1      41.975  28.151  28.710  1.00  0.00     0.010 A 
ATOM     31  C   UNL A   1      39.908  27.046  29.312  1.00  0.00     0.010 A 
ATOM     32  C   UNL A   1      40.867  28.037  29.566  1.00  0.00    -0.014 A 
BRANCH  32  33
ATOM     33  C   UNL A   1      40.703  28.954  30.723  1.00  0.00     0.031 A 
ATOM     34  C   UNL A   1      41.547  28.791  31.959  1.00  0.00     0.074 A 
ATOM     35  C   UNL A   1      39.753  29.910  30.679  1.00  0.00     0.049 A 
ATOM     36  N   UNL A   1      41.535  29.495  33.063  1.00  0.00    -0.248 NA
ATOM     37  C   UNL A   1      42.512  27.681  31.965  1.00  0.00     0.031 C 
ATOM     38  C   UNL A   1      38.832  30.136  29.562  1.00  0.00     0.029 A 
ATOM     39  N   UNL A   1      39.402  30.867  31.596  1.00  0.00    -0.354 N 
ATOM     40  C   UNL A   1      42.475  28.904  33.900  1.00  0.00     0.074 A 
ATOM     41  C   UNL A   1      43.007  27.760  33.193  1.00  0.00     0.031 C 
ATOM     42  C   UNL A   1      38.039  31.180  29.850  1.00  0.00     0.029 A 
ATOM     43  C   UNL A   1      38.373  31.680  31.181  1.00  0.00     0.049 A 
ATOM     44  H   UNL A   1      39.845  30.964  32.471  1.00  0.00     0.167 HD
ATOM     45  C   UNL A   1      42.872  29.289  35.137  1.00  0.00     0.031 A 
ATOM     46  C   UNL A   1      37.766  32.711  31.797  1.00  0.00     0.031 A 
ATOM     47  C   UNL A   1      42.350  30.436  35.833  1.00  0.00     0.049 A 
ATOM     48  C   UNL A   1      38.241  33.136  33.158  1.00  0.00     0.074 A 
ATOM     49  C   UNL A   1      42.737  30.949  37.060  1.00  0.00     0.029 A 
ATOM     50  N   UNL A   1      41.326  31.246  35.368  1.00  0.00    -0.354 N 
ATOM     51  N   UNL A   1      39.188  32.613  33.900  1.00  0.00    -0.248 NA
ATOM     52  C   UNL A   1      37.575  34.301  33.757  1.00  0.00     0.031 C 
ATOM     53  C   UNL A   1      41.915  32.042  37.357  1.00  0.00     0.029 A 
ATOM     54  C   UNL A   1      41.051  32.241  36.292  1.00  0.00     0.049 A 
ATOM     55  H   UNL A   1      40.862  31.132  34.508  1.00  0.00     0.167 HD
ATOM     56  C   UNL A   1      39.245  33.396  35.046  1.00  0.00     0.074 A 
ATOM     57  C   UNL A   1      38.251  34.439  34.891  1.00  0.00     0.031 C 
ATOM     58  C   UNL A   1      40.048  33.263  36.131  1.00  0.00     0.031 A 
BRANCH  45  59
ATOM     59  C   UNL A   1      43.919  28.451  35.822  1.00  0.00    -0.014 A 
ATOM     60  C   UNL A   1      45.290  28.722  35.657  1.00  0.00     0.010 A 
ATOM     61  C   UNL A   1      43.529  27.397  36.670  1.00  0.00     0.010 A 
ATOM     62  C   UNL A   1      46.252  27.926  36.287  1.00  0.00     0.020 A 
ATOM     63  C   UNL A   1      44.486  26.616  37.323  1.00  0.00     0.020 A 
ATOM     64  C   UNL A   1      45.842  26.873  37.112  1.00  0.00     0.054 A 
BRANCH  64  65
ATOM     65  S   UNL A   1      47.109  25.863  37.927  1.00  0.00     0.124 S 
ATOM     66  O   UNL A   1      46.879  24.551  37.326  1.00  0.00    -0.237 OA
ATOM     67  O   UNL A   1      48.351  26.523  37.533  1.00  0.00    -0.237 OA
ATOM     68  O   UNL A   1      46.775  25.965  39.345  1.00  0.00    -0.744 OA
ENDBRANCH  64  65
ENDBRANCH  45  59
BRANCH  46  69
ATOM     69  C   UNL A   1      36.655  33.426  31.114  1.00  0.00    -0.014 A 
ATOM     70  C   UNL A   1      36.787  33.843  29.779  1.00  0.00     0.010 A 
ATOM     71  C   UNL A   1      35.443  33.663  31.789  1.00  0.00     0.010 A 
ATOM     72  C   UNL A   1      35.733  34.495  29.133  1.00  0.00     0.020 A 
ATOM     73  C   UNL A   1      34.378  34.291  31.139  1.00  0.00     0.020 A 
ATOM     74  C   UNL A   1      34.533  34.712  29.817  1.00  0.00     0.054 A 
BRANCH  74  75
ATOM     75  S   UNL A   1      33.152  35.496  28.938  1.00  0.00     0.124 S 
ATOM     76  O   UNL A   1      33.830  36.535  28.172  1.00  0.00    -0.237 OA
ATOM     77  O   UNL A   1      32.602  34.389  28.159  1.00  0.00    -0.237 OA
ATOM     78  O   UNL A   1      32.290  35.973  30.018  1.00  0.00    -0.744 OA
ENDBRANCH  74  75
ENDBRANCH  46  69
BRANCH  58  79
ATOM     79  C   UNL A   1      39.893  34.281  37.229  1.00  0.00    -0.014 A 
ATOM     80  C   UNL A   1      40.643  35.472  37.226  1.00  0.00     0.010 A 
ATOM     81  C   UNL A   1      38.964  34.057  38.261  1.00  0.00     0.010 A 
ATOM     82  C   UNL A   1      40.495  36.401  38.260  1.00  0.00     0.020 A 
ATOM     83  C   UNL A   1      38.794  34.997  39.281  1.00  0.00     0.020 A 
ATOM     84  C   UNL A   1      39.574  36.155  39.283  1.00  0.00     0.054 A 
BRANCH  84  85
ATOM     85  S   UNL A   1      39.383  37.386  40.602  1.00  0.00     0.124 S 
ATOM     86  O   UNL A   1      38.283  38.202  40.096  1.00  0.00    -0.237 OA
ATOM     87  O   UNL A   1      39.070  36.563  41.768  1.00  0.00    -0.237 OA
ATOM     88  O   UNL A   1      40.683  38.049  40.647  1.00  0.00    -0.744 OA
ENDBRANCH  84  85
ENDBRANCH  58  79
ENDBRANCH  32  33
ENDBRANCH  24  27
ENDBRANCH  22  23
ENDBRANCH  21  22
ENDBRANCH  20  21
ENDBRANCH   1  20
TORSDOF 19
ENDMDL
MODEL 3
REMARK VINA RESULT:     -10.0      6.761     14.077
REMARK SMILES CC(C)Cc1ccc([C@@H](C)C(=O)NCCCCCCNC(=O)c2ccc(-c3c4nc(c(-c5ccc(S(=O)(=O)[O-])cc5)c5ccc([nH]5)c(-c5ccc(S(=O)(=O)[O-])cc5)c5nc(c(-c6ccc(S(=O)(=O)[O-])cc6)c6ccc3[nH]6)C=C5)C=C4)cc2)cc1
REMARK SMILES IDX 16 1 15 2 14 3 13 4 11 5 12 6 9 8 10 9 8 10 5 11 6 12 84 13
REMARK SMILES IDX 7 14 83 15 4 16 2 17 1 18 3 19 17 20 18 21 19 22 20 23 21 24
REMARK SMILES IDX 22 26 23 27 24 28 82 29 25 30 81 31 26 32 27 33 28 34 75 35
REMARK SMILES IDX 29 36 80 37 74 38 76 39 30 40 79 41 73 42 72 43 31 45 61 46
REMARK SMILES IDX 42 47 60 48 43 49 46 50 59 51 77 52 44 53 45 54 58 56 78 57
REMARK SMILES IDX 47 58 32 59 33 60 41 61 34 62 40 63 35 64 36 65 37 66 38 67
REMARK SMILES IDX 39 68 62 69 63 70 71 71 64 72 70 73 65 74 66 75 67 76 68 77
REMARK SMILES IDX 69 78 48 79 49 80 57 81 50 82 56 83 51 84 52 85 53 86 54 87
REMARK SMILES IDX 55 88
REMARK H PARENT 13 7 20 25 76 44 46 55
REMARK Flexibility Score: inf
ROOT
ATOM      1  C   UNL A   1      34.727  34.683  29.004  1.00  0.00     0.002 C 
ENDROOT
BRANCH   1   2
ATOM      2  C   UNL A   1      33.326  35.263  29.228  1.00  0.00     0.021 C 
BRANCH   2   3
ATOM      3  C   UNL A   1      33.223  36.765  28.957  1.00  0.00     0.116 C 
BRANCH   3   4
ATOM      4  N   UNL A   1      33.326  37.541  30.175  1.00  0.00    -0.356 N 
ATOM      5  C   UNL A   1      33.086  37.212  31.474  1.00  0.00     0.227 C 
ATOM      6  O   UNL A   1      33.185  38.128  32.301  1.00  0.00    -0.274 OA
ATOM      7  H   UNL A   1      33.621  38.470  30.040  1.00  0.00     0.163 HD
BRANCH   5   8
ATOM      8  C   UNL A   1      32.719  35.794  31.942  1.00  0.00     0.105 C 
ATOM      9  C   UNL A   1      31.396  35.699  32.700  1.00  0.00     0.023 C 
BRANCH   8  10
ATOM     10  C   UNL A   1      33.898  35.040  32.535  1.00  0.00    -0.036 A 
ATOM     11  C   UNL A   1      36.116  33.859  33.854  1.00  0.00    -0.048 A 
ATOM     12  C   UNL A   1      34.871  33.220  33.827  1.00  0.00     0.004 A 
ATOM     13  C   UNL A   1      36.265  35.043  33.126  1.00  0.00     0.004 A 
ATOM     14  C   UNL A   1      33.783  33.793  33.159  1.00  0.00     0.005 A 
ATOM     15  C   UNL A   1      35.167  35.639  32.502  1.00  0.00     0.005 A 
BRANCH  11  16
ATOM     16  C   UNL A   1      37.256  33.244  34.637  1.00  0.00     0.038 C 
BRANCH  16  17
ATOM     17  C   UNL A   1      37.926  32.010  33.992  1.00  0.00    -0.013 C 
ATOM     18  C   UNL A   1      39.292  32.339  33.380  1.00  0.00     0.008 C 
ATOM     19  C   UNL A   1      38.087  30.899  35.032  1.00  0.00     0.008 C 
ENDBRANCH  16  17
ENDBRANCH  11  16
ENDBRANCH   8  10
ENDBRANCH   5   8
ENDBRANCH   3   4
ENDBRANCH   2   3
ENDBRANCH   1   2
BRANCH   1  20
ATOM     20  C   UNL A   1      34.804  33.529  27.995  1.00  0.00     0.002 C 
BRANCH  20  21
ATOM     21  C   UNL A   1      36.052  32.646  28.088  1.00  0.00     0.021 C 
BRANCH  21  22
ATOM     22  C   UNL A   1      35.782  31.171  28.382  1.00  0.00     0.116 C 
BRANCH  22  23
ATOM     23  N   UNL A   1      35.684  30.911  29.808  1.00  0.00    -0.352 N 
ATOM     24  C   UNL A   1      36.527  30.217  30.639  1.00  0.00     0.251 C 
ATOM     25  H   UNL A   1      34.891  31.294  30.247  1.00  0.00     0.163 HD
ATOM     26  O   UNL A   1      36.152  29.919  31.769  1.00  0.00    -0.269 OA
BRANCH  24  27
ATOM     27  C   UNL A   1      37.879  29.819  30.183  1.00  0.00     0.039 A 
ATOM     28  C   UNL A   1      38.130  29.751  28.809  1.00  0.00     0.014 A 
ATOM     29  C   UNL A   1      38.878  29.462  31.093  1.00  0.00     0.014 A 
ATOM     30  C   UNL A   1      39.394  29.372  28.351  1.00  0.00     0.010 A 
ATOM     31  C   UNL A   1      40.157  29.143  30.636  1.00  0.00     0.010 A 
ATOM     32  C   UNL A   1      40.426  29.088  29.260  1.00  0.00    -0.014 A 
BRANCH  32  33
ATOM     33  C   UNL A   1      41.789  28.742  28.781  1.00  0.00     0.031 A 
ATOM     34  C   UNL A   1      42.856  29.798  28.671  1.00  0.00     0.074 A 
ATOM     35  C   UNL A   1      42.053  27.477  28.397  1.00  0.00     0.049 A 
ATOM     36  N   UNL A   1      44.096  29.677  28.268  1.00  0.00    -0.248 NA
ATOM     37  C   UNL A   1      42.475  31.171  29.038  1.00  0.00     0.031 C 
ATOM     38  C   UNL A   1      41.089  26.373  28.402  1.00  0.00     0.029 A 
ATOM     39  N   UNL A   1      43.207  26.907  27.925  1.00  0.00    -0.354 N 
ATOM     40  C   UNL A   1      44.637  30.957  28.316  1.00  0.00     0.074 A 
ATOM     41  C   UNL A   1      43.579  31.845  28.746  1.00  0.00     0.031 C 
ATOM     42  C   UNL A   1      41.699  25.255  27.978  1.00  0.00     0.029 A 
ATOM     43  C   UNL A   1      43.085  25.566  27.644  1.00  0.00     0.049 A 
ATOM     44  H   UNL A   1      44.044  27.409  27.799  1.00  0.00     0.167 HD
ATOM     45  C   UNL A   1      45.904  31.355  28.044  1.00  0.00     0.031 A 
ATOM     46  C   UNL A   1      43.986  24.684  27.171  1.00  0.00     0.031 A 
ATOM     47  C   UNL A   1      46.958  30.467  27.629  1.00  0.00     0.049 A 
ATOM     48  C   UNL A   1      45.392  25.141  26.902  1.00  0.00     0.074 A 
ATOM     49  C   UNL A   1      48.291  30.761  27.398  1.00  0.00     0.029 A 
ATOM     50  N   UNL A   1      46.800  29.112  27.379  1.00  0.00    -0.354 N 
ATOM     51  N   UNL A   1      45.906  26.341  27.031  1.00  0.00    -0.248 NA
ATOM     52  C   UNL A   1      46.343  24.122  26.438  1.00  0.00     0.031 C 
ATOM     53  C   UNL A   1      48.929  29.593  26.963  1.00  0.00     0.029 A 
ATOM     54  C   UNL A   1      48.005  28.561  26.973  1.00  0.00     0.049 A 
ATOM     55  H   UNL A   1      45.956  28.615  27.476  1.00  0.00     0.167 HD
ATOM     56  C   UNL A   1      47.245  26.219  26.683  1.00  0.00     0.074 A 
ATOM     57  C   UNL A   1      47.466  24.824  26.356  1.00  0.00     0.031 C 
ATOM     58  C   UNL A   1      48.206  27.174  26.636  1.00  0.00     0.031 A 
BRANCH  45  59
ATOM     59  C   UNL A   1      46.215  32.822  28.179  1.00  0.00    -0.014 A 
ATOM     60  C   UNL A   1      46.650  33.363  29.402  1.00  0.00     0.010 A 
ATOM     61  C   UNL A   1      46.103  33.667  27.060  1.00  0.00     0.010 A 
ATOM     62  C   UNL A   1      46.921  34.730  29.517  1.00  0.00     0.020 A 
ATOM     63  C   UNL A   1      46.398  35.029  27.163  1.00  0.00     0.020 A 
ATOM     64  C   UNL A   1      46.787  35.556  28.396  1.00  0.00     0.054 A 
BRANCH  64  65
ATOM     65  S   UNL A   1      47.155  37.324  28.568  1.00  0.00     0.124 S 
ATOM     66  O   UNL A   1      47.375  37.446  30.006  1.00  0.00    -0.237 OA
ATOM     67  O   UNL A   1      48.343  37.488  27.735  1.00  0.00    -0.237 OA
ATOM     68  O   UNL A   1      45.950  37.979  28.065  1.00  0.00    -0.744 OA
ENDBRANCH  64  65
ENDBRANCH  45  59
BRANCH  46  69
ATOM     69  C   UNL A   1      43.584  23.269  26.946  1.00  0.00    -0.014 A 
ATOM     70  C   UNL A   1      43.087  22.491  28.006  1.00  0.00     0.010 A 
ATOM     71  C   UNL A   1      43.665  22.705  25.660  1.00  0.00     0.010 A 
ATOM     72  C   UNL A   1      42.689  21.169  27.787  1.00  0.00     0.020 A 
ATOM     73  C   UNL A   1      43.243  21.392  25.432  1.00  0.00     0.020 A 
ATOM     74  C   UNL A   1      42.766  20.629  26.500  1.00  0.00     0.054 A 
BRANCH  74  75
ATOM     75  S   UNL A   1      42.177  18.935  26.222  1.00  0.00     0.124 S 
ATOM     76  O   UNL A   1      40.783  19.155  25.856  1.00  0.00    -0.237 OA
ATOM     77  O   UNL A   1      43.050  18.468  25.147  1.00  0.00    -0.237 OA
ATOM     78  O   UNL A   1      42.392  18.285  27.513  1.00  0.00    -0.744 OA
ENDBRANCH  74  75
ENDBRANCH  46  69
BRANCH  58  79
ATOM     79  C   UNL A   1      49.588  26.739  26.231  1.00  0.00    -0.014 A 
ATOM     80  C   UNL A   1      50.499  26.237  27.179  1.00  0.00     0.010 A 
ATOM     81  C   UNL A   1      49.971  26.804  24.879  1.00  0.00     0.010 A 
ATOM     82  C   UNL A   1      51.783  25.849  26.787  1.00  0.00     0.020 A 
ATOM     83  C   UNL A   1      51.245  26.391  24.480  1.00  0.00     0.020 A 
ATOM     84  C   UNL A   1      52.149  25.932  25.440  1.00  0.00     0.054 A 
BRANCH  84  85
ATOM     85  S   UNL A   1      53.813  25.400  24.951  1.00  0.00     0.124 S 
ATOM     86  O   UNL A   1      54.615  25.826  26.094  1.00  0.00    -0.237 OA
ATOM     87  O   UNL A   1      53.657  23.956  24.795  1.00  0.00    -0.237 OA
ATOM     88  O   UNL A   1      54.058  26.130  23.709  1.00  0.00    -0.744 OA
ENDBRANCH  84  85
ENDBRANCH  58  79
ENDBRANCH  32  33
ENDBRANCH  24  27
ENDBRANCH  22  23
ENDBRANCH  21  22
ENDBRANCH  20  21
ENDBRANCH   1  20
TORSDOF 19
ENDMDL
