MODEL 1
REMARK VINA RESULT:     -11.3      0.000      0.000
REMARK SMILES Nc1c(Cl)ccc2c1C=C(C(=O)NCCCCCCNC(=O)c1ccc(-c3c4nc(c(-c5ccc(S(=O)(=O)[O-])cc5)c5ccc([nH]5)c(-c5ccc(S(=O)(=O)[O-])cc5)c5nc(c(-c6ccc(S(=O)(=O)[O-])cc6)c6ccc3[nH]6)C=C5)C=C4)cc1)[C@@H](C(F)(F)F)O2
REMARK SMILES IDX 17 1 16 2 15 3 14 4 13 5 11 6 12 7 10 9 2 10 3 11 8 12 4 13
REMARK SMILES IDX 5 14 7 15 9 16 6 17 88 18 83 19 1 20 84 23 85 24 86 25 87 26
REMARK SMILES IDX 18 27 19 28 20 29 21 30 22 32 23 33 24 34 82 35 25 36 81 37
REMARK SMILES IDX 26 38 27 39 28 40 75 41 29 42 80 43 74 44 76 45 30 46 79 47
REMARK SMILES IDX 73 48 72 49 31 51 61 52 42 53 60 54 43 55 46 56 59 57 77 58
REMARK SMILES IDX 44 59 45 60 58 62 78 63 47 64 32 65 33 66 41 67 34 68 40 69
REMARK SMILES IDX 35 70 36 71 37 72 38 73 39 74 62 75 63 76 71 77 64 78 70 79
REMARK SMILES IDX 65 80 66 81 67 82 68 83 69 84 48 85 49 86 57 87 50 88 56 89
REMARK SMILES IDX 51 90 52 91 53 92 54 93 55 94
REMARK H PARENT 13 8 1 21 1 22 20 31 76 50 46 61
REMARK Flexibility Score: inf
ROOT
ATOM      1  C   UNL A   1      31.478  28.344  25.970  1.00  0.00     0.002 C 
ENDROOT
BRANCH   1   2
ATOM      2  C   UNL A   1      30.954  27.914  24.591  1.00  0.00     0.002 C 
BRANCH   2   3
ATOM      3  C   UNL A   1      31.502  28.706  23.400  1.00  0.00     0.021 C 
BRANCH   3   4
ATOM      4  C   UNL A   1      32.894  28.276  22.948  1.00  0.00     0.116 C 
BRANCH   4   5
ATOM      5  N   UNL A   1      32.827  27.241  21.931  1.00  0.00    -0.352 N 
ATOM      6  C   UNL A   1      32.970  25.899  21.871  1.00  0.00     0.251 C 
ATOM      7  O   UNL A   1      32.831  25.413  20.742  1.00  0.00    -0.270 OA
ATOM      8  H   UNL A   1      32.621  27.621  21.046  1.00  0.00     0.163 HD
BRANCH   6   9
ATOM      9  C   UNL A   1      33.271  25.000  23.026  1.00  0.00     0.067 C 
ATOM     10  C   UNL A   1      36.083  22.733  23.998  1.00  0.00     0.061 A 
ATOM     11  C   UNL A   1      36.358  21.844  25.063  1.00  0.00     0.064 A 
ATOM     12  C   UNL A   1      34.891  23.492  24.053  1.00  0.00     0.042 A 
ATOM     13  Cl  UNL A   1      37.785  20.859  25.046  1.00  0.00    -0.082 Cl
ATOM     14  C   UNL A   1      35.511  21.740  26.168  1.00  0.00     0.026 A 
ATOM     15  C   UNL A   1      34.046  23.367  25.166  1.00  0.00     0.130 A 
ATOM     16  C   UNL A   1      34.497  24.443  23.011  1.00  0.00     0.027 C 
ATOM     17  C   UNL A   1      34.357  22.511  26.221  1.00  0.00     0.049 A 
ATOM     18  O   UNL A   1      32.899  24.090  25.319  1.00  0.00    -0.475 OA
ATOM     19  C   UNL A   1      32.304  24.655  24.122  1.00  0.00     0.314 C 
BRANCH  10  20
ATOM     20  N   UNL A   1      36.932  22.766  22.888  1.00  0.00    -0.397 N 
ATOM     21  H   UNL A   1      36.915  23.540  22.279  1.00  0.00     0.156 HD
ATOM     22  H   UNL A   1      37.546  22.017  22.715  1.00  0.00     0.156 HD
ENDBRANCH  10  20
BRANCH  19  23
ATOM     23  C   UNL A   1      31.157  23.744  23.649  1.00  0.00     0.429 C 
ATOM     24  F   UNL A   1      31.604  22.858  22.726  1.00  0.00    -0.167 F 
ATOM     25  F   UNL A   1      30.628  23.014  24.658  1.00  0.00    -0.167 F 
ATOM     26  F   UNL A   1      30.143  24.442  23.091  1.00  0.00    -0.167 F 
ENDBRANCH  19  23
ENDBRANCH   6   9
ENDBRANCH   4   5
ENDBRANCH   3   4
ENDBRANCH   2   3
ENDBRANCH   1   2
BRANCH   1  27
ATOM     27  C   UNL A   1      32.615  27.491  26.539  1.00  0.00     0.021 C 
BRANCH  27  28
ATOM     28  C   UNL A   1      33.934  28.234  26.722  1.00  0.00     0.116 C 
BRANCH  28  29
ATOM     29  N   UNL A   1      33.724  29.631  27.061  1.00  0.00    -0.352 N 
ATOM     30  C   UNL A   1      34.537  30.460  27.789  1.00  0.00     0.251 C 
ATOM     31  H   UNL A   1      32.891  30.034  26.723  1.00  0.00     0.163 HD
ATOM     32  O   UNL A   1      34.139  31.559  28.162  1.00  0.00    -0.269 OA
BRANCH  30  33
ATOM     33  C   UNL A   1      35.897  30.003  28.133  1.00  0.00     0.039 A 
ATOM     34  C   UNL A   1      36.906  30.092  27.174  1.00  0.00     0.014 A 
ATOM     35  C   UNL A   1      36.169  29.509  29.414  1.00  0.00     0.014 A 
ATOM     36  C   UNL A   1      38.207  29.718  27.512  1.00  0.00     0.010 A 
ATOM     37  C   UNL A   1      37.477  29.185  29.765  1.00  0.00     0.010 A 
ATOM     38  C   UNL A   1      38.502  29.275  28.813  1.00  0.00    -0.014 A 
BRANCH  38  39
ATOM     39  C   UNL A   1      39.876  28.850  29.165  1.00  0.00     0.031 A 
ATOM     40  C   UNL A   1      40.758  29.774  29.956  1.00  0.00     0.074 A 
ATOM     41  C   UNL A   1      40.330  27.644  28.771  1.00  0.00     0.049 A 
ATOM     42  N   UNL A   1      41.969  29.569  30.400  1.00  0.00    -0.248 NA
ATOM     43  C   UNL A   1      40.214  31.104  30.279  1.00  0.00     0.031 C 
ATOM     44  C   UNL A   1      39.578  26.676  27.970  1.00  0.00     0.029 A 
ATOM     45  N   UNL A   1      41.533  27.024  28.999  1.00  0.00    -0.354 N 
ATOM     46  C   UNL A   1      42.330  30.738  31.058  1.00  0.00     0.074 A 
ATOM     47  C   UNL A   1      41.233  31.669  30.910  1.00  0.00     0.031 C 
ATOM     48  C   UNL A   1      40.324  25.572  27.803  1.00  0.00     0.029 A 
ATOM     49  C   UNL A   1      41.611  25.758  28.470  1.00  0.00     0.049 A 
ATOM     50  H   UNL A   1      42.271  27.447  29.496  1.00  0.00     0.167 HD
ATOM     51  C   UNL A   1      43.461  31.003  31.750  1.00  0.00     0.031 A 
ATOM     52  C   UNL A   1      42.599  24.845  28.528  1.00  0.00     0.031 A 
ATOM     53  C   UNL A   1      44.538  30.070  31.916  1.00  0.00     0.049 A 
ATOM     54  C   UNL A   1      43.856  25.166  29.287  1.00  0.00     0.074 A 
ATOM     55  C   UNL A   1      45.700  30.225  32.650  1.00  0.00     0.029 A 
ATOM     56  N   UNL A   1      44.586  28.810  31.343  1.00  0.00    -0.354 N 
ATOM     57  N   UNL A   1      44.152  26.254  29.957  1.00  0.00    -0.248 NA
ATOM     58  C   UNL A   1      44.910  24.140  29.307  1.00  0.00     0.031 C 
ATOM     59  C   UNL A   1      46.468  29.068  32.494  1.00  0.00     0.029 A 
ATOM     60  C   UNL A   1      45.768  28.182  31.689  1.00  0.00     0.049 A 
ATOM     61  H   UNL A   1      43.884  28.419  30.775  1.00  0.00     0.167 HD
ATOM     62  C   UNL A   1      45.417  26.039  30.489  1.00  0.00     0.074 A 
ATOM     63  C   UNL A   1      45.833  24.717  30.068  1.00  0.00     0.031 C 
ATOM     64  C   UNL A   1      46.163  26.865  31.260  1.00  0.00     0.031 A 
BRANCH  51  65
ATOM     65  C   UNL A   1      43.578  32.351  32.400  1.00  0.00    -0.014 A 
ATOM     66  C   UNL A   1      43.141  32.545  33.722  1.00  0.00     0.010 A 
ATOM     67  C   UNL A   1      44.179  33.417  31.709  1.00  0.00     0.010 A 
ATOM     68  C   UNL A   1      43.279  33.792  34.335  1.00  0.00     0.020 A 
ATOM     69  C   UNL A   1      44.336  34.661  32.325  1.00  0.00     0.020 A 
ATOM     70  C   UNL A   1      43.877  34.842  33.632  1.00  0.00     0.054 A 
BRANCH  70  71
ATOM     71  S   UNL A   1      44.057  36.442  34.464  1.00  0.00     0.124 S 
ATOM     72  O   UNL A   1      42.899  36.454  35.355  1.00  0.00    -0.237 OA
ATOM     73  O   UNL A   1      45.354  36.311  35.123  1.00  0.00    -0.237 OA
ATOM     74  O   UNL A   1      44.008  37.412  33.372  1.00  0.00    -0.744 OA
ENDBRANCH  70  71
ENDBRANCH  51  65
BRANCH  52  75
ATOM     75  C   UNL A   1      42.413  23.522  27.876  1.00  0.00    -0.014 A 
ATOM     76  C   UNL A   1      43.075  23.227  26.674  1.00  0.00     0.010 A 
ATOM     77  C   UNL A   1      41.616  22.534  28.484  1.00  0.00     0.010 A 
ATOM     78  C   UNL A   1      42.952  21.963  26.091  1.00  0.00     0.020 A 
ATOM     79  C   UNL A   1      41.503  21.263  27.911  1.00  0.00     0.020 A 
ATOM     80  C   UNL A   1      42.175  20.986  26.719  1.00  0.00     0.054 A 
BRANCH  80  81
ATOM     81  S   UNL A   1      42.088  19.334  25.972  1.00  0.00     0.124 S 
ATOM     82  O   UNL A   1      42.934  19.484  24.793  1.00  0.00    -0.237 OA
ATOM     83  O   UNL A   1      42.626  18.488  27.035  1.00  0.00    -0.237 OA
ATOM     84  O   UNL A   1      40.663  19.153  25.700  1.00  0.00    -0.744 OA
ENDBRANCH  80  81
ENDBRANCH  52  75
BRANCH  64  85
ATOM     85  C   UNL A   1      47.512  26.390  31.715  1.00  0.00    -0.014 A 
ATOM     86  C   UNL A   1      47.650  25.716  32.940  1.00  0.00     0.010 A 
ATOM     87  C   UNL A   1      48.608  26.460  30.834  1.00  0.00     0.010 A 
ATOM     88  C   UNL A   1      48.857  25.094  33.265  1.00  0.00     0.020 A 
ATOM     89  C   UNL A   1      49.811  25.828  31.152  1.00  0.00     0.020 A 
ATOM     90  C   UNL A   1      49.924  25.138  32.362  1.00  0.00     0.054 A 
BRANCH  90  91
ATOM     91  S   UNL A   1      51.434  24.218  32.764  1.00  0.00     0.124 S 
ATOM     92  O   UNL A   1      51.166  22.911  32.171  1.00  0.00    -0.237 OA
ATOM     93  O   UNL A   1      52.469  25.008  32.104  1.00  0.00    -0.237 OA
ATOM     94  O   UNL A   1      51.476  24.239  34.225  1.00  0.00    -0.744 OA
ENDBRANCH  90  91
ENDBRANCH  64  85
ENDBRANCH  38  39
ENDBRANCH  30  33
ENDBRANCH  28  29
ENDBRANCH  27  28
ENDBRANCH   1  27
TORSDOF 18
ENDMDL
MODEL 2
REMARK VINA RESULT:     -10.7      4.154      9.589
REMARK SMILES Nc1c(Cl)ccc2c1C=C(C(=O)NCCCCCCNC(=O)c1ccc(-c3c4nc(c(-c5ccc(S(=O)(=O)[O-])cc5)c5ccc([nH]5)c(-c5ccc(S(=O)(=O)[O-])cc5)c5nc(c(-c6ccc(S(=O)(=O)[O-])cc6)c6ccc3[nH]6)C=C5)C=C4)cc1)[C@@H](C(F)(F)F)O2
REMARK SMILES IDX 17 1 16 2 15 3 14 4 13 5 11 6 12 7 10 9 2 10 3 11 8 12 4 13
REMARK SMILES IDX 5 14 7 15 9 16 6 17 88 18 83 19 1 20 84 23 85 24 86 25 87 26
REMARK SMILES IDX 18 27 19 28 20 29 21 30 22 32 23 33 24 34 82 35 25 36 81 37
REMARK SMILES IDX 26 38 27 39 28 40 75 41 29 42 80 43 74 44 76 45 30 46 79 47
REMARK SMILES IDX 73 48 72 49 31 51 61 52 42 53 60 54 43 55 46 56 59 57 77 58
REMARK SMILES IDX 44 59 45 60 58 62 78 63 47 64 32 65 33 66 41 67 34 68 40 69
REMARK SMILES IDX 35 70 36 71 37 72 38 73 39 74 62 75 63 76 71 77 64 78 70 79
REMARK SMILES IDX 65 80 66 81 67 82 68 83 69 84 48 85 49 86 57 87 50 88 56 89
REMARK SMILES IDX 51 90 52 91 53 92 54 93 55 94
REMARK H PARENT 13 8 1 21 1 22 20 31 76 50 46 61
REMARK Flexibility Score: inf
ROOT
ATOM      1  C   UNL A   1      33.430  29.490  26.777  1.00  0.00     0.002 C 
ENDROOT
BRANCH   1   2
ATOM      2  C   UNL A   1      32.955  28.906  25.438  1.00  0.00     0.002 C 
BRANCH   2   3
ATOM      3  C   UNL A   1      33.935  27.950  24.749  1.00  0.00     0.021 C 
BRANCH   3   4
ATOM      4  C   UNL A   1      33.759  26.485  25.139  1.00  0.00     0.116 C 
BRANCH   4   5
ATOM      5  N   UNL A   1      33.426  25.665  23.988  1.00  0.00    -0.352 N 
ATOM      6  C   UNL A   1      32.356  25.470  23.186  1.00  0.00     0.251 C 
ATOM      7  O   UNL A   1      32.522  24.628  22.295  1.00  0.00    -0.270 OA
ATOM      8  H   UNL A   1      34.185  25.098  23.719  1.00  0.00     0.163 HD
BRANCH   6   9
ATOM      9  C   UNL A   1      31.041  26.173  23.297  1.00  0.00     0.067 C 
ATOM     10  C   UNL A   1      29.690  29.508  22.273  1.00  0.00     0.061 A 
ATOM     11  C   UNL A   1      28.465  30.200  22.413  1.00  0.00     0.064 A 
ATOM     12  C   UNL A   1      29.763  28.179  22.751  1.00  0.00     0.042 A 
ATOM     13  Cl  UNL A   1      28.314  31.843  21.878  1.00  0.00    -0.082 Cl
ATOM     14  C   UNL A   1      27.336  29.590  22.962  1.00  0.00     0.026 A 
ATOM     15  C   UNL A   1      28.622  27.585  23.311  1.00  0.00     0.130 A 
ATOM     16  C   UNL A   1      30.975  27.360  22.665  1.00  0.00     0.027 C 
ATOM     17  C   UNL A   1      27.415  28.276  23.404  1.00  0.00     0.049 A 
ATOM     18  O   UNL A   1      28.593  26.296  23.758  1.00  0.00    -0.475 OA
ATOM     19  C   UNL A   1      29.864  25.676  24.085  1.00  0.00     0.314 C 
BRANCH  10  20
ATOM     20  N   UNL A   1      30.809  30.175  21.766  1.00  0.00    -0.397 N 
ATOM     21  H   UNL A   1      30.737  31.119  21.493  1.00  0.00     0.156 HD
ATOM     22  H   UNL A   1      31.668  29.702  21.680  1.00  0.00     0.156 HD
ENDBRANCH  10  20
BRANCH  19  23
ATOM     23  C   UNL A   1      30.084  25.747  25.607  1.00  0.00     0.429 C 
ATOM     24  F   UNL A   1      30.556  26.967  25.962  1.00  0.00    -0.167 F 
ATOM     25  F   UNL A   1      28.940  25.560  26.304  1.00  0.00    -0.167 F 
ATOM     26  F   UNL A   1      30.970  24.822  26.041  1.00  0.00    -0.167 F 
ENDBRANCH  19  23
ENDBRANCH   6   9
ENDBRANCH   4   5
ENDBRANCH   3   4
ENDBRANCH   2   3
ENDBRANCH   1   2
BRANCH   1  27
ATOM     27  C   UNL A   1      32.830  30.847  27.155  1.00  0.00     0.021 C 
BRANCH  27  28
ATOM     28  C   UNL A   1      33.856  31.950  27.389  1.00  0.00     0.116 C 
BRANCH  28  29
ATOM     29  N   UNL A   1      33.239  33.162  27.896  1.00  0.00    -0.352 N 
ATOM     30  C   UNL A   1      33.563  33.874  29.023  1.00  0.00     0.251 C 
ATOM     31  H   UNL A   1      32.493  33.520  27.362  1.00  0.00     0.163 HD
ATOM     32  O   UNL A   1      32.829  34.767  29.432  1.00  0.00    -0.269 OA
BRANCH  30  33
ATOM     33  C   UNL A   1      34.804  33.536  29.747  1.00  0.00     0.039 A 
ATOM     34  C   UNL A   1      34.761  32.567  30.750  1.00  0.00     0.014 A 
ATOM     35  C   UNL A   1      36.007  34.165  29.410  1.00  0.00     0.014 A 
ATOM     36  C   UNL A   1      35.942  32.200  31.396  1.00  0.00     0.010 A 
ATOM     37  C   UNL A   1      37.191  33.761  30.020  1.00  0.00     0.010 A 
ATOM     38  C   UNL A   1      37.165  32.785  31.026  1.00  0.00    -0.014 A 
BRANCH  38  39
ATOM     39  C   UNL A   1      38.415  32.417  31.731  1.00  0.00     0.031 A 
ATOM     40  C   UNL A   1      39.354  31.426  31.105  1.00  0.00     0.074 A 
ATOM     41  C   UNL A   1      38.699  32.966  32.928  1.00  0.00     0.049 A 
ATOM     42  N   UNL A   1      40.514  31.009  31.540  1.00  0.00    -0.248 NA
ATOM     43  C   UNL A   1      38.931  30.814  29.834  1.00  0.00     0.031 C 
ATOM     44  C   UNL A   1      37.847  33.914  33.649  1.00  0.00     0.029 A 
ATOM     45  N   UNL A   1      39.791  32.811  33.745  1.00  0.00    -0.354 N 
ATOM     46  C   UNL A   1      40.961  30.093  30.596  1.00  0.00     0.074 A 
ATOM     47  C   UNL A   1      39.926  29.973  29.593  1.00  0.00     0.031 C 
ATOM     48  C   UNL A   1      38.464  34.281  34.784  1.00  0.00     0.029 A 
ATOM     49  C   UNL A   1      39.745  33.585  34.880  1.00  0.00     0.049 A 
ATOM     50  H   UNL A   1      40.537  32.203  33.537  1.00  0.00     0.167 HD
ATOM     51  C   UNL A   1      42.140  29.435  30.552  1.00  0.00     0.031 A 
ATOM     52  C   UNL A   1      40.641  33.730  35.876  1.00  0.00     0.031 A 
ATOM     53  C   UNL A   1      43.176  29.575  31.535  1.00  0.00     0.049 A 
ATOM     54  C   UNL A   1      41.939  32.975  35.817  1.00  0.00     0.074 A 
ATOM     55  C   UNL A   1      44.432  28.994  31.546  1.00  0.00     0.029 A 
ATOM     56  N   UNL A   1      43.078  30.349  32.680  1.00  0.00    -0.354 N 
ATOM     57  N   UNL A   1      42.370  32.161  34.883  1.00  0.00    -0.248 NA
ATOM     58  C   UNL A   1      42.874  33.158  36.937  1.00  0.00     0.031 C 
ATOM     59  C   UNL A   1      45.082  29.392  32.716  1.00  0.00     0.029 A 
ATOM     60  C   UNL A   1      44.243  30.246  33.417  1.00  0.00     0.049 A 
ATOM     61  H   UNL A   1      42.296  30.891  32.931  1.00  0.00     0.167 HD
ATOM     62  C   UNL A   1      43.631  31.747  35.294  1.00  0.00     0.074 A 
ATOM     63  C   UNL A   1      43.896  32.400  36.560  1.00  0.00     0.031 C 
ATOM     64  C   UNL A   1      44.489  30.904  34.674  1.00  0.00     0.031 A 
BRANCH  51  65
ATOM     65  C   UNL A   1      42.383  28.520  29.386  1.00  0.00    -0.014 A 
ATOM     66  C   UNL A   1      41.989  27.172  29.444  1.00  0.00     0.010 A 
ATOM     67  C   UNL A   1      42.958  29.021  28.206  1.00  0.00     0.010 A 
ATOM     68  C   UNL A   1      42.189  26.332  28.348  1.00  0.00     0.020 A 
ATOM     69  C   UNL A   1      43.143  28.188  27.099  1.00  0.00     0.020 A 
ATOM     70  C   UNL A   1      42.764  26.846  27.181  1.00  0.00     0.054 A 
BRANCH  70  71
ATOM     71  S   UNL A   1      42.992  25.731  25.770  1.00  0.00     0.124 S 
ATOM     72  O   UNL A   1      42.344  24.509  26.240  1.00  0.00    -0.237 OA
ATOM     73  O   UNL A   1      42.298  26.436  24.696  1.00  0.00    -0.237 OA
ATOM     74  O   UNL A   1      44.443  25.645  25.623  1.00  0.00    -0.744 OA
ENDBRANCH  70  71
ENDBRANCH  51  65
BRANCH  52  75
ATOM     75  C   UNL A   1      40.346  34.665  36.993  1.00  0.00    -0.014 A 
ATOM     76  C   UNL A   1      40.842  35.979  36.965  1.00  0.00     0.010 A 
ATOM     77  C   UNL A   1      39.522  34.263  38.061  1.00  0.00     0.010 A 
ATOM     78  C   UNL A   1      40.515  36.879  37.982  1.00  0.00     0.020 A 
ATOM     79  C   UNL A   1      39.181  35.166  39.073  1.00  0.00     0.020 A 
ATOM     80  C   UNL A   1      39.677  36.470  39.024  1.00  0.00     0.054 A 
BRANCH  80  81
ATOM     81  S   UNL A   1      39.218  37.682  40.294  1.00  0.00     0.124 S 
ATOM     82  O   UNL A   1      38.183  38.459  39.620  1.00  0.00    -0.237 OA
ATOM     83  O   UNL A   1      38.757  36.824  41.383  1.00  0.00    -0.237 OA
ATOM     84  O   UNL A   1      40.465  38.397  40.557  1.00  0.00    -0.744 OA
ENDBRANCH  80  81
ENDBRANCH  52  75
BRANCH  64  85
ATOM     85  C   UNL A   1      45.808  30.618  35.332  1.00  0.00    -0.014 A 
ATOM     86  C   UNL A   1      45.936  29.537  36.219  1.00  0.00     0.010 A 
ATOM     87  C   UNL A   1      46.956  31.322  34.924  1.00  0.00     0.010 A 
ATOM     88  C   UNL A   1      47.199  29.145  36.667  1.00  0.00     0.020 A 
ATOM     89  C   UNL A   1      48.221  30.923  35.359  1.00  0.00     0.020 A 
ATOM     90  C   UNL A   1      48.335  29.829  36.220  1.00  0.00     0.054 A 
BRANCH  90  91
ATOM     91  S   UNL A   1      49.966  29.217  36.727  1.00  0.00     0.124 S 
ATOM     92  O   UNL A   1      49.662  27.858  37.168  1.00  0.00    -0.237 OA
ATOM     93  O   UNL A   1      50.737  29.319  35.491  1.00  0.00    -0.237 OA
ATOM     94  O   UNL A   1      50.369  30.137  37.787  1.00  0.00    -0.744 OA
ENDBRANCH  90  91
ENDBRANCH  64  85
ENDBRANCH  38  39
ENDBRANCH  30  33
ENDBRANCH  28  29
ENDBRANCH  27  28
ENDBRANCH   1  27
TORSDOF 18
ENDMDL
MODEL 3
REMARK VINA RESULT:     -10.6      4.357     10.144
REMARK SMILES Nc1c(Cl)ccc2c1C=C(C(=O)NCCCCCCNC(=O)c1ccc(-c3c4nc(c(-c5ccc(S(=O)(=O)[O-])cc5)c5ccc([nH]5)c(-c5ccc(S(=O)(=O)[O-])cc5)c5nc(c(-c6ccc(S(=O)(=O)[O-])cc6)c6ccc3[nH]6)C=C5)C=C4)cc1)[C@@H](C(F)(F)F)O2
REMARK SMILES IDX 17 1 16 2 15 3 14 4 13 5 11 6 12 7 10 9 2 10 3 11 8 12 4 13
REMARK SMILES IDX 5 14 7 15 9 16 6 17 88 18 83 19 1 20 84 23 85 24 86 25 87 26
REMARK SMILES IDX 18 27 19 28 20 29 21 30 22 32 23 33 24 34 82 35 25 36 81 37
REMARK SMILES IDX 26 38 27 39 28 40 75 41 29 42 80 43 74 44 76 45 30 46 79 47
REMARK SMILES IDX 73 48 72 49 31 51 61 52 42 53 60 54 43 55 46 56 59 57 77 58
REMARK SMILES IDX 44 59 45 60 58 62 78 63 47 64 32 65 33 66 41 67 34 68 40 69
REMARK SMILES IDX 35 70 36 71 37 72 38 73 39 74 62 75 63 76 71 77 64 78 70 79
REMARK SMILES IDX 65 80 66 81 67 82 68 83 69 84 48 85 49 86 57 87 50 88 56 89
REMARK SMILES IDX 51 90 52 91 53 92 54 93 55 94
REMARK H PARENT 13 8 1 21 1 22 20 31 76 50 46 61
REMARK Flexibility Score: inf
ROOT
ATOM      1  C   UNL A   1      36.619  23.517  25.025  1.00  0.00     0.002 C 
ENDROOT
BRANCH   1   2
ATOM      2  C   UNL A   1      35.646  22.397  24.630  1.00  0.00     0.002 C 
BRANCH   2   3
ATOM      3  C   UNL A   1      34.830  21.795  25.779  1.00  0.00     0.021 C 
BRANCH   3   4
ATOM      4  C   UNL A   1      33.401  21.413  25.400  1.00  0.00     0.116 C 
BRANCH   4   5
ATOM      5  N   UNL A   1      32.439  21.955  26.344  1.00  0.00    -0.352 N 
ATOM      6  C   UNL A   1      31.903  23.161  26.631  1.00  0.00     0.251 C 
ATOM      7  O   UNL A   1      31.091  23.158  27.564  1.00  0.00    -0.270 OA
ATOM      8  H   UNL A   1      32.079  21.252  26.932  1.00  0.00     0.163 HD
BRANCH   6   9
ATOM      9  C   UNL A   1      32.210  24.444  25.927  1.00  0.00     0.067 C 
ATOM     10  C   UNL A   1      31.989  28.082  26.768  1.00  0.00     0.061 A 
ATOM     11  C   UNL A   1      32.233  29.302  26.096  1.00  0.00     0.064 A 
ATOM     12  C   UNL A   1      32.288  26.877  26.091  1.00  0.00     0.042 A 
ATOM     13  Cl  UNL A   1      31.859  30.817  26.854  1.00  0.00    -0.082 Cl
ATOM     14  C   UNL A   1      32.795  29.337  24.819  1.00  0.00     0.026 A 
ATOM     15  C   UNL A   1      32.843  26.930  24.804  1.00  0.00     0.130 A 
ATOM     16  C   UNL A   1      32.079  25.552  26.681  1.00  0.00     0.027 C 
ATOM     17  C   UNL A   1      33.108  28.146  24.176  1.00  0.00     0.049 A 
ATOM     18  O   UNL A   1      33.199  25.819  24.096  1.00  0.00    -0.475 OA
ATOM     19  C   UNL A   1      32.583  24.561  24.478  1.00  0.00     0.314 C 
BRANCH  10  20
ATOM     20  N   UNL A   1      31.377  28.093  28.024  1.00  0.00    -0.397 N 
ATOM     21  H   UNL A   1      31.928  28.082  28.841  1.00  0.00     0.156 HD
ATOM     22  H   UNL A   1      30.395  28.112  28.094  1.00  0.00     0.156 HD
ENDBRANCH  10  20
BRANCH  19  23
ATOM     23  C   UNL A   1      31.409  24.265  23.527  1.00  0.00     0.429 C 
ATOM     24  F   UNL A   1      31.521  24.998  22.393  1.00  0.00    -0.167 F 
ATOM     25  F   UNL A   1      31.370  22.967  23.144  1.00  0.00    -0.167 F 
ATOM     26  F   UNL A   1      30.211  24.551  24.084  1.00  0.00    -0.167 F 
ENDBRANCH  19  23
ENDBRANCH   6   9
ENDBRANCH   4   5
ENDBRANCH   3   4
ENDBRANCH   2   3
ENDBRANCH   1   2
BRANCH   1  27
ATOM     27  C   UNL A   1      37.727  23.115  26.003  1.00  0.00     0.021 C 
BRANCH  27  28
ATOM     28  C   UNL A   1      38.524  24.283  26.573  1.00  0.00     0.116 C 
BRANCH  28  29
ATOM     29  N   UNL A   1      39.894  24.288  26.092  1.00  0.00    -0.352 N 
ATOM     30  C   UNL A   1      40.903  25.160  26.408  1.00  0.00     0.251 C 
ATOM     31  H   UNL A   1      40.129  23.571  25.458  1.00  0.00     0.163 HD
ATOM     32  O   UNL A   1      41.954  25.158  25.775  1.00  0.00    -0.269 OA
BRANCH  30  33
ATOM     33  C   UNL A   1      40.699  26.114  27.515  1.00  0.00     0.039 A 
ATOM     34  C   UNL A   1      39.772  25.809  28.512  1.00  0.00     0.014 A 
ATOM     35  C   UNL A   1      41.446  27.296  27.570  1.00  0.00     0.014 A 
ATOM     36  C   UNL A   1      39.619  26.677  29.592  1.00  0.00     0.010 A 
ATOM     37  C   UNL A   1      41.328  28.136  28.674  1.00  0.00     0.010 A 
ATOM     38  C   UNL A   1      40.404  27.839  29.686  1.00  0.00    -0.014 A 
BRANCH  38  39
ATOM     39  C   UNL A   1      40.222  28.777  30.817  1.00  0.00     0.031 A 
ATOM     40  C   UNL A   1      41.104  28.660  32.028  1.00  0.00     0.074 A 
ATOM     41  C   UNL A   1      39.265  29.724  30.759  1.00  0.00     0.049 A 
ATOM     42  N   UNL A   1      41.132  29.410  33.097  1.00  0.00    -0.248 NA
ATOM     43  C   UNL A   1      42.071  27.549  32.045  1.00  0.00     0.031 C 
ATOM     44  C   UNL A   1      38.327  29.913  29.651  1.00  0.00     0.029 A 
ATOM     45  N   UNL A   1      38.931  30.712  31.651  1.00  0.00    -0.354 N 
ATOM     46  C   UNL A   1      42.119  28.867  33.910  1.00  0.00     0.074 A 
ATOM     47  C   UNL A   1      42.630  27.693  33.237  1.00  0.00     0.031 C 
ATOM     48  C   UNL A   1      37.546  30.974  29.915  1.00  0.00     0.029 A 
ATOM     49  C   UNL A   1      37.916  31.530  31.214  1.00  0.00     0.049 A 
ATOM     50  H   UNL A   1      39.377  30.825  32.522  1.00  0.00     0.167 HD
ATOM     51  C   UNL A   1      42.580  29.322  35.096  1.00  0.00     0.031 A 
ATOM     52  C   UNL A   1      37.358  32.614  31.788  1.00  0.00     0.031 A 
ATOM     53  C   UNL A   1      42.088  30.501  35.751  1.00  0.00     0.049 A 
ATOM     54  C   UNL A   1      37.874  33.093  33.116  1.00  0.00     0.074 A 
ATOM     55  C   UNL A   1      42.533  31.077  36.927  1.00  0.00     0.029 A 
ATOM     56  N   UNL A   1      41.045  31.284  35.286  1.00  0.00    -0.354 N 
ATOM     57  N   UNL A   1      38.851  32.603  33.839  1.00  0.00    -0.248 NA
ATOM     58  C   UNL A   1      37.219  34.272  33.704  1.00  0.00     0.031 C 
ATOM     59  C   UNL A   1      41.735  32.193  37.191  1.00  0.00     0.029 A 
ATOM     60  C   UNL A   1      40.815  32.328  36.162  1.00  0.00     0.049 A 
ATOM     61  H   UNL A   1      40.541  31.122  34.456  1.00  0.00     0.167 HD
ATOM     62  C   UNL A   1      38.941  33.420  34.959  1.00  0.00     0.074 A 
ATOM     63  C   UNL A   1      37.920  34.438  34.820  1.00  0.00     0.031 C 
ATOM     64  C   UNL A   1      39.795  33.332  36.006  1.00  0.00     0.031 A 
BRANCH  51  65
ATOM     65  C   UNL A   1      43.691  28.554  35.752  1.00  0.00    -0.014 A 
ATOM     66  C   UNL A   1      45.034  28.886  35.497  1.00  0.00     0.010 A 
ATOM     67  C   UNL A   1      43.395  27.532  36.668  1.00  0.00     0.010 A 
ATOM     68  C   UNL A   1      46.064  28.190  36.131  1.00  0.00     0.020 A 
ATOM     69  C   UNL A   1      44.423  26.845  37.319  1.00  0.00     0.020 A 
ATOM     70  C   UNL A   1      45.752  27.174  37.039  1.00  0.00     0.054 A 
BRANCH  70  71
ATOM     71  S   UNL A   1      47.115  26.303  37.858  1.00  0.00     0.124 S 
ATOM     72  O   UNL A   1      48.285  26.980  37.304  1.00  0.00    -0.237 OA
ATOM     73  O   UNL A   1      46.850  26.562  39.271  1.00  0.00    -0.237 OA
ATOM     74  O   UNL A   1      46.946  24.914  37.437  1.00  0.00    -0.744 OA
ENDBRANCH  70  71
ENDBRANCH  51  65
BRANCH  52  75
ATOM     75  C   UNL A   1      36.273  33.339  31.078  1.00  0.00    -0.014 A 
ATOM     76  C   UNL A   1      35.062  33.617  31.733  1.00  0.00     0.010 A 
ATOM     77  C   UNL A   1      36.465  33.803  29.764  1.00  0.00     0.010 A 
ATOM     78  C   UNL A   1      34.063  34.353  31.091  1.00  0.00     0.020 A 
ATOM     79  C   UNL A   1      35.474  34.553  29.123  1.00  0.00     0.020 A 
ATOM     80  C   UNL A   1      34.280  34.826  29.794  1.00  0.00     0.054 A 
BRANCH  80  81
ATOM     81  S   UNL A   1      32.990  35.834  29.011  1.00  0.00     0.124 S 
ATOM     82  O   UNL A   1      32.182  36.243  30.155  1.00  0.00    -0.237 OA
ATOM     83  O   UNL A   1      33.773  36.893  28.377  1.00  0.00    -0.237 OA
ATOM     84  O   UNL A   1      32.341  34.908  28.086  1.00  0.00    -0.744 OA
ENDBRANCH  80  81
ENDBRANCH  52  75
BRANCH  64  85
ATOM     85  C   UNL A   1      39.687  34.353  37.101  1.00  0.00    -0.014 A 
ATOM     86  C   UNL A   1      38.912  34.087  38.242  1.00  0.00     0.010 A 
ATOM     87  C   UNL A   1      40.504  35.499  37.068  1.00  0.00     0.010 A 
ATOM     88  C   UNL A   1      38.977  34.939  39.347  1.00  0.00     0.020 A 
ATOM     89  C   UNL A   1      40.581  36.344  38.176  1.00  0.00     0.020 A 
ATOM     90  C   UNL A   1      39.824  36.052  39.314  1.00  0.00     0.054 A 
BRANCH  90  91
ATOM     91  S   UNL A   1      39.974  37.067  40.810  1.00  0.00     0.124 S 
ATOM     92  O   UNL A   1      41.300  37.658  40.650  1.00  0.00    -0.237 OA
ATOM     93  O   UNL A   1      38.853  37.992  40.675  1.00  0.00    -0.237 OA
ATOM     94  O   UNL A   1      39.854  36.101  41.899  1.00  0.00    -0.744 OA
ENDBRANCH  90  91
ENDBRANCH  64  85
ENDBRANCH  38  39
ENDBRANCH  30  33
ENDBRANCH  28  29
ENDBRANCH  27  28
ENDBRANCH   1  27
TORSDOF 18
ENDMDL
