MODEL 1
REMARK VINA RESULT:     -11.3      0.000      0.000
REMARK SMILES O=C(NCCCCCCNC(=O)c1ccc(-c2c3nc(c(-c4ccc(S(=O)(=O)[O-])cc4)c4ccc([nH]4)c(-c4ccc(S(=O)(=O)[O-])cc4)c4nc(c(-c5ccc(S(=O)(=O)[O-])cc5)c5ccc2[nH]5)C=C4)C=C3)cc1)C1=Cc2cc(S(F)(F)(F)(F)F)cc(Br)c2O[C@@H]1C(F)(F)F
REMARK SMILES IDX 7 1 6 2 5 3 4 4 3 5 1 6 2 7 73 9 74 10 89 11 75 12 88 13
REMARK SMILES IDX 76 14 87 15 77 16 85 17 84 18 86 19 90 20 91 21 92 22 93 23
REMARK SMILES IDX 78 24 79 25 80 26 81 27 82 28 83 29 8 30 9 31 10 32 11 33
REMARK SMILES IDX 12 35 13 36 14 37 72 38 15 39 71 40 16 41 17 42 18 43 65 44
REMARK SMILES IDX 19 45 70 46 64 47 66 48 20 49 69 50 63 51 62 52 21 54 51 55
REMARK SMILES IDX 32 56 50 57 33 58 36 59 49 60 67 61 34 62 35 63 48 65 68 66
REMARK SMILES IDX 37 67 22 68 23 69 31 70 24 71 30 72 25 73 26 74 27 75 28 76
REMARK SMILES IDX 29 77 52 78 53 79 61 80 54 81 60 82 55 83 56 84 57 85 58 86
REMARK SMILES IDX 59 87 38 88 39 89 47 90 40 91 46 92 41 93 42 94 43 95 44 96
REMARK SMILES IDX 45 97
REMARK H PARENT 3 8 10 34 66 53 36 64
REMARK Flexibility Score: inf
ROOT
ATOM      1  C   UNL A   1      35.259  22.191  25.135  1.00  0.00     0.002 C 
ENDROOT
BRANCH   1   2
ATOM      2  C   UNL A   1      34.169  22.439  24.105  1.00  0.00     0.002 C 
BRANCH   2   3
ATOM      3  C   UNL A   1      34.540  23.644  23.256  1.00  0.00     0.021 C 
BRANCH   3   4
ATOM      4  C   UNL A   1      33.846  24.882  23.799  1.00  0.00     0.116 C 
BRANCH   4   5
ATOM      5  N   UNL A   1      32.526  25.020  23.167  1.00  0.00    -0.352 N 
ATOM      6  O   UNL A   1      30.165  24.910  23.408  1.00  0.00    -0.270 OA
ATOM      7  C   UNL A   1      31.307  24.790  23.955  1.00  0.00     0.251 C 
ATOM      8  H   UNL A   1      32.460  25.267  22.216  1.00  0.00     0.163 HD
BRANCH   7   9
ATOM      9  C   UNL A   1      31.411  24.410  25.423  1.00  0.00     0.067 C 
ATOM     10  C   UNL A   1      31.709  25.358  26.351  1.00  0.00     0.025 C 
ATOM     11  C   UNL A   1      31.181  22.970  25.853  1.00  0.00     0.314 C 
ATOM     12  C   UNL A   1      31.939  26.797  25.921  1.00  0.00     0.020 A 
ATOM     13  O   UNL A   1      30.040  26.517  24.520  1.00  0.00    -0.474 OA
ATOM     14  C   UNL A   1      33.054  27.501  26.344  1.00  0.00     0.036 A 
ATOM     15  C   UNL A   1      31.082  27.322  25.053  1.00  0.00     0.142 A 
ATOM     16  C   UNL A   1      33.024  28.877  26.011  1.00  0.00     0.109 A 
ATOM     17  C   UNL A   1      31.192  28.636  24.668  1.00  0.00     0.062 A 
ATOM     18  C   UNL A   1      32.237  29.408  25.094  1.00  0.00     0.044 A 
ATOM     19  Br  UNL A   1      29.834  29.414  23.490  1.00  0.00    -0.047 Br
BRANCH  11  20
ATOM     20  C   UNL A   1      30.014  22.912  26.825  1.00  0.00     0.429 C 
ATOM     21  F   UNL A   1      29.306  24.034  26.736  1.00  0.00    -0.167 F 
ATOM     22  F   UNL A   1      29.239  21.874  26.526  1.00  0.00    -0.167 F 
ATOM     23  F   UNL A   1      30.476  22.777  28.064  1.00  0.00    -0.167 F 
ENDBRANCH  11  20
BRANCH  16  24
ATOM     24  S   UNL A   1      34.143  29.984  26.904  1.00  0.00     0.310 S 
ATOM     25  F   UNL A   1      34.365  28.935  28.075  1.00  0.00    -0.094 F 
ATOM     26  F   UNL A   1      32.917  30.537  27.725  1.00  0.00    -0.094 F 
ATOM     27  F   UNL A   1      35.113  30.937  27.658  1.00  0.00    -0.094 F 
ATOM     28  F   UNL A   1      35.377  29.319  26.174  1.00  0.00    -0.094 F 
ATOM     29  F   UNL A   1      33.187  28.932  26.213  1.00  0.00    -0.094 F 
ENDBRANCH  16  24
ENDBRANCH   7   9
ENDBRANCH   4   5
ENDBRANCH   3   4
ENDBRANCH   2   3
ENDBRANCH   1   2
BRANCH   1  30
ATOM     30  C   UNL A   1      35.303  23.352  26.115  1.00  0.00     0.021 C 
BRANCH  30  31
ATOM     31  C   UNL A   1      36.717  23.903  26.185  1.00  0.00     0.116 C 
BRANCH  31  32
ATOM     32  N   UNL A   1      37.677  22.827  25.899  1.00  0.00    -0.352 N 
ATOM     33  C   UNL A   1      39.084  22.970  26.299  1.00  0.00     0.251 C 
ATOM     34  H   UNL A   1      37.377  22.010  25.438  1.00  0.00     0.163 HD
ATOM     35  O   UNL A   1      39.913  22.040  26.052  1.00  0.00    -0.269 OA
BRANCH  33  36
ATOM     36  C   UNL A   1      39.547  24.232  27.010  1.00  0.00     0.039 A 
ATOM     37  C   UNL A   1      39.293  24.382  28.363  1.00  0.00     0.014 A 
ATOM     38  C   UNL A   1      40.189  25.168  26.322  1.00  0.00     0.014 A 
ATOM     39  C   UNL A   1      39.502  25.696  28.843  1.00  0.00     0.010 A 
ATOM     40  C   UNL A   1      40.483  26.381  26.897  1.00  0.00     0.010 A 
ATOM     41  C   UNL A   1      40.205  26.620  28.214  1.00  0.00    -0.014 A 
BRANCH  41  42
ATOM     42  C   UNL A   1      40.680  27.882  28.917  1.00  0.00     0.031 A 
ATOM     43  C   UNL A   1      39.802  28.965  28.984  1.00  0.00     0.074 A 
ATOM     44  C   UNL A   1      41.957  27.886  29.452  1.00  0.00     0.049 A 
ATOM     45  N   UNL A   1      40.005  30.142  29.579  1.00  0.00    -0.248 NA
ATOM     46  C   UNL A   1      38.458  28.974  28.387  1.00  0.00     0.031 C 
ATOM     47  C   UNL A   1      42.846  26.794  29.395  1.00  0.00     0.029 A 
ATOM     48  N   UNL A   1      42.591  28.912  30.116  1.00  0.00    -0.354 N 
ATOM     49  C   UNL A   1      38.926  30.917  29.447  1.00  0.00     0.074 A 
ATOM     50  C   UNL A   1      37.918  30.179  28.674  1.00  0.00     0.031 C 
ATOM     51  C   UNL A   1      44.002  27.161  30.007  1.00  0.00     0.029 A 
ATOM     52  C   UNL A   1      43.857  28.487  30.456  1.00  0.00     0.049 A 
ATOM     53  H   UNL A   1      42.206  29.797  30.315  1.00  0.00     0.167 HD
ATOM     54  C   UNL A   1      38.743  32.208  29.945  1.00  0.00     0.031 A 
ATOM     55  C   UNL A   1      44.841  29.201  31.119  1.00  0.00     0.031 A 
ATOM     56  C   UNL A   1      39.715  32.907  30.645  1.00  0.00     0.049 A 
ATOM     57  C   UNL A   1      44.680  30.515  31.566  1.00  0.00     0.074 A 
ATOM     58  C   UNL A   1      39.543  34.206  31.160  1.00  0.00     0.029 A 
ATOM     59  N   UNL A   1      40.988  32.490  30.964  1.00  0.00    -0.354 N 
ATOM     60  N   UNL A   1      43.588  31.275  31.469  1.00  0.00    -0.248 NA
ATOM     61  C   UNL A   1      45.728  31.292  32.241  1.00  0.00     0.031 C 
ATOM     62  C   UNL A   1      40.701  34.573  31.772  1.00  0.00     0.029 A 
ATOM     63  C   UNL A   1      41.615  33.508  31.649  1.00  0.00     0.049 A 
ATOM     64  H   UNL A   1      41.383  31.617  30.741  1.00  0.00     0.167 HD
ATOM     65  C   UNL A   1      43.807  32.467  32.028  1.00  0.00     0.074 A 
ATOM     66  C   UNL A   1      45.189  32.498  32.526  1.00  0.00     0.031 C 
ATOM     67  C   UNL A   1      42.908  33.528  32.147  1.00  0.00     0.031 A 
BRANCH  54  68
ATOM     68  C   UNL A   1      37.406  32.887  29.703  1.00  0.00    -0.014 A 
ATOM     69  C   UNL A   1      36.467  32.799  30.718  1.00  0.00     0.010 A 
ATOM     70  C   UNL A   1      37.153  33.561  28.588  1.00  0.00     0.010 A 
ATOM     71  C   UNL A   1      35.171  33.220  30.338  1.00  0.00     0.020 A 
ATOM     72  C   UNL A   1      35.897  34.062  28.342  1.00  0.00     0.020 A 
ATOM     73  C   UNL A   1      34.904  33.960  29.276  1.00  0.00     0.054 A 
BRANCH  73  74
ATOM     74  S   UNL A   1      33.310  34.792  29.070  1.00  0.00     0.124 S 
ATOM     75  O   UNL A   1      32.476  34.045  28.027  1.00  0.00    -0.237 OA
ATOM     76  O   UNL A   1      32.565  34.805  30.406  1.00  0.00    -0.237 OA
ATOM     77  O   UNL A   1      33.571  36.399  28.547  1.00  0.00    -0.744 OA
ENDBRANCH  73  74
ENDBRANCH  54  68
BRANCH  55  78
ATOM     78  C   UNL A   1      46.175  28.517  31.375  1.00  0.00    -0.014 A 
ATOM     79  C   UNL A   1      47.210  28.583  30.457  1.00  0.00     0.010 A 
ATOM     80  C   UNL A   1      46.294  27.819  32.499  1.00  0.00     0.010 A 
ATOM     81  C   UNL A   1      48.235  27.634  30.680  1.00  0.00     0.020 A 
ATOM     82  C   UNL A   1      47.388  27.016  32.711  1.00  0.00     0.020 A 
ATOM     83  C   UNL A   1      48.422  26.986  31.816  1.00  0.00     0.054 A 
BRANCH  83  84
ATOM     84  S   UNL A   1      49.965  26.107  32.170  1.00  0.00     0.124 S 
ATOM     85  O   UNL A   1      51.129  27.099  32.166  1.00  0.00    -0.237 OA
ATOM     86  O   UNL A   1      49.868  25.438  33.543  1.00  0.00    -0.237 OA
ATOM     87  O   UNL A   1      50.228  24.915  30.973  1.00  0.00    -0.744 OA
ENDBRANCH  83  84
ENDBRANCH  55  78
BRANCH  67  88
ATOM     88  C   UNL A   1      43.377  34.784  32.864  1.00  0.00    -0.014 A 
ATOM     89  C   UNL A   1      43.144  34.918  34.223  1.00  0.00     0.010 A 
ATOM     90  C   UNL A   1      44.000  35.733  32.175  1.00  0.00     0.010 A 
ATOM     91  C   UNL A   1      43.354  36.228  34.714  1.00  0.00     0.020 A 
ATOM     92  C   UNL A   1      44.296  36.941  32.759  1.00  0.00     0.020 A 
ATOM     93  C   UNL A   1      44.040  37.164  34.084  1.00  0.00     0.054 A 
BRANCH  93  94
ATOM     94  S   UNL A   1      44.610  38.660  34.927  1.00  0.00     0.124 S 
ATOM     95  O   UNL A   1      43.695  39.831  34.562  1.00  0.00    -0.237 OA
ATOM     96  O   UNL A   1      44.576  38.437  36.440  1.00  0.00    -0.237 OA
ATOM     97  O   UNL A   1      46.211  39.015  34.439  1.00  0.00    -0.744 OA
ENDBRANCH  93  94
ENDBRANCH  67  88
ENDBRANCH  41  42
ENDBRANCH  33  36
ENDBRANCH  31  32
ENDBRANCH  30  31
ENDBRANCH   1  30
TORSDOF 18
ENDMDL
MODEL 2
REMARK VINA RESULT:     -10.8      4.488      9.871
REMARK SMILES O=C(NCCCCCCNC(=O)c1ccc(-c2c3nc(c(-c4ccc(S(=O)(=O)[O-])cc4)c4ccc([nH]4)c(-c4ccc(S(=O)(=O)[O-])cc4)c4nc(c(-c5ccc(S(=O)(=O)[O-])cc5)c5ccc2[nH]5)C=C4)C=C3)cc1)C1=Cc2cc(S(F)(F)(F)(F)F)cc(Br)c2O[C@@H]1C(F)(F)F
REMARK SMILES IDX 7 1 6 2 5 3 4 4 3 5 1 6 2 7 73 9 74 10 89 11 75 12 88 13
REMARK SMILES IDX 76 14 87 15 77 16 85 17 84 18 86 19 90 20 91 21 92 22 93 23
REMARK SMILES IDX 78 24 79 25 80 26 81 27 82 28 83 29 8 30 9 31 10 32 11 33
REMARK SMILES IDX 12 35 13 36 14 37 72 38 15 39 71 40 16 41 17 42 18 43 65 44
REMARK SMILES IDX 19 45 70 46 64 47 66 48 20 49 69 50 63 51 62 52 21 54 51 55
REMARK SMILES IDX 32 56 50 57 33 58 36 59 49 60 67 61 34 62 35 63 48 65 68 66
REMARK SMILES IDX 37 67 22 68 23 69 31 70 24 71 30 72 25 73 26 74 27 75 28 76
REMARK SMILES IDX 29 77 52 78 53 79 61 80 54 81 60 82 55 83 56 84 57 85 58 86
REMARK SMILES IDX 59 87 38 88 39 89 47 90 40 91 46 92 41 93 42 94 43 95 44 96
REMARK SMILES IDX 45 97
REMARK H PARENT 3 8 10 34 66 53 36 64
REMARK Flexibility Score: inf
ROOT
ATOM      1  C   UNL A   1      34.189  31.803  28.046  1.00  0.00     0.002 C 
ENDROOT
BRANCH   1   2
ATOM      2  C   UNL A   1      34.805  30.576  27.393  1.00  0.00     0.002 C 
BRANCH   2   3
ATOM      3  C   UNL A   1      33.826  29.993  26.388  1.00  0.00     0.021 C 
BRANCH   3   4
ATOM      4  C   UNL A   1      33.969  28.480  26.358  1.00  0.00     0.116 C 
BRANCH   4   5
ATOM      5  N   UNL A   1      32.831  27.867  27.057  1.00  0.00    -0.352 N 
ATOM      6  O   UNL A   1      30.636  26.970  26.915  1.00  0.00    -0.270 OA
ATOM      7  C   UNL A   1      31.620  27.500  26.310  1.00  0.00     0.251 C 
ATOM      8  H   UNL A   1      32.881  27.702  28.027  1.00  0.00     0.163 HD
BRANCH   7   9
ATOM      9  C   UNL A   1      31.544  27.754  24.814  1.00  0.00     0.067 C 
ATOM     10  C   UNL A   1      32.130  26.886  23.946  1.00  0.00     0.025 C 
ATOM     11  C   UNL A   1      30.815  28.980  24.287  1.00  0.00     0.314 C 
ATOM     12  C   UNL A   1      32.860  25.662  24.472  1.00  0.00     0.020 A 
ATOM     13  O   UNL A   1      31.022  25.397  25.955  1.00  0.00    -0.474 OA
ATOM     14  C   UNL A   1      34.138  25.350  24.042  1.00  0.00     0.036 A 
ATOM     15  C   UNL A   1      32.264  24.956  25.426  1.00  0.00     0.142 A 
ATOM     16  C   UNL A   1      34.600  24.086  24.481  1.00  0.00     0.109 A 
ATOM     17  C   UNL A   1      32.837  23.803  25.905  1.00  0.00     0.062 A 
ATOM     18  C   UNL A   1      34.074  23.404  25.481  1.00  0.00     0.044 A 
ATOM     19  Br  UNL A   1      31.868  22.716  27.218  1.00  0.00    -0.047 Br
BRANCH  11  20
ATOM     20  C   UNL A   1      29.675  28.540  23.382  1.00  0.00     0.429 C 
ATOM     21  F   UNL A   1      28.746  29.491  23.344  1.00  0.00    -0.167 F 
ATOM     22  F   UNL A   1      30.140  28.326  22.155  1.00  0.00    -0.167 F 
ATOM     23  F   UNL A   1      29.141  27.419  23.856  1.00  0.00    -0.167 F 
ENDBRANCH  11  20
BRANCH  16  24
ATOM     24  S   UNL A   1      36.010  23.356  23.613  1.00  0.00     0.310 S 
ATOM     25  F   UNL A   1      35.808  21.948  24.316  1.00  0.00    -0.094 F 
ATOM     26  F   UNL A   1      36.940  23.750  24.823  1.00  0.00    -0.094 F 
ATOM     27  F   UNL A   1      37.216  22.735  22.853  1.00  0.00    -0.094 F 
ATOM     28  F   UNL A   1      35.040  22.845  22.475  1.00  0.00    -0.094 F 
ATOM     29  F   UNL A   1      34.759  23.882  24.423  1.00  0.00    -0.094 F 
ENDBRANCH  16  24
ENDBRANCH   7   9
ENDBRANCH   4   5
ENDBRANCH   3   4
ENDBRANCH   2   3
ENDBRANCH   1   2
BRANCH   1  30
ATOM     30  C   UNL A   1      35.218  32.921  28.092  1.00  0.00     0.021 C 
BRANCH  30  31
ATOM     31  C   UNL A   1      36.363  32.520  29.007  1.00  0.00     0.116 C 
BRANCH  31  32
ATOM     32  N   UNL A   1      35.824  31.858  30.204  1.00  0.00    -0.352 N 
ATOM     33  C   UNL A   1      36.611  30.823  30.889  1.00  0.00     0.251 C 
ATOM     34  H   UNL A   1      34.935  32.107  30.547  1.00  0.00     0.163 HD
ATOM     35  O   UNL A   1      36.146  30.250  31.924  1.00  0.00    -0.269 OA
BRANCH  33  36
ATOM     36  C   UNL A   1      37.984  30.437  30.360  1.00  0.00     0.039 A 
ATOM     37  C   UNL A   1      38.171  30.295  28.995  1.00  0.00     0.014 A 
ATOM     38  C   UNL A   1      38.980  30.243  31.216  1.00  0.00     0.014 A 
ATOM     39  C   UNL A   1      39.385  29.658  28.646  1.00  0.00     0.010 A 
ATOM     40  C   UNL A   1      40.186  29.746  30.785  1.00  0.00     0.010 A 
ATOM     41  C   UNL A   1      40.421  29.525  29.456  1.00  0.00    -0.014 A 
BRANCH  41  42
ATOM     42  C   UNL A   1      41.799  29.147  28.937  1.00  0.00     0.031 A 
ATOM     43  C   UNL A   1      42.016  27.821  28.559  1.00  0.00     0.074 A 
ATOM     44  C   UNL A   1      42.762  30.140  28.869  1.00  0.00     0.049 A 
ATOM     45  N   UNL A   1      43.130  27.292  28.051  1.00  0.00    -0.248 NA
ATOM     46  C   UNL A   1      41.005  26.759  28.663  1.00  0.00     0.031 C 
ATOM     47  C   UNL A   1      42.548  31.482  29.240  1.00  0.00     0.029 A 
ATOM     48  N   UNL A   1      44.066  30.023  28.443  1.00  0.00    -0.354 N 
ATOM     49  C   UNL A   1      42.949  25.994  27.796  1.00  0.00     0.074 A 
ATOM     50  C   UNL A   1      41.582  25.631  28.191  1.00  0.00     0.031 C 
ATOM     51  C   UNL A   1      43.709  32.161  29.053  1.00  0.00     0.029 A 
ATOM     52  C   UNL A   1      44.669  31.256  28.561  1.00  0.00     0.049 A 
ATOM     53  H   UNL A   1      44.495  29.200  28.112  1.00  0.00     0.167 HD
ATOM     54  C   UNL A   1      43.870  25.101  27.246  1.00  0.00     0.031 A 
ATOM     55  C   UNL A   1      45.979  31.591  28.261  1.00  0.00     0.031 A 
ATOM     56  C   UNL A   1      45.169  25.448  26.907  1.00  0.00     0.049 A 
ATOM     57  C   UNL A   1      46.919  30.684  27.766  1.00  0.00     0.074 A 
ATOM     58  C   UNL A   1      46.107  24.560  26.345  1.00  0.00     0.029 A 
ATOM     59  N   UNL A   1      45.778  26.675  27.046  1.00  0.00    -0.354 N 
ATOM     60  N   UNL A   1      46.726  29.396  27.474  1.00  0.00    -0.248 NA
ATOM     61  C   UNL A   1      48.319  31.021  27.476  1.00  0.00     0.031 C 
ATOM     62  C   UNL A   1      47.270  25.241  26.158  1.00  0.00     0.029 A 
ATOM     63  C   UNL A   1      47.076  26.564  26.600  1.00  0.00     0.049 A 
ATOM     64  H   UNL A   1      45.359  27.490  27.404  1.00  0.00     0.167 HD
ATOM     65  C   UNL A   1      47.854  28.858  27.005  1.00  0.00     0.074 A 
ATOM     66  C   UNL A   1      48.897  29.893  27.007  1.00  0.00     0.031 C 
ATOM     67  C   UNL A   1      48.053  27.547  26.572  1.00  0.00     0.031 A 
BRANCH  54  68
ATOM     68  C   UNL A   1      43.424  23.668  27.008  1.00  0.00    -0.014 A 
ATOM     69  C   UNL A   1      43.151  23.307  25.699  1.00  0.00     0.010 A 
ATOM     70  C   UNL A   1      43.330  22.790  27.999  1.00  0.00     0.010 A 
ATOM     71  C   UNL A   1      42.501  22.056  25.573  1.00  0.00     0.020 A 
ATOM     72  C   UNL A   1      42.811  21.537  27.776  1.00  0.00     0.020 A 
ATOM     73  C   UNL A   1      42.464  21.133  26.517  1.00  0.00     0.054 A 
BRANCH  73  74
ATOM     74  S   UNL A   1      41.980  19.425  26.162  1.00  0.00     0.124 S 
ATOM     75  O   UNL A   1      42.701  18.942  24.902  1.00  0.00    -0.237 OA
ATOM     76  O   UNL A   1      42.362  18.531  27.343  1.00  0.00    -0.237 OA
ATOM     77  O   UNL A   1      40.289  19.352  25.916  1.00  0.00    -0.744 OA
ENDBRANCH  73  74
ENDBRANCH  54  68
BRANCH  55  78
ATOM     78  C   UNL A   1      46.421  33.029  28.484  1.00  0.00    -0.014 A 
ATOM     79  C   UNL A   1      46.096  34.034  27.587  1.00  0.00     0.010 A 
ATOM     80  C   UNL A   1      47.165  33.277  29.556  1.00  0.00     0.010 A 
ATOM     81  C   UNL A   1      46.852  35.217  27.755  1.00  0.00     0.020 A 
ATOM     82  C   UNL A   1      47.763  34.502  29.724  1.00  0.00     0.020 A 
ATOM     83  C   UNL A   1      47.535  35.522  28.843  1.00  0.00     0.054 A 
BRANCH  83  84
ATOM     84  S   UNL A   1      48.135  37.202  29.153  1.00  0.00     0.124 S 
ATOM     85  O   UNL A   1      49.650  37.171  29.367  1.00  0.00    -0.237 OA
ATOM     86  O   UNL A   1      47.807  38.092  27.952  1.00  0.00    -0.237 OA
ATOM     87  O   UNL A   1      47.375  37.830  30.550  1.00  0.00    -0.744 OA
ENDBRANCH  83  84
ENDBRANCH  55  78
BRANCH  67  88
ATOM     88  C   UNL A   1      49.426  27.172  26.038  1.00  0.00    -0.014 A 
ATOM     89  C   UNL A   1      49.700  27.339  24.690  1.00  0.00     0.010 A 
ATOM     90  C   UNL A   1      50.340  26.688  26.871  1.00  0.00     0.010 A 
ATOM     91  C   UNL A   1      50.884  26.694  24.261  1.00  0.00     0.020 A 
ATOM     92  C   UNL A   1      51.532  26.197  26.395  1.00  0.00     0.020 A 
ATOM     93  C   UNL A   1      51.844  26.277  25.066  1.00  0.00     0.054 A 
BRANCH  93  94
ATOM     94  S   UNL A   1      53.485  25.835  24.444  1.00  0.00     0.124 S 
ATOM     95  O   UNL A   1      54.536  26.744  25.088  1.00  0.00    -0.237 OA
ATOM     96  O   UNL A   1      53.788  24.377  24.795  1.00  0.00    -0.237 OA
ATOM     97  O   UNL A   1      53.525  26.034  22.746  1.00  0.00    -0.744 OA
ENDBRANCH  93  94
ENDBRANCH  67  88
ENDBRANCH  41  42
ENDBRANCH  33  36
ENDBRANCH  31  32
ENDBRANCH  30  31
ENDBRANCH   1  30
TORSDOF 18
ENDMDL
MODEL 3
REMARK VINA RESULT:     -10.8      3.875      7.942
REMARK SMILES O=C(NCCCCCCNC(=O)c1ccc(-c2c3nc(c(-c4ccc(S(=O)(=O)[O-])cc4)c4ccc([nH]4)c(-c4ccc(S(=O)(=O)[O-])cc4)c4nc(c(-c5ccc(S(=O)(=O)[O-])cc5)c5ccc2[nH]5)C=C4)C=C3)cc1)C1=Cc2cc(S(F)(F)(F)(F)F)cc(Br)c2O[C@@H]1C(F)(F)F
REMARK SMILES IDX 7 1 6 2 5 3 4 4 3 5 1 6 2 7 73 9 74 10 89 11 75 12 88 13
REMARK SMILES IDX 76 14 87 15 77 16 85 17 84 18 86 19 90 20 91 21 92 22 93 23
REMARK SMILES IDX 78 24 79 25 80 26 81 27 82 28 83 29 8 30 9 31 10 32 11 33
REMARK SMILES IDX 12 35 13 36 14 37 72 38 15 39 71 40 16 41 17 42 18 43 65 44
REMARK SMILES IDX 19 45 70 46 64 47 66 48 20 49 69 50 63 51 62 52 21 54 51 55
REMARK SMILES IDX 32 56 50 57 33 58 36 59 49 60 67 61 34 62 35 63 48 65 68 66
REMARK SMILES IDX 37 67 22 68 23 69 31 70 24 71 30 72 25 73 26 74 27 75 28 76
REMARK SMILES IDX 29 77 52 78 53 79 61 80 54 81 60 82 55 83 56 84 57 85 58 86
REMARK SMILES IDX 59 87 38 88 39 89 47 90 40 91 46 92 41 93 42 94 43 95 44 96
REMARK SMILES IDX 45 97
REMARK H PARENT 3 8 10 34 66 53 36 64
REMARK Flexibility Score: inf
ROOT
ATOM      1  C   UNL A   1      32.294  30.511  25.801  1.00  0.00     0.002 C 
ENDROOT
BRANCH   1   2
ATOM      2  C   UNL A   1      32.677  29.481  26.851  1.00  0.00     0.002 C 
BRANCH   2   3
ATOM      3  C   UNL A   1      31.420  28.831  27.405  1.00  0.00     0.021 C 
BRANCH   3   4
ATOM      4  C   UNL A   1      31.650  27.338  27.569  1.00  0.00     0.116 C 
BRANCH   4   5
ATOM      5  N   UNL A   1      32.901  26.958  26.896  1.00  0.00    -0.352 N 
ATOM      6  O   UNL A   1      34.030  25.423  25.478  1.00  0.00    -0.270 OA
ATOM      7  C   UNL A   1      32.948  25.751  26.060  1.00  0.00     0.251 C 
ATOM      8  H   UNL A   1      33.707  27.514  27.006  1.00  0.00     0.163 HD
BRANCH   7   9
ATOM      9  C   UNL A   1      31.704  24.895  25.890  1.00  0.00     0.067 C 
ATOM     10  C   UNL A   1      30.702  25.306  25.068  1.00  0.00     0.025 C 
ATOM     11  C   UNL A   1      31.579  23.578  26.640  1.00  0.00     0.314 C 
ATOM     12  C   UNL A   1      30.827  26.623  24.318  1.00  0.00     0.020 A 
ATOM     13  O   UNL A   1      33.065  25.969  23.859  1.00  0.00    -0.474 OA
ATOM     14  C   UNL A   1      29.805  27.557  24.338  1.00  0.00     0.036 A 
ATOM     15  C   UNL A   1      31.985  26.882  23.723  1.00  0.00     0.142 A 
ATOM     16  C   UNL A   1      29.998  28.638  23.444  1.00  0.00     0.109 A 
ATOM     17  C   UNL A   1      32.148  28.024  22.976  1.00  0.00     0.062 A 
ATOM     18  C   UNL A   1      31.158  28.963  22.904  1.00  0.00     0.044 A 
ATOM     19  Br  UNL A   1      33.825  28.310  22.004  1.00  0.00    -0.047 Br
BRANCH  11  20
ATOM     20  C   UNL A   1      31.431  22.440  25.643  1.00  0.00     0.429 C 
ATOM     21  F   UNL A   1      32.328  21.495  25.912  1.00  0.00    -0.167 F 
ATOM     22  F   UNL A   1      30.207  21.928  25.734  1.00  0.00    -0.167 F 
ATOM     23  F   UNL A   1      31.629  22.901  24.412  1.00  0.00    -0.167 F 
ENDBRANCH  11  20
BRANCH  16  24
ATOM     24  S   UNL A   1      28.556  29.643  23.013  1.00  0.00     0.310 S 
ATOM     25  F   UNL A   1      29.287  30.287  21.761  1.00  0.00    -0.094 F 
ATOM     26  F   UNL A   1      29.141  30.825  23.876  1.00  0.00    -0.094 F 
ATOM     27  F   UNL A   1      27.308  30.493  22.644  1.00  0.00    -0.094 F 
ATOM     28  F   UNL A   1      28.056  28.502  22.042  1.00  0.00    -0.094 F 
ATOM     29  F   UNL A   1      29.872  28.811  23.288  1.00  0.00    -0.094 F 
ENDBRANCH  16  24
ENDBRANCH   7   9
ENDBRANCH   4   5
ENDBRANCH   3   4
ENDBRANCH   2   3
ENDBRANCH   1   2
BRANCH   1  30
ATOM     30  C   UNL A   1      31.724  31.743  26.485  1.00  0.00     0.021 C 
BRANCH  30  31
ATOM     31  C   UNL A   1      32.830  32.463  27.238  1.00  0.00     0.116 C 
BRANCH  31  32
ATOM     32  N   UNL A   1      32.421  33.850  27.502  1.00  0.00    -0.352 N 
ATOM     33  C   UNL A   1      33.131  34.647  28.513  1.00  0.00     0.251 C 
ATOM     34  H   UNL A   1      31.671  34.245  27.001  1.00  0.00     0.163 HD
ATOM     35  O   UNL A   1      32.778  35.846  28.741  1.00  0.00    -0.269 OA
BRANCH  33  36
ATOM     36  C   UNL A   1      34.290  34.036  29.286  1.00  0.00     0.039 A 
ATOM     37  C   UNL A   1      34.029  33.276  30.414  1.00  0.00     0.014 A 
ATOM     38  C   UNL A   1      35.533  34.241  28.866  1.00  0.00     0.014 A 
ATOM     39  C   UNL A   1      35.172  33.012  31.204  1.00  0.00     0.010 A 
ATOM     40  C   UNL A   1      36.604  33.836  29.625  1.00  0.00     0.010 A 
ATOM     41  C   UNL A   1      36.418  33.132  30.782  1.00  0.00    -0.014 A 
BRANCH  41  42
ATOM     42  C   UNL A   1      37.583  32.519  31.543  1.00  0.00     0.031 A 
ATOM     43  C   UNL A   1      37.946  33.096  32.761  1.00  0.00     0.074 A 
ATOM     44  C   UNL A   1      38.219  31.423  30.985  1.00  0.00     0.049 A 
ATOM     45  N   UNL A   1      38.907  32.697  33.596  1.00  0.00    -0.248 NA
ATOM     46  C   UNL A   1      37.294  34.281  33.339  1.00  0.00     0.031 C 
ATOM     47  C   UNL A   1      37.853  30.830  29.761  1.00  0.00     0.029 A 
ATOM     48  N   UNL A   1      39.290  30.721  31.490  1.00  0.00    -0.354 N 
ATOM     49  C   UNL A   1      38.943  33.489  34.670  1.00  0.00     0.074 A 
ATOM     50  C   UNL A   1      37.910  34.523  34.517  1.00  0.00     0.031 C 
ATOM     51  C   UNL A   1      38.699  29.794  29.525  1.00  0.00     0.029 A 
ATOM     52  C   UNL A   1      39.607  29.720  30.598  1.00  0.00     0.049 A 
ATOM     53  H   UNL A   1      39.751  30.903  32.341  1.00  0.00     0.167 HD
ATOM     54  C   UNL A   1      39.794  33.388  35.772  1.00  0.00     0.031 A 
ATOM     55  C   UNL A   1      40.627  28.788  30.697  1.00  0.00     0.031 A 
ATOM     56  C   UNL A   1      40.787  32.428  35.890  1.00  0.00     0.049 A 
ATOM     57  C   UNL A   1      41.518  28.722  31.772  1.00  0.00     0.074 A 
ATOM     58  C   UNL A   1      41.649  32.308  36.997  1.00  0.00     0.029 A 
ATOM     59  N   UNL A   1      41.118  31.442  34.987  1.00  0.00    -0.354 N 
ATOM     60  N   UNL A   1      41.527  29.489  32.863  1.00  0.00    -0.248 NA
ATOM     61  C   UNL A   1      42.622  27.759  31.871  1.00  0.00     0.031 C 
ATOM     62  C   UNL A   1      42.496  31.270  36.761  1.00  0.00     0.029 A 
ATOM     63  C   UNL A   1      42.176  30.726  35.502  1.00  0.00     0.049 A 
ATOM     64  H   UNL A   1      40.677  31.279  34.123  1.00  0.00     0.167 HD
ATOM     65  C   UNL A   1      42.516  29.115  33.679  1.00  0.00     0.074 A 
ATOM     66  C   UNL A   1      43.239  28.002  33.049  1.00  0.00     0.031 C 
ATOM     67  C   UNL A   1      42.841  29.655  34.924  1.00  0.00     0.031 A 
BRANCH  54  68
ATOM     68  C   UNL A   1      39.623  34.387  36.904  1.00  0.00    -0.014 A 
ATOM     69  C   UNL A   1      40.170  35.646  36.716  1.00  0.00     0.010 A 
ATOM     70  C   UNL A   1      38.955  34.084  38.010  1.00  0.00     0.010 A 
ATOM     71  C   UNL A   1      40.204  36.436  37.889  1.00  0.00     0.020 A 
ATOM     72  C   UNL A   1      38.917  34.961  39.067  1.00  0.00     0.020 A 
ATOM     73  C   UNL A   1      39.487  36.201  38.973  1.00  0.00     0.054 A 
BRANCH  73  74
ATOM     74  S   UNL A   1      39.270  37.451  40.264  1.00  0.00     0.124 S 
ATOM     75  O   UNL A   1      38.362  38.568  39.745  1.00  0.00    -0.237 OA
ATOM     76  O   UNL A   1      38.633  36.806  41.496  1.00  0.00    -0.237 OA
ATOM     77  O   UNL A   1      40.793  38.103  40.686  1.00  0.00    -0.744 OA
ENDBRANCH  73  74
ENDBRANCH  54  68
BRANCH  55  78
ATOM     78  C   UNL A   1      40.788  27.778  29.572  1.00  0.00    -0.014 A 
ATOM     79  C   UNL A   1      39.950  26.680  29.460  1.00  0.00     0.010 A 
ATOM     80  C   UNL A   1      41.790  27.970  28.722  1.00  0.00     0.010 A 
ATOM     81  C   UNL A   1      40.433  25.679  28.584  1.00  0.00     0.020 A 
ATOM     82  C   UNL A   1      42.120  27.006  27.801  1.00  0.00     0.020 A 
ATOM     83  C   UNL A   1      41.372  25.868  27.676  1.00  0.00     0.054 A 
BRANCH  83  84
ATOM     84  S   UNL A   1      41.654  24.684  26.335  1.00  0.00     0.124 S 
ATOM     85  O   UNL A   1      41.682  25.425  24.997  1.00  0.00    -0.237 OA
ATOM     86  O   UNL A   1      42.992  23.973  26.554  1.00  0.00    -0.237 OA
ATOM     87  O   UNL A   1      40.393  23.530  26.320  1.00  0.00    -0.744 OA
ENDBRANCH  83  84
ENDBRANCH  55  78
BRANCH  67  88
ATOM     88  C   UNL A   1      43.995  29.033  35.693  1.00  0.00    -0.014 A 
ATOM     89  C   UNL A   1      45.279  29.515  35.499  1.00  0.00     0.010 A 
ATOM     90  C   UNL A   1      43.754  28.035  36.536  1.00  0.00     0.010 A 
ATOM     91  C   UNL A   1      46.291  28.682  36.032  1.00  0.00     0.020 A 
ATOM     92  C   UNL A   1      44.790  27.351  37.125  1.00  0.00     0.020 A 
ATOM     93  C   UNL A   1      46.087  27.737  36.932  1.00  0.00     0.054 A 
BRANCH  93  94
ATOM     94  S   UNL A   1      47.451  26.993  37.860  1.00  0.00     0.124 S 
ATOM     95  O   UNL A   1      47.684  27.787  39.148  1.00  0.00    -0.237 OA
ATOM     96  O   UNL A   1      47.101  25.545  38.209  1.00  0.00    -0.237 OA
ATOM     97  O   UNL A   1      48.872  27.023  36.907  1.00  0.00    -0.744 OA
ENDBRANCH  93  94
ENDBRANCH  67  88
ENDBRANCH  41  42
ENDBRANCH  33  36
ENDBRANCH  31  32
ENDBRANCH  30  31
ENDBRANCH   1  30
TORSDOF 18
ENDMDL
