MODEL 1
REMARK VINA RESULT:     -10.3      0.000      0.000
REMARK SMILES COc1ccc2cc([C@H](C)C(=O)NCCCCCCNC(=O)c3ccc(-c4c5nc(c(-c6ccc(S(=O)(=O)[O-])cc6)c6ccc([nH]6)c(-c6ccc(S(=O)(=O)[O-])cc6)c6nc(c(-c7ccc(S(=O)(=O)[O-])cc7)c7ccc4[nH]7)C=C6)C=C5)cc3)ccc2c1
REMARK SMILES IDX 17 1 16 2 15 3 14 4 13 5 11 6 12 7 9 9 10 10 8 11 3 12 4 13
REMARK SMILES IDX 86 14 5 15 85 16 6 17 84 18 7 19 83 20 2 21 1 22 18 23 19 24
REMARK SMILES IDX 20 25 21 26 22 28 23 29 24 30 82 31 25 32 81 33 26 34 27 35
REMARK SMILES IDX 28 36 75 37 29 38 80 39 74 40 76 41 30 42 79 43 73 44 72 45
REMARK SMILES IDX 31 47 61 48 42 49 60 50 43 51 46 52 59 53 77 54 44 55 45 56
REMARK SMILES IDX 58 58 78 59 47 60 32 61 33 62 41 63 34 64 40 65 35 66 36 67
REMARK SMILES IDX 37 68 38 69 39 70 62 71 63 72 71 73 64 74 70 75 65 76 66 77
REMARK SMILES IDX 67 78 68 79 69 80 48 81 49 82 57 83 50 84 56 85 51 86 52 87
REMARK SMILES IDX 53 88 54 89 55 90
REMARK H PARENT 13 8 20 27 76 46 46 57
REMARK Flexibility Score: inf
ROOT
ATOM      1  C   UNL A   1      36.142  21.976  24.125  1.00  0.00     0.002 C 
ENDROOT
BRANCH   1   2
ATOM      2  C   UNL A   1      35.185  21.041  24.873  1.00  0.00     0.002 C 
BRANCH   2   3
ATOM      3  C   UNL A   1      33.798  20.883  24.254  1.00  0.00     0.021 C 
BRANCH   3   4
ATOM      4  C   UNL A   1      32.672  20.691  25.258  1.00  0.00     0.116 C 
BRANCH   4   5
ATOM      5  N   UNL A   1      32.898  21.368  26.522  1.00  0.00    -0.356 N 
ATOM      6  C   UNL A   1      32.216  22.434  27.051  1.00  0.00     0.227 C 
ATOM      7  O   UNL A   1      32.510  22.804  28.192  1.00  0.00    -0.274 OA
ATOM      8  H   UNL A   1      33.635  21.016  27.070  1.00  0.00     0.163 HD
BRANCH   6   9
ATOM      9  C   UNL A   1      31.103  23.153  26.245  1.00  0.00     0.105 C 
ATOM     10  C   UNL A   1      29.775  23.045  27.011  1.00  0.00     0.023 C 
BRANCH   9  11
ATOM     11  C   UNL A   1      31.619  24.524  25.799  1.00  0.00    -0.035 A 
ATOM     12  C   UNL A   1      33.810  28.921  26.877  1.00  0.00     0.119 A 
ATOM     13  C   UNL A   1      32.544  28.967  27.456  1.00  0.00     0.047 A 
ATOM     14  C   UNL A   1      34.132  27.878  26.005  1.00  0.00     0.055 A 
ATOM     15  C   UNL A   1      31.621  27.950  27.199  1.00  0.00     0.012 A 
ATOM     16  C   UNL A   1      33.238  26.820  25.786  1.00  0.00    -0.015 A 
ATOM     17  C   UNL A   1      31.970  26.850  26.402  1.00  0.00    -0.018 A 
ATOM     18  C   UNL A   1      33.606  25.697  25.036  1.00  0.00     0.009 A 
ATOM     19  C   UNL A   1      31.130  25.730  26.319  1.00  0.00     0.013 A 
ATOM     20  C   UNL A   1      32.813  24.551  25.060  1.00  0.00     0.005 A 
BRANCH  12  21
ATOM     21  O   UNL A   1      34.805  29.838  27.072  1.00  0.00    -0.497 OA
ATOM     22  C   UNL A   1      35.414  29.841  28.361  1.00  0.00     0.278 C 
ENDBRANCH  12  21
ENDBRANCH   9  11
ENDBRANCH   6   9
ENDBRANCH   4   5
ENDBRANCH   3   4
ENDBRANCH   2   3
ENDBRANCH   1   2
BRANCH   1  23
ATOM     23  C   UNL A   1      36.353  23.357  24.751  1.00  0.00     0.021 C 
BRANCH  23  24
ATOM     24  C   UNL A   1      37.162  23.369  26.044  1.00  0.00     0.116 C 
BRANCH  24  25
ATOM     25  N   UNL A   1      38.092  22.256  26.130  1.00  0.00    -0.352 N 
ATOM     26  C   UNL A   1      39.439  22.263  26.392  1.00  0.00     0.251 C 
ATOM     27  H   UNL A   1      37.699  21.367  25.978  1.00  0.00     0.163 HD
ATOM     28  O   UNL A   1      40.093  21.230  26.258  1.00  0.00    -0.269 OA
BRANCH  26  29
ATOM     29  C   UNL A   1      40.106  23.514  26.809  1.00  0.00     0.039 A 
ATOM     30  C   UNL A   1      40.139  24.589  25.916  1.00  0.00     0.014 A 
ATOM     31  C   UNL A   1      40.701  23.629  28.068  1.00  0.00     0.014 A 
ATOM     32  C   UNL A   1      40.724  25.795  26.309  1.00  0.00     0.010 A 
ATOM     33  C   UNL A   1      41.210  24.856  28.486  1.00  0.00     0.010 A 
ATOM     34  C   UNL A   1      41.237  25.949  27.609  1.00  0.00    -0.014 A 
BRANCH  34  35
ATOM     35  C   UNL A   1      41.800  27.248  28.056  1.00  0.00     0.031 A 
ATOM     36  C   UNL A   1      43.287  27.480  28.045  1.00  0.00     0.074 A 
ATOM     37  C   UNL A   1      40.974  28.205  28.524  1.00  0.00     0.049 A 
ATOM     38  N   UNL A   1      43.958  28.542  28.411  1.00  0.00    -0.248 NA
ATOM     39  C   UNL A   1      44.131  26.363  27.592  1.00  0.00     0.031 C 
ATOM     40  C   UNL A   1      39.520  28.082  28.644  1.00  0.00     0.029 A 
ATOM     41  N   UNL A   1      41.240  29.467  28.994  1.00  0.00    -0.354 N 
ATOM     42  C   UNL A   1      45.300  28.218  28.242  1.00  0.00     0.074 A 
ATOM     43  C   UNL A   1      45.348  26.840  27.806  1.00  0.00     0.031 C 
ATOM     44  C   UNL A   1      39.020  29.230  29.128  1.00  0.00     0.029 A 
ATOM     45  C   UNL A   1      40.118  30.155  29.391  1.00  0.00     0.049 A 
ATOM     46  H   UNL A   1      42.148  29.844  29.041  1.00  0.00     0.167 HD
ATOM     47  C   UNL A   1      46.393  29.002  28.410  1.00  0.00     0.031 A 
ATOM     48  C   UNL A   1      39.983  31.388  29.917  1.00  0.00     0.031 A 
ATOM     49  C   UNL A   1      46.340  30.370  28.854  1.00  0.00     0.049 A 
ATOM     50  C   UNL A   1      41.205  32.243  30.101  1.00  0.00     0.074 A 
ATOM     51  C   UNL A   1      47.381  31.268  29.006  1.00  0.00     0.029 A 
ATOM     52  N   UNL A   1      45.182  31.036  29.231  1.00  0.00    -0.354 N 
ATOM     53  N   UNL A   1      42.459  31.950  29.853  1.00  0.00    -0.248 NA
ATOM     54  C   UNL A   1      40.992  33.602  30.618  1.00  0.00     0.031 C 
ATOM     55  C   UNL A   1      46.862  32.454  29.536  1.00  0.00     0.029 A 
ATOM     56  C   UNL A   1      45.487  32.322  29.645  1.00  0.00     0.049 A 
ATOM     57  H   UNL A   1      44.276  30.651  29.207  1.00  0.00     0.167 HD
ATOM     58  C   UNL A   1      43.186  33.093  30.166  1.00  0.00     0.074 A 
ATOM     59  C   UNL A   1      42.226  34.089  30.602  1.00  0.00     0.031 C 
ATOM     60  C   UNL A   1      44.524  33.300  30.096  1.00  0.00     0.031 A 
BRANCH  47  61
ATOM     61  C   UNL A   1      47.737  28.378  28.129  1.00  0.00    -0.014 A 
ATOM     62  C   UNL A   1      48.316  28.438  26.847  1.00  0.00     0.010 A 
ATOM     63  C   UNL A   1      48.432  27.716  29.158  1.00  0.00     0.010 A 
ATOM     64  C   UNL A   1      49.524  27.787  26.582  1.00  0.00     0.020 A 
ATOM     65  C   UNL A   1      49.659  27.094  28.906  1.00  0.00     0.020 A 
ATOM     66  C   UNL A   1      50.183  27.110  27.613  1.00  0.00     0.054 A 
BRANCH  66  67
ATOM     67  S   UNL A   1      51.735  26.251  27.234  1.00  0.00     0.124 S 
ATOM     68  O   UNL A   1      51.266  24.897  26.950  1.00  0.00    -0.237 OA
ATOM     69  O   UNL A   1      52.240  26.994  26.084  1.00  0.00    -0.237 OA
ATOM     70  O   UNL A   1      52.518  26.394  28.459  1.00  0.00    -0.744 OA
ENDBRANCH  66  67
ENDBRANCH  47  61
BRANCH  48  71
ATOM     71  C   UNL A   1      38.628  31.873  30.292  1.00  0.00    -0.014 A 
ATOM     72  C   UNL A   1      38.111  31.647  31.580  1.00  0.00     0.010 A 
ATOM     73  C   UNL A   1      37.872  32.628  29.375  1.00  0.00     0.010 A 
ATOM     74  C   UNL A   1      36.865  32.169  31.943  1.00  0.00     0.020 A 
ATOM     75  C   UNL A   1      36.641  33.174  29.745  1.00  0.00     0.020 A 
ATOM     76  C   UNL A   1      36.143  32.939  31.026  1.00  0.00     0.054 A 
BRANCH  76  77
ATOM     77  S   UNL A   1      34.577  33.688  31.555  1.00  0.00     0.124 S 
ATOM     78  O   UNL A   1      34.013  32.645  32.404  1.00  0.00    -0.237 OA
ATOM     79  O   UNL A   1      35.024  34.896  32.244  1.00  0.00    -0.237 OA
ATOM     80  O   UNL A   1      33.871  33.923  30.297  1.00  0.00    -0.744 OA
ENDBRANCH  76  77
ENDBRANCH  48  71
BRANCH  60  81
ATOM     81  C   UNL A   1      45.038  34.662  30.481  1.00  0.00    -0.014 A 
ATOM     82  C   UNL A   1      45.424  34.953  31.801  1.00  0.00     0.010 A 
ATOM     83  C   UNL A   1      45.190  35.651  29.491  1.00  0.00     0.010 A 
ATOM     84  C   UNL A   1      45.924  36.216  32.131  1.00  0.00     0.020 A 
ATOM     85  C   UNL A   1      45.718  36.906  29.810  1.00  0.00     0.020 A 
ATOM     86  C   UNL A   1      46.069  37.184  31.132  1.00  0.00     0.054 A 
BRANCH  86  87
ATOM     87  S   UNL A   1      46.762  38.800  31.577  1.00  0.00     0.124 S 
ATOM     88  O   UNL A   1      48.177  38.486  31.754  1.00  0.00    -0.237 OA
ATOM     89  O   UNL A   1      46.441  39.618  30.409  1.00  0.00    -0.237 OA
ATOM     90  O   UNL A   1      46.046  39.160  32.799  1.00  0.00    -0.744 OA
ENDBRANCH  86  87
ENDBRANCH  60  81
ENDBRANCH  34  35
ENDBRANCH  26  29
ENDBRANCH  24  25
ENDBRANCH  23  24
ENDBRANCH   1  23
TORSDOF 18
ENDMDL
MODEL 2
REMARK VINA RESULT:     -10.2      4.391      9.516
REMARK SMILES COc1ccc2cc([C@H](C)C(=O)NCCCCCCNC(=O)c3ccc(-c4c5nc(c(-c6ccc(S(=O)(=O)[O-])cc6)c6ccc([nH]6)c(-c6ccc(S(=O)(=O)[O-])cc6)c6nc(c(-c7ccc(S(=O)(=O)[O-])cc7)c7ccc4[nH]7)C=C6)C=C5)cc3)ccc2c1
REMARK SMILES IDX 17 1 16 2 15 3 14 4 13 5 11 6 12 7 9 9 10 10 8 11 3 12 4 13
REMARK SMILES IDX 86 14 5 15 85 16 6 17 84 18 7 19 83 20 2 21 1 22 18 23 19 24
REMARK SMILES IDX 20 25 21 26 22 28 23 29 24 30 82 31 25 32 81 33 26 34 27 35
REMARK SMILES IDX 28 36 75 37 29 38 80 39 74 40 76 41 30 42 79 43 73 44 72 45
REMARK SMILES IDX 31 47 61 48 42 49 60 50 43 51 46 52 59 53 77 54 44 55 45 56
REMARK SMILES IDX 58 58 78 59 47 60 32 61 33 62 41 63 34 64 40 65 35 66 36 67
REMARK SMILES IDX 37 68 38 69 39 70 62 71 63 72 71 73 64 74 70 75 65 76 66 77
REMARK SMILES IDX 67 78 68 79 69 80 48 81 49 82 57 83 50 84 56 85 51 86 52 87
REMARK SMILES IDX 53 88 54 89 55 90
REMARK H PARENT 13 8 20 27 76 46 46 57
REMARK Flexibility Score: inf
ROOT
ATOM      1  C   UNL A   1      32.833  26.941  25.683  1.00  0.00     0.002 C 
ENDROOT
BRANCH   1   2
ATOM      2  C   UNL A   1      33.331  25.507  25.896  1.00  0.00     0.002 C 
BRANCH   2   3
ATOM      3  C   UNL A   1      32.353  24.565  26.597  1.00  0.00     0.021 C 
BRANCH   3   4
ATOM      4  C   UNL A   1      32.717  23.091  26.509  1.00  0.00     0.116 C 
BRANCH   4   5
ATOM      5  N   UNL A   1      33.990  22.844  25.861  1.00  0.00    -0.356 N 
ATOM      6  C   UNL A   1      34.226  22.278  24.633  1.00  0.00     0.227 C 
ATOM      7  O   UNL A   1      35.390  22.242  24.222  1.00  0.00    -0.274 OA
ATOM      8  H   UNL A   1      34.789  23.117  26.366  1.00  0.00     0.163 HD
BRANCH   6   9
ATOM      9  C   UNL A   1      33.064  21.704  23.780  1.00  0.00     0.105 C 
ATOM     10  C   UNL A   1      32.226  20.750  24.646  1.00  0.00     0.023 C 
BRANCH   9  11
ATOM     11  C   UNL A   1      32.383  22.853  23.031  1.00  0.00    -0.035 A 
ATOM     12  C   UNL A   1      30.505  27.519  22.977  1.00  0.00     0.119 A 
ATOM     13  C   UNL A   1      29.623  26.755  23.739  1.00  0.00     0.047 A 
ATOM     14  C   UNL A   1      31.518  26.885  22.254  1.00  0.00     0.055 A 
ATOM     15  C   UNL A   1      29.783  25.368  23.812  1.00  0.00     0.012 A 
ATOM     16  C   UNL A   1      31.727  25.503  22.366  1.00  0.00    -0.015 A 
ATOM     17  C   UNL A   1      30.856  24.736  23.166  1.00  0.00    -0.018 A 
ATOM     18  C   UNL A   1      32.828  24.881  21.766  1.00  0.00     0.009 A 
ATOM     19  C   UNL A   1      31.145  23.386  23.412  1.00  0.00     0.013 A 
ATOM     20  C   UNL A   1      33.165  23.574  22.113  1.00  0.00     0.005 A 
BRANCH  12  21
ATOM     21  O   UNL A   1      30.468  28.880  22.850  1.00  0.00    -0.497 OA
ATOM     22  C   UNL A   1      29.265  29.429  22.318  1.00  0.00     0.278 C 
ENDBRANCH  12  21
ENDBRANCH   9  11
ENDBRANCH   6   9
ENDBRANCH   4   5
ENDBRANCH   3   4
ENDBRANCH   2   3
ENDBRANCH   1   2
BRANCH   1  23
ATOM     23  C   UNL A   1      33.328  27.977  26.696  1.00  0.00     0.021 C 
BRANCH  23  24
ATOM     24  C   UNL A   1      34.177  29.103  26.114  1.00  0.00     0.116 C 
BRANCH  24  25
ATOM     25  N   UNL A   1      33.839  30.402  26.672  1.00  0.00    -0.352 N 
ATOM     26  C   UNL A   1      34.439  31.095  27.692  1.00  0.00     0.251 C 
ATOM     27  H   UNL A   1      33.067  30.850  26.257  1.00  0.00     0.163 HD
ATOM     28  O   UNL A   1      33.906  32.111  28.136  1.00  0.00    -0.269 OA
BRANCH  26  29
ATOM     29  C   UNL A   1      35.708  30.609  28.272  1.00  0.00     0.039 A 
ATOM     30  C   UNL A   1      36.909  31.163  27.822  1.00  0.00     0.014 A 
ATOM     31  C   UNL A   1      35.719  29.611  29.250  1.00  0.00     0.014 A 
ATOM     32  C   UNL A   1      38.116  30.750  28.390  1.00  0.00     0.010 A 
ATOM     33  C   UNL A   1      36.915  29.261  29.873  1.00  0.00     0.010 A 
ATOM     34  C   UNL A   1      38.127  29.819  29.443  1.00  0.00    -0.014 A 
BRANCH  34  35
ATOM     35  C   UNL A   1      39.400  29.425  30.098  1.00  0.00     0.031 A 
ATOM     36  C   UNL A   1      39.910  30.182  31.294  1.00  0.00     0.074 A 
ATOM     37  C   UNL A   1      40.128  28.414  29.583  1.00  0.00     0.049 A 
ATOM     38  N   UNL A   1      41.004  29.991  31.986  1.00  0.00    -0.248 NA
ATOM     39  C   UNL A   1      39.100  31.321  31.754  1.00  0.00     0.031 C 
ATOM     40  C   UNL A   1      39.775  27.639  28.391  1.00  0.00     0.029 A 
ATOM     41  N   UNL A   1      41.320  27.869  29.991  1.00  0.00    -0.354 N 
ATOM     42  C   UNL A   1      41.018  30.988  32.955  1.00  0.00     0.074 A 
ATOM     43  C   UNL A   1      39.860  31.821  32.717  1.00  0.00     0.031 C 
ATOM     44  C   UNL A   1      40.714  26.704  28.181  1.00  0.00     0.029 A 
ATOM     45  C   UNL A   1      41.755  26.836  29.195  1.00  0.00     0.049 A 
ATOM     46  H   UNL A   1      41.815  28.186  30.780  1.00  0.00     0.167 HD
ATOM     47  C   UNL A   1      41.900  31.181  33.966  1.00  0.00     0.031 A 
ATOM     48  C   UNL A   1      42.870  26.082  29.264  1.00  0.00     0.031 A 
ATOM     49  C   UNL A   1      43.057  30.355  34.191  1.00  0.00     0.049 A 
ATOM     50  C   UNL A   1      43.840  26.311  30.388  1.00  0.00     0.074 A 
ATOM     51  C   UNL A   1      43.984  30.431  35.216  1.00  0.00     0.029 A 
ATOM     52  N   UNL A   1      43.454  29.308  33.372  1.00  0.00    -0.354 N 
ATOM     53  N   UNL A   1      43.792  27.205  31.347  1.00  0.00    -0.248 NA
ATOM     54  C   UNL A   1      45.005  25.419  30.451  1.00  0.00     0.031 C 
ATOM     55  C   UNL A   1      44.976  29.473  34.980  1.00  0.00     0.029 A 
ATOM     56  C   UNL A   1      44.629  28.750  33.849  1.00  0.00     0.049 A 
ATOM     57  H   UNL A   1      42.972  29.005  32.569  1.00  0.00     0.167 HD
ATOM     58  C   UNL A   1      44.910  26.972  32.140  1.00  0.00     0.074 A 
ATOM     59  C   UNL A   1      45.604  25.839  31.558  1.00  0.00     0.031 C 
ATOM     60  C   UNL A   1      45.322  27.634  33.250  1.00  0.00     0.031 A 
BRANCH  47  61
ATOM     61  C   UNL A   1      41.647  32.349  34.887  1.00  0.00    -0.014 A 
ATOM     62  C   UNL A   1      42.259  33.598  34.667  1.00  0.00     0.010 A 
ATOM     63  C   UNL A   1      40.791  32.197  35.993  1.00  0.00     0.010 A 
ATOM     64  C   UNL A   1      42.080  34.647  35.574  1.00  0.00     0.020 A 
ATOM     65  C   UNL A   1      40.579  33.254  36.882  1.00  0.00     0.020 A 
ATOM     66  C   UNL A   1      41.247  34.464  36.682  1.00  0.00     0.054 A 
BRANCH  66  67
ATOM     67  S   UNL A   1      41.053  35.832  37.857  1.00  0.00     0.124 S 
ATOM     68  O   UNL A   1      39.998  36.621  37.227  1.00  0.00    -0.237 OA
ATOM     69  O   UNL A   1      40.675  35.146  39.089  1.00  0.00    -0.237 OA
ATOM     70  O   UNL A   1      42.372  36.461  37.877  1.00  0.00    -0.744 OA
ENDBRANCH  66  67
ENDBRANCH  47  61
BRANCH  48  71
ATOM     71  C   UNL A   1      43.106  25.038  28.231  1.00  0.00    -0.014 A 
ATOM     72  C   UNL A   1      43.917  25.298  27.113  1.00  0.00     0.010 A 
ATOM     73  C   UNL A   1      42.568  23.748  28.400  1.00  0.00     0.010 A 
ATOM     74  C   UNL A   1      44.188  24.287  26.185  1.00  0.00     0.020 A 
ATOM     75  C   UNL A   1      42.861  22.729  27.490  1.00  0.00     0.020 A 
ATOM     76  C   UNL A   1      43.667  23.005  26.387  1.00  0.00     0.054 A 
BRANCH  76  77
ATOM     77  S   UNL A   1      44.115  21.686  25.224  1.00  0.00     0.124 S 
ATOM     78  O   UNL A   1      43.114  20.667  25.520  1.00  0.00    -0.237 OA
ATOM     79  O   UNL A   1      43.982  22.351  23.930  1.00  0.00    -0.237 OA
ATOM     80  O   UNL A   1      45.486  21.349  25.603  1.00  0.00    -0.744 OA
ENDBRANCH  76  77
ENDBRANCH  48  71
BRANCH  60  81
ATOM     81  C   UNL A   1      46.574  27.142  33.927  1.00  0.00    -0.014 A 
ATOM     82  C   UNL A   1      47.831  27.705  33.641  1.00  0.00     0.010 A 
ATOM     83  C   UNL A   1      46.484  26.138  34.908  1.00  0.00     0.010 A 
ATOM     84  C   UNL A   1      48.977  27.252  34.300  1.00  0.00     0.020 A 
ATOM     85  C   UNL A   1      47.622  25.703  35.593  1.00  0.00     0.020 A 
ATOM     86  C   UNL A   1      48.863  26.254  35.274  1.00  0.00     0.054 A 
BRANCH  86  87
ATOM     87  S   UNL A   1      50.359  25.715  36.148  1.00  0.00     0.124 S 
ATOM     88  O   UNL A   1      50.341  26.566  37.335  1.00  0.00    -0.237 OA
ATOM     89  O   UNL A   1      50.097  24.298  36.387  1.00  0.00    -0.237 OA
ATOM     90  O   UNL A   1      51.435  25.993  35.199  1.00  0.00    -0.744 OA
ENDBRANCH  86  87
ENDBRANCH  60  81
ENDBRANCH  34  35
ENDBRANCH  26  29
ENDBRANCH  24  25
ENDBRANCH  23  24
ENDBRANCH   1  23
TORSDOF 18
ENDMDL
MODEL 3
REMARK VINA RESULT:     -10.2      3.161      8.982
REMARK SMILES COc1ccc2cc([C@H](C)C(=O)NCCCCCCNC(=O)c3ccc(-c4c5nc(c(-c6ccc(S(=O)(=O)[O-])cc6)c6ccc([nH]6)c(-c6ccc(S(=O)(=O)[O-])cc6)c6nc(c(-c7ccc(S(=O)(=O)[O-])cc7)c7ccc4[nH]7)C=C6)C=C5)cc3)ccc2c1
REMARK SMILES IDX 17 1 16 2 15 3 14 4 13 5 11 6 12 7 9 9 10 10 8 11 3 12 4 13
REMARK SMILES IDX 86 14 5 15 85 16 6 17 84 18 7 19 83 20 2 21 1 22 18 23 19 24
REMARK SMILES IDX 20 25 21 26 22 28 23 29 24 30 82 31 25 32 81 33 26 34 27 35
REMARK SMILES IDX 28 36 75 37 29 38 80 39 74 40 76 41 30 42 79 43 73 44 72 45
REMARK SMILES IDX 31 47 61 48 42 49 60 50 43 51 46 52 59 53 77 54 44 55 45 56
REMARK SMILES IDX 58 58 78 59 47 60 32 61 33 62 41 63 34 64 40 65 35 66 36 67
REMARK SMILES IDX 37 68 38 69 39 70 62 71 63 72 71 73 64 74 70 75 65 76 66 77
REMARK SMILES IDX 67 78 68 79 69 80 48 81 49 82 57 83 50 84 56 85 51 86 52 87
REMARK SMILES IDX 53 88 54 89 55 90
REMARK H PARENT 13 8 20 27 76 46 46 57
REMARK Flexibility Score: inf
ROOT
ATOM      1  C   UNL A   1      31.858  27.695  26.475  1.00  0.00     0.002 C 
ENDROOT
BRANCH   1   2
ATOM      2  C   UNL A   1      31.115  26.417  26.884  1.00  0.00     0.002 C 
BRANCH   2   3
ATOM      3  C   UNL A   1      30.453  25.645  25.744  1.00  0.00     0.021 C 
BRANCH   3   4
ATOM      4  C   UNL A   1      31.137  24.336  25.382  1.00  0.00     0.116 C 
BRANCH   4   5
ATOM      5  N   UNL A   1      32.571  24.349  25.600  1.00  0.00    -0.356 N 
ATOM      6  C   UNL A   1      33.575  24.389  24.666  1.00  0.00     0.227 C 
ATOM      7  O   UNL A   1      34.740  24.488  25.066  1.00  0.00    -0.274 OA
ATOM      8  H   UNL A   1      32.862  24.328  26.540  1.00  0.00     0.163 HD
BRANCH   6   9
ATOM      9  C   UNL A   1      33.260  24.317  23.149  1.00  0.00     0.105 C 
ATOM     10  C   UNL A   1      32.456  23.040  22.861  1.00  0.00     0.023 C 
BRANCH   9  11
ATOM     11  C   UNL A   1      32.727  25.676  22.687  1.00  0.00    -0.035 A 
ATOM     12  C   UNL A   1      29.822  29.710  23.451  1.00  0.00     0.119 A 
ATOM     13  C   UNL A   1      28.955  28.654  23.180  1.00  0.00     0.047 A 
ATOM     14  C   UNL A   1      31.196  29.540  23.262  1.00  0.00     0.055 A 
ATOM     15  C   UNL A   1      29.464  27.421  22.765  1.00  0.00     0.012 A 
ATOM     16  C   UNL A   1      31.725  28.292  22.904  1.00  0.00    -0.015 A 
ATOM     17  C   UNL A   1      30.848  27.214  22.666  1.00  0.00    -0.018 A 
ATOM     18  C   UNL A   1      33.106  28.071  22.858  1.00  0.00     0.009 A 
ATOM     19  C   UNL A   1      31.367  25.927  22.463  1.00  0.00     0.013 A 
ATOM     20  C   UNL A   1      33.602  26.771  22.773  1.00  0.00     0.005 A 
BRANCH  12  21
ATOM     21  O   UNL A   1      29.448  30.951  23.888  1.00  0.00    -0.497 OA
ATOM     22  C   UNL A   1      28.121  31.358  23.564  1.00  0.00     0.278 C 
ENDBRANCH  12  21
ENDBRANCH   9  11
ENDBRANCH   6   9
ENDBRANCH   4   5
ENDBRANCH   3   4
ENDBRANCH   2   3
ENDBRANCH   1   2
BRANCH   1  23
ATOM     23  C   UNL A   1      33.377  27.673  26.661  1.00  0.00     0.021 C 
BRANCH  23  24
ATOM     24  C   UNL A   1      34.118  28.891  26.117  1.00  0.00     0.116 C 
BRANCH  24  25
ATOM     25  N   UNL A   1      33.860  30.092  26.893  1.00  0.00    -0.352 N 
ATOM     26  C   UNL A   1      34.607  30.661  27.894  1.00  0.00     0.251 C 
ATOM     27  H   UNL A   1      33.028  30.568  26.668  1.00  0.00     0.163 HD
ATOM     28  O   UNL A   1      34.142  31.591  28.550  1.00  0.00    -0.269 OA
BRANCH  26  29
ATOM     29  C   UNL A   1      35.956  30.141  28.198  1.00  0.00     0.039 A 
ATOM     30  C   UNL A   1      36.943  30.211  27.211  1.00  0.00     0.014 A 
ATOM     31  C   UNL A   1      36.250  29.581  29.444  1.00  0.00     0.014 A 
ATOM     32  C   UNL A   1      38.236  29.767  27.494  1.00  0.00     0.010 A 
ATOM     33  C   UNL A   1      37.558  29.217  29.751  1.00  0.00     0.010 A 
ATOM     34  C   UNL A   1      38.563  29.295  28.777  1.00  0.00    -0.014 A 
BRANCH  34  35
ATOM     35  C   UNL A   1      39.952  28.884  29.106  1.00  0.00     0.031 A 
ATOM     36  C   UNL A   1      40.900  29.854  29.758  1.00  0.00     0.074 A 
ATOM     37  C   UNL A   1      40.377  27.651  28.770  1.00  0.00     0.049 A 
ATOM     38  N   UNL A   1      42.150  29.676  30.106  1.00  0.00    -0.248 NA
ATOM     39  C   UNL A   1      40.389  31.206  30.027  1.00  0.00     0.031 C 
ATOM     40  C   UNL A   1      39.575  26.638  28.080  1.00  0.00     0.029 A 
ATOM     41  N   UNL A   1      41.592  27.040  28.955  1.00  0.00    -0.354 N 
ATOM     42  C   UNL A   1      42.574  30.895  30.625  1.00  0.00     0.074 A 
ATOM     43  C   UNL A   1      41.471  31.819  30.482  1.00  0.00     0.031 C 
ATOM     44  C   UNL A   1      40.309  25.526  27.925  1.00  0.00     0.029 A 
ATOM     45  C   UNL A   1      41.646  25.757  28.466  1.00  0.00     0.049 A 
ATOM     46  H   UNL A   1      42.354  27.479  29.399  1.00  0.00     0.167 HD
ATOM     47  C   UNL A   1      43.765  31.211  31.190  1.00  0.00     0.031 A 
ATOM     48  C   UNL A   1      42.655  24.865  28.444  1.00  0.00     0.031 A 
ATOM     49  C   UNL A   1      44.863  30.290  31.319  1.00  0.00     0.049 A 
ATOM     50  C   UNL A   1      43.970  25.232  29.071  1.00  0.00     0.074 A 
ATOM     51  C   UNL A   1      46.091  30.492  31.923  1.00  0.00     0.029 A 
ATOM     52  N   UNL A   1      44.871  28.993  30.825  1.00  0.00    -0.354 N 
ATOM     53  N   UNL A   1      44.325  26.361  29.635  1.00  0.00    -0.248 NA
ATOM     54  C   UNL A   1      45.015  24.199  29.076  1.00  0.00     0.031 C 
ATOM     55  C   UNL A   1      46.865  29.342  31.736  1.00  0.00     0.029 A 
ATOM     56  C   UNL A   1      46.094  28.394  31.081  1.00  0.00     0.049 A 
ATOM     57  H   UNL A   1      44.118  28.561  30.360  1.00  0.00     0.167 HD
ATOM     58  C   UNL A   1      45.629  26.171  30.080  1.00  0.00     0.074 A 
ATOM     59  C   UNL A   1      45.990  24.810  29.735  1.00  0.00     0.031 C 
ATOM     60  C   UNL A   1      46.449  27.043  30.717  1.00  0.00     0.031 A 
BRANCH  47  61
ATOM     61  C   UNL A   1      43.936  32.624  31.689  1.00  0.00    -0.014 A 
ATOM     62  C   UNL A   1      44.441  33.638  30.853  1.00  0.00     0.010 A 
ATOM     63  C   UNL A   1      43.594  32.945  33.016  1.00  0.00     0.010 A 
ATOM     64  C   UNL A   1      44.670  34.923  31.354  1.00  0.00     0.020 A 
ATOM     65  C   UNL A   1      43.786  34.238  33.510  1.00  0.00     0.020 A 
ATOM     66  C   UNL A   1      44.350  35.212  32.683  1.00  0.00     0.054 A 
BRANCH  66  67
ATOM     67  S   UNL A   1      44.683  36.880  33.314  1.00  0.00     0.124 S 
ATOM     68  O   UNL A   1      46.016  37.142  32.779  1.00  0.00    -0.237 OA
ATOM     69  O   UNL A   1      43.603  37.667  32.724  1.00  0.00    -0.237 OA
ATOM     70  O   UNL A   1      44.614  36.722  34.765  1.00  0.00    -0.744 OA
ENDBRANCH  66  67
ENDBRANCH  47  61
BRANCH  48  71
ATOM     71  C   UNL A   1      42.438  23.537  27.808  1.00  0.00    -0.014 A 
ATOM     72  C   UNL A   1      42.783  23.316  26.463  1.00  0.00     0.010 A 
ATOM     73  C   UNL A   1      41.944  22.464  28.572  1.00  0.00     0.010 A 
ATOM     74  C   UNL A   1      42.640  22.045  25.896  1.00  0.00     0.020 A 
ATOM     75  C   UNL A   1      41.827  21.187  28.017  1.00  0.00     0.020 A 
ATOM     76  C   UNL A   1      42.174  20.986  26.681  1.00  0.00     0.054 A 
BRANCH  76  77
ATOM     77  S   UNL A   1      42.092  19.327  25.951  1.00  0.00     0.124 S 
ATOM     78  O   UNL A   1      42.617  18.495  27.029  1.00  0.00    -0.237 OA
ATOM     79  O   UNL A   1      40.666  19.177  25.671  1.00  0.00    -0.237 OA
ATOM     80  O   UNL A   1      42.944  19.432  24.769  1.00  0.00    -0.744 OA
ENDBRANCH  76  77
ENDBRANCH  48  71
BRANCH  60  81
ATOM     81  C   UNL A   1      47.819  26.551  31.105  1.00  0.00    -0.014 A 
ATOM     82  C   UNL A   1      48.918  26.682  30.237  1.00  0.00     0.010 A 
ATOM     83  C   UNL A   1      48.021  25.998  32.383  1.00  0.00     0.010 A 
ATOM     84  C   UNL A   1      50.185  26.243  30.628  1.00  0.00     0.020 A 
ATOM     85  C   UNL A   1      49.293  25.587  32.791  1.00  0.00     0.020 A 
ATOM     86  C   UNL A   1      50.364  25.699  31.904  1.00  0.00     0.054 A 
BRANCH  86  87
ATOM     87  S   UNL A   1      52.029  25.178  32.405  1.00  0.00     0.124 S 
ATOM     88  O   UNL A   1      51.890  23.724  32.455  1.00  0.00    -0.237 OA
ATOM     89  O   UNL A   1      52.864  25.692  31.322  1.00  0.00    -0.237 OA
ATOM     90  O   UNL A   1      52.223  25.830  33.698  1.00  0.00    -0.744 OA
ENDBRANCH  86  87
ENDBRANCH  60  81
ENDBRANCH  34  35
ENDBRANCH  26  29
ENDBRANCH  24  25
ENDBRANCH  23  24
ENDBRANCH   1  23
TORSDOF 18
ENDMDL
