MODEL 1
REMARK VINA RESULT:     -11.6      0.000      0.000
REMARK SMILES CC(C)C(=O)Nc1ccc2c([C@@H](C(=O)NCCCCCCNC(=O)c3ccc(-c4c5nc(c(-c6ccc(S(=O)(=O)[O-])cc6)c6ccc([nH]6)c(-c6ccc(S(=O)(=O)[O-])cc6)c6nc(c(-c7ccc(S(=O)(=O)[O-])cc7)c7ccc4[nH]7)C=C6)C=C5)cc3)[NH+]3CC[NH+](Cc4ccccc4)CC3)c[nH]c2c1
REMARK SMILES IDX 18 1 17 2 16 3 15 4 13 5 14 6 12 8 11 9 7 10 8 11 101 12
REMARK SMILES IDX 9 13 100 14 10 15 99 16 98 17 6 19 4 20 5 21 2 23 1 24 3 25
REMARK SMILES IDX 85 26 86 27 97 28 87 30 96 31 88 32 89 34 90 35 91 36 95 37
REMARK SMILES IDX 92 38 94 39 93 40 19 41 20 42 21 43 22 44 23 45 24 47 25 48
REMARK SMILES IDX 26 49 84 50 27 51 83 52 28 53 29 54 30 55 77 56 31 57 82 58
REMARK SMILES IDX 76 59 78 60 32 61 81 62 75 63 74 64 33 66 63 67 44 68 62 69
REMARK SMILES IDX 45 70 48 71 61 72 79 73 46 74 47 75 60 77 80 78 49 79 34 80
REMARK SMILES IDX 35 81 43 82 36 83 42 84 37 85 38 86 39 87 40 88 41 89 64 90
REMARK SMILES IDX 65 91 73 92 66 93 72 94 67 95 68 96 69 97 70 98 71 99 50 100
REMARK SMILES IDX 51 101 59 102 52 103 58 104 53 105 54 106 55 107 56 108
REMARK SMILES IDX 57 109
REMARK H PARENT 15 7 99 18 6 22 85 29 88 33 22 46 78 65 48 76
REMARK Flexibility Score: inf
ROOT
ATOM      1  C   UNL A   1      31.115  27.388  26.585  1.00  0.00     0.002 C 
ENDROOT
BRANCH   1   2
ATOM      2  C   UNL A   1      31.166  26.909  25.131  1.00  0.00     0.021 C 
BRANCH   2   3
ATOM      3  C   UNL A   1      30.122  25.843  24.810  1.00  0.00     0.116 C 
BRANCH   3   4
ATOM      4  N   UNL A   1      30.326  24.670  25.624  1.00  0.00    -0.351 N 
ATOM      5  C   UNL A   1      30.993  23.517  25.317  1.00  0.00     0.283 C 
ATOM      6  O   UNL A   1      30.879  22.607  26.149  1.00  0.00    -0.268 OA
ATOM      7  H   UNL A   1      29.929  24.705  26.524  1.00  0.00     0.163 HD
BRANCH   5   8
ATOM      8  C   UNL A   1      31.930  23.450  24.066  1.00  0.00     0.308 C 
BRANCH   8   9
ATOM      9  C   UNL A   1      32.013  22.111  23.364  1.00  0.00     0.044 A 
ATOM     10  C   UNL A   1      32.410  18.163  24.752  1.00  0.00     0.043 A 
ATOM     11  C   UNL A   1      32.768  19.155  25.653  1.00  0.00     0.027 A 
ATOM     12  C   UNL A   1      32.176  18.477  23.410  1.00  0.00     0.052 A 
ATOM     13  C   UNL A   1      32.646  20.501  25.322  1.00  0.00     0.013 A 
ATOM     14  C   UNL A   1      32.113  19.838  23.073  1.00  0.00     0.048 A 
ATOM     15  C   UNL A   1      32.275  20.855  24.012  1.00  0.00     0.009 A 
ATOM     16  N   UNL A   1      31.867  20.448  21.868  1.00  0.00    -0.361 N 
ATOM     17  C   UNL A   1      31.851  21.809  22.022  1.00  0.00     0.094 A 
ATOM     18  H   UNL A   1      31.723  19.976  21.017  1.00  0.00     0.166 HD
BRANCH  10  19
ATOM     19  N   UNL A   1      32.281  16.836  25.169  1.00  0.00    -0.326 N 
ATOM     20  C   UNL A   1      33.084  15.758  24.911  1.00  0.00     0.226 C 
ATOM     21  O   UNL A   1      32.656  14.642  25.229  1.00  0.00    -0.274 OA
ATOM     22  H   UNL A   1      31.495  16.648  25.731  1.00  0.00     0.169 HD
BRANCH  20  23
ATOM     23  C   UNL A   1      34.525  15.882  24.377  1.00  0.00     0.072 C 
ATOM     24  C   UNL A   1      34.679  16.500  22.991  1.00  0.00     0.018 C 
ATOM     25  C   UNL A   1      35.511  16.461  25.391  1.00  0.00     0.018 C 
ENDBRANCH  20  23
ENDBRANCH  10  19
ENDBRANCH   8   9
BRANCH   8  26
ATOM     26  N   UNL A   1      33.275  23.948  24.391  1.00  0.00    -0.312 N 
ATOM     27  C   UNL A   1      33.682  23.933  25.791  1.00  0.00     0.325 C 
ATOM     28  C   UNL A   1      34.334  23.715  23.419  1.00  0.00     0.325 C 
ATOM     29  H   UNL A   1      33.094  24.942  24.250  1.00  0.00     0.349 HD
ATOM     30  C   UNL A   1      34.846  22.990  26.170  1.00  0.00     0.324 C 
ATOM     31  C   UNL A   1      35.467  22.755  23.852  1.00  0.00     0.324 C 
ATOM     32  N   UNL A   1      35.960  22.891  25.227  1.00  0.00    -0.322 N 
ATOM     33  H   UNL A   1      36.450  22.020  25.430  1.00  0.00     0.348 HD
BRANCH  32  34
ATOM     34  C   UNL A   1      37.056  23.841  25.442  1.00  0.00     0.299 C 
BRANCH  34  35
ATOM     35  C   UNL A   1      38.271  23.356  26.196  1.00  0.00     0.006 A 
ATOM     36  C   UNL A   1      38.738  22.044  26.026  1.00  0.00     0.009 A 
ATOM     37  C   UNL A   1      38.978  24.213  27.050  1.00  0.00     0.009 A 
ATOM     38  C   UNL A   1      39.929  21.632  26.626  1.00  0.00     0.001 A 
ATOM     39  C   UNL A   1      40.183  23.811  27.626  1.00  0.00     0.001 A 
ATOM     40  C   UNL A   1      40.664  22.524  27.404  1.00  0.00     0.000 A 
ENDBRANCH  34  35
ENDBRANCH  32  34
ENDBRANCH   8  26
ENDBRANCH   5   8
ENDBRANCH   3   4
ENDBRANCH   2   3
ENDBRANCH   1   2
BRANCH   1  41
ATOM     41  C   UNL A   1      32.382  28.102  27.062  1.00  0.00     0.002 C 
BRANCH  41  42
ATOM     42  C   UNL A   1      33.667  27.648  26.364  1.00  0.00     0.021 C 
BRANCH  42  43
ATOM     43  C   UNL A   1      34.767  28.701  26.338  1.00  0.00     0.116 C 
BRANCH  43  44
ATOM     44  N   UNL A   1      34.252  30.013  26.691  1.00  0.00    -0.352 N 
ATOM     45  C   UNL A   1      34.619  30.825  27.728  1.00  0.00     0.251 C 
ATOM     46  H   UNL A   1      33.544  30.364  26.104  1.00  0.00     0.163 HD
ATOM     47  O   UNL A   1      33.914  31.790  28.029  1.00  0.00    -0.269 OA
BRANCH  45  48
ATOM     48  C   UNL A   1      35.856  30.542  28.483  1.00  0.00     0.039 A 
ATOM     49  C   UNL A   1      37.016  31.253  28.169  1.00  0.00     0.014 A 
ATOM     50  C   UNL A   1      35.881  29.550  29.468  1.00  0.00     0.014 A 
ATOM     51  C   UNL A   1      38.201  30.974  28.851  1.00  0.00     0.010 A 
ATOM     52  C   UNL A   1      37.044  29.325  30.198  1.00  0.00     0.010 A 
ATOM     53  C   UNL A   1      38.222  30.012  29.873  1.00  0.00    -0.014 A 
BRANCH  53  54
ATOM     54  C   UNL A   1      39.488  29.662  30.564  1.00  0.00     0.031 A 
ATOM     55  C   UNL A   1      39.868  30.379  31.833  1.00  0.00     0.074 A 
ATOM     56  C   UNL A   1      40.305  28.730  30.038  1.00  0.00     0.049 A 
ATOM     57  N   UNL A   1      40.936  30.236  32.574  1.00  0.00    -0.248 NA
ATOM     58  C   UNL A   1      38.937  31.412  32.319  1.00  0.00     0.031 C 
ATOM     59  C   UNL A   1      40.064  27.995  28.794  1.00  0.00     0.029 A 
ATOM     60  N   UNL A   1      41.505  28.240  30.487  1.00  0.00    -0.354 N 
ATOM     61  C   UNL A   1      40.815  31.169  33.597  1.00  0.00     0.074 A 
ATOM     62  C   UNL A   1      39.598  31.911  33.353  1.00  0.00     0.031 C 
ATOM     63  C   UNL A   1      41.069  27.127  28.596  1.00  0.00     0.029 A 
ATOM     64  C   UNL A   1      42.038  27.265  29.679  1.00  0.00     0.049 A 
ATOM     65  H   UNL A   1      41.942  28.556  31.309  1.00  0.00     0.167 HD
ATOM     66  C   UNL A   1      41.630  31.376  34.658  1.00  0.00     0.031 A 
ATOM     67  C   UNL A   1      43.177  26.556  29.801  1.00  0.00     0.031 A 
ATOM     68  C   UNL A   1      42.827  30.621  34.909  1.00  0.00     0.049 A 
ATOM     69  C   UNL A   1      44.056  26.788  31.000  1.00  0.00     0.074 A 
ATOM     70  C   UNL A   1      43.698  30.715  35.981  1.00  0.00     0.029 A 
ATOM     71  N   UNL A   1      43.320  29.624  34.080  1.00  0.00    -0.354 N 
ATOM     72  N   UNL A   1      43.896  27.637  31.987  1.00  0.00    -0.248 NA
ATOM     73  C   UNL A   1      45.257  25.950  31.113  1.00  0.00     0.031 C 
ATOM     74  C   UNL A   1      44.738  29.802  35.779  1.00  0.00     0.029 A 
ATOM     75  C   UNL A   1      44.485  29.101  34.610  1.00  0.00     0.049 A 
ATOM     76  H   UNL A   1      42.900  29.331  33.239  1.00  0.00     0.167 HD
ATOM     77  C   UNL A   1      44.958  27.410  32.856  1.00  0.00     0.074 A 
ATOM     78  C   UNL A   1      45.746  26.339  32.282  1.00  0.00     0.031 C 
ATOM     79  C   UNL A   1      45.252  28.030  34.027  1.00  0.00     0.031 A 
BRANCH  66  80
ATOM     80  C   UNL A   1      41.248  32.467  35.625  1.00  0.00    -0.014 A 
ATOM     81  C   UNL A   1      41.703  33.787  35.447  1.00  0.00     0.010 A 
ATOM     82  C   UNL A   1      40.406  32.176  36.713  1.00  0.00     0.010 A 
ATOM     83  C   UNL A   1      41.363  34.784  36.365  1.00  0.00     0.020 A 
ATOM     84  C   UNL A   1      40.038  33.177  37.617  1.00  0.00     0.020 A 
ATOM     85  C   UNL A   1      40.536  34.471  37.448  1.00  0.00     0.054 A 
BRANCH  85  86
ATOM     86  S   UNL A   1      40.100  35.786  38.618  1.00  0.00     0.124 S 
ATOM     87  O   UNL A   1      39.787  36.895  37.720  1.00  0.00    -0.237 OA
ATOM     88  O   UNL A   1      38.959  35.216  39.331  1.00  0.00    -0.237 OA
ATOM     89  O   UNL A   1      41.310  35.955  39.419  1.00  0.00    -0.744 OA
ENDBRANCH  85  86
ENDBRANCH  66  80
BRANCH  67  90
ATOM     90  C   UNL A   1      43.531  25.536  28.777  1.00  0.00    -0.014 A 
ATOM     91  C   UNL A   1      43.815  25.922  27.455  1.00  0.00     0.010 A 
ATOM     92  C   UNL A   1      43.604  24.175  29.122  1.00  0.00     0.010 A 
ATOM     93  C   UNL A   1      44.142  24.964  26.491  1.00  0.00     0.020 A 
ATOM     94  C   UNL A   1      43.957  23.216  28.168  1.00  0.00     0.020 A 
ATOM     95  C   UNL A   1      44.212  23.616  26.854  1.00  0.00     0.054 A 
BRANCH  95  96
ATOM     96  S   UNL A   1      44.688  22.395  25.600  1.00  0.00     0.124 S 
ATOM     97  O   UNL A   1      43.746  21.311  25.859  1.00  0.00    -0.237 OA
ATOM     98  O   UNL A   1      44.485  23.126  24.353  1.00  0.00    -0.237 OA
ATOM     99  O   UNL A   1      46.084  22.102  25.921  1.00  0.00    -0.744 OA
ENDBRANCH  95  96
ENDBRANCH  67  90
BRANCH  79 100
ATOM    100  C   UNL A   1      46.446  27.529  34.793  1.00  0.00    -0.014 A 
ATOM    101  C   UNL A   1      46.320  26.541  35.785  1.00  0.00     0.010 A 
ATOM    102  C   UNL A   1      47.724  28.028  34.479  1.00  0.00     0.010 A 
ATOM    103  C   UNL A   1      47.447  26.089  36.476  1.00  0.00     0.020 A 
ATOM    104  C   UNL A   1      48.856  27.558  35.148  1.00  0.00     0.020 A 
ATOM    105  C   UNL A   1      48.707  26.603  36.156  1.00  0.00     0.054 A 
BRANCH 105 106
ATOM    106  S   UNL A   1      50.160  25.979  37.044  1.00  0.00     0.124 S 
ATOM    107  O   UNL A   1      49.671  25.916  38.418  1.00  0.00    -0.237 OA
ATOM    108  O   UNL A   1      50.399  24.688  36.402  1.00  0.00    -0.237 OA
ATOM    109  O   UNL A   1      51.182  26.992  36.791  1.00  0.00    -0.744 OA
ENDBRANCH 105 106
ENDBRANCH  79 100
ENDBRANCH  53  54
ENDBRANCH  45  48
ENDBRANCH  43  44
ENDBRANCH  42  43
ENDBRANCH  41  42
ENDBRANCH   1  41
TORSDOF 22
ENDMDL
MODEL 2
REMARK VINA RESULT:     -11.1      0.741      7.623
REMARK SMILES CC(C)C(=O)Nc1ccc2c([C@@H](C(=O)NCCCCCCNC(=O)c3ccc(-c4c5nc(c(-c6ccc(S(=O)(=O)[O-])cc6)c6ccc([nH]6)c(-c6ccc(S(=O)(=O)[O-])cc6)c6nc(c(-c7ccc(S(=O)(=O)[O-])cc7)c7ccc4[nH]7)C=C6)C=C5)cc3)[NH+]3CC[NH+](Cc4ccccc4)CC3)c[nH]c2c1
REMARK SMILES IDX 18 1 17 2 16 3 15 4 13 5 14 6 12 8 11 9 7 10 8 11 101 12
REMARK SMILES IDX 9 13 100 14 10 15 99 16 98 17 6 19 4 20 5 21 2 23 1 24 3 25
REMARK SMILES IDX 85 26 86 27 97 28 87 30 96 31 88 32 89 34 90 35 91 36 95 37
REMARK SMILES IDX 92 38 94 39 93 40 19 41 20 42 21 43 22 44 23 45 24 47 25 48
REMARK SMILES IDX 26 49 84 50 27 51 83 52 28 53 29 54 30 55 77 56 31 57 82 58
REMARK SMILES IDX 76 59 78 60 32 61 81 62 75 63 74 64 33 66 63 67 44 68 62 69
REMARK SMILES IDX 45 70 48 71 61 72 79 73 46 74 47 75 60 77 80 78 49 79 34 80
REMARK SMILES IDX 35 81 43 82 36 83 42 84 37 85 38 86 39 87 40 88 41 89 64 90
REMARK SMILES IDX 65 91 73 92 66 93 72 94 67 95 68 96 69 97 70 98 71 99 50 100
REMARK SMILES IDX 51 101 59 102 52 103 58 104 53 105 54 106 55 107 56 108
REMARK SMILES IDX 57 109
REMARK H PARENT 15 7 99 18 6 22 85 29 88 33 22 46 78 65 48 76
REMARK Flexibility Score: inf
ROOT
ATOM      1  C   UNL A   1      31.353  26.949  26.534  1.00  0.00     0.002 C 
ENDROOT
BRANCH   1   2
ATOM      2  C   UNL A   1      31.043  26.971  25.034  1.00  0.00     0.021 C 
BRANCH   2   3
ATOM      3  C   UNL A   1      30.027  25.912  24.613  1.00  0.00     0.116 C 
BRANCH   3   4
ATOM      4  N   UNL A   1      30.157  24.729  25.427  1.00  0.00    -0.351 N 
ATOM      5  C   UNL A   1      30.823  23.567  25.153  1.00  0.00     0.283 C 
ATOM      6  O   UNL A   1      30.640  22.652  25.966  1.00  0.00    -0.268 OA
ATOM      7  H   UNL A   1      29.702  24.763  26.300  1.00  0.00     0.163 HD
BRANCH   5   8
ATOM      8  C   UNL A   1      31.839  23.495  23.966  1.00  0.00     0.308 C 
BRANCH   8   9
ATOM      9  C   UNL A   1      31.972  22.151  23.280  1.00  0.00     0.044 A 
ATOM     10  C   UNL A   1      32.371  18.223  24.720  1.00  0.00     0.043 A 
ATOM     11  C   UNL A   1      32.677  19.227  25.625  1.00  0.00     0.027 A 
ATOM     12  C   UNL A   1      32.189  18.521  23.366  1.00  0.00     0.052 A 
ATOM     13  C   UNL A   1      32.548  20.569  25.277  1.00  0.00     0.013 A 
ATOM     14  C   UNL A   1      32.119  19.878  23.014  1.00  0.00     0.048 A 
ATOM     15  C   UNL A   1      32.226  20.906  23.950  1.00  0.00     0.009 A 
ATOM     16  N   UNL A   1      31.913  20.473  21.795  1.00  0.00    -0.361 N 
ATOM     17  C   UNL A   1      31.870  21.835  21.935  1.00  0.00     0.094 A 
ATOM     18  H   UNL A   1      31.812  19.992  20.943  1.00  0.00     0.166 HD
BRANCH  10  19
ATOM     19  N   UNL A   1      32.246  16.897  25.143  1.00  0.00    -0.326 N 
ATOM     20  C   UNL A   1      33.055  15.821  24.896  1.00  0.00     0.226 C 
ATOM     21  O   UNL A   1      32.630  14.706  25.218  1.00  0.00    -0.274 OA
ATOM     22  H   UNL A   1      31.458  16.709  25.703  1.00  0.00     0.169 HD
BRANCH  20  23
ATOM     23  C   UNL A   1      34.498  15.948  24.369  1.00  0.00     0.072 C 
ATOM     24  C   UNL A   1      34.654  16.512  22.960  1.00  0.00     0.018 C 
ATOM     25  C   UNL A   1      35.466  16.585  25.366  1.00  0.00     0.018 C 
ENDBRANCH  20  23
ENDBRANCH  10  19
ENDBRANCH   8   9
BRANCH   8  26
ATOM     26  N   UNL A   1      33.159  24.000  24.373  1.00  0.00    -0.312 N 
ATOM     27  C   UNL A   1      33.501  23.936  25.789  1.00  0.00     0.325 C 
ATOM     28  C   UNL A   1      34.266  23.823  23.443  1.00  0.00     0.325 C 
ATOM     29  H   UNL A   1      32.968  24.996  24.263  1.00  0.00     0.349 HD
ATOM     30  C   UNL A   1      34.662  22.996  26.185  1.00  0.00     0.324 C 
ATOM     31  C   UNL A   1      35.394  22.864  23.891  1.00  0.00     0.324 C 
ATOM     32  N   UNL A   1      35.820  22.953  25.292  1.00  0.00    -0.322 N 
ATOM     33  H   UNL A   1      36.316  22.082  25.484  1.00  0.00     0.348 HD
BRANCH  32  34
ATOM     34  C   UNL A   1      36.888  23.910  25.595  1.00  0.00     0.299 C 
BRANCH  34  35
ATOM     35  C   UNL A   1      38.171  23.372  26.185  1.00  0.00     0.006 A 
ATOM     36  C   UNL A   1      38.555  22.043  25.959  1.00  0.00     0.009 A 
ATOM     37  C   UNL A   1      39.019  24.197  26.936  1.00  0.00     0.009 A 
ATOM     38  C   UNL A   1      39.796  21.579  26.398  1.00  0.00     0.001 A 
ATOM     39  C   UNL A   1      40.272  23.742  27.350  1.00  0.00     0.001 A 
ATOM     40  C   UNL A   1      40.664  22.437  27.071  1.00  0.00     0.000 A 
ENDBRANCH  34  35
ENDBRANCH  32  34
ENDBRANCH   8  26
ENDBRANCH   5   8
ENDBRANCH   3   4
ENDBRANCH   2   3
ENDBRANCH   1   2
BRANCH   1  41
ATOM     41  C   UNL A   1      32.365  28.004  26.987  1.00  0.00     0.002 C 
BRANCH  41  42
ATOM     42  C   UNL A   1      33.595  28.134  26.084  1.00  0.00     0.021 C 
BRANCH  42  43
ATOM     43  C   UNL A   1      34.748  28.906  26.710  1.00  0.00     0.116 C 
BRANCH  43  44
ATOM     44  N   UNL A   1      34.331  30.233  27.127  1.00  0.00    -0.352 N 
ATOM     45  C   UNL A   1      34.846  31.018  28.122  1.00  0.00     0.251 C 
ATOM     46  H   UNL A   1      33.576  30.620  26.627  1.00  0.00     0.163 HD
ATOM     47  O   UNL A   1      34.220  32.008  28.507  1.00  0.00    -0.269 OA
BRANCH  45  48
ATOM     48  C   UNL A   1      36.147  30.677  28.730  1.00  0.00     0.039 A 
ATOM     49  C   UNL A   1      36.220  29.591  29.605  1.00  0.00     0.014 A 
ATOM     50  C   UNL A   1      37.282  31.452  28.472  1.00  0.00     0.014 A 
ATOM     51  C   UNL A   1      37.435  29.276  30.214  1.00  0.00     0.010 A 
ATOM     52  C   UNL A   1      38.508  31.092  29.021  1.00  0.00     0.010 A 
ATOM     53  C   UNL A   1      38.589  30.021  29.922  1.00  0.00    -0.014 A 
BRANCH  53  54
ATOM     54  C   UNL A   1      39.873  29.736  30.608  1.00  0.00     0.031 A 
ATOM     55  C   UNL A   1      40.792  28.676  30.060  1.00  0.00     0.074 A 
ATOM     56  C   UNL A   1      40.197  30.402  31.733  1.00  0.00     0.049 A 
ATOM     57  N   UNL A   1      41.944  28.264  30.521  1.00  0.00    -0.248 NA
ATOM     58  C   UNL A   1      40.345  27.968  28.848  1.00  0.00     0.031 C 
ATOM     59  C   UNL A   1      39.370  31.423  32.381  1.00  0.00     0.029 A 
ATOM     60  N   UNL A   1      41.310  30.320  32.529  1.00  0.00    -0.354 N 
ATOM     61  C   UNL A   1      42.347  27.240  29.672  1.00  0.00     0.074 A 
ATOM     62  C   UNL A   1      41.294  27.056  28.699  1.00  0.00     0.031 C 
ATOM     63  C   UNL A   1      40.020  31.893  33.459  1.00  0.00     0.029 A 
ATOM     64  C   UNL A   1      41.291  31.187  33.595  1.00  0.00     0.049 A 
ATOM     65  H   UNL A   1      42.053  29.699  32.354  1.00  0.00     0.167 HD
ATOM     66  C   UNL A   1      43.501  26.532  29.683  1.00  0.00     0.031 A 
ATOM     67  C   UNL A   1      42.198  31.395  34.568  1.00  0.00     0.031 A 
ATOM     68  C   UNL A   1      44.556  26.733  30.639  1.00  0.00     0.049 A 
ATOM     69  C   UNL A   1      43.482  30.612  34.549  1.00  0.00     0.074 A 
ATOM     70  C   UNL A   1      45.788  26.104  30.710  1.00  0.00     0.029 A 
ATOM     71  N   UNL A   1      44.509  27.640  31.688  1.00  0.00    -0.354 N 
ATOM     72  N   UNL A   1      43.870  29.686  33.703  1.00  0.00    -0.248 NA
ATOM     73  C   UNL A   1      44.461  30.917  35.601  1.00  0.00     0.031 C 
ATOM     74  C   UNL A   1      46.468  26.604  31.826  1.00  0.00     0.029 A 
ATOM     75  C   UNL A   1      45.683  27.582  32.416  1.00  0.00     0.049 A 
ATOM     76  H   UNL A   1      43.751  28.237  31.883  1.00  0.00     0.167 HD
ATOM     77  C   UNL A   1      45.152  29.325  34.102  1.00  0.00     0.074 A 
ATOM     78  C   UNL A   1      45.476  30.138  35.257  1.00  0.00     0.031 C 
ATOM     79  C   UNL A   1      45.989  28.405  33.559  1.00  0.00     0.031 A 
BRANCH  66  80
ATOM     80  C   UNL A   1      43.676  25.470  28.628  1.00  0.00    -0.014 A 
ATOM     81  C   UNL A   1      43.594  24.103  28.952  1.00  0.00     0.010 A 
ATOM     82  C   UNL A   1      43.903  25.842  27.291  1.00  0.00     0.010 A 
ATOM     83  C   UNL A   1      43.784  23.129  27.969  1.00  0.00     0.020 A 
ATOM     84  C   UNL A   1      44.063  24.871  26.298  1.00  0.00     0.020 A 
ATOM     85  C   UNL A   1      44.022  23.519  26.648  1.00  0.00     0.054 A 
BRANCH  85  86
ATOM     86  S   UNL A   1      44.252  22.235  25.389  1.00  0.00     0.124 S 
ATOM     87  O   UNL A   1      45.697  22.276  25.178  1.00  0.00    -0.237 OA
ATOM     88  O   UNL A   1      43.750  21.036  26.056  1.00  0.00    -0.237 OA
ATOM     89  O   UNL A   1      43.446  22.703  24.263  1.00  0.00    -0.744 OA
ENDBRANCH  85  86
ENDBRANCH  66  80
BRANCH  67  90
ATOM     90  C   UNL A   1      41.938  32.414  35.621  1.00  0.00    -0.014 A 
ATOM     91  C   UNL A   1      42.355  33.746  35.443  1.00  0.00     0.010 A 
ATOM     92  C   UNL A   1      41.257  32.063  36.800  1.00  0.00     0.010 A 
ATOM     93  C   UNL A   1      42.115  34.702  36.434  1.00  0.00     0.020 A 
ATOM     94  C   UNL A   1      40.992  33.023  37.782  1.00  0.00     0.020 A 
ATOM     95  C   UNL A   1      41.434  34.335  37.598  1.00  0.00     0.054 A 
BRANCH  95  96
ATOM     96  S   UNL A   1      41.090  35.603  38.848  1.00  0.00     0.124 S 
ATOM     97  O   UNL A   1      41.868  36.734  38.355  1.00  0.00    -0.237 OA
ATOM     98  O   UNL A   1      39.639  35.746  38.763  1.00  0.00    -0.237 OA
ATOM     99  O   UNL A   1      41.577  35.001  40.088  1.00  0.00    -0.744 OA
ENDBRANCH  95  96
ENDBRANCH  67  90
BRANCH  79 100
ATOM    100  C   UNL A   1      47.356  28.267  34.173  1.00  0.00    -0.014 A 
ATOM    101  C   UNL A   1      48.433  29.068  33.754  1.00  0.00     0.010 A 
ATOM    102  C   UNL A   1      47.551  27.346  35.218  1.00  0.00     0.010 A 
ATOM    103  C   UNL A   1      49.690  28.923  34.346  1.00  0.00     0.020 A 
ATOM    104  C   UNL A   1      48.799  27.218  35.831  1.00  0.00     0.020 A 
ATOM    105  C   UNL A   1      49.866  27.997  35.378  1.00  0.00     0.054 A 
BRANCH 105 106
ATOM    106  S   UNL A   1      51.499  27.848  36.154  1.00  0.00     0.124 S 
ATOM    107  O   UNL A   1      51.889  26.491  35.780  1.00  0.00    -0.237 OA
ATOM    108  O   UNL A   1      52.258  28.919  35.513  1.00  0.00    -0.237 OA
ATOM    109  O   UNL A   1      51.227  28.049  37.575  1.00  0.00    -0.744 OA
ENDBRANCH 105 106
ENDBRANCH  79 100
ENDBRANCH  53  54
ENDBRANCH  45  48
ENDBRANCH  43  44
ENDBRANCH  42  43
ENDBRANCH  41  42
ENDBRANCH   1  41
TORSDOF 22
ENDMDL
MODEL 3
REMARK VINA RESULT:     -10.9      1.787      2.551
REMARK SMILES CC(C)C(=O)Nc1ccc2c([C@@H](C(=O)NCCCCCCNC(=O)c3ccc(-c4c5nc(c(-c6ccc(S(=O)(=O)[O-])cc6)c6ccc([nH]6)c(-c6ccc(S(=O)(=O)[O-])cc6)c6nc(c(-c7ccc(S(=O)(=O)[O-])cc7)c7ccc4[nH]7)C=C6)C=C5)cc3)[NH+]3CC[NH+](Cc4ccccc4)CC3)c[nH]c2c1
REMARK SMILES IDX 18 1 17 2 16 3 15 4 13 5 14 6 12 8 11 9 7 10 8 11 101 12
REMARK SMILES IDX 9 13 100 14 10 15 99 16 98 17 6 19 4 20 5 21 2 23 1 24 3 25
REMARK SMILES IDX 85 26 86 27 97 28 87 30 96 31 88 32 89 34 90 35 91 36 95 37
REMARK SMILES IDX 92 38 94 39 93 40 19 41 20 42 21 43 22 44 23 45 24 47 25 48
REMARK SMILES IDX 26 49 84 50 27 51 83 52 28 53 29 54 30 55 77 56 31 57 82 58
REMARK SMILES IDX 76 59 78 60 32 61 81 62 75 63 74 64 33 66 63 67 44 68 62 69
REMARK SMILES IDX 45 70 48 71 61 72 79 73 46 74 47 75 60 77 80 78 49 79 34 80
REMARK SMILES IDX 35 81 43 82 36 83 42 84 37 85 38 86 39 87 40 88 41 89 64 90
REMARK SMILES IDX 65 91 73 92 66 93 72 94 67 95 68 96 69 97 70 98 71 99 50 100
REMARK SMILES IDX 51 101 59 102 52 103 58 104 53 105 54 106 55 107 56 108
REMARK SMILES IDX 57 109
REMARK H PARENT 15 7 99 18 6 22 85 29 88 33 22 46 78 65 48 76
REMARK Flexibility Score: inf
ROOT
ATOM      1  C   UNL A   1      32.384  28.492  25.711  1.00  0.00     0.002 C 
ENDROOT
BRANCH   1   2
ATOM      2  C   UNL A   1      32.007  27.877  24.360  1.00  0.00     0.021 C 
BRANCH   2   3
ATOM      3  C   UNL A   1      30.829  26.910  24.444  1.00  0.00     0.116 C 
BRANCH   3   4
ATOM      4  N   UNL A   1      31.040  25.941  25.490  1.00  0.00    -0.351 N 
ATOM      5  C   UNL A   1      31.729  24.761  25.442  1.00  0.00     0.283 C 
ATOM      6  O   UNL A   1      31.618  24.047  26.446  1.00  0.00    -0.268 OA
ATOM      7  H   UNL A   1      30.630  26.159  26.358  1.00  0.00     0.163 HD
BRANCH   5   8
ATOM      8  C   UNL A   1      32.684  24.447  24.243  1.00  0.00     0.308 C 
BRANCH   8   9
ATOM      9  C   UNL A   1      32.537  23.078  23.613  1.00  0.00     0.044 A 
ATOM     10  C   UNL A   1      32.638  19.176  25.170  1.00  0.00     0.043 A 
ATOM     11  C   UNL A   1      33.204  20.156  25.971  1.00  0.00     0.027 A 
ATOM     12  C   UNL A   1      32.293  19.456  23.845  1.00  0.00     0.052 A 
ATOM     13  C   UNL A   1      33.198  21.491  25.579  1.00  0.00     0.013 A 
ATOM     14  C   UNL A   1      32.347  20.798  23.440  1.00  0.00     0.048 A 
ATOM     15  C   UNL A   1      32.726  21.830  24.299  1.00  0.00     0.009 A 
ATOM     16  N   UNL A   1      32.039  21.381  22.235  1.00  0.00    -0.361 N 
ATOM     17  C   UNL A   1      32.193  22.739  22.314  1.00  0.00     0.094 A 
ATOM     18  H   UNL A   1      31.748  20.892  21.432  1.00  0.00     0.166 HD
BRANCH  10  19
ATOM     19  N   UNL A   1      32.408  17.892  25.672  1.00  0.00    -0.326 N 
ATOM     20  C   UNL A   1      33.041  16.714  25.380  1.00  0.00     0.226 C 
ATOM     21  O   UNL A   1      32.528  15.673  25.808  1.00  0.00    -0.274 OA
ATOM     22  H   UNL A   1      31.682  17.825  26.333  1.00  0.00     0.169 HD
BRANCH  20  23
ATOM     23  C   UNL A   1      34.408  16.638  24.673  1.00  0.00     0.072 C 
ATOM     24  C   UNL A   1      35.422  15.666  25.267  1.00  0.00     0.018 C 
ATOM     25  C   UNL A   1      34.311  16.528  23.151  1.00  0.00     0.018 C 
ENDBRANCH  20  23
ENDBRANCH  10  19
ENDBRANCH   8   9
BRANCH   8  26
ATOM     26  N   UNL A   1      34.085  24.700  24.609  1.00  0.00    -0.312 N 
ATOM     27  C   UNL A   1      34.426  24.698  26.026  1.00  0.00     0.325 C 
ATOM     28  C   UNL A   1      35.117  24.209  23.706  1.00  0.00     0.325 C 
ATOM     29  H   UNL A   1      34.105  25.699  24.404  1.00  0.00     0.349 HD
ATOM     30  C   UNL A   1      35.370  23.577  26.516  1.00  0.00     0.324 C 
ATOM     31  C   UNL A   1      36.026  23.081  24.250  1.00  0.00     0.324 C 
ATOM     32  N   UNL A   1      36.481  23.209  25.638  1.00  0.00    -0.322 N 
ATOM     33  H   UNL A   1      36.786  22.274  25.914  1.00  0.00     0.348 HD
BRANCH  32  34
ATOM     34  C   UNL A   1      37.730  23.945  25.856  1.00  0.00     0.299 C 
BRANCH  34  35
ATOM     35  C   UNL A   1      38.912  23.180  26.403  1.00  0.00     0.006 A 
ATOM     36  C   UNL A   1      39.749  23.758  27.369  1.00  0.00     0.009 A 
ATOM     37  C   UNL A   1      39.176  21.868  25.986  1.00  0.00     0.009 A 
ATOM     38  C   UNL A   1      40.766  23.011  27.965  1.00  0.00     0.001 A 
ATOM     39  C   UNL A   1      40.174  21.112  26.602  1.00  0.00     0.001 A 
ATOM     40  C   UNL A   1      40.961  21.681  27.599  1.00  0.00     0.000 A 
ENDBRANCH  34  35
ENDBRANCH  32  34
ENDBRANCH   8  26
ENDBRANCH   5   8
ENDBRANCH   3   4
ENDBRANCH   2   3
ENDBRANCH   1   2
BRANCH   1  41
ATOM     41  C   UNL A   1      32.471  30.020  25.710  1.00  0.00     0.002 C 
BRANCH  41  42
ATOM     42  C   UNL A   1      32.394  30.661  27.098  1.00  0.00     0.021 C 
BRANCH  42  43
ATOM     43  C   UNL A   1      33.612  31.497  27.466  1.00  0.00     0.116 C 
BRANCH  43  44
ATOM     44  N   UNL A   1      33.239  32.863  27.787  1.00  0.00    -0.352 N 
ATOM     45  C   UNL A   1      33.717  33.669  28.784  1.00  0.00     0.251 C 
ATOM     46  H   UNL A   1      32.549  33.263  27.210  1.00  0.00     0.163 HD
ATOM     47  O   UNL A   1      33.119  34.708  29.071  1.00  0.00    -0.269 OA
BRANCH  45  48
ATOM     48  C   UNL A   1      34.946  33.291  29.511  1.00  0.00     0.039 A 
ATOM     49  C   UNL A   1      36.143  33.935  29.195  1.00  0.00     0.014 A 
ATOM     50  C   UNL A   1      34.924  32.274  30.471  1.00  0.00     0.014 A 
ATOM     51  C   UNL A   1      37.319  33.567  29.850  1.00  0.00     0.010 A 
ATOM     52  C   UNL A   1      36.081  31.959  31.175  1.00  0.00     0.010 A 
ATOM     53  C   UNL A   1      37.295  32.579  30.848  1.00  0.00    -0.014 A 
BRANCH  53  54
ATOM     54  C   UNL A   1      38.547  32.134  31.508  1.00  0.00     0.031 A 
ATOM     55  C   UNL A   1      38.906  32.675  32.867  1.00  0.00     0.074 A 
ATOM     56  C   UNL A   1      39.370  31.275  30.878  1.00  0.00     0.049 A 
ATOM     57  N   UNL A   1      39.960  32.429  33.601  1.00  0.00    -0.248 NA
ATOM     58  C   UNL A   1      37.970  33.640  33.469  1.00  0.00     0.031 C 
ATOM     59  C   UNL A   1      39.149  30.712  29.544  1.00  0.00     0.029 A 
ATOM     60  N   UNL A   1      40.560  30.723  31.279  1.00  0.00    -0.354 N 
ATOM     61  C   UNL A   1      39.824  33.220  34.736  1.00  0.00     0.074 A 
ATOM     62  C   UNL A   1      38.614  33.994  34.571  1.00  0.00     0.031 C 
ATOM     63  C   UNL A   1      40.154  29.871  29.250  1.00  0.00     0.029 A 
ATOM     64  C   UNL A   1      41.105  29.859  30.358  1.00  0.00     0.049 A 
ATOM     65  H   UNL A   1      40.983  30.925  32.144  1.00  0.00     0.167 HD
ATOM     66  C   UNL A   1      40.620  33.279  35.830  1.00  0.00     0.031 A 
ATOM     67  C   UNL A   1      42.239  29.135  30.406  1.00  0.00     0.031 A 
ATOM     68  C   UNL A   1      41.810  32.491  35.999  1.00  0.00     0.049 A 
ATOM     69  C   UNL A   1      43.097  29.201  31.640  1.00  0.00     0.074 A 
ATOM     70  C   UNL A   1      42.662  32.438  37.090  1.00  0.00     0.029 A 
ATOM     71  N   UNL A   1      42.314  31.609  35.055  1.00  0.00    -0.354 N 
ATOM     72  N   UNL A   1      42.922  29.913  32.728  1.00  0.00    -0.248 NA
ATOM     73  C   UNL A   1      44.293  28.348  31.662  1.00  0.00     0.031 C 
ATOM     74  C   UNL A   1      43.703  31.553  36.787  1.00  0.00     0.029 A 
ATOM     75  C   UNL A   1      43.468  31.015  35.532  1.00  0.00     0.049 A 
ATOM     76  H   UNL A   1      41.909  31.433  34.175  1.00  0.00     0.167 HD
ATOM     77  C   UNL A   1      43.967  29.567  33.578  1.00  0.00     0.074 A 
ATOM     78  C   UNL A   1      44.762  28.576  32.881  1.00  0.00     0.031 C 
ATOM     79  C   UNL A   1      44.241  30.025  34.825  1.00  0.00     0.031 A 
BRANCH  66  80
ATOM     80  C   UNL A   1      40.225  34.236  36.925  1.00  0.00    -0.014 A 
ATOM     81  C   UNL A   1      39.540  33.786  38.070  1.00  0.00     0.010 A 
ATOM     82  C   UNL A   1      40.561  35.597  36.822  1.00  0.00     0.010 A 
ATOM     83  C   UNL A   1      39.157  34.687  39.067  1.00  0.00     0.020 A 
ATOM     84  C   UNL A   1      40.206  36.497  37.832  1.00  0.00     0.020 A 
ATOM     85  C   UNL A   1      39.488  36.039  38.939  1.00  0.00     0.054 A 
BRANCH  85  86
ATOM     86  S   UNL A   1      38.990  37.185  40.252  1.00  0.00     0.124 S 
ATOM     87  O   UNL A   1      38.040  36.376  41.013  1.00  0.00    -0.237 OA
ATOM     88  O   UNL A   1      40.254  37.469  40.928  1.00  0.00    -0.237 OA
ATOM     89  O   UNL A   1      38.407  38.312  39.528  1.00  0.00    -0.744 OA
ENDBRANCH  85  86
ENDBRANCH  66  80
BRANCH  67  90
ATOM     90  C   UNL A   1      42.608  28.256  29.263  1.00  0.00    -0.014 A 
ATOM     91  C   UNL A   1      42.237  26.900  29.257  1.00  0.00     0.010 A 
ATOM     92  C   UNL A   1      43.317  28.776  28.165  1.00  0.00     0.010 A 
ATOM     93  C   UNL A   1      42.588  26.073  28.186  1.00  0.00     0.020 A 
ATOM     94  C   UNL A   1      43.647  27.959  27.079  1.00  0.00     0.020 A 
ATOM     95  C   UNL A   1      43.290  26.609  27.102  1.00  0.00     0.054 A 
BRANCH  95  96
ATOM     96  S   UNL A   1      43.691  25.530  25.700  1.00  0.00     0.124 S 
ATOM     97  O   UNL A   1      42.606  25.825  24.770  1.00  0.00    -0.237 OA
ATOM     98  O   UNL A   1      45.013  26.006  25.302  1.00  0.00    -0.237 OA
ATOM     99  O   UNL A   1      43.670  24.190  26.283  1.00  0.00    -0.744 OA
ENDBRANCH  95  96
ENDBRANCH  67  90
BRANCH  79 100
ATOM    100  C   UNL A   1      45.420  29.420  35.539  1.00  0.00    -0.014 A 
ATOM    101  C   UNL A   1      46.703  29.990  35.450  1.00  0.00     0.010 A 
ATOM    102  C   UNL A   1      45.227  28.286  36.348  1.00  0.00     0.010 A 
ATOM    103  C   UNL A   1      47.778  29.412  36.129  1.00  0.00     0.020 A 
ATOM    104  C   UNL A   1      46.294  27.722  37.050  1.00  0.00     0.020 A 
ATOM    105  C   UNL A   1      47.568  28.280  36.922  1.00  0.00     0.054 A 
BRANCH 105 106
ATOM    106  S   UNL A   1      48.972  27.565  37.819  1.00  0.00     0.124 S 
ATOM    107  O   UNL A   1      48.749  28.059  39.175  1.00  0.00    -0.237 OA
ATOM    108  O   UNL A   1      48.775  26.129  37.633  1.00  0.00    -0.237 OA
ATOM    109  O   UNL A   1      50.139  28.121  37.138  1.00  0.00    -0.744 OA
ENDBRANCH 105 106
ENDBRANCH  79 100
ENDBRANCH  53  54
ENDBRANCH  45  48
ENDBRANCH  43  44
ENDBRANCH  42  43
ENDBRANCH  41  42
ENDBRANCH   1  41
TORSDOF 22
ENDMDL
