MODEL 1
REMARK VINA RESULT:      -9.1      0.000      0.000
REMARK SMILES COc1cc(Br)c(OC)c(C(=O)NCCC(=O)NCCCCCCNC(=O)c2ccc(-c3c4nc(c(-c5ccc(S(=O)(=O)[O-])cc5)c5ccc([nH]5)c(-c5ccc(S(=O)(=O)[O-])cc5)c5nc(c(-c6ccc(S(=O)(=O)[O-])cc6)c6ccc3[nH]6)C=C5)C=C4)cc2)c1
REMARK SMILES IDX 21 1 20 2 19 3 18 4 16 5 17 6 15 8 14 9 13 10 11 11 12 12
REMARK SMILES IDX 10 14 3 15 4 16 88 17 5 18 6 19 7 20 2 21 1 22 8 23 9 24
REMARK SMILES IDX 22 25 23 26 24 27 25 28 26 29 27 31 28 32 29 33 87 34 30 35
REMARK SMILES IDX 86 36 31 37 32 38 33 39 80 40 34 41 85 42 79 43 81 44 35 45
REMARK SMILES IDX 84 46 78 47 77 48 36 50 66 51 47 52 65 53 48 54 51 55 64 56
REMARK SMILES IDX 82 57 49 58 50 59 63 61 83 62 52 63 37 64 38 65 46 66 39 67
REMARK SMILES IDX 45 68 40 69 41 70 42 71 43 72 44 73 67 74 68 75 76 76 69 77
REMARK SMILES IDX 75 78 70 79 71 80 72 81 73 82 74 83 53 84 54 85 62 86 55 87
REMARK SMILES IDX 61 88 56 89 57 90 58 91 59 92 60 93
REMARK H PARENT 18 7 13 13 25 30 81 49 51 60
REMARK Flexibility Score: inf
ROOT
ATOM      1  C   UNL A   1      32.996  35.175  29.579  1.00  0.00     0.002 C 
ENDROOT
BRANCH   1   2
ATOM      2  C   UNL A   1      32.767  36.192  30.699  1.00  0.00     0.021 C 
BRANCH   2   3
ATOM      3  C   UNL A   1      33.277  35.746  32.070  1.00  0.00     0.116 C 
BRANCH   3   4
ATOM      4  N   UNL A   1      33.577  34.328  32.069  1.00  0.00    -0.356 N 
ATOM      5  C   UNL A   1      34.789  33.710  32.040  1.00  0.00     0.221 C 
ATOM      6  O   UNL A   1      34.825  32.481  31.947  1.00  0.00    -0.275 OA
ATOM      7  H   UNL A   1      32.796  33.729  32.093  1.00  0.00     0.163 HD
BRANCH   5   8
ATOM      8  C   UNL A   1      36.065  34.524  32.101  1.00  0.00     0.121 C 
BRANCH   8   9
ATOM      9  C   UNL A   1      37.126  33.960  31.165  1.00  0.00     0.126 C 
BRANCH   9  10
ATOM     10  N   UNL A   1      38.497  34.257  31.572  1.00  0.00    -0.351 N 
ATOM     11  C   UNL A   1      39.325  34.094  32.656  1.00  0.00     0.255 C 
ATOM     12  O   UNL A   1      40.389  34.709  32.550  1.00  0.00    -0.269 OA
ATOM     13  H   UNL A   1      38.975  34.718  30.845  1.00  0.00     0.163 HD
BRANCH  11  14
ATOM     14  C   UNL A   1      39.073  33.207  33.847  1.00  0.00     0.086 A 
ATOM     15  C   UNL A   1      38.972  30.970  34.792  1.00  0.00     0.121 A 
ATOM     16  C   UNL A   1      38.985  31.489  36.074  1.00  0.00     0.066 A 
ATOM     17  C   UNL A   1      39.059  31.817  33.696  1.00  0.00     0.064 A 
ATOM     18  C   UNL A   1      38.982  32.876  36.273  1.00  0.00     0.064 A 
ATOM     19  Br  UNL A   1      38.921  33.361  38.114  1.00  0.00    -0.047 Br
ATOM     20  C   UNL A   1      38.994  33.758  35.167  1.00  0.00     0.146 A 
BRANCH  15  21
ATOM     21  O   UNL A   1      38.964  29.628  34.531  1.00  0.00    -0.497 OA
ATOM     22  C   UNL A   1      39.677  29.305  33.337  1.00  0.00     0.278 C 
ENDBRANCH  15  21
BRANCH  20  23
ATOM     23  O   UNL A   1      38.814  35.115  35.222  1.00  0.00    -0.495 OA
ATOM     24  C   UNL A   1      39.804  35.976  35.763  1.00  0.00     0.278 C 
ENDBRANCH  20  23
ENDBRANCH  11  14
ENDBRANCH   9  10
ENDBRANCH   8   9
ENDBRANCH   5   8
ENDBRANCH   3   4
ENDBRANCH   2   3
ENDBRANCH   1   2
BRANCH   1  25
ATOM     25  C   UNL A   1      34.253  35.411  28.737  1.00  0.00     0.002 C 
BRANCH  25  26
ATOM     26  C   UNL A   1      34.582  34.299  27.738  1.00  0.00     0.021 C 
BRANCH  26  27
ATOM     27  C   UNL A   1      35.068  32.999  28.372  1.00  0.00     0.116 C 
BRANCH  27  28
ATOM     28  N   UNL A   1      34.193  31.882  28.049  1.00  0.00    -0.352 N 
ATOM     29  C   UNL A   1      34.510  30.567  27.818  1.00  0.00     0.251 C 
ATOM     30  H   UNL A   1      33.235  32.102  27.988  1.00  0.00     0.163 HD
ATOM     31  O   UNL A   1      33.676  29.811  27.331  1.00  0.00    -0.269 OA
BRANCH  29  32
ATOM     32  C   UNL A   1      35.862  30.070  28.148  1.00  0.00     0.039 A 
ATOM     33  C   UNL A   1      36.858  30.110  27.169  1.00  0.00     0.014 A 
ATOM     34  C   UNL A   1      36.143  29.556  29.417  1.00  0.00     0.014 A 
ATOM     35  C   UNL A   1      38.149  29.685  27.481  1.00  0.00     0.010 A 
ATOM     36  C   UNL A   1      37.448  29.203  29.748  1.00  0.00     0.010 A 
ATOM     37  C   UNL A   1      38.463  29.257  28.781  1.00  0.00    -0.014 A 
BRANCH  37  38
ATOM     38  C   UNL A   1      39.846  28.864  29.150  1.00  0.00     0.031 A 
ATOM     39  C   UNL A   1      40.749  29.838  29.855  1.00  0.00     0.074 A 
ATOM     40  C   UNL A   1      40.308  27.649  28.794  1.00  0.00     0.049 A 
ATOM     41  N   UNL A   1      41.997  29.688  30.222  1.00  0.00    -0.248 NA
ATOM     42  C   UNL A   1      40.185  31.161  30.168  1.00  0.00     0.031 C 
ATOM     43  C   UNL A   1      39.543  26.629  28.074  1.00  0.00     0.029 A 
ATOM     44  N   UNL A   1      41.536  27.066  28.988  1.00  0.00    -0.354 N 
ATOM     45  C   UNL A   1      42.370  30.901  30.792  1.00  0.00     0.074 A 
ATOM     46  C   UNL A   1      41.236  31.790  30.675  1.00  0.00     0.031 C 
ATOM     47  C   UNL A   1      40.306  25.537  27.915  1.00  0.00     0.029 A 
ATOM     48  C   UNL A   1      41.627  25.791  28.481  1.00  0.00     0.049 A 
ATOM     49  H   UNL A   1      42.280  27.518  29.446  1.00  0.00     0.167 HD
ATOM     50  C   UNL A   1      43.547  31.238  31.376  1.00  0.00     0.031 A 
ATOM     51  C   UNL A   1      42.658  24.924  28.469  1.00  0.00     0.031 A 
ATOM     52  C   UNL A   1      44.672  30.348  31.488  1.00  0.00     0.049 A 
ATOM     53  C   UNL A   1      43.960  25.326  29.103  1.00  0.00     0.074 A 
ATOM     54  C   UNL A   1      45.888  30.574  32.109  1.00  0.00     0.029 A 
ATOM     55  N   UNL A   1      44.726  29.067  30.957  1.00  0.00    -0.354 N 
ATOM     56  N   UNL A   1      44.273  26.451  29.701  1.00  0.00    -0.248 NA
ATOM     57  C   UNL A   1      45.045  24.336  29.072  1.00  0.00     0.031 C 
ATOM     58  C   UNL A   1      46.698  29.452  31.902  1.00  0.00     0.029 A 
ATOM     59  C   UNL A   1      45.965  28.501  31.210  1.00  0.00     0.049 A 
ATOM     60  H   UNL A   1      43.992  28.626  30.473  1.00  0.00     0.167 HD
ATOM     61  C   UNL A   1      45.583  26.295  30.140  1.00  0.00     0.074 A 
ATOM     62  C   UNL A   1      45.997  24.962  29.752  1.00  0.00     0.031 C 
ATOM     63  C   UNL A   1      46.368  27.176  30.809  1.00  0.00     0.031 A 
BRANCH  50  64
ATOM     64  C   UNL A   1      43.673  32.639  31.919  1.00  0.00    -0.014 A 
ATOM     65  C   UNL A   1      43.400  32.927  33.269  1.00  0.00     0.010 A 
ATOM     66  C   UNL A   1      44.087  33.682  31.069  1.00  0.00     0.010 A 
ATOM     67  C   UNL A   1      43.480  34.240  33.744  1.00  0.00     0.020 A 
ATOM     68  C   UNL A   1      44.200  34.990  31.549  1.00  0.00     0.020 A 
ATOM     69  C   UNL A   1      43.874  35.264  32.878  1.00  0.00     0.054 A 
BRANCH  69  70
ATOM     70  S   UNL A   1      43.966  36.957  33.522  1.00  0.00     0.124 S 
ATOM     71  O   UNL A   1      45.200  36.917  34.302  1.00  0.00    -0.237 OA
ATOM     72  O   UNL A   1      44.020  37.761  32.304  1.00  0.00    -0.237 OA
ATOM     73  O   UNL A   1      42.740  37.099  34.305  1.00  0.00    -0.744 OA
ENDBRANCH  69  70
ENDBRANCH  50  64
BRANCH  51  74
ATOM     74  C   UNL A   1      42.483  23.579  27.853  1.00  0.00    -0.014 A 
ATOM     75  C   UNL A   1      43.174  23.241  26.676  1.00  0.00     0.010 A 
ATOM     76  C   UNL A   1      41.655  22.618  28.459  1.00  0.00     0.010 A 
ATOM     77  C   UNL A   1      43.035  21.969  26.114  1.00  0.00     0.020 A 
ATOM     78  C   UNL A   1      41.535  21.335  27.916  1.00  0.00     0.020 A 
ATOM     79  C   UNL A   1      42.221  21.021  26.741  1.00  0.00     0.054 A 
BRANCH  79  80
ATOM     80  S   UNL A   1      42.114  19.355  26.033  1.00  0.00     0.124 S 
ATOM     81  O   UNL A   1      40.676  19.196  25.843  1.00  0.00    -0.237 OA
ATOM     82  O   UNL A   1      42.904  19.483  24.810  1.00  0.00    -0.237 OA
ATOM     83  O   UNL A   1      42.708  18.505  27.062  1.00  0.00    -0.744 OA
ENDBRANCH  79  80
ENDBRANCH  51  74
BRANCH  63  84
ATOM     84  C   UNL A   1      47.751  26.718  31.193  1.00  0.00    -0.014 A 
ATOM     85  C   UNL A   1      47.976  25.972  32.365  1.00  0.00     0.010 A 
ATOM     86  C   UNL A   1      48.834  26.994  30.339  1.00  0.00     0.010 A 
ATOM     87  C   UNL A   1      49.264  25.537  32.688  1.00  0.00     0.020 A 
ATOM     88  C   UNL A   1      50.118  26.535  30.644  1.00  0.00     0.020 A 
ATOM     89  C   UNL A   1      50.327  25.821  31.826  1.00  0.00     0.054 A 
BRANCH  89  90
ATOM     90  S   UNL A   1      51.980  25.206  32.246  1.00  0.00     0.124 S 
ATOM     91  O   UNL A   1      52.252  25.899  33.502  1.00  0.00    -0.237 OA
ATOM     92  O   UNL A   1      51.767  23.765  32.357  1.00  0.00    -0.237 OA
ATOM     93  O   UNL A   1      52.804  25.622  31.114  1.00  0.00    -0.744 OA
ENDBRANCH  89  90
ENDBRANCH  63  84
ENDBRANCH  37  38
ENDBRANCH  29  32
ENDBRANCH  27  28
ENDBRANCH  26  27
ENDBRANCH  25  26
ENDBRANCH   1  25
TORSDOF 21
ENDMDL
MODEL 2
REMARK VINA RESULT:      -8.8      4.683      8.316
REMARK SMILES COc1cc(Br)c(OC)c(C(=O)NCCC(=O)NCCCCCCNC(=O)c2ccc(-c3c4nc(c(-c5ccc(S(=O)(=O)[O-])cc5)c5ccc([nH]5)c(-c5ccc(S(=O)(=O)[O-])cc5)c5nc(c(-c6ccc(S(=O)(=O)[O-])cc6)c6ccc3[nH]6)C=C5)C=C4)cc2)c1
REMARK SMILES IDX 21 1 20 2 19 3 18 4 16 5 17 6 15 8 14 9 13 10 11 11 12 12
REMARK SMILES IDX 10 14 3 15 4 16 88 17 5 18 6 19 7 20 2 21 1 22 8 23 9 24
REMARK SMILES IDX 22 25 23 26 24 27 25 28 26 29 27 31 28 32 29 33 87 34 30 35
REMARK SMILES IDX 86 36 31 37 32 38 33 39 80 40 34 41 85 42 79 43 81 44 35 45
REMARK SMILES IDX 84 46 78 47 77 48 36 50 66 51 47 52 65 53 48 54 51 55 64 56
REMARK SMILES IDX 82 57 49 58 50 59 63 61 83 62 52 63 37 64 38 65 46 66 39 67
REMARK SMILES IDX 45 68 40 69 41 70 42 71 43 72 44 73 67 74 68 75 76 76 69 77
REMARK SMILES IDX 75 78 70 79 71 80 72 81 73 82 74 83 53 84 54 85 62 86 55 87
REMARK SMILES IDX 61 88 56 89 57 90 58 91 59 92 60 93
REMARK H PARENT 18 7 13 13 25 30 81 49 51 60
REMARK Flexibility Score: inf
ROOT
ATOM      1  C   UNL A   1      35.355  31.576  28.638  1.00  0.00     0.002 C 
ENDROOT
BRANCH   1   2
ATOM      2  C   UNL A   1      35.277  30.393  27.671  1.00  0.00     0.021 C 
BRANCH   2   3
ATOM      3  C   UNL A   1      33.937  30.256  26.949  1.00  0.00     0.116 C 
BRANCH   3   4
ATOM      4  N   UNL A   1      33.040  29.392  27.692  1.00  0.00    -0.356 N 
ATOM      5  C   UNL A   1      32.075  28.555  27.224  1.00  0.00     0.221 C 
ATOM      6  O   UNL A   1      31.350  27.974  28.035  1.00  0.00    -0.275 OA
ATOM      7  H   UNL A   1      33.145  29.412  28.671  1.00  0.00     0.163 HD
BRANCH   5   8
ATOM      8  C   UNL A   1      31.885  28.363  25.732  1.00  0.00     0.121 C 
BRANCH   8   9
ATOM      9  C   UNL A   1      31.242  27.018  25.426  1.00  0.00     0.126 C 
BRANCH   9  10
ATOM     10  N   UNL A   1      31.672  26.427  24.161  1.00  0.00    -0.351 N 
ATOM     11  C   UNL A   1      32.621  25.557  23.682  1.00  0.00     0.255 C 
ATOM     12  O   UNL A   1      32.674  25.528  22.450  1.00  0.00    -0.269 OA
ATOM     13  H   UNL A   1      31.108  26.755  23.423  1.00  0.00     0.163 HD
BRANCH  11  14
ATOM     14  C   UNL A   1      33.484  24.636  24.505  1.00  0.00     0.086 A 
ATOM     15  C   UNL A   1      35.705  23.879  25.138  1.00  0.00     0.121 A 
ATOM     16  C   UNL A   1      35.190  23.232  26.248  1.00  0.00     0.066 A 
ATOM     17  C   UNL A   1      34.867  24.606  24.305  1.00  0.00     0.064 A 
ATOM     18  C   UNL A   1      33.808  23.221  26.478  1.00  0.00     0.064 A 
ATOM     19  Br  UNL A   1      33.321  22.206  28.015  1.00  0.00    -0.047 Br
ATOM     20  C   UNL A   1      32.930  23.894  25.597  1.00  0.00     0.146 A 
BRANCH  15  21
ATOM     21  O   UNL A   1      37.042  23.917  24.852  1.00  0.00    -0.497 OA
ATOM     22  C   UNL A   1      37.848  23.871  26.028  1.00  0.00     0.278 C 
ENDBRANCH  15  21
BRANCH  20  23
ATOM     23  O   UNL A   1      31.562  23.811  25.610  1.00  0.00    -0.495 OA
ATOM     24  C   UNL A   1      30.887  22.592  25.338  1.00  0.00     0.278 C 
ENDBRANCH  20  23
ENDBRANCH  11  14
ENDBRANCH   9  10
ENDBRANCH   8   9
ENDBRANCH   5   8
ENDBRANCH   3   4
ENDBRANCH   2   3
ENDBRANCH   1   2
BRANCH   1  25
ATOM     25  C   UNL A   1      35.875  32.880  28.027  1.00  0.00     0.002 C 
BRANCH  25  26
ATOM     26  C   UNL A   1      34.863  34.027  27.987  1.00  0.00     0.021 C 
BRANCH  26  27
ATOM     27  C   UNL A   1      33.449  33.642  28.413  1.00  0.00     0.116 C 
BRANCH  27  28
ATOM     28  N   UNL A   1      32.874  34.623  29.320  1.00  0.00    -0.352 N 
ATOM     29  C   UNL A   1      33.181  34.881  30.633  1.00  0.00     0.251 C 
ATOM     30  H   UNL A   1      32.161  35.184  28.937  1.00  0.00     0.163 HD
ATOM     31  O   UNL A   1      32.438  35.582  31.311  1.00  0.00    -0.269 OA
BRANCH  29  32
ATOM     32  C   UNL A   1      34.404  34.300  31.226  1.00  0.00     0.039 A 
ATOM     33  C   UNL A   1      34.348  33.018  31.778  1.00  0.00     0.014 A 
ATOM     34  C   UNL A   1      35.599  35.024  31.247  1.00  0.00     0.014 A 
ATOM     35  C   UNL A   1      35.505  32.441  32.302  1.00  0.00     0.010 A 
ATOM     36  C   UNL A   1      36.767  34.419  31.702  1.00  0.00     0.010 A 
ATOM     37  C   UNL A   1      36.731  33.124  32.241  1.00  0.00    -0.014 A 
BRANCH  37  38
ATOM     38  C   UNL A   1      37.985  32.501  32.732  1.00  0.00     0.031 A 
ATOM     39  C   UNL A   1      38.473  32.776  34.129  1.00  0.00     0.074 A 
ATOM     40  C   UNL A   1      38.717  31.735  31.900  1.00  0.00     0.049 A 
ATOM     41  N   UNL A   1      39.562  32.354  34.720  1.00  0.00    -0.248 NA
ATOM     42  C   UNL A   1      37.640  33.660  34.961  1.00  0.00     0.031 C 
ATOM     43  C   UNL A   1      38.371  31.425  30.511  1.00  0.00     0.029 A 
ATOM     44  N   UNL A   1      39.907  31.080  32.098  1.00  0.00    -0.354 N 
ATOM     45  C   UNL A   1      39.553  32.933  35.984  1.00  0.00     0.074 A 
ATOM     46  C   UNL A   1      38.380  33.776  36.055  1.00  0.00     0.031 C 
ATOM     47  C   UNL A   1      39.308  30.615  29.994  1.00  0.00     0.029 A 
ATOM     48  C   UNL A   1      40.344  30.384  30.996  1.00  0.00     0.049 A 
ATOM     49  H   UNL A   1      40.400  31.107  32.949  1.00  0.00     0.167 HD
ATOM     50  C   UNL A   1      40.434  32.766  37.001  1.00  0.00     0.031 A 
ATOM     51  C   UNL A   1      41.455  29.644  30.810  1.00  0.00     0.031 A 
ATOM     52  C   UNL A   1      41.600  31.926  36.923  1.00  0.00     0.049 A 
ATOM     53  C   UNL A   1      42.429  29.488  31.945  1.00  0.00     0.074 A 
ATOM     54  C   UNL A   1      42.525  31.645  37.914  1.00  0.00     0.029 A 
ATOM     55  N   UNL A   1      42.010  31.242  35.788  1.00  0.00    -0.354 N 
ATOM     56  N   UNL A   1      42.368  29.986  33.157  1.00  0.00    -0.248 NA
ATOM     57  C   UNL A   1      43.615  28.660  31.689  1.00  0.00     0.031 C 
ATOM     58  C   UNL A   1      43.526  30.839  37.360  1.00  0.00     0.029 A 
ATOM     59  C   UNL A   1      43.191  30.563  36.045  1.00  0.00     0.049 A 
ATOM     60  H   UNL A   1      41.532  31.239  34.928  1.00  0.00     0.167 HD
ATOM     61  C   UNL A   1      43.496  29.510  33.818  1.00  0.00     0.074 A 
ATOM     62  C   UNL A   1      44.211  28.675  32.874  1.00  0.00     0.031 C 
ATOM     63  C   UNL A   1      43.897  29.742  35.092  1.00  0.00     0.031 A 
BRANCH  50  64
ATOM     64  C   UNL A   1      40.171  33.525  38.277  1.00  0.00    -0.014 A 
ATOM     65  C   UNL A   1      39.361  32.988  39.294  1.00  0.00     0.010 A 
ATOM     66  C   UNL A   1      40.756  34.791  38.468  1.00  0.00     0.010 A 
ATOM     67  C   UNL A   1      39.093  33.725  40.451  1.00  0.00     0.020 A 
ATOM     68  C   UNL A   1      40.517  35.518  39.639  1.00  0.00     0.020 A 
ATOM     69  C   UNL A   1      39.669  34.989  40.613  1.00  0.00     0.054 A 
BRANCH  69  70
ATOM     70  S   UNL A   1      39.301  35.924  42.123  1.00  0.00     0.124 S 
ATOM     71  O   UNL A   1      40.328  35.434  43.039  1.00  0.00    -0.237 OA
ATOM     72  O   UNL A   1      39.456  37.310  41.688  1.00  0.00    -0.237 OA
ATOM     73  O   UNL A   1      37.933  35.528  42.452  1.00  0.00    -0.744 OA
ENDBRANCH  69  70
ENDBRANCH  50  64
BRANCH  51  74
ATOM     74  C   UNL A   1      41.685  28.977  29.499  1.00  0.00    -0.014 A 
ATOM     75  C   UNL A   1      42.258  29.687  28.431  1.00  0.00     0.010 A 
ATOM     76  C   UNL A   1      41.366  27.618  29.324  1.00  0.00     0.010 A 
ATOM     77  C   UNL A   1      42.503  29.054  27.209  1.00  0.00     0.020 A 
ATOM     78  C   UNL A   1      41.636  26.973  28.113  1.00  0.00     0.020 A 
ATOM     79  C   UNL A   1      42.197  27.699  27.060  1.00  0.00     0.054 A 
BRANCH  79  80
ATOM     80  S   UNL A   1      42.591  26.881  25.489  1.00  0.00     0.124 S 
ATOM     81  O   UNL A   1      41.434  26.013  25.298  1.00  0.00    -0.237 OA
ATOM     82  O   UNL A   1      42.695  28.009  24.566  1.00  0.00    -0.237 OA
ATOM     83  O   UNL A   1      43.850  26.195  25.766  1.00  0.00    -0.744 OA
ENDBRANCH  79  80
ENDBRANCH  51  74
BRANCH  63  84
ATOM     84  C   UNL A   1      45.157  29.059  35.557  1.00  0.00    -0.014 A 
ATOM     85  C   UNL A   1      46.413  29.683  35.444  1.00  0.00     0.010 A 
ATOM     86  C   UNL A   1      45.075  27.793  36.165  1.00  0.00     0.010 A 
ATOM     87  C   UNL A   1      47.565  29.041  35.905  1.00  0.00     0.020 A 
ATOM     88  C   UNL A   1      46.220  27.161  36.654  1.00  0.00     0.020 A 
ATOM     89  C   UNL A   1      47.462  27.783  36.507  1.00  0.00     0.054 A 
BRANCH  89  90
ATOM     90  S   UNL A   1      48.966  26.991  37.137  1.00  0.00     0.124 S 
ATOM     91  O   UNL A   1      49.175  25.920  36.168  1.00  0.00    -0.237 OA
ATOM     92  O   UNL A   1      49.942  28.077  37.093  1.00  0.00    -0.237 OA
ATOM     93  O   UNL A   1      48.592  26.553  38.480  1.00  0.00    -0.744 OA
ENDBRANCH  89  90
ENDBRANCH  63  84
ENDBRANCH  37  38
ENDBRANCH  29  32
ENDBRANCH  27  28
ENDBRANCH  26  27
ENDBRANCH  25  26
ENDBRANCH   1  25
TORSDOF 21
ENDMDL
MODEL 3
REMARK VINA RESULT:      -8.8      4.889      8.752
REMARK SMILES COc1cc(Br)c(OC)c(C(=O)NCCC(=O)NCCCCCCNC(=O)c2ccc(-c3c4nc(c(-c5ccc(S(=O)(=O)[O-])cc5)c5ccc([nH]5)c(-c5ccc(S(=O)(=O)[O-])cc5)c5nc(c(-c6ccc(S(=O)(=O)[O-])cc6)c6ccc3[nH]6)C=C5)C=C4)cc2)c1
REMARK SMILES IDX 21 1 20 2 19 3 18 4 16 5 17 6 15 8 14 9 13 10 11 11 12 12
REMARK SMILES IDX 10 14 3 15 4 16 88 17 5 18 6 19 7 20 2 21 1 22 8 23 9 24
REMARK SMILES IDX 22 25 23 26 24 27 25 28 26 29 27 31 28 32 29 33 87 34 30 35
REMARK SMILES IDX 86 36 31 37 32 38 33 39 80 40 34 41 85 42 79 43 81 44 35 45
REMARK SMILES IDX 84 46 78 47 77 48 36 50 66 51 47 52 65 53 48 54 51 55 64 56
REMARK SMILES IDX 82 57 49 58 50 59 63 61 83 62 52 63 37 64 38 65 46 66 39 67
REMARK SMILES IDX 45 68 40 69 41 70 42 71 43 72 44 73 67 74 68 75 76 76 69 77
REMARK SMILES IDX 75 78 70 79 71 80 72 81 73 82 74 83 53 84 54 85 62 86 55 87
REMARK SMILES IDX 61 88 56 89 57 90 58 91 59 92 60 93
REMARK H PARENT 18 7 13 13 25 30 81 49 51 60
REMARK Flexibility Score: inf
ROOT
ATOM      1  C   UNL A   1      35.665  31.981  28.717  1.00  0.00     0.002 C 
ENDROOT
BRANCH   1   2
ATOM      2  C   UNL A   1      36.083  30.857  27.767  1.00  0.00     0.021 C 
BRANCH   2   3
ATOM      3  C   UNL A   1      34.965  29.873  27.423  1.00  0.00     0.116 C 
BRANCH   3   4
ATOM      4  N   UNL A   1      33.786  30.579  26.959  1.00  0.00    -0.356 N 
ATOM      5  C   UNL A   1      32.664  30.079  26.375  1.00  0.00     0.221 C 
ATOM      6  O   UNL A   1      31.810  30.867  25.962  1.00  0.00    -0.275 OA
ATOM      7  H   UNL A   1      33.799  31.556  27.086  1.00  0.00     0.163 HD
BRANCH   5   8
ATOM      8  C   UNL A   1      32.485  28.583  26.217  1.00  0.00     0.121 C 
BRANCH   8   9
ATOM      9  C   UNL A   1      31.745  27.987  27.406  1.00  0.00     0.126 C 
BRANCH   9  10
ATOM     10  N   UNL A   1      31.074  26.722  27.117  1.00  0.00    -0.351 N 
ATOM     11  C   UNL A   1      30.438  26.089  26.076  1.00  0.00     0.255 C 
ATOM     12  O   UNL A   1      29.867  25.051  26.416  1.00  0.00    -0.269 OA
ATOM     13  H   UNL A   1      31.078  26.144  27.914  1.00  0.00     0.163 HD
BRANCH  11  14
ATOM     14  C   UNL A   1      30.461  26.508  24.628  1.00  0.00     0.086 A 
ATOM     15  C   UNL A   1      29.871  28.136  22.924  1.00  0.00     0.121 A 
ATOM     16  C   UNL A   1      30.762  27.560  22.036  1.00  0.00     0.066 A 
ATOM     17  C   UNL A   1      29.757  27.642  24.215  1.00  0.00     0.064 A 
ATOM     18  C   UNL A   1      31.478  26.412  22.402  1.00  0.00     0.064 A 
ATOM     19  Br  UNL A   1      32.583  25.749  20.998  1.00  0.00    -0.047 Br
ATOM     20  C   UNL A   1      31.318  25.849  23.689  1.00  0.00     0.146 A 
BRANCH  15  21
ATOM     21  O   UNL A   1      29.136  29.250  22.624  1.00  0.00    -0.497 OA
ATOM     22  C   UNL A   1      29.720  30.016  21.571  1.00  0.00     0.278 C 
ENDBRANCH  15  21
BRANCH  20  23
ATOM     23  O   UNL A   1      31.817  24.641  24.103  1.00  0.00    -0.495 OA
ATOM     24  C   UNL A   1      31.285  23.413  23.630  1.00  0.00     0.278 C 
ENDBRANCH  20  23
ENDBRANCH  11  14
ENDBRANCH   9  10
ENDBRANCH   8   9
ENDBRANCH   5   8
ENDBRANCH   3   4
ENDBRANCH   2   3
ENDBRANCH   1   2
BRANCH   1  25
ATOM     25  C   UNL A   1      35.987  33.396  28.228  1.00  0.00     0.002 C 
BRANCH  25  26
ATOM     26  C   UNL A   1      34.784  34.334  28.122  1.00  0.00     0.021 C 
BRANCH  26  27
ATOM     27  C   UNL A   1      33.488  33.777  28.706  1.00  0.00     0.116 C 
BRANCH  27  28
ATOM     28  N   UNL A   1      32.894  34.691  29.668  1.00  0.00    -0.352 N 
ATOM     29  C   UNL A   1      33.203  34.884  30.992  1.00  0.00     0.251 C 
ATOM     30  H   UNL A   1      32.164  35.253  29.321  1.00  0.00     0.163 HD
ATOM     31  O   UNL A   1      32.446  35.526  31.712  1.00  0.00    -0.269 OA
BRANCH  29  32
ATOM     32  C   UNL A   1      34.445  34.304  31.546  1.00  0.00     0.039 A 
ATOM     33  C   UNL A   1      34.420  33.002  32.049  1.00  0.00     0.014 A 
ATOM     34  C   UNL A   1      35.627  35.049  31.577  1.00  0.00     0.014 A 
ATOM     35  C   UNL A   1      35.595  32.428  32.535  1.00  0.00     0.010 A 
ATOM     36  C   UNL A   1      36.812  34.450  31.992  1.00  0.00     0.010 A 
ATOM     37  C   UNL A   1      36.808  33.135  32.483  1.00  0.00    -0.014 A 
BRANCH  37  38
ATOM     38  C   UNL A   1      38.080  32.517  32.933  1.00  0.00     0.031 A 
ATOM     39  C   UNL A   1      38.606  32.787  34.316  1.00  0.00     0.074 A 
ATOM     40  C   UNL A   1      38.792  31.762  32.073  1.00  0.00     0.049 A 
ATOM     41  N   UNL A   1      39.715  32.369  34.872  1.00  0.00    -0.248 NA
ATOM     42  C   UNL A   1      37.793  33.659  35.179  1.00  0.00     0.031 C 
ATOM     43  C   UNL A   1      38.408  31.459  30.693  1.00  0.00     0.029 A 
ATOM     44  N   UNL A   1      39.992  31.115  32.233  1.00  0.00    -0.354 N 
ATOM     45  C   UNL A   1      39.740  32.939  36.140  1.00  0.00     0.074 A 
ATOM     46  C   UNL A   1      38.564  33.773  36.251  1.00  0.00     0.031 C 
ATOM     47  C   UNL A   1      39.335  30.660  30.144  1.00  0.00     0.029 A 
ATOM     48  C   UNL A   1      40.401  30.429  31.113  1.00  0.00     0.049 A 
ATOM     49  H   UNL A   1      40.510  31.140  33.069  1.00  0.00     0.167 HD
ATOM     50  C   UNL A   1      40.651  32.771  37.129  1.00  0.00     0.031 A 
ATOM     51  C   UNL A   1      41.511  29.699  30.889  1.00  0.00     0.031 A 
ATOM     52  C   UNL A   1      41.821  31.940  37.011  1.00  0.00     0.049 A 
ATOM     53  C   UNL A   1      42.519  29.542  31.994  1.00  0.00     0.074 A 
ATOM     54  C   UNL A   1      42.776  31.659  37.973  1.00  0.00     0.029 A 
ATOM     55  N   UNL A   1      42.202  31.267  35.860  1.00  0.00    -0.354 N 
ATOM     56  N   UNL A   1      42.491  30.031  33.211  1.00  0.00    -0.248 NA
ATOM     57  C   UNL A   1      43.703  28.724  31.698  1.00  0.00     0.031 C 
ATOM     58  C   UNL A   1      43.766  30.864  37.384  1.00  0.00     0.029 A 
ATOM     59  C   UNL A   1      43.394  30.594  36.077  1.00  0.00     0.049 A 
ATOM     60  H   UNL A   1      41.699  31.266  35.014  1.00  0.00     0.167 HD
ATOM     61  C   UNL A   1      43.641  29.559  33.835  1.00  0.00     0.074 A 
ATOM     62  C   UNL A   1      44.333  28.735  32.865  1.00  0.00     0.031 C 
ATOM     63  C   UNL A   1      44.078  29.785  35.098  1.00  0.00     0.031 A 
BRANCH  50  64
ATOM     64  C   UNL A   1      40.421  33.520  38.417  1.00  0.00    -0.014 A 
ATOM     65  C   UNL A   1      40.997  34.785  38.641  1.00  0.00     0.010 A 
ATOM     66  C   UNL A   1      39.603  32.957  39.415  1.00  0.00     0.010 A 
ATOM     67  C   UNL A   1      40.808  35.445  39.858  1.00  0.00     0.020 A 
ATOM     68  C   UNL A   1      39.385  33.630  40.621  1.00  0.00     0.020 A 
ATOM     69  C   UNL A   1      40.008  34.859  40.844  1.00  0.00     0.054 A 
BRANCH  69  70
ATOM     70  S   UNL A   1      39.783  35.737  42.415  1.00  0.00     0.124 S 
ATOM     71  O   UNL A   1      40.279  37.072  42.088  1.00  0.00    -0.237 OA
ATOM     72  O   UNL A   1      38.344  35.638  42.635  1.00  0.00    -0.237 OA
ATOM     73  O   UNL A   1      40.608  34.981  43.356  1.00  0.00    -0.744 OA
ENDBRANCH  69  70
ENDBRANCH  50  64
BRANCH  51  74
ATOM     74  C   UNL A   1      41.707  29.042  29.567  1.00  0.00    -0.014 A 
ATOM     75  C   UNL A   1      42.365  29.720  28.527  1.00  0.00     0.010 A 
ATOM     76  C   UNL A   1      41.270  27.722  29.354  1.00  0.00     0.010 A 
ATOM     77  C   UNL A   1      42.577  29.094  27.296  1.00  0.00     0.020 A 
ATOM     78  C   UNL A   1      41.505  27.082  28.133  1.00  0.00     0.020 A 
ATOM     79  C   UNL A   1      42.152  27.776  27.109  1.00  0.00     0.054 A 
BRANCH  79  80
ATOM     80  S   UNL A   1      42.503  26.960  25.527  1.00  0.00     0.124 S 
ATOM     81  O   UNL A   1      43.773  26.297  25.801  1.00  0.00    -0.237 OA
ATOM     82  O   UNL A   1      41.349  26.077  25.367  1.00  0.00    -0.237 OA
ATOM     83  O   UNL A   1      42.566  28.067  24.576  1.00  0.00    -0.744 OA
ENDBRANCH  79  80
ENDBRANCH  51  74
BRANCH  63  84
ATOM     84  C   UNL A   1      45.356  29.107  35.521  1.00  0.00    -0.014 A 
ATOM     85  C   UNL A   1      45.350  27.814  36.074  1.00  0.00     0.010 A 
ATOM     86  C   UNL A   1      46.587  29.756  35.310  1.00  0.00     0.010 A 
ATOM     87  C   UNL A   1      46.550  27.195  36.436  1.00  0.00     0.020 A 
ATOM     88  C   UNL A   1      47.789  29.129  35.643  1.00  0.00     0.020 A 
ATOM     89  C   UNL A   1      47.762  27.857  36.217  1.00  0.00     0.054 A 
BRANCH  89  90
ATOM     90  S   UNL A   1      49.307  27.013  36.654  1.00  0.00     0.124 S 
ATOM     91  O   UNL A   1      48.853  25.645  36.882  1.00  0.00    -0.237 OA
ATOM     92  O   UNL A   1      50.128  27.213  35.462  1.00  0.00    -0.237 OA
ATOM     93  O   UNL A   1      49.767  27.725  37.845  1.00  0.00    -0.744 OA
ENDBRANCH  89  90
ENDBRANCH  63  84
ENDBRANCH  37  38
ENDBRANCH  29  32
ENDBRANCH  27  28
ENDBRANCH  26  27
ENDBRANCH  25  26
ENDBRANCH   1  25
TORSDOF 21
ENDMDL
