MODEL 1
REMARK VINA RESULT:     -11.7      0.000      0.000
REMARK SMILES C[C@@H](Oc1ccc(/C=C2\C(=O)[NH+]=C(NCCCCCCNC(=O)c3ccc(-c4c5nc(c(-c6ccc(S(=O)(=O)[O-])cc6)c6ccc([nH]6)c(-c6ccc(S(=O)(=O)[O-])cc6)c6nc(c(-c7ccc(S(=O)(=O)[O-])cc7)c7ccc4[nH]7)C=C6)C=C5)cc3)N(c3ccc4c(c3)OCO4)C2=O)cc1)C(=O)[O-]
REMARK SMILES IDX 17 1 16 2 15 3 14 4 8 5 9 6 10 7 94 8 11 9 12 10 84 11 95 12
REMARK SMILES IDX 13 13 7 16 4 17 5 18 97 19 6 20 96 21 3 22 2 23 1 24 98 25
REMARK SMILES IDX 99 26 100 27 85 28 86 29 90 30 87 31 89 32 88 33 91 34 93 35
REMARK SMILES IDX 92 36 18 37 19 38 20 39 21 40 22 41 23 43 24 44 25 45 83 46
REMARK SMILES IDX 26 47 82 48 27 49 28 50 29 51 76 52 30 53 81 54 75 55 77 56
REMARK SMILES IDX 31 57 80 58 74 59 73 60 32 62 62 63 43 64 61 65 44 66 47 67
REMARK SMILES IDX 60 68 78 69 45 70 46 71 59 73 79 74 48 75 33 76 34 77 42 78
REMARK SMILES IDX 35 79 41 80 36 81 37 82 38 83 39 84 40 85 63 86 64 87 72 88
REMARK SMILES IDX 65 89 71 90 66 91 67 92 68 93 69 94 70 95 49 96 50 97 58 98
REMARK SMILES IDX 51 99 57 100 52 101 53 102 54 103 55 104 56 105
REMARK H PARENT 12 14 14 15 21 42 77 61 47 72
REMARK Flexibility Score: inf
ROOT
ATOM      1  C   UNL A   1      35.262  30.279  28.066  1.00  0.00     0.003 C 
ENDROOT
BRANCH   1   2
ATOM      2  C   UNL A   1      34.314  29.990  26.895  1.00  0.00     0.037 C 
BRANCH   2   3
ATOM      3  C   UNL A   1      34.300  28.527  26.454  1.00  0.00     0.197 C 
BRANCH   3   4
ATOM      4  N   UNL A   1      33.153  28.286  25.605  1.00  0.00    -0.277 N 
ATOM      5  C   UNL A   1      31.901  23.514  23.698  1.00  0.00     0.031 C 
ATOM      6  C   UNL A   1      32.408  24.759  23.740  1.00  0.00     0.138 C 
ATOM      7  C   UNL A   1      33.794  25.130  24.069  1.00  0.00     0.321 C 
ATOM      8  C   UNL A   1      31.486  25.869  23.439  1.00  0.00     0.328 C 
ATOM      9  O   UNL A   1      34.752  24.471  23.698  1.00  0.00    -0.250 OA
ATOM     10  N   UNL A   1      33.905  26.254  24.834  1.00  0.00    -0.210 N 
ATOM     11  N   UNL A   1      31.863  27.077  24.015  1.00  0.00    -0.162 N 
ATOM     12  O   UNL A   1      30.477  25.690  22.758  1.00  0.00    -0.249 OA
ATOM     13  C   UNL A   1      33.003  27.185  24.803  1.00  0.00     0.366 C 
ATOM     14  H   UNL A   1      34.688  26.362  25.421  1.00  0.00     0.270 HD
ATOM     15  H   UNL A   1      32.432  28.957  25.602  1.00  0.00     0.260 HD
BRANCH   5  16
ATOM     16  C   UNL A   1      32.539  22.231  24.025  1.00  0.00    -0.024 A 
ATOM     17  C   UNL A   1      33.554  19.682  24.632  1.00  0.00     0.120 A 
ATOM     18  C   UNL A   1      33.905  20.777  25.415  1.00  0.00     0.047 A 
ATOM     19  C   UNL A   1      32.659  19.845  23.580  1.00  0.00     0.047 A 
ATOM     20  C   UNL A   1      33.390  22.044  25.121  1.00  0.00     0.012 A 
ATOM     21  C   UNL A   1      32.165  21.113  23.270  1.00  0.00     0.012 A 
BRANCH  17  22
ATOM     22  O   UNL A   1      33.989  18.448  25.024  1.00  0.00    -0.485 OA
BRANCH  22  23
ATOM     23  C   UNL A   1      33.204  17.358  24.525  1.00  0.00     0.216 C 
ATOM     24  C   UNL A   1      32.512  16.591  25.648  1.00  0.00     0.059 C 
BRANCH  23  25
ATOM     25  C   UNL A   1      34.137  16.381  23.816  1.00  0.00     0.082 C 
ATOM     26  O   UNL A   1      34.206  16.206  22.608  1.00  0.00    -0.546 OA
ATOM     27  O   UNL A   1      34.860  15.603  24.650  1.00  0.00    -0.546 OA
ENDBRANCH  23  25
ENDBRANCH  22  23
ENDBRANCH  17  22
ENDBRANCH   5  16
BRANCH  11  28
ATOM     28  C   UNL A   1      30.978  28.169  23.825  1.00  0.00     0.115 A 
ATOM     29  C   UNL A   1      30.984  29.244  24.742  1.00  0.00     0.048 A 
ATOM     30  C   UNL A   1      30.226  28.234  22.647  1.00  0.00     0.094 A 
ATOM     31  C   UNL A   1      30.287  30.421  24.448  1.00  0.00     0.054 A 
ATOM     32  C   UNL A   1      29.565  29.409  22.384  1.00  0.00     0.169 A 
ATOM     33  C   UNL A   1      29.608  30.479  23.248  1.00  0.00     0.166 A 
ATOM     34  O   UNL A   1      28.867  29.684  21.249  1.00  0.00    -0.453 OA
ATOM     35  O   UNL A   1      28.961  31.566  22.744  1.00  0.00    -0.454 OA
ATOM     36  C   UNL A   1      28.688  31.105  21.402  1.00  0.00     0.468 C 
ENDBRANCH  11  28
ENDBRANCH   3   4
ENDBRANCH   2   3
ENDBRANCH   1   2
BRANCH   1  37
ATOM     37  C   UNL A   1      36.001  31.619  27.990  1.00  0.00     0.002 C 
BRANCH  37  38
ATOM     38  C   UNL A   1      35.109  32.838  27.744  1.00  0.00     0.021 C 
BRANCH  38  39
ATOM     39  C   UNL A   1      33.647  32.642  28.130  1.00  0.00     0.116 C 
BRANCH  39  40
ATOM     40  N   UNL A   1      33.081  33.830  28.749  1.00  0.00    -0.352 N 
ATOM     41  C   UNL A   1      33.418  34.432  29.936  1.00  0.00     0.251 C 
ATOM     42  H   UNL A   1      32.355  34.263  28.247  1.00  0.00     0.163 HD
ATOM     43  O   UNL A   1      32.704  35.317  30.399  1.00  0.00    -0.269 OA
BRANCH  41  44
ATOM     44  C   UNL A   1      34.631  33.998  30.663  1.00  0.00     0.039 A 
ATOM     45  C   UNL A   1      34.585  32.822  31.415  1.00  0.00     0.014 A 
ATOM     46  C   UNL A   1      35.810  34.746  30.602  1.00  0.00     0.014 A 
ATOM     47  C   UNL A   1      35.738  32.366  32.058  1.00  0.00     0.010 A 
ATOM     48  C   UNL A   1      36.977  34.250  31.179  1.00  0.00     0.010 A 
ATOM     49  C   UNL A   1      36.953  33.058  31.917  1.00  0.00    -0.014 A 
BRANCH  49  50
ATOM     50  C   UNL A   1      38.206  32.550  32.532  1.00  0.00     0.031 A 
ATOM     51  C   UNL A   1      39.130  31.659  31.743  1.00  0.00     0.074 A 
ATOM     52  C   UNL A   1      38.485  32.840  33.818  1.00  0.00     0.049 A 
ATOM     53  N   UNL A   1      40.235  31.073  32.126  1.00  0.00    -0.248 NA
ATOM     54  C   UNL A   1      38.751  31.371  30.349  1.00  0.00     0.031 C 
ATOM     55  C   UNL A   1      37.653  33.662  34.702  1.00  0.00     0.029 A 
ATOM     56  N   UNL A   1      39.544  32.472  34.612  1.00  0.00    -0.354 N 
ATOM     57  C   UNL A   1      40.673  30.338  31.030  1.00  0.00     0.074 A 
ATOM     58  C   UNL A   1      39.689  30.510  29.985  1.00  0.00     0.031 C 
ATOM     59  C   UNL A   1      38.247  33.757  35.902  1.00  0.00     0.029 A 
ATOM     60  C   UNL A   1      39.474  32.968  35.892  1.00  0.00     0.049 A 
ATOM     61  H   UNL A   1      40.284  31.905  34.293  1.00  0.00     0.167 HD
ATOM     62  C   UNL A   1      41.804  29.602  30.898  1.00  0.00     0.031 A 
ATOM     63  C   UNL A   1      40.299  32.800  36.946  1.00  0.00     0.031 A 
ATOM     64  C   UNL A   1      42.785  29.439  31.937  1.00  0.00     0.049 A 
ATOM     65  C   UNL A   1      41.536  31.958  36.780  1.00  0.00     0.074 A 
ATOM     66  C   UNL A   1      43.987  28.756  31.884  1.00  0.00     0.029 A 
ATOM     67  N   UNL A   1      42.679  29.961  33.218  1.00  0.00    -0.354 N 
ATOM     68  N   UNL A   1      41.966  31.325  35.715  1.00  0.00    -0.248 NA
ATOM     69  C   UNL A   1      42.407  31.821  37.956  1.00  0.00     0.031 C 
ATOM     70  C   UNL A   1      44.579  28.815  33.150  1.00  0.00     0.029 A 
ATOM     71  C   UNL A   1      43.781  29.593  33.972  1.00  0.00     0.049 A 
ATOM     72  H   UNL A   1      41.931  30.512  33.544  1.00  0.00     0.167 HD
ATOM     73  C   UNL A   1      43.171  30.739  36.084  1.00  0.00     0.074 A 
ATOM     74  C   UNL A   1      43.410  31.107  37.465  1.00  0.00     0.031 C 
ATOM     75  C   UNL A   1      44.007  29.968  35.345  1.00  0.00     0.031 A 
BRANCH  62  76
ATOM     76  C   UNL A   1      42.038  28.911  29.579  1.00  0.00    -0.014 A 
ATOM     77  C   UNL A   1      41.610  27.588  29.364  1.00  0.00     0.010 A 
ATOM     78  C   UNL A   1      42.647  29.612  28.521  1.00  0.00     0.010 A 
ATOM     79  C   UNL A   1      41.823  26.966  28.131  1.00  0.00     0.020 A 
ATOM     80  C   UNL A   1      42.834  29.003  27.277  1.00  0.00     0.020 A 
ATOM     81  C   UNL A   1      42.435  27.677  27.095  1.00  0.00     0.054 A 
BRANCH  81  82
ATOM     82  S   UNL A   1      42.668  26.853  25.497  1.00  0.00     0.124 S 
ATOM     83  O   UNL A   1      43.972  26.217  25.674  1.00  0.00    -0.237 OA
ATOM     84  O   UNL A   1      41.528  25.943  25.437  1.00  0.00    -0.237 OA
ATOM     85  O   UNL A   1      42.638  27.950  24.531  1.00  0.00    -0.744 OA
ENDBRANCH  81  82
ENDBRANCH  62  76
BRANCH  63  86
ATOM     86  C   UNL A   1      39.985  33.448  38.250  1.00  0.00    -0.014 A 
ATOM     87  C   UNL A   1      39.000  32.911  39.097  1.00  0.00     0.010 A 
ATOM     88  C   UNL A   1      40.671  34.609  38.652  1.00  0.00     0.010 A 
ATOM     89  C   UNL A   1      38.691  33.534  40.310  1.00  0.00     0.020 A 
ATOM     90  C   UNL A   1      40.388  35.217  39.878  1.00  0.00     0.020 A 
ATOM     91  C   UNL A   1      39.388  34.682  40.693  1.00  0.00     0.054 A 
BRANCH  91  92
ATOM     92  S   UNL A   1      39.000  35.450  42.291  1.00  0.00     0.124 S 
ATOM     93  O   UNL A   1      39.392  36.837  42.064  1.00  0.00    -0.237 OA
ATOM     94  O   UNL A   1      37.565  35.209  42.415  1.00  0.00    -0.237 OA
ATOM     95  O   UNL A   1      39.832  34.710  43.237  1.00  0.00    -0.744 OA
ENDBRANCH  91  92
ENDBRANCH  63  86
BRANCH  75  96
ATOM     96  C   UNL A   1      45.283  29.501  35.996  1.00  0.00    -0.014 A 
ATOM     97  C   UNL A   1      45.350  28.277  36.686  1.00  0.00     0.010 A 
ATOM     98  C   UNL A   1      46.449  30.278  35.866  1.00  0.00     0.010 A 
ATOM     99  C   UNL A   1      46.552  27.855  37.259  1.00  0.00     0.020 A 
ATOM    100  C   UNL A   1      47.660  29.844  36.410  1.00  0.00     0.020 A 
ATOM    101  C   UNL A   1      47.700  28.640  37.116  1.00  0.00     0.054 A 
BRANCH 101 102
ATOM    102  S   UNL A   1      49.258  28.046  37.830  1.00  0.00     0.124 S 
ATOM    103  O   UNL A   1      50.213  28.342  36.766  1.00  0.00    -0.237 OA
ATOM    104  O   UNL A   1      49.388  28.859  39.037  1.00  0.00    -0.237 OA
ATOM    105  O   UNL A   1      49.012  26.626  38.067  1.00  0.00    -0.744 OA
ENDBRANCH 101 102
ENDBRANCH  75  96
ENDBRANCH  49  50
ENDBRANCH  41  44
ENDBRANCH  39  40
ENDBRANCH  38  39
ENDBRANCH  37  38
ENDBRANCH   1  37
TORSDOF 20
ENDMDL
MODEL 2
REMARK VINA RESULT:     -11.6      1.120      7.683
REMARK SMILES C[C@@H](Oc1ccc(/C=C2\C(=O)[NH+]=C(NCCCCCCNC(=O)c3ccc(-c4c5nc(c(-c6ccc(S(=O)(=O)[O-])cc6)c6ccc([nH]6)c(-c6ccc(S(=O)(=O)[O-])cc6)c6nc(c(-c7ccc(S(=O)(=O)[O-])cc7)c7ccc4[nH]7)C=C6)C=C5)cc3)N(c3ccc4c(c3)OCO4)C2=O)cc1)C(=O)[O-]
REMARK SMILES IDX 17 1 16 2 15 3 14 4 8 5 9 6 10 7 94 8 11 9 12 10 84 11 95 12
REMARK SMILES IDX 13 13 7 16 4 17 5 18 97 19 6 20 96 21 3 22 2 23 1 24 98 25
REMARK SMILES IDX 99 26 100 27 85 28 86 29 90 30 87 31 89 32 88 33 91 34 93 35
REMARK SMILES IDX 92 36 18 37 19 38 20 39 21 40 22 41 23 43 24 44 25 45 83 46
REMARK SMILES IDX 26 47 82 48 27 49 28 50 29 51 76 52 30 53 81 54 75 55 77 56
REMARK SMILES IDX 31 57 80 58 74 59 73 60 32 62 62 63 43 64 61 65 44 66 47 67
REMARK SMILES IDX 60 68 78 69 45 70 46 71 59 73 79 74 48 75 33 76 34 77 42 78
REMARK SMILES IDX 35 79 41 80 36 81 37 82 38 83 39 84 40 85 63 86 64 87 72 88
REMARK SMILES IDX 65 89 71 90 66 91 67 92 68 93 69 94 70 95 49 96 50 97 58 98
REMARK SMILES IDX 51 99 57 100 52 101 53 102 54 103 55 104 56 105
REMARK H PARENT 12 14 14 15 21 42 77 61 47 72
REMARK Flexibility Score: inf
ROOT
ATOM      1  C   UNL A   1      35.032  29.461  28.237  1.00  0.00     0.003 C 
ENDROOT
BRANCH   1   2
ATOM      2  C   UNL A   1      33.956  29.122  27.197  1.00  0.00     0.037 C 
BRANCH   2   3
ATOM      3  C   UNL A   1      34.213  27.821  26.440  1.00  0.00     0.197 C 
BRANCH   3   4
ATOM      4  N   UNL A   1      33.176  27.620  25.450  1.00  0.00    -0.277 N 
ATOM      5  C   UNL A   1      31.875  22.870  23.522  1.00  0.00     0.031 C 
ATOM      6  C   UNL A   1      32.454  24.082  23.598  1.00  0.00     0.138 C 
ATOM      7  C   UNL A   1      33.804  24.378  24.101  1.00  0.00     0.321 C 
ATOM      8  C   UNL A   1      31.656  25.236  23.146  1.00  0.00     0.328 C 
ATOM      9  O   UNL A   1      34.758  23.648  23.882  1.00  0.00    -0.250 OA
ATOM     10  N   UNL A   1      33.887  25.520  24.843  1.00  0.00    -0.210 N 
ATOM     11  N   UNL A   1      32.032  26.438  23.734  1.00  0.00    -0.162 N 
ATOM     12  O   UNL A   1      30.736  25.095  22.339  1.00  0.00    -0.249 OA
ATOM     13  C   UNL A   1      33.061  26.503  24.666  1.00  0.00     0.366 C 
ATOM     14  H   UNL A   1      34.590  25.599  25.528  1.00  0.00     0.270 HD
ATOM     15  H   UNL A   1      32.508  28.335  25.331  1.00  0.00     0.260 HD
BRANCH   5  16
ATOM     16  C   UNL A   1      32.377  21.563  23.968  1.00  0.00    -0.024 A 
ATOM     17  C   UNL A   1      33.151  18.971  24.727  1.00  0.00     0.120 A 
ATOM     18  C   UNL A   1      33.211  20.013  25.646  1.00  0.00     0.047 A 
ATOM     19  C   UNL A   1      32.659  19.205  23.448  1.00  0.00     0.047 A 
ATOM     20  C   UNL A   1      32.813  21.301  25.272  1.00  0.00     0.012 A 
ATOM     21  C   UNL A   1      32.287  20.495  23.066  1.00  0.00     0.012 A 
BRANCH  17  22
ATOM     22  O   UNL A   1      33.440  17.711  25.169  1.00  0.00    -0.485 OA
BRANCH  22  23
ATOM     23  C   UNL A   1      34.548  17.091  24.504  1.00  0.00     0.216 C 
ATOM     24  C   UNL A   1      34.226  16.752  23.051  1.00  0.00     0.059 C 
BRANCH  23  25
ATOM     25  C   UNL A   1      34.861  15.779  25.217  1.00  0.00     0.082 C 
ATOM     26  O   UNL A   1      34.094  14.836  25.351  1.00  0.00    -0.546 OA
ATOM     27  O   UNL A   1      36.073  15.749  25.812  1.00  0.00    -0.546 OA
ENDBRANCH  23  25
ENDBRANCH  22  23
ENDBRANCH  17  22
ENDBRANCH   5  16
BRANCH  11  28
ATOM     28  C   UNL A   1      31.254  27.575  23.397  1.00  0.00     0.115 A 
ATOM     29  C   UNL A   1      31.820  28.602  22.610  1.00  0.00     0.048 A 
ATOM     30  C   UNL A   1      29.893  27.584  23.719  1.00  0.00     0.094 A 
ATOM     31  C   UNL A   1      31.006  29.612  22.083  1.00  0.00     0.054 A 
ATOM     32  C   UNL A   1      29.121  28.582  23.175  1.00  0.00     0.169 A 
ATOM     33  C   UNL A   1      29.656  29.557  22.366  1.00  0.00     0.166 A 
ATOM     34  O   UNL A   1      27.772  28.692  23.302  1.00  0.00    -0.453 OA
ATOM     35  O   UNL A   1      28.698  30.384  21.865  1.00  0.00    -0.454 OA
ATOM     36  C   UNL A   1      27.506  29.693  22.300  1.00  0.00     0.468 C 
ENDBRANCH  11  28
ENDBRANCH   3   4
ENDBRANCH   2   3
ENDBRANCH   1   2
BRANCH   1  37
ATOM     37  C   UNL A   1      35.953  30.627  27.864  1.00  0.00     0.002 C 
BRANCH  37  38
ATOM     38  C   UNL A   1      35.244  31.962  27.625  1.00  0.00     0.021 C 
BRANCH  38  39
ATOM     39  C   UNL A   1      33.820  32.028  28.164  1.00  0.00     0.116 C 
BRANCH  39  40
ATOM     40  N   UNL A   1      33.527  33.313  28.779  1.00  0.00    -0.352 N 
ATOM     41  C   UNL A   1      34.109  33.902  29.875  1.00  0.00     0.251 C 
ATOM     42  H   UNL A   1      32.812  33.834  28.350  1.00  0.00     0.163 HD
ATOM     43  O   UNL A   1      33.604  34.904  30.373  1.00  0.00    -0.269 OA
BRANCH  41  44
ATOM     44  C   UNL A   1      35.332  33.313  30.464  1.00  0.00     0.039 A 
ATOM     45  C   UNL A   1      36.568  33.898  30.183  1.00  0.00     0.014 A 
ATOM     46  C   UNL A   1      35.259  32.189  31.291  1.00  0.00     0.014 A 
ATOM     47  C   UNL A   1      37.725  33.391  30.779  1.00  0.00     0.010 A 
ATOM     48  C   UNL A   1      36.402  31.734  31.945  1.00  0.00     0.010 A 
ATOM     49  C   UNL A   1      37.647  32.326  31.692  1.00  0.00    -0.014 A 
BRANCH  49  50
ATOM     50  C   UNL A   1      38.857  31.821  32.393  1.00  0.00     0.031 A 
ATOM     51  C   UNL A   1      39.154  32.260  33.803  1.00  0.00     0.074 A 
ATOM     52  C   UNL A   1      39.717  31.014  31.742  1.00  0.00     0.049 A 
ATOM     53  N   UNL A   1      40.185  31.973  34.555  1.00  0.00    -0.248 NA
ATOM     54  C   UNL A   1      38.177  33.157  34.443  1.00  0.00     0.031 C 
ATOM     55  C   UNL A   1      39.563  30.544  30.362  1.00  0.00     0.029 A 
ATOM     56  N   UNL A   1      40.900  30.448  32.151  1.00  0.00    -0.354 N 
ATOM     57  C   UNL A   1      39.990  32.663  35.745  1.00  0.00     0.074 A 
ATOM     58  C   UNL A   1      38.768  33.423  35.598  1.00  0.00     0.031 C 
ATOM     59  C   UNL A   1      40.594  29.743  30.052  1.00  0.00     0.029 A 
ATOM     60  C   UNL A   1      41.507  29.677  31.188  1.00  0.00     0.049 A 
ATOM     61  H   UNL A   1      41.279  30.582  33.050  1.00  0.00     0.167 HD
ATOM     62  C   UNL A   1      40.747  32.650  36.869  1.00  0.00     0.031 A 
ATOM     63  C   UNL A   1      42.673  28.999  31.210  1.00  0.00     0.031 A 
ATOM     64  C   UNL A   1      41.958  31.887  37.016  1.00  0.00     0.049 A 
ATOM     65  C   UNL A   1      43.508  29.020  32.462  1.00  0.00     0.074 A 
ATOM     66  C   UNL A   1      42.769  31.768  38.131  1.00  0.00     0.029 A 
ATOM     67  N   UNL A   1      42.536  31.116  36.017  1.00  0.00    -0.354 N 
ATOM     68  N   UNL A   1      43.271  29.626  33.601  1.00  0.00    -0.248 NA
ATOM     69  C   UNL A   1      44.760  28.252  32.436  1.00  0.00     0.031 C 
ATOM     70  C   UNL A   1      43.868  30.974  37.789  1.00  0.00     0.029 A 
ATOM     71  C   UNL A   1      43.706  30.540  36.483  1.00  0.00     0.049 A 
ATOM     72  H   UNL A   1      42.169  30.996  35.112  1.00  0.00     0.167 HD
ATOM     73  C   UNL A   1      44.330  29.289  34.436  1.00  0.00     0.074 A 
ATOM     74  C   UNL A   1      45.199  28.413  33.677  1.00  0.00     0.031 C 
ATOM     75  C   UNL A   1      44.561  29.669  35.717  1.00  0.00     0.031 A 
BRANCH  62  76
ATOM     76  C   UNL A   1      40.289  33.493  38.031  1.00  0.00    -0.014 A 
ATOM     77  C   UNL A   1      39.579  32.927  39.106  1.00  0.00     0.010 A 
ATOM     78  C   UNL A   1      40.617  34.862  38.075  1.00  0.00     0.010 A 
ATOM     79  C   UNL A   1      39.172  33.720  40.183  1.00  0.00     0.020 A 
ATOM     80  C   UNL A   1      40.238  35.651  39.165  1.00  0.00     0.020 A 
ATOM     81  C   UNL A   1      39.504  35.078  40.205  1.00  0.00     0.054 A 
BRANCH  81  82
ATOM     82  S   UNL A   1      38.990  36.074  41.630  1.00  0.00     0.124 S 
ATOM     83  O   UNL A   1      38.979  37.422  41.067  1.00  0.00    -0.237 OA
ATOM     84  O   UNL A   1      37.679  35.517  41.952  1.00  0.00    -0.237 OA
ATOM     85  O   UNL A   1      40.032  35.824  42.624  1.00  0.00    -0.744 OA
ENDBRANCH  81  82
ENDBRANCH  62  76
BRANCH  63  86
ATOM     86  C   UNL A   1      43.116  28.238  30.008  1.00  0.00    -0.014 A 
ATOM     87  C   UNL A   1      43.993  28.819  29.077  1.00  0.00     0.010 A 
ATOM     88  C   UNL A   1      42.661  26.924  29.790  1.00  0.00     0.010 A 
ATOM     89  C   UNL A   1      44.390  28.111  27.938  1.00  0.00     0.020 A 
ATOM     90  C   UNL A   1      43.080  26.201  28.669  1.00  0.00     0.020 A 
ATOM     91  C   UNL A   1      43.931  26.806  27.743  1.00  0.00     0.054 A 
BRANCH  91  92
ATOM     92  S   UNL A   1      44.492  25.890  26.280  1.00  0.00     0.124 S 
ATOM     93  O   UNL A   1      45.856  25.528  26.653  1.00  0.00    -0.237 OA
ATOM     94  O   UNL A   1      43.538  24.787  26.214  1.00  0.00    -0.237 OA
ATOM     95  O   UNL A   1      44.377  26.868  25.200  1.00  0.00    -0.744 OA
ENDBRANCH  91  92
ENDBRANCH  63  86
BRANCH  75  96
ATOM     96  C   UNL A   1      45.780  29.106  36.401  1.00  0.00    -0.014 A 
ATOM     97  C   UNL A   1      47.011  29.787  36.383  1.00  0.00     0.010 A 
ATOM     98  C   UNL A   1      45.674  27.902  37.122  1.00  0.00     0.010 A 
ATOM     99  C   UNL A   1      48.120  29.257  37.047  1.00  0.00     0.020 A 
ATOM    100  C   UNL A   1      46.772  27.387  37.814  1.00  0.00     0.020 A 
ATOM    101  C   UNL A   1      47.993  28.061  37.760  1.00  0.00     0.054 A 
BRANCH 101 102
ATOM    102  S   UNL A   1      49.437  27.419  38.652  1.00  0.00     0.124 S 
ATOM    103  O   UNL A   1      49.820  28.564  39.473  1.00  0.00    -0.237 OA
ATOM    104  O   UNL A   1      48.883  26.280  39.380  1.00  0.00    -0.237 OA
ATOM    105  O   UNL A   1      50.377  27.074  37.588  1.00  0.00    -0.744 OA
ENDBRANCH 101 102
ENDBRANCH  75  96
ENDBRANCH  49  50
ENDBRANCH  41  44
ENDBRANCH  39  40
ENDBRANCH  38  39
ENDBRANCH  37  38
ENDBRANCH   1  37
TORSDOF 20
ENDMDL
MODEL 3
REMARK VINA RESULT:     -11.6      5.194     10.810
REMARK SMILES C[C@@H](Oc1ccc(/C=C2\C(=O)[NH+]=C(NCCCCCCNC(=O)c3ccc(-c4c5nc(c(-c6ccc(S(=O)(=O)[O-])cc6)c6ccc([nH]6)c(-c6ccc(S(=O)(=O)[O-])cc6)c6nc(c(-c7ccc(S(=O)(=O)[O-])cc7)c7ccc4[nH]7)C=C6)C=C5)cc3)N(c3ccc4c(c3)OCO4)C2=O)cc1)C(=O)[O-]
REMARK SMILES IDX 17 1 16 2 15 3 14 4 8 5 9 6 10 7 94 8 11 9 12 10 84 11 95 12
REMARK SMILES IDX 13 13 7 16 4 17 5 18 97 19 6 20 96 21 3 22 2 23 1 24 98 25
REMARK SMILES IDX 99 26 100 27 85 28 86 29 90 30 87 31 89 32 88 33 91 34 93 35
REMARK SMILES IDX 92 36 18 37 19 38 20 39 21 40 22 41 23 43 24 44 25 45 83 46
REMARK SMILES IDX 26 47 82 48 27 49 28 50 29 51 76 52 30 53 81 54 75 55 77 56
REMARK SMILES IDX 31 57 80 58 74 59 73 60 32 62 62 63 43 64 61 65 44 66 47 67
REMARK SMILES IDX 60 68 78 69 45 70 46 71 59 73 79 74 48 75 33 76 34 77 42 78
REMARK SMILES IDX 35 79 41 80 36 81 37 82 38 83 39 84 40 85 63 86 64 87 72 88
REMARK SMILES IDX 65 89 71 90 66 91 67 92 68 93 69 94 70 95 49 96 50 97 58 98
REMARK SMILES IDX 51 99 57 100 52 101 53 102 54 103 55 104 56 105
REMARK H PARENT 12 14 14 15 21 42 77 61 47 72
REMARK Flexibility Score: inf
ROOT
ATOM      1  C   UNL A   1      44.736  24.101  26.422  1.00  0.00     0.003 C 
ENDROOT
BRANCH   1   2
ATOM      2  C   UNL A   1      43.621  25.045  26.892  1.00  0.00     0.037 C 
BRANCH   2   3
ATOM      3  C   UNL A   1      42.260  24.760  26.260  1.00  0.00     0.197 C 
BRANCH   3   4
ATOM      4  N   UNL A   1      42.081  23.330  26.114  1.00  0.00    -0.277 N 
ATOM      5  C   UNL A   1      37.472  21.098  24.790  1.00  0.00     0.031 C 
ATOM      6  C   UNL A   1      38.483  21.535  25.562  1.00  0.00     0.138 C 
ATOM      7  C   UNL A   1      38.552  22.824  26.268  1.00  0.00     0.321 C 
ATOM      8  C   UNL A   1      39.647  20.643  25.711  1.00  0.00     0.328 C 
ATOM      9  O   UNL A   1      37.579  23.330  26.804  1.00  0.00    -0.250 OA
ATOM     10  N   UNL A   1      39.787  23.405  26.250  1.00  0.00    -0.210 N 
ATOM     11  N   UNL A   1      40.827  21.313  26.014  1.00  0.00    -0.162 N 
ATOM     12  O   UNL A   1      39.541  19.427  25.550  1.00  0.00    -0.249 OA
ATOM     13  C   UNL A   1      40.867  22.696  26.144  1.00  0.00     0.366 C 
ATOM     14  H   UNL A   1      39.859  24.385  26.321  1.00  0.00     0.270 HD
ATOM     15  H   UNL A   1      42.885  22.776  25.984  1.00  0.00     0.260 HD
BRANCH   5  16
ATOM     16  C   UNL A   1      36.236  21.783  24.389  1.00  0.00    -0.024 A 
ATOM     17  C   UNL A   1      33.983  23.289  23.644  1.00  0.00     0.120 A 
ATOM     18  C   UNL A   1      33.862  22.272  24.585  1.00  0.00     0.047 A 
ATOM     19  C   UNL A   1      35.233  23.592  23.112  1.00  0.00     0.047 A 
ATOM     20  C   UNL A   1      34.985  21.530  24.965  1.00  0.00     0.012 A 
ATOM     21  C   UNL A   1      36.349  22.835  23.471  1.00  0.00     0.012 A 
BRANCH  17  22
ATOM     22  O   UNL A   1      32.885  24.060  23.389  1.00  0.00    -0.485 OA
BRANCH  22  23
ATOM     23  C   UNL A   1      33.182  25.425  23.070  1.00  0.00     0.216 C 
ATOM     24  C   UNL A   1      32.587  26.393  24.088  1.00  0.00     0.059 C 
BRANCH  23  25
ATOM     25  C   UNL A   1      32.557  25.748  21.717  1.00  0.00     0.082 C 
ATOM     26  O   UNL A   1      31.476  26.293  21.540  1.00  0.00    -0.546 OA
ATOM     27  O   UNL A   1      33.258  25.288  20.659  1.00  0.00    -0.546 OA
ENDBRANCH  23  25
ENDBRANCH  22  23
ENDBRANCH  17  22
ENDBRANCH   5  16
BRANCH  11  28
ATOM     28  C   UNL A   1      42.000  20.519  26.098  1.00  0.00     0.115 A 
ATOM     29  C   UNL A   1      41.931  19.223  26.655  1.00  0.00     0.048 A 
ATOM     30  C   UNL A   1      43.170  20.975  25.483  1.00  0.00     0.094 A 
ATOM     31  C   UNL A   1      43.019  18.350  26.539  1.00  0.00     0.054 A 
ATOM     32  C   UNL A   1      44.214  20.089  25.374  1.00  0.00     0.169 A 
ATOM     33  C   UNL A   1      44.136  18.808  25.870  1.00  0.00     0.166 A 
ATOM     34  O   UNL A   1      45.386  20.326  24.728  1.00  0.00    -0.453 OA
ATOM     35  O   UNL A   1      45.245  18.078  25.569  1.00  0.00    -0.454 OA
ATOM     36  C   UNL A   1      45.920  18.989  24.674  1.00  0.00     0.468 C 
ENDBRANCH  11  28
ENDBRANCH   3   4
ENDBRANCH   2   3
ENDBRANCH   1   2
BRANCH   1  37
ATOM     37  C   UNL A   1      45.298  24.400  25.029  1.00  0.00     0.002 C 
BRANCH  37  38
ATOM     38  C   UNL A   1      46.761  24.002  24.821  1.00  0.00     0.021 C 
BRANCH  38  39
ATOM     39  C   UNL A   1      47.769  25.099  25.144  1.00  0.00     0.116 C 
BRANCH  39  40
ATOM     40  N   UNL A   1      47.951  26.018  24.031  1.00  0.00    -0.352 N 
ATOM     41  C   UNL A   1      47.519  27.314  23.899  1.00  0.00     0.251 C 
ATOM     42  H   UNL A   1      48.456  25.660  23.267  1.00  0.00     0.163 HD
ATOM     43  O   UNL A   1      47.594  27.877  22.811  1.00  0.00    -0.269 OA
BRANCH  41  44
ATOM     44  C   UNL A   1      46.943  28.020  25.064  1.00  0.00     0.039 A 
ATOM     45  C   UNL A   1      45.569  27.929  25.301  1.00  0.00     0.014 A 
ATOM     46  C   UNL A   1      47.754  28.768  25.922  1.00  0.00     0.014 A 
ATOM     47  C   UNL A   1      45.019  28.539  26.430  1.00  0.00     0.010 A 
ATOM     48  C   UNL A   1      47.217  29.310  27.087  1.00  0.00     0.010 A 
ATOM     49  C   UNL A   1      45.844  29.206  27.352  1.00  0.00    -0.014 A 
BRANCH  49  50
ATOM     50  C   UNL A   1      45.289  29.798  28.597  1.00  0.00     0.031 A 
ATOM     51  C   UNL A   1      45.190  28.970  29.851  1.00  0.00     0.074 A 
ATOM     52  C   UNL A   1      44.819  31.061  28.584  1.00  0.00     0.049 A 
ATOM     53  N   UNL A   1      44.684  29.292  31.013  1.00  0.00    -0.248 NA
ATOM     54  C   UNL A   1      45.707  27.592  29.784  1.00  0.00     0.031 C 
ATOM     55  C   UNL A   1      44.823  31.956  27.423  1.00  0.00     0.029 A 
ATOM     56  N   UNL A   1      44.240  31.813  29.577  1.00  0.00    -0.354 N 
ATOM     57  C   UNL A   1      44.807  28.158  31.807  1.00  0.00     0.074 A 
ATOM     58  C   UNL A   1      45.389  27.124  30.981  1.00  0.00     0.031 C 
ATOM     59  C   UNL A   1      44.299  33.140  27.779  1.00  0.00     0.029 A 
ATOM     60  C   UNL A   1      43.880  33.077  29.174  1.00  0.00     0.049 A 
ATOM     61  H   UNL A   1      44.095  31.477  30.491  1.00  0.00     0.167 HD
ATOM     62  C   UNL A   1      44.484  27.997  33.114  1.00  0.00     0.031 A 
ATOM     63  C   UNL A   1      43.270  34.073  29.848  1.00  0.00     0.031 A 
ATOM     64  C   UNL A   1      43.912  29.030  33.936  1.00  0.00     0.049 A 
ATOM     65  C   UNL A   1      42.900  33.862  31.292  1.00  0.00     0.074 A 
ATOM     66  C   UNL A   1      43.598  28.981  35.282  1.00  0.00     0.029 A 
ATOM     67  N   UNL A   1      43.567  30.298  33.491  1.00  0.00    -0.354 N 
ATOM     68  N   UNL A   1      43.085  32.802  32.043  1.00  0.00    -0.248 NA
ATOM     69  C   UNL A   1      42.251  34.985  31.982  1.00  0.00     0.031 C 
ATOM     70  C   UNL A   1      43.007  30.198  35.638  1.00  0.00     0.029 A 
ATOM     71  C   UNL A   1      43.018  31.030  34.530  1.00  0.00     0.049 A 
ATOM     72  H   UNL A   1      43.693  30.628  32.572  1.00  0.00     0.167 HD
ATOM     73  C   UNL A   1      42.603  33.143  33.302  1.00  0.00     0.074 A 
ATOM     74  C   UNL A   1      42.134  34.511  33.214  1.00  0.00     0.031 C 
ATOM     75  C   UNL A   1      42.556  32.391  34.430  1.00  0.00     0.031 A 
BRANCH  62  76
ATOM     76  C   UNL A   1      44.738  26.648  33.735  1.00  0.00    -0.014 A 
ATOM     77  C   UNL A   1      45.942  26.372  34.411  1.00  0.00     0.010 A 
ATOM     78  C   UNL A   1      43.738  25.657  33.690  1.00  0.00     0.010 A 
ATOM     79  C   UNL A   1      46.156  25.120  34.993  1.00  0.00     0.020 A 
ATOM     80  C   UNL A   1      43.938  24.415  34.298  1.00  0.00     0.020 A 
ATOM     81  C   UNL A   1      45.153  24.148  34.933  1.00  0.00     0.054 A 
BRANCH  81  82
ATOM     82  S   UNL A   1      45.449  22.545  35.726  1.00  0.00     0.124 S 
ATOM     83  O   UNL A   1      44.404  21.716  35.127  1.00  0.00    -0.237 OA
ATOM     84  O   UNL A   1      46.814  22.231  35.312  1.00  0.00    -0.237 OA
ATOM     85  O   UNL A   1      45.281  22.824  37.150  1.00  0.00    -0.744 OA
ENDBRANCH  81  82
ENDBRANCH  62  76
BRANCH  63  86
ATOM     86  C   UNL A   1      42.976  35.365  29.166  1.00  0.00    -0.014 A 
ATOM     87  C   UNL A   1      41.906  35.470  28.261  1.00  0.00     0.010 A 
ATOM     88  C   UNL A   1      43.769  36.500  29.420  1.00  0.00     0.010 A 
ATOM     89  C   UNL A   1      41.647  36.677  27.605  1.00  0.00     0.020 A 
ATOM     90  C   UNL A   1      43.494  37.717  28.790  1.00  0.00     0.020 A 
ATOM     91  C   UNL A   1      42.442  37.793  27.875  1.00  0.00     0.054 A 
BRANCH  91  92
ATOM     92  S   UNL A   1      42.062  39.361  27.044  1.00  0.00     0.124 S 
ATOM     93  O   UNL A   1      41.692  40.218  28.166  1.00  0.00    -0.237 OA
ATOM     94  O   UNL A   1      43.326  39.685  26.389  1.00  0.00    -0.237 OA
ATOM     95  O   UNL A   1      40.970  39.011  26.137  1.00  0.00    -0.744 OA
ENDBRANCH  91  92
ENDBRANCH  63  86
BRANCH  75  96
ATOM     96  C   UNL A   1      42.017  33.042  35.678  1.00  0.00    -0.014 A 
ATOM     97  C   UNL A   1      40.656  32.952  36.022  1.00  0.00     0.010 A 
ATOM     98  C   UNL A   1      42.901  33.705  36.548  1.00  0.00     0.010 A 
ATOM     99  C   UNL A   1      40.185  33.541  37.199  1.00  0.00     0.020 A 
ATOM    100  C   UNL A   1      42.439  34.268  37.740  1.00  0.00     0.020 A 
ATOM    101  C   UNL A   1      41.081  34.194  38.051  1.00  0.00     0.054 A 
BRANCH 101 102
ATOM    102  S   UNL A   1      40.451  34.910  39.595  1.00  0.00     0.124 S 
ATOM    103  O   UNL A   1      40.169  36.287  39.199  1.00  0.00    -0.237 OA
ATOM    104  O   UNL A   1      39.280  34.084  39.877  1.00  0.00    -0.237 OA
ATOM    105  O   UNL A   1      41.561  34.747  40.531  1.00  0.00    -0.744 OA
ENDBRANCH 101 102
ENDBRANCH  75  96
ENDBRANCH  49  50
ENDBRANCH  41  44
ENDBRANCH  39  40
ENDBRANCH  38  39
ENDBRANCH  37  38
ENDBRANCH   1  37
TORSDOF 20
ENDMDL
