MODEL 1
REMARK VINA RESULT:     -12.9      0.000      0.000
REMARK SMILES Cc1ccn2c([C@@H]3CCCC[C@@H]3C(=O)NCCCCCCNC(=O)c3ccc(-c4c5nc(c(-c6ccc(S(=O)(=O)[O-])cc6)c6ccc([nH]6)c(-c6ccc(S(=O)(=O)[O-])cc6)c6nc(c(-c7ccc(S(=O)(=O)[O-])cc7)c7ccc4[nH]7)C=C6)C=C5)cc3)nnc2c1
REMARK SMILES IDX 19 1 18 2 17 3 16 4 15 5 13 6 14 7 12 9 7 10 8 11 9 12 11 13
REMARK SMILES IDX 10 14 6 15 1 16 2 17 3 18 88 19 4 20 87 21 5 22 86 23 85 24
REMARK SMILES IDX 20 25 21 26 22 27 23 28 24 30 25 31 26 32 84 33 27 34 83 35
REMARK SMILES IDX 28 36 29 37 30 38 77 39 31 40 82 41 76 42 78 43 32 44 81 45
REMARK SMILES IDX 75 46 74 47 33 49 63 50 44 51 62 52 45 53 48 54 61 55 79 56
REMARK SMILES IDX 46 57 47 58 60 60 80 61 49 62 34 63 35 64 43 65 36 66 42 67
REMARK SMILES IDX 37 68 38 69 39 70 40 71 41 72 64 73 65 74 73 75 66 76 72 77
REMARK SMILES IDX 67 78 68 79 69 80 70 81 71 82 50 83 51 84 59 85 52 86 58 87
REMARK SMILES IDX 53 88 54 89 55 90 56 91 57 92
REMARK H PARENT 15 8 22 29 78 48 48 59
REMARK Flexibility Score: inf
ROOT
ATOM      1  C   UNL A   1      37.823  23.523  26.128  1.00  0.00     0.002 C 
ENDROOT
BRANCH   1   2
ATOM      2  C   UNL A   1      36.291  23.554  26.108  1.00  0.00     0.002 C 
BRANCH   2   3
ATOM      3  C   UNL A   1      35.654  24.062  24.809  1.00  0.00     0.021 C 
BRANCH   3   4
ATOM      4  C   UNL A   1      34.584  25.133  24.991  1.00  0.00     0.116 C 
BRANCH   4   5
ATOM      5  N   UNL A   1      34.001  25.539  23.729  1.00  0.00    -0.356 N 
ATOM      6  C   UNL A   1      33.071  26.491  23.464  1.00  0.00     0.223 C 
ATOM      7  O   UNL A   1      32.962  26.852  22.293  1.00  0.00    -0.275 OA
ATOM      8  H   UNL A   1      34.330  25.049  22.942  1.00  0.00     0.163 HD
BRANCH   6   9
ATOM      9  C   UNL A   1      32.283  27.132  24.598  1.00  0.00     0.089 C 
ATOM     10  C   UNL A   1      30.932  26.456  24.935  1.00  0.00     0.071 C 
ATOM     11  C   UNL A   1      29.860  26.594  23.854  1.00  0.00     0.012 C 
ATOM     12  C   UNL A   1      29.695  28.052  23.414  1.00  0.00     0.001 C 
ATOM     13  C   UNL A   1      32.044  28.601  24.205  1.00  0.00     0.014 C 
ATOM     14  C   UNL A   1      31.019  28.733  23.075  1.00  0.00     0.001 C 
BRANCH  10  15
ATOM     15  C   UNL A   1      31.054  25.089  25.562  1.00  0.00     0.141 A 
ATOM     16  C   UNL A   1      32.683  19.974  23.969  1.00  0.00     0.044 C 
ATOM     17  C   UNL A   1      32.144  21.309  24.383  1.00  0.00    -0.046 A 
ATOM     18  C   UNL A   1      31.777  22.227  23.311  1.00  0.00     0.022 A 
ATOM     19  C   UNL A   1      31.985  21.672  25.675  1.00  0.00     0.053 A 
ATOM     20  C   UNL A   1      31.346  23.461  23.619  1.00  0.00     0.095 A 
ATOM     21  C   UNL A   1      31.545  22.989  25.995  1.00  0.00     0.161 A 
ATOM     22  N   UNL A   1      31.293  23.870  24.948  1.00  0.00    -0.286 N 
ATOM     23  N   UNL A   1      31.331  23.589  27.142  1.00  0.00    -0.130 NA
ATOM     24  N   UNL A   1      31.022  24.897  26.872  1.00  0.00    -0.134 NA
ENDBRANCH  10  15
ENDBRANCH   6   9
ENDBRANCH   4   5
ENDBRANCH   3   4
ENDBRANCH   2   3
ENDBRANCH   1   2
BRANCH   1  25
ATOM     25  C   UNL A   1      38.460  22.154  25.868  1.00  0.00     0.021 C 
BRANCH  25  26
ATOM     26  C   UNL A   1      39.762  21.903  26.630  1.00  0.00     0.116 C 
BRANCH  26  27
ATOM     27  N   UNL A   1      40.947  22.056  25.814  1.00  0.00    -0.352 N 
ATOM     28  C   UNL A   1      41.941  22.987  25.725  1.00  0.00     0.251 C 
ATOM     29  H   UNL A   1      41.064  21.315  25.176  1.00  0.00     0.163 HD
ATOM     30  O   UNL A   1      42.885  22.691  24.986  1.00  0.00    -0.269 OA
BRANCH  28  31
ATOM     31  C   UNL A   1      41.934  24.323  26.382  1.00  0.00     0.039 A 
ATOM     32  C   UNL A   1      42.561  24.647  27.584  1.00  0.00     0.014 A 
ATOM     33  C   UNL A   1      41.149  25.307  25.749  1.00  0.00     0.014 A 
ATOM     34  C   UNL A   1      42.322  25.876  28.193  1.00  0.00     0.010 A 
ATOM     35  C   UNL A   1      40.918  26.541  26.345  1.00  0.00     0.010 A 
ATOM     36  C   UNL A   1      41.460  26.800  27.597  1.00  0.00    -0.014 A 
BRANCH  36  37
ATOM     37  C   UNL A   1      41.217  28.055  28.299  1.00  0.00     0.031 A 
ATOM     38  C   UNL A   1      42.258  29.104  28.101  1.00  0.00     0.074 A 
ATOM     39  C   UNL A   1      40.107  28.309  29.020  1.00  0.00     0.049 A 
ATOM     40  N   UNL A   1      43.023  29.645  28.991  1.00  0.00    -0.248 NA
ATOM     41  C   UNL A   1      42.554  29.522  26.722  1.00  0.00     0.031 C 
ATOM     42  C   UNL A   1      38.874  27.524  29.112  1.00  0.00     0.029 A 
ATOM     43  N   UNL A   1      39.819  29.412  29.764  1.00  0.00    -0.354 N 
ATOM     44  C   UNL A   1      43.803  30.581  28.320  1.00  0.00     0.074 A 
ATOM     45  C   UNL A   1      43.555  30.383  26.913  1.00  0.00     0.031 C 
ATOM     46  C   UNL A   1      37.898  28.288  29.659  1.00  0.00     0.029 A 
ATOM     47  C   UNL A   1      38.478  29.546  30.096  1.00  0.00     0.049 A 
ATOM     48  H   UNL A   1      40.505  30.061  30.044  1.00  0.00     0.167 HD
ATOM     49  C   UNL A   1      44.502  31.557  28.966  1.00  0.00     0.031 A 
ATOM     50  C   UNL A   1      37.883  30.646  30.630  1.00  0.00     0.031 A 
ATOM     51  C   UNL A   1      44.653  31.278  30.367  1.00  0.00     0.049 A 
ATOM     52  C   UNL A   1      38.954  31.449  31.272  1.00  0.00     0.074 A 
ATOM     53  C   UNL A   1      45.283  30.277  31.079  1.00  0.00     0.029 A 
ATOM     54  N   UNL A   1      43.776  31.870  31.244  1.00  0.00    -0.354 N 
ATOM     55  N   UNL A   1      39.616  31.056  32.323  1.00  0.00    -0.248 NA
ATOM     56  C   UNL A   1      39.589  32.493  30.483  1.00  0.00     0.031 C 
ATOM     57  C   UNL A   1      44.403  29.990  32.160  1.00  0.00     0.029 A 
ATOM     58  C   UNL A   1      43.331  30.883  32.090  1.00  0.00     0.049 A 
ATOM     59  H   UNL A   1      43.518  32.820  31.263  1.00  0.00     0.167 HD
ATOM     60  C   UNL A   1      40.919  31.472  32.094  1.00  0.00     0.074 A 
ATOM     61  C   UNL A   1      40.824  32.425  30.987  1.00  0.00     0.031 C 
ATOM     62  C   UNL A   1      41.987  30.810  32.628  1.00  0.00     0.031 A 
BRANCH  49  63
ATOM     63  C   UNL A   1      44.839  32.890  28.357  1.00  0.00    -0.014 A 
ATOM     64  C   UNL A   1      43.883  33.918  28.218  1.00  0.00     0.010 A 
ATOM     65  C   UNL A   1      46.184  33.229  28.106  1.00  0.00     0.010 A 
ATOM     66  C   UNL A   1      44.233  35.204  27.800  1.00  0.00     0.020 A 
ATOM     67  C   UNL A   1      46.552  34.530  27.727  1.00  0.00     0.020 A 
ATOM     68  C   UNL A   1      45.568  35.505  27.562  1.00  0.00     0.054 A 
BRANCH  68  69
ATOM     69  S   UNL A   1      45.986  37.201  27.091  1.00  0.00     0.124 S 
ATOM     70  O   UNL A   1      44.664  37.795  26.907  1.00  0.00    -0.237 OA
ATOM     71  O   UNL A   1      46.732  37.675  28.252  1.00  0.00    -0.237 OA
ATOM     72  O   UNL A   1      46.771  37.036  25.870  1.00  0.00    -0.744 OA
ENDBRANCH  68  69
ENDBRANCH  49  63
BRANCH  50  73
ATOM     73  C   UNL A   1      36.600  31.263  30.198  1.00  0.00    -0.014 A 
ATOM     74  C   UNL A   1      36.420  31.649  28.855  1.00  0.00     0.010 A 
ATOM     75  C   UNL A   1      35.707  31.785  31.157  1.00  0.00     0.010 A 
ATOM     76  C   UNL A   1      35.463  32.604  28.496  1.00  0.00     0.020 A 
ATOM     77  C   UNL A   1      34.745  32.746  30.803  1.00  0.00     0.020 A 
ATOM     78  C   UNL A   1      34.665  33.183  29.480  1.00  0.00     0.054 A 
BRANCH  78  79
ATOM     79  S   UNL A   1      33.618  34.592  29.012  1.00  0.00     0.124 S 
ATOM     80  O   UNL A   1      34.595  35.517  28.446  1.00  0.00    -0.237 OA
ATOM     81  O   UNL A   1      32.692  33.994  28.055  1.00  0.00    -0.237 OA
ATOM     82  O   UNL A   1      33.017  35.013  30.278  1.00  0.00    -0.744 OA
ENDBRANCH  78  79
ENDBRANCH  50  73
BRANCH  62  83
ATOM     83  C   UNL A   1      41.744  29.726  33.663  1.00  0.00    -0.014 A 
ATOM     84  C   UNL A   1      42.083  30.015  34.998  1.00  0.00     0.010 A 
ATOM     85  C   UNL A   1      41.407  28.396  33.336  1.00  0.00     0.010 A 
ATOM     86  C   UNL A   1      42.129  29.010  35.965  1.00  0.00     0.020 A 
ATOM     87  C   UNL A   1      41.423  27.385  34.312  1.00  0.00     0.020 A 
ATOM     88  C   UNL A   1      41.813  27.696  35.615  1.00  0.00     0.054 A 
BRANCH  88  89
ATOM     89  S   UNL A   1      41.956  26.413  36.891  1.00  0.00     0.124 S 
ATOM     90  O   UNL A   1      42.312  25.234  36.105  1.00  0.00    -0.237 OA
ATOM     91  O   UNL A   1      43.018  26.931  37.751  1.00  0.00    -0.237 OA
ATOM     92  O   UNL A   1      40.631  26.371  37.503  1.00  0.00    -0.744 OA
ENDBRANCH  88  89
ENDBRANCH  62  83
ENDBRANCH  36  37
ENDBRANCH  28  31
ENDBRANCH  26  27
ENDBRANCH  25  26
ENDBRANCH   1  25
TORSDOF 17
ENDMDL
MODEL 2
REMARK VINA RESULT:     -12.8      1.439      3.112
REMARK SMILES Cc1ccn2c([C@@H]3CCCC[C@@H]3C(=O)NCCCCCCNC(=O)c3ccc(-c4c5nc(c(-c6ccc(S(=O)(=O)[O-])cc6)c6ccc([nH]6)c(-c6ccc(S(=O)(=O)[O-])cc6)c6nc(c(-c7ccc(S(=O)(=O)[O-])cc7)c7ccc4[nH]7)C=C6)C=C5)cc3)nnc2c1
REMARK SMILES IDX 19 1 18 2 17 3 16 4 15 5 13 6 14 7 12 9 7 10 8 11 9 12 11 13
REMARK SMILES IDX 10 14 6 15 1 16 2 17 3 18 88 19 4 20 87 21 5 22 86 23 85 24
REMARK SMILES IDX 20 25 21 26 22 27 23 28 24 30 25 31 26 32 84 33 27 34 83 35
REMARK SMILES IDX 28 36 29 37 30 38 77 39 31 40 82 41 76 42 78 43 32 44 81 45
REMARK SMILES IDX 75 46 74 47 33 49 63 50 44 51 62 52 45 53 48 54 61 55 79 56
REMARK SMILES IDX 46 57 47 58 60 60 80 61 49 62 34 63 35 64 43 65 36 66 42 67
REMARK SMILES IDX 37 68 38 69 39 70 40 71 41 72 64 73 65 74 73 75 66 76 72 77
REMARK SMILES IDX 67 78 68 79 69 80 70 81 71 82 50 83 51 84 59 85 52 86 58 87
REMARK SMILES IDX 53 88 54 89 55 90 56 91 57 92
REMARK H PARENT 15 8 22 29 78 48 48 59
REMARK Flexibility Score: inf
ROOT
ATOM      1  C   UNL A   1      39.944  22.550  27.271  1.00  0.00     0.002 C 
ENDROOT
BRANCH   1   2
ATOM      2  C   UNL A   1      39.347  23.948  27.081  1.00  0.00     0.002 C 
BRANCH   2   3
ATOM      3  C   UNL A   1      38.169  24.040  26.104  1.00  0.00     0.021 C 
BRANCH   3   4
ATOM      4  C   UNL A   1      37.373  22.751  25.932  1.00  0.00     0.116 C 
BRANCH   4   5
ATOM      5  N   UNL A   1      36.051  22.846  26.515  1.00  0.00    -0.356 N 
ATOM      6  C   UNL A   1      34.866  22.352  26.076  1.00  0.00     0.223 C 
ATOM      7  O   UNL A   1      33.946  22.306  26.891  1.00  0.00    -0.275 OA
ATOM      8  H   UNL A   1      36.005  23.346  27.362  1.00  0.00     0.163 HD
BRANCH   6   9
ATOM      9  C   UNL A   1      34.740  21.800  24.663  1.00  0.00     0.089 C 
ATOM     10  C   UNL A   1      33.500  22.277  23.870  1.00  0.00     0.071 C 
ATOM     11  C   UNL A   1      32.163  21.757  24.398  1.00  0.00     0.012 C 
ATOM     12  C   UNL A   1      32.190  20.237  24.590  1.00  0.00     0.001 C 
ATOM     13  C   UNL A   1      34.722  20.264  24.781  1.00  0.00     0.014 C 
ATOM     14  C   UNL A   1      33.407  19.750  25.374  1.00  0.00     0.001 C 
BRANCH  10  15
ATOM     15  C   UNL A   1      33.526  23.735  23.482  1.00  0.00     0.141 A 
ATOM     16  C   UNL A   1      33.321  28.681  26.099  1.00  0.00     0.044 C 
ATOM     17  C   UNL A   1      33.270  27.370  25.375  1.00  0.00    -0.046 A 
ATOM     18  C   UNL A   1      32.766  26.227  26.126  1.00  0.00     0.022 A 
ATOM     19  C   UNL A   1      33.655  27.223  24.088  1.00  0.00     0.053 A 
ATOM     20  C   UNL A   1      32.754  25.013  25.551  1.00  0.00     0.095 A 
ATOM     21  C   UNL A   1      33.657  25.930  23.490  1.00  0.00     0.161 A 
ATOM     22  N   UNL A   1      33.259  24.847  24.266  1.00  0.00    -0.286 N 
ATOM     23  N   UNL A   1      33.995  25.518  22.291  1.00  0.00    -0.130 NA
ATOM     24  N   UNL A   1      33.910  24.150  22.285  1.00  0.00    -0.134 NA
ENDBRANCH  10  15
ENDBRANCH   6   9
ENDBRANCH   4   5
ENDBRANCH   3   4
ENDBRANCH   2   3
ENDBRANCH   1   2
BRANCH   1  25
ATOM     25  C   UNL A   1      40.577  21.925  26.022  1.00  0.00     0.021 C 
BRANCH  25  26
ATOM     26  C   UNL A   1      42.055  21.563  26.171  1.00  0.00     0.116 C 
BRANCH  26  27
ATOM     27  N   UNL A   1      42.923  22.308  25.285  1.00  0.00    -0.352 N 
ATOM     28  C   UNL A   1      43.308  23.614  25.187  1.00  0.00     0.251 C 
ATOM     29  H   UNL A   1      43.333  21.740  24.593  1.00  0.00     0.163 HD
ATOM     30  O   UNL A   1      44.199  23.849  24.366  1.00  0.00    -0.269 OA
BRANCH  28  31
ATOM     31  C   UNL A   1      42.698  24.751  25.930  1.00  0.00     0.039 A 
ATOM     32  C   UNL A   1      41.910  25.761  25.377  1.00  0.00     0.014 A 
ATOM     33  C   UNL A   1      43.026  24.831  27.298  1.00  0.00     0.014 A 
ATOM     34  C   UNL A   1      41.558  26.873  26.137  1.00  0.00     0.010 A 
ATOM     35  C   UNL A   1      42.666  25.932  28.065  1.00  0.00     0.010 A 
ATOM     36  C   UNL A   1      41.980  26.980  27.465  1.00  0.00    -0.014 A 
BRANCH  36  37
ATOM     37  C   UNL A   1      41.613  28.184  28.201  1.00  0.00     0.031 A 
ATOM     38  C   UNL A   1      42.592  29.305  28.110  1.00  0.00     0.074 A 
ATOM     39  C   UNL A   1      40.449  28.334  28.865  1.00  0.00     0.049 A 
ATOM     40  N   UNL A   1      43.267  29.853  29.066  1.00  0.00    -0.248 NA
ATOM     41  C   UNL A   1      42.938  29.802  26.769  1.00  0.00     0.031 C 
ATOM     42  C   UNL A   1      39.268  27.467  28.850  1.00  0.00     0.029 A 
ATOM     43  N   UNL A   1      40.047  29.382  29.634  1.00  0.00    -0.354 N 
ATOM     44  C   UNL A   1      44.020  30.867  28.481  1.00  0.00     0.074 A 
ATOM     45  C   UNL A   1      43.867  30.716  27.055  1.00  0.00     0.031 C 
ATOM     46  C   UNL A   1      38.214  28.142  29.368  1.00  0.00     0.029 A 
ATOM     47  C   UNL A   1      38.682  29.414  29.891  1.00  0.00     0.049 A 
ATOM     48  H   UNL A   1      40.671  30.059  29.982  1.00  0.00     0.167 HD
ATOM     49  C   UNL A   1      44.614  31.856  29.208  1.00  0.00     0.031 A 
ATOM     50  C   UNL A   1      37.987  30.449  30.432  1.00  0.00     0.031 A 
ATOM     51  C   UNL A   1      44.703  31.524  30.603  1.00  0.00     0.049 A 
ATOM     52  C   UNL A   1      38.962  31.289  31.169  1.00  0.00     0.074 A 
ATOM     53  C   UNL A   1      45.357  30.536  31.310  1.00  0.00     0.029 A 
ATOM     54  N   UNL A   1      43.740  32.020  31.449  1.00  0.00    -0.354 N 
ATOM     55  N   UNL A   1      39.588  30.893  32.242  1.00  0.00    -0.248 NA
ATOM     56  C   UNL A   1      39.571  32.406  30.464  1.00  0.00     0.031 C 
ATOM     57  C   UNL A   1      44.437  30.145  32.323  1.00  0.00     0.029 A 
ATOM     58  C   UNL A   1      43.314  30.969  32.225  1.00  0.00     0.049 A 
ATOM     59  H   UNL A   1      43.418  32.949  31.490  1.00  0.00     0.167 HD
ATOM     60  C   UNL A   1      40.872  31.402  32.108  1.00  0.00     0.074 A 
ATOM     61  C   UNL A   1      40.777  32.395  31.037  1.00  0.00     0.031 C 
ATOM     62  C   UNL A   1      41.949  30.786  32.678  1.00  0.00     0.031 A 
BRANCH  49  63
ATOM     63  C   UNL A   1      44.896  33.234  28.675  1.00  0.00    -0.014 A 
ATOM     64  C   UNL A   1      43.876  34.075  28.182  1.00  0.00     0.010 A 
ATOM     65  C   UNL A   1      46.169  33.812  28.857  1.00  0.00     0.010 A 
ATOM     66  C   UNL A   1      44.115  35.406  27.836  1.00  0.00     0.020 A 
ATOM     67  C   UNL A   1      46.409  35.162  28.553  1.00  0.00     0.020 A 
ATOM     68  C   UNL A   1      45.381  35.944  28.029  1.00  0.00     0.054 A 
BRANCH  68  69
ATOM     69  S   UNL A   1      45.630  37.693  27.634  1.00  0.00     0.124 S 
ATOM     70  O   UNL A   1      45.729  38.289  28.964  1.00  0.00    -0.237 OA
ATOM     71  O   UNL A   1      46.868  37.667  26.861  1.00  0.00    -0.237 OA
ATOM     72  O   UNL A   1      44.431  38.049  26.879  1.00  0.00    -0.744 OA
ENDBRANCH  68  69
ENDBRANCH  49  63
BRANCH  50  73
ATOM     73  C   UNL A   1      36.692  31.001  29.949  1.00  0.00    -0.014 A 
ATOM     74  C   UNL A   1      36.521  31.307  28.585  1.00  0.00     0.010 A 
ATOM     75  C   UNL A   1      35.768  31.545  30.866  1.00  0.00     0.010 A 
ATOM     76  C   UNL A   1      35.541  32.211  28.161  1.00  0.00     0.020 A 
ATOM     77  C   UNL A   1      34.783  32.455  30.446  1.00  0.00     0.020 A 
ATOM     78  C   UNL A   1      34.710  32.817  29.101  1.00  0.00     0.054 A 
BRANCH  78  79
ATOM     79  S   UNL A   1      33.628  34.165  28.542  1.00  0.00     0.124 S 
ATOM     80  O   UNL A   1      32.728  33.469  27.628  1.00  0.00    -0.237 OA
ATOM     81  O   UNL A   1      33.026  34.626  29.788  1.00  0.00    -0.237 OA
ATOM     82  O   UNL A   1      34.551  35.111  27.912  1.00  0.00    -0.744 OA
ENDBRANCH  78  79
ENDBRANCH  50  73
BRANCH  62  83
ATOM     83  C   UNL A   1      41.720  29.644  33.652  1.00  0.00    -0.014 A 
ATOM     84  C   UNL A   1      41.723  29.950  35.025  1.00  0.00     0.010 A 
ATOM     85  C   UNL A   1      41.720  28.285  33.274  1.00  0.00     0.010 A 
ATOM     86  C   UNL A   1      41.771  28.942  35.990  1.00  0.00     0.020 A 
ATOM     87  C   UNL A   1      41.738  27.265  34.241  1.00  0.00     0.020 A 
ATOM     88  C   UNL A   1      41.792  27.604  35.594  1.00  0.00     0.054 A 
BRANCH  88  89
ATOM     89  S   UNL A   1      41.924  26.333  36.882  1.00  0.00     0.124 S 
ATOM     90  O   UNL A   1      43.041  26.824  37.687  1.00  0.00    -0.237 OA
ATOM     91  O   UNL A   1      40.616  26.393  37.530  1.00  0.00    -0.237 OA
ATOM     92  O   UNL A   1      42.191  25.103  36.141  1.00  0.00    -0.744 OA
ENDBRANCH  88  89
ENDBRANCH  62  83
ENDBRANCH  36  37
ENDBRANCH  28  31
ENDBRANCH  26  27
ENDBRANCH  25  26
ENDBRANCH   1  25
TORSDOF 17
ENDMDL
MODEL 3
REMARK VINA RESULT:     -12.7      2.358      3.912
REMARK SMILES Cc1ccn2c([C@@H]3CCCC[C@@H]3C(=O)NCCCCCCNC(=O)c3ccc(-c4c5nc(c(-c6ccc(S(=O)(=O)[O-])cc6)c6ccc([nH]6)c(-c6ccc(S(=O)(=O)[O-])cc6)c6nc(c(-c7ccc(S(=O)(=O)[O-])cc7)c7ccc4[nH]7)C=C6)C=C5)cc3)nnc2c1
REMARK SMILES IDX 19 1 18 2 17 3 16 4 15 5 13 6 14 7 12 9 7 10 8 11 9 12 11 13
REMARK SMILES IDX 10 14 6 15 1 16 2 17 3 18 88 19 4 20 87 21 5 22 86 23 85 24
REMARK SMILES IDX 20 25 21 26 22 27 23 28 24 30 25 31 26 32 84 33 27 34 83 35
REMARK SMILES IDX 28 36 29 37 30 38 77 39 31 40 82 41 76 42 78 43 32 44 81 45
REMARK SMILES IDX 75 46 74 47 33 49 63 50 44 51 62 52 45 53 48 54 61 55 79 56
REMARK SMILES IDX 46 57 47 58 60 60 80 61 49 62 34 63 35 64 43 65 36 66 42 67
REMARK SMILES IDX 37 68 38 69 39 70 40 71 41 72 64 73 65 74 73 75 66 76 72 77
REMARK SMILES IDX 67 78 68 79 69 80 70 81 71 82 50 83 51 84 59 85 52 86 58 87
REMARK SMILES IDX 53 88 54 89 55 90 56 91 57 92
REMARK H PARENT 15 8 22 29 78 48 48 59
REMARK Flexibility Score: inf
ROOT
ATOM      1  C   UNL A   1      40.523  21.230  27.089  1.00  0.00     0.002 C 
ENDROOT
BRANCH   1   2
ATOM      2  C   UNL A   1      39.678  22.310  26.405  1.00  0.00     0.002 C 
BRANCH   2   3
ATOM      3  C   UNL A   1      38.369  21.826  25.771  1.00  0.00     0.021 C 
BRANCH   3   4
ATOM      4  C   UNL A   1      37.308  22.905  25.578  1.00  0.00     0.116 C 
BRANCH   4   5
ATOM      5  N   UNL A   1      36.116  22.640  26.354  1.00  0.00    -0.356 N 
ATOM      6  C   UNL A   1      35.046  21.855  26.070  1.00  0.00     0.223 C 
ATOM      7  O   UNL A   1      34.309  21.557  27.009  1.00  0.00    -0.275 OA
ATOM      8  H   UNL A   1      36.074  23.101  27.224  1.00  0.00     0.163 HD
BRANCH   6   9
ATOM      9  C   UNL A   1      34.849  21.305  24.664  1.00  0.00     0.089 C 
ATOM     10  C   UNL A   1      33.582  21.801  23.927  1.00  0.00     0.071 C 
ATOM     11  C   UNL A   1      32.262  21.302  24.516  1.00  0.00     0.012 C 
ATOM     12  C   UNL A   1      32.275  19.782  24.707  1.00  0.00     0.001 C 
ATOM     13  C   UNL A   1      34.813  19.770  24.784  1.00  0.00     0.014 C 
ATOM     14  C   UNL A   1      33.518  19.276  25.436  1.00  0.00     0.001 C 
BRANCH  10  15
ATOM     15  C   UNL A   1      33.612  23.259  23.538  1.00  0.00     0.141 A 
ATOM     16  C   UNL A   1      33.613  28.206  26.160  1.00  0.00     0.044 C 
ATOM     17  C   UNL A   1      33.507  26.897  25.440  1.00  0.00    -0.046 A 
ATOM     18  C   UNL A   1      33.021  25.761  26.215  1.00  0.00     0.022 A 
ATOM     19  C   UNL A   1      33.826  26.744  24.136  1.00  0.00     0.053 A 
ATOM     20  C   UNL A   1      32.962  24.548  25.642  1.00  0.00     0.095 A 
ATOM     21  C   UNL A   1      33.779  25.451  23.539  1.00  0.00     0.161 A 
ATOM     22  N   UNL A   1      33.402  24.374  24.334  1.00  0.00    -0.286 N 
ATOM     23  N   UNL A   1      34.052  25.035  22.325  1.00  0.00    -0.130 NA
ATOM     24  N   UNL A   1      33.945  23.668  22.324  1.00  0.00    -0.134 NA
ENDBRANCH  10  15
ENDBRANCH   6   9
ENDBRANCH   4   5
ENDBRANCH   3   4
ENDBRANCH   2   3
ENDBRANCH   1   2
BRANCH   1  25
ATOM     25  C   UNL A   1      40.831  19.993  26.238  1.00  0.00     0.021 C 
BRANCH  25  26
ATOM     26  C   UNL A   1      42.238  19.426  26.428  1.00  0.00     0.116 C 
BRANCH  26  27
ATOM     27  N   UNL A   1      43.134  19.727  25.332  1.00  0.00    -0.352 N 
ATOM     28  C   UNL A   1      43.908  20.798  24.987  1.00  0.00     0.251 C 
ATOM     29  H   UNL A   1      43.203  18.987  24.686  1.00  0.00     0.163 HD
ATOM     30  O   UNL A   1      44.666  20.623  24.029  1.00  0.00    -0.269 OA
BRANCH  28  31
ATOM     31  C   UNL A   1      43.851  22.143  25.623  1.00  0.00     0.039 A 
ATOM     32  C   UNL A   1      44.478  22.513  26.812  1.00  0.00     0.014 A 
ATOM     33  C   UNL A   1      43.019  23.083  24.984  1.00  0.00     0.014 A 
ATOM     34  C   UNL A   1      44.194  23.741  27.404  1.00  0.00     0.010 A 
ATOM     35  C   UNL A   1      42.742  24.316  25.563  1.00  0.00     0.010 A 
ATOM     36  C   UNL A   1      43.287  24.619  26.804  1.00  0.00    -0.014 A 
BRANCH  36  37
ATOM     37  C   UNL A   1      42.999  25.874  27.488  1.00  0.00     0.031 A 
ATOM     38  C   UNL A   1      43.994  26.960  27.264  1.00  0.00     0.074 A 
ATOM     39  C   UNL A   1      41.886  26.093  28.217  1.00  0.00     0.049 A 
ATOM     40  N   UNL A   1      44.744  27.546  28.139  1.00  0.00    -0.248 NA
ATOM     41  C   UNL A   1      44.261  27.368  25.876  1.00  0.00     0.031 C 
ATOM     42  C   UNL A   1      40.687  25.260  28.332  1.00  0.00     0.029 A 
ATOM     43  N   UNL A   1      41.560  27.196  28.946  1.00  0.00    -0.354 N 
ATOM     44  C   UNL A   1      45.480  28.503  27.445  1.00  0.00     0.074 A 
ATOM     45  C   UNL A   1      45.227  28.272  26.044  1.00  0.00     0.031 C 
ATOM     46  C   UNL A   1      39.686  25.992  28.877  1.00  0.00     0.029 A 
ATOM     47  C   UNL A   1      40.217  27.280  29.289  1.00  0.00     0.049 A 
ATOM     48  H   UNL A   1      42.222  27.876  29.209  1.00  0.00     0.167 HD
ATOM     49  C   UNL A   1      46.144  29.517  28.069  1.00  0.00     0.031 A 
ATOM     50  C   UNL A   1      39.584  28.363  29.810  1.00  0.00     0.031 A 
ATOM     51  C   UNL A   1      46.319  29.266  29.473  1.00  0.00     0.049 A 
ATOM     52  C   UNL A   1      40.626  29.220  30.430  1.00  0.00     0.074 A 
ATOM     53  C   UNL A   1      46.996  28.303  30.195  1.00  0.00     0.029 A 
ATOM     54  N   UNL A   1      45.427  29.836  30.349  1.00  0.00    -0.354 N 
ATOM     55  N   UNL A   1      41.313  28.871  31.481  1.00  0.00    -0.248 NA
ATOM     56  C   UNL A   1      41.211  30.276  29.619  1.00  0.00     0.031 C 
ATOM     57  C   UNL A   1      46.138  27.998  31.288  1.00  0.00     0.029 A 
ATOM     58  C   UNL A   1      45.030  28.845  31.214  1.00  0.00     0.049 A 
ATOM     59  H   UNL A   1      45.130  30.774  30.355  1.00  0.00     0.167 HD
ATOM     60  C   UNL A   1      42.596  29.336  31.232  1.00  0.00     0.074 A 
ATOM     61  C   UNL A   1      42.452  30.266  30.112  1.00  0.00     0.031 C 
ATOM     62  C   UNL A   1      43.694  28.726  31.767  1.00  0.00     0.031 A 
BRANCH  49  63
ATOM     63  C   UNL A   1      46.421  30.852  27.437  1.00  0.00    -0.014 A 
ATOM     64  C   UNL A   1      45.417  31.602  26.790  1.00  0.00     0.010 A 
ATOM     65  C   UNL A   1      47.654  31.497  27.664  1.00  0.00     0.010 A 
ATOM     66  C   UNL A   1      45.637  32.906  26.343  1.00  0.00     0.020 A 
ATOM     67  C   UNL A   1      47.872  32.823  27.258  1.00  0.00     0.020 A 
ATOM     68  C   UNL A   1      46.864  33.513  26.585  1.00  0.00     0.054 A 
BRANCH  68  69
ATOM     69  S   UNL A   1      47.083  35.228  26.052  1.00  0.00     0.124 S 
ATOM     70  O   UNL A   1      45.712  35.729  26.083  1.00  0.00    -0.237 OA
ATOM     71  O   UNL A   1      47.973  35.764  27.078  1.00  0.00    -0.237 OA
ATOM     72  O   UNL A   1      47.672  35.102  24.721  1.00  0.00    -0.744 OA
ENDBRANCH  68  69
ENDBRANCH  49  63
BRANCH  50  73
ATOM     73  C   UNL A   1      38.272  28.921  29.382  1.00  0.00    -0.014 A 
ATOM     74  C   UNL A   1      38.115  29.428  28.077  1.00  0.00     0.010 A 
ATOM     75  C   UNL A   1      37.302  29.270  30.344  1.00  0.00     0.010 A 
ATOM     76  C   UNL A   1      37.098  30.338  27.769  1.00  0.00     0.020 A 
ATOM     77  C   UNL A   1      36.280  30.185  30.041  1.00  0.00     0.020 A 
ATOM     78  C   UNL A   1      36.217  30.749  28.767  1.00  0.00     0.054 A 
BRANCH  78  79
ATOM     79  S   UNL A   1      35.078  32.114  28.392  1.00  0.00     0.124 S 
ATOM     80  O   UNL A   1      35.936  33.023  27.639  1.00  0.00    -0.237 OA
ATOM     81  O   UNL A   1      34.033  31.451  27.619  1.00  0.00    -0.237 OA
ATOM     82  O   UNL A   1      34.665  32.593  29.712  1.00  0.00    -0.744 OA
ENDBRANCH  78  79
ENDBRANCH  50  73
BRANCH  62  83
ATOM     83  C   UNL A   1      43.506  27.650  32.821  1.00  0.00    -0.014 A 
ATOM     84  C   UNL A   1      43.309  28.069  34.149  1.00  0.00     0.010 A 
ATOM     85  C   UNL A   1      43.727  26.277  32.583  1.00  0.00     0.010 A 
ATOM     86  C   UNL A   1      43.376  27.164  35.210  1.00  0.00     0.020 A 
ATOM     87  C   UNL A   1      43.766  25.356  33.644  1.00  0.00     0.020 A 
ATOM     88  C   UNL A   1      43.617  25.814  34.954  1.00  0.00     0.054 A 
BRANCH  88  89
ATOM     89  S   UNL A   1      43.765  24.688  36.370  1.00  0.00     0.124 S 
ATOM     90  O   UNL A   1      42.709  25.169  37.259  1.00  0.00    -0.237 OA
ATOM     91  O   UNL A   1      43.523  23.379  35.768  1.00  0.00    -0.237 OA
ATOM     92  O   UNL A   1      45.126  24.903  36.855  1.00  0.00    -0.744 OA
ENDBRANCH  88  89
ENDBRANCH  62  83
ENDBRANCH  36  37
ENDBRANCH  28  31
ENDBRANCH  26  27
ENDBRANCH  25  26
ENDBRANCH   1  25
TORSDOF 17
ENDMDL
