MODEL 1
REMARK VINA RESULT:     -10.0      0.000      0.000
REMARK SMILES CCCCCCNC(=O)Oc1cccc(-c2ccc([C@H](C)C(=O)NCCCCCCNC(=O)c3ccc(-c4c5nc(c(-c6ccc(S(=O)(=O)[O-])cc6)c6ccc([nH]6)c(-c6ccc(S(=O)(=O)[O-])cc6)c6nc(c(-c7ccc(S(=O)(=O)[O-])cc7)c7ccc4[nH]7)C=C6)C=C5)cc3)cc2F)c1
REMARK SMILES IDX 22 1 23 2 24 3 20 5 21 6 19 7 16 8 17 9 95 10 18 11 94 12
REMARK SMILES IDX 96 13 15 14 11 15 12 16 97 17 13 18 14 19 10 20 8 21 7 22
REMARK SMILES IDX 9 24 6 25 5 26 4 27 3 28 2 29 1 30 25 31 26 32 27 33 28 34
REMARK SMILES IDX 29 35 30 36 31 37 32 38 33 40 34 41 35 42 93 43 36 44 92 45
REMARK SMILES IDX 37 46 38 47 39 48 86 49 40 50 91 51 85 52 87 53 41 54 90 55
REMARK SMILES IDX 84 56 83 57 42 59 72 60 53 61 71 62 54 63 57 64 70 65 88 66
REMARK SMILES IDX 55 67 56 68 69 70 89 71 58 72 43 73 44 74 52 75 45 76 51 77
REMARK SMILES IDX 46 78 47 79 48 80 49 81 50 82 73 83 74 84 82 85 75 86 81 87
REMARK SMILES IDX 76 88 77 89 78 90 79 91 80 92 59 93 60 94 68 95 61 96 67 97
REMARK SMILES IDX 62 98 63 99 64 100 65 101 66 102
REMARK H PARENT 24 4 7 23 31 39 87 58 57 69
REMARK Flexibility Score: inf
ROOT
ATOM      1  C   UNL A   1      33.629  27.654  25.367  1.00  0.00     0.227 C 
ATOM      2  O   UNL A   1      33.619  27.538  24.136  1.00  0.00    -0.274 OA
ATOM      3  N   UNL A   1      34.252  28.750  25.885  1.00  0.00    -0.356 N 
ATOM      4  H   UNL A   1      34.748  29.298  25.235  1.00  0.00     0.163 HD
ENDROOT
BRANCH   1   5
ATOM      5  C   UNL A   1      32.968  26.584  26.251  1.00  0.00     0.105 C 
ATOM      6  C   UNL A   1      31.447  26.735  26.377  1.00  0.00     0.023 C 
BRANCH   5   7
ATOM      7  C   UNL A   1      33.476  25.174  25.972  1.00  0.00    -0.033 A 
ATOM      8  C   UNL A   1      34.489  22.574  25.403  1.00  0.00     0.018 A 
ATOM      9  C   UNL A   1      33.241  22.743  26.008  1.00  0.00     0.012 A 
ATOM     10  C   UNL A   1      35.222  23.722  25.088  1.00  0.00     0.131 A 
ATOM     11  C   UNL A   1      32.757  24.018  26.311  1.00  0.00     0.005 A 
ATOM     12  C   UNL A   1      34.721  25.001  25.348  1.00  0.00     0.044 A 
ATOM     13  F   UNL A   1      36.445  23.618  24.544  1.00  0.00    -0.206 F 
BRANCH   8  14
ATOM     14  C   UNL A   1      35.021  21.225  25.214  1.00  0.00    -0.012 A 
ATOM     15  C   UNL A   1      34.621  18.878  24.782  1.00  0.00     0.133 A 
ATOM     16  C   UNL A   1      35.986  18.640  24.655  1.00  0.00     0.047 A 
ATOM     17  C   UNL A   1      34.136  20.148  25.085  1.00  0.00     0.056 A 
ATOM     18  C   UNL A   1      36.878  19.701  24.801  1.00  0.00     0.004 A 
ATOM     19  C   UNL A   1      36.398  20.986  25.071  1.00  0.00     0.009 A 
BRANCH  15  20
ATOM     20  O   UNL A   1      33.756  17.778  24.696  1.00  0.00    -0.410 OA
BRANCH  20  21
ATOM     21  C   UNL A   1      33.636  17.148  23.466  1.00  0.00     0.412 C 
ATOM     22  N   UNL A   1      32.668  17.704  22.678  1.00  0.00    -0.321 N 
ATOM     23  H   UNL A   1      32.502  17.273  21.808  1.00  0.00     0.167 HD
ATOM     24  O   UNL A   1      34.297  16.198  23.066  1.00  0.00    -0.224 OA
BRANCH  22  25
ATOM     25  C   UNL A   1      31.862  18.863  22.994  1.00  0.00     0.119 C 
BRANCH  25  26
ATOM     26  C   UNL A   1      32.204  20.051  22.096  1.00  0.00     0.021 C 
BRANCH  26  27
ATOM     27  C   UNL A   1      32.011  21.424  22.753  1.00  0.00     0.002 C 
BRANCH  27  28
ATOM     28  C   UNL A   1      32.665  22.600  22.019  1.00  0.00    -0.000 C 
BRANCH  28  29
ATOM     29  C   UNL A   1      32.426  23.976  22.646  1.00  0.00    -0.003 C 
ATOM     30  C   UNL A   1      30.999  24.171  23.136  1.00  0.00     0.004 C 
ENDBRANCH  28  29
ENDBRANCH  27  28
ENDBRANCH  26  27
ENDBRANCH  25  26
ENDBRANCH  22  25
ENDBRANCH  20  21
ENDBRANCH  15  20
ENDBRANCH   8  14
ENDBRANCH   5   7
ENDBRANCH   1   5
BRANCH   3  31
ATOM     31  C   UNL A   1      34.291  29.224  27.250  1.00  0.00     0.116 C 
BRANCH  31  32
ATOM     32  C   UNL A   1      35.621  29.852  27.641  1.00  0.00     0.021 C 
BRANCH  32  33
ATOM     33  C   UNL A   1      35.544  30.947  28.704  1.00  0.00     0.002 C 
BRANCH  33  34
ATOM     34  C   UNL A   1      35.574  32.386  28.185  1.00  0.00     0.002 C 
BRANCH  34  35
ATOM     35  C   UNL A   1      34.214  33.058  27.979  1.00  0.00     0.021 C 
BRANCH  35  36
ATOM     36  C   UNL A   1      34.209  34.579  28.071  1.00  0.00     0.116 C 
BRANCH  36  37
ATOM     37  N   UNL A   1      33.284  35.078  29.074  1.00  0.00    -0.352 N 
ATOM     38  C   UNL A   1      33.322  34.938  30.440  1.00  0.00     0.251 C 
ATOM     39  H   UNL A   1      32.521  35.590  28.725  1.00  0.00     0.163 HD
ATOM     40  O   UNL A   1      32.365  35.304  31.116  1.00  0.00    -0.269 OA
BRANCH  38  41
ATOM     41  C   UNL A   1      34.501  34.326  31.090  1.00  0.00     0.039 A 
ATOM     42  C   UNL A   1      34.343  33.112  31.762  1.00  0.00     0.014 A 
ATOM     43  C   UNL A   1      35.753  34.945  31.045  1.00  0.00     0.014 A 
ATOM     44  C   UNL A   1      35.453  32.491  32.341  1.00  0.00     0.010 A 
ATOM     45  C   UNL A   1      36.871  34.288  31.553  1.00  0.00     0.010 A 
ATOM     46  C   UNL A   1      36.731  33.058  32.213  1.00  0.00    -0.014 A 
BRANCH  46  47
ATOM     47  C   UNL A   1      37.933  32.382  32.771  1.00  0.00     0.031 A 
ATOM     48  C   UNL A   1      38.500  32.815  34.095  1.00  0.00     0.074 A 
ATOM     49  C   UNL A   1      38.540  31.410  32.062  1.00  0.00     0.049 A 
ATOM     50  N   UNL A   1      39.555  32.368  34.727  1.00  0.00    -0.248 NA
ATOM     51  C   UNL A   1      37.803  33.910  34.789  1.00  0.00     0.031 C 
ATOM     52  C   UNL A   1      38.105  30.916  30.753  1.00  0.00     0.029 A 
ATOM     53  N   UNL A   1      39.655  30.661  32.343  1.00  0.00    -0.354 N 
ATOM     54  C   UNL A   1      39.653  33.131  35.885  1.00  0.00     0.074 A 
ATOM     55  C   UNL A   1      38.590  34.110  35.835  1.00  0.00     0.031 C 
ATOM     56  C   UNL A   1      38.915  29.917  30.368  1.00  0.00     0.029 A 
ATOM     57  C   UNL A   1      39.955  29.732  31.375  1.00  0.00     0.049 A 
ATOM     58  H   UNL A   1      40.189  30.777  33.162  1.00  0.00     0.167 HD
ATOM     59  C   UNL A   1      40.534  33.014  36.911  1.00  0.00     0.031 A 
ATOM     60  C   UNL A   1      40.953  28.829  31.306  1.00  0.00     0.031 A 
ATOM     61  C   UNL A   1      41.597  32.045  36.951  1.00  0.00     0.049 A 
ATOM     62  C   UNL A   1      41.947  28.748  32.432  1.00  0.00     0.074 A 
ATOM     63  C   UNL A   1      42.520  31.821  37.957  1.00  0.00     0.029 A 
ATOM     64  N   UNL A   1      41.882  31.140  35.939  1.00  0.00    -0.354 N 
ATOM     65  N   UNL A   1      41.992  29.443  33.544  1.00  0.00    -0.248 NA
ATOM     66  C   UNL A   1      43.019  27.754  32.296  1.00  0.00     0.031 C 
ATOM     67  C   UNL A   1      43.399  30.820  37.528  1.00  0.00     0.029 A 
ATOM     68  C   UNL A   1      42.983  30.373  36.283  1.00  0.00     0.049 A 
ATOM     69  H   UNL A   1      41.375  31.056  35.099  1.00  0.00     0.167 HD
ATOM     70  C   UNL A   1      43.078  28.945  34.258  1.00  0.00     0.074 A 
ATOM     71  C   UNL A   1      43.654  27.885  33.453  1.00  0.00     0.031 C 
ATOM     72  C   UNL A   1      43.550  29.326  35.470  1.00  0.00     0.031 A 
BRANCH  59  73
ATOM     73  C   UNL A   1      40.383  33.978  38.060  1.00  0.00    -0.014 A 
ATOM     74  C   UNL A   1      39.488  33.718  39.115  1.00  0.00     0.010 A 
ATOM     75  C   UNL A   1      41.142  35.163  38.088  1.00  0.00     0.010 A 
ATOM     76  C   UNL A   1      39.305  34.653  40.138  1.00  0.00     0.020 A 
ATOM     77  C   UNL A   1      40.987  36.085  39.128  1.00  0.00     0.020 A 
ATOM     78  C   UNL A   1      40.049  35.835  40.133  1.00  0.00     0.054 A 
BRANCH  78  79
ATOM     79  S   UNL A   1      39.777  37.040  41.460  1.00  0.00     0.124 S 
ATOM     80  O   UNL A   1      38.849  37.976  40.831  1.00  0.00    -0.237 OA
ATOM     81  O   UNL A   1      39.212  36.218  42.528  1.00  0.00    -0.237 OA
ATOM     82  O   UNL A   1      41.112  37.571  41.727  1.00  0.00    -0.744 OA
ENDBRANCH  78  79
ENDBRANCH  59  73
BRANCH  60  83
ATOM     83  C   UNL A   1      41.035  27.902  30.144  1.00  0.00    -0.014 A 
ATOM     84  C   UNL A   1      39.930  27.106  29.794  1.00  0.00     0.010 A 
ATOM     85  C   UNL A   1      42.206  27.824  29.368  1.00  0.00     0.010 A 
ATOM     86  C   UNL A   1      39.997  26.242  28.698  1.00  0.00     0.020 A 
ATOM     87  C   UNL A   1      42.266  26.982  28.254  1.00  0.00     0.020 A 
ATOM     88  C   UNL A   1      41.163  26.190  27.931  1.00  0.00     0.054 A 
BRANCH  88  89
ATOM     89  S   UNL A   1      41.202  25.106  26.476  1.00  0.00     0.124 S 
ATOM     90  O   UNL A   1      40.918  26.040  25.392  1.00  0.00    -0.237 OA
ATOM     91  O   UNL A   1      42.562  24.576  26.516  1.00  0.00    -0.237 OA
ATOM     92  O   UNL A   1      40.152  24.126  26.752  1.00  0.00    -0.744 OA
ENDBRANCH  88  89
ENDBRANCH  60  83
BRANCH  72  93
ATOM     93  C   UNL A   1      44.728  28.567  36.024  1.00  0.00    -0.014 A 
ATOM     94  C   UNL A   1      44.554  27.410  36.803  1.00  0.00     0.010 A 
ATOM     95  C   UNL A   1      46.033  28.996  35.717  1.00  0.00     0.010 A 
ATOM     96  C   UNL A   1      45.665  26.715  37.293  1.00  0.00     0.020 A 
ATOM     97  C   UNL A   1      47.144  28.286  36.178  1.00  0.00     0.020 A 
ATOM     98  C   UNL A   1      46.953  27.158  36.976  1.00  0.00     0.054 A 
BRANCH  98  99
ATOM     99  S   UNL A   1      48.375  26.214  37.588  1.00  0.00     0.124 S 
ATOM    100  O   UNL A   1      48.467  25.133  36.609  1.00  0.00    -0.237 OA
ATOM    101  O   UNL A   1      49.455  27.197  37.542  1.00  0.00    -0.237 OA
ATOM    102  O   UNL A   1      47.970  25.804  38.930  1.00  0.00    -0.744 OA
ENDBRANCH  98  99
ENDBRANCH  72  93
ENDBRANCH  46  47
ENDBRANCH  38  41
ENDBRANCH  36  37
ENDBRANCH  35  36
ENDBRANCH  34  35
ENDBRANCH  33  34
ENDBRANCH  32  33
ENDBRANCH  31  32
ENDBRANCH   3  31
TORSDOF 25
ENDMDL
MODEL 2
REMARK VINA RESULT:      -9.9      1.013      7.722
REMARK SMILES CCCCCCNC(=O)Oc1cccc(-c2ccc([C@H](C)C(=O)NCCCCCCNC(=O)c3ccc(-c4c5nc(c(-c6ccc(S(=O)(=O)[O-])cc6)c6ccc([nH]6)c(-c6ccc(S(=O)(=O)[O-])cc6)c6nc(c(-c7ccc(S(=O)(=O)[O-])cc7)c7ccc4[nH]7)C=C6)C=C5)cc3)cc2F)c1
REMARK SMILES IDX 22 1 23 2 24 3 20 5 21 6 19 7 16 8 17 9 95 10 18 11 94 12
REMARK SMILES IDX 96 13 15 14 11 15 12 16 97 17 13 18 14 19 10 20 8 21 7 22
REMARK SMILES IDX 9 24 6 25 5 26 4 27 3 28 2 29 1 30 25 31 26 32 27 33 28 34
REMARK SMILES IDX 29 35 30 36 31 37 32 38 33 40 34 41 35 42 93 43 36 44 92 45
REMARK SMILES IDX 37 46 38 47 39 48 86 49 40 50 91 51 85 52 87 53 41 54 90 55
REMARK SMILES IDX 84 56 83 57 42 59 72 60 53 61 71 62 54 63 57 64 70 65 88 66
REMARK SMILES IDX 55 67 56 68 69 70 89 71 58 72 43 73 44 74 52 75 45 76 51 77
REMARK SMILES IDX 46 78 47 79 48 80 49 81 50 82 73 83 74 84 82 85 75 86 81 87
REMARK SMILES IDX 76 88 77 89 78 90 79 91 80 92 59 93 60 94 68 95 61 96 67 97
REMARK SMILES IDX 62 98 63 99 64 100 65 101 66 102
REMARK H PARENT 24 4 7 23 31 39 87 58 57 69
REMARK Flexibility Score: inf
ROOT
ATOM      1  C   UNL A   1      33.632  27.879  25.343  1.00  0.00     0.227 C 
ATOM      2  O   UNL A   1      33.539  27.797  24.112  1.00  0.00    -0.274 OA
ATOM      3  N   UNL A   1      34.344  28.928  25.844  1.00  0.00    -0.356 N 
ATOM      4  H   UNL A   1      34.826  29.468  25.176  1.00  0.00     0.163 HD
ENDROOT
BRANCH   1   5
ATOM      5  C   UNL A   1      32.973  26.822  26.243  1.00  0.00     0.105 C 
ATOM      6  C   UNL A   1      31.454  26.983  26.380  1.00  0.00     0.023 C 
BRANCH   5   7
ATOM      7  C   UNL A   1      33.471  25.406  25.973  1.00  0.00    -0.033 A 
ATOM      8  C   UNL A   1      34.469  22.796  25.429  1.00  0.00     0.018 A 
ATOM      9  C   UNL A   1      33.179  22.982  25.934  1.00  0.00     0.012 A 
ATOM     10  C   UNL A   1      35.251  23.933  25.201  1.00  0.00     0.131 A 
ATOM     11  C   UNL A   1      32.701  24.262  26.226  1.00  0.00     0.005 A 
ATOM     12  C   UNL A   1      34.759  25.218  25.449  1.00  0.00     0.044 A 
ATOM     13  F   UNL A   1      36.511  23.810  24.756  1.00  0.00    -0.206 F 
BRANCH   8  14
ATOM     14  C   UNL A   1      34.984  21.439  25.252  1.00  0.00    -0.012 A 
ATOM     15  C   UNL A   1      34.565  19.106  24.765  1.00  0.00     0.133 A 
ATOM     16  C   UNL A   1      35.930  18.842  24.715  1.00  0.00     0.047 A 
ATOM     17  C   UNL A   1      34.088  20.382  25.056  1.00  0.00     0.056 A 
ATOM     18  C   UNL A   1      36.833  19.882  24.928  1.00  0.00     0.004 A 
ATOM     19  C   UNL A   1      36.363  21.174  25.187  1.00  0.00     0.009 A 
BRANCH  15  20
ATOM     20  O   UNL A   1      33.685  18.025  24.612  1.00  0.00    -0.410 OA
BRANCH  20  21
ATOM     21  C   UNL A   1      33.564  17.466  23.348  1.00  0.00     0.412 C 
ATOM     22  N   UNL A   1      32.647  18.113  22.568  1.00  0.00    -0.321 N 
ATOM     23  H   UNL A   1      32.482  17.737  21.673  1.00  0.00     0.167 HD
ATOM     24  O   UNL A   1      34.185  16.504  22.914  1.00  0.00    -0.224 OA
BRANCH  22  25
ATOM     25  C   UNL A   1      31.895  19.296  22.926  1.00  0.00     0.119 C 
BRANCH  25  26
ATOM     26  C   UNL A   1      32.164  20.450  21.961  1.00  0.00     0.021 C 
BRANCH  26  27
ATOM     27  C   UNL A   1      32.141  21.841  22.607  1.00  0.00     0.002 C 
BRANCH  27  28
ATOM     28  C   UNL A   1      32.827  22.950  21.801  1.00  0.00    -0.000 C 
BRANCH  28  29
ATOM     29  C   UNL A   1      32.827  24.331  22.459  1.00  0.00    -0.003 C 
ATOM     30  C   UNL A   1      31.431  24.845  22.773  1.00  0.00     0.004 C 
ENDBRANCH  28  29
ENDBRANCH  27  28
ENDBRANCH  26  27
ENDBRANCH  25  26
ENDBRANCH  22  25
ENDBRANCH  20  21
ENDBRANCH  15  20
ENDBRANCH   8  14
ENDBRANCH   5   7
ENDBRANCH   1   5
BRANCH   3  31
ATOM     31  C   UNL A   1      34.494  29.364  27.214  1.00  0.00     0.116 C 
BRANCH  31  32
ATOM     32  C   UNL A   1      35.886  29.887  27.541  1.00  0.00     0.021 C 
BRANCH  32  33
ATOM     33  C   UNL A   1      35.967  30.838  28.734  1.00  0.00     0.002 C 
BRANCH  33  34
ATOM     34  C   UNL A   1      35.965  32.332  28.399  1.00  0.00     0.002 C 
BRANCH  34  35
ATOM     35  C   UNL A   1      34.593  32.969  28.167  1.00  0.00     0.021 C 
BRANCH  35  36
ATOM     36  C   UNL A   1      34.525  34.479  28.363  1.00  0.00     0.116 C 
BRANCH  36  37
ATOM     37  N   UNL A   1      33.560  34.871  29.376  1.00  0.00    -0.352 N 
ATOM     38  C   UNL A   1      33.612  34.707  30.738  1.00  0.00     0.251 C 
ATOM     39  H   UNL A   1      32.753  35.320  29.037  1.00  0.00     0.163 HD
ATOM     40  O   UNL A   1      32.627  34.970  31.421  1.00  0.00    -0.269 OA
BRANCH  38  41
ATOM     41  C   UNL A   1      34.842  34.190  31.376  1.00  0.00     0.039 A 
ATOM     42  C   UNL A   1      34.842  32.887  31.880  1.00  0.00     0.014 A 
ATOM     43  C   UNL A   1      35.988  34.984  31.484  1.00  0.00     0.014 A 
ATOM     44  C   UNL A   1      36.009  32.361  32.442  1.00  0.00     0.010 A 
ATOM     45  C   UNL A   1      37.170  34.432  31.971  1.00  0.00     0.010 A 
ATOM     46  C   UNL A   1      37.191  33.119  32.463  1.00  0.00    -0.014 A 
BRANCH  46  47
ATOM     47  C   UNL A   1      38.457  32.555  33.002  1.00  0.00     0.031 A 
ATOM     48  C   UNL A   1      39.324  31.680  32.139  1.00  0.00     0.074 A 
ATOM     49  C   UNL A   1      38.801  32.793  34.283  1.00  0.00     0.049 A 
ATOM     50  N   UNL A   1      40.444  31.073  32.441  1.00  0.00    -0.248 NA
ATOM     51  C   UNL A   1      38.860  31.433  30.764  1.00  0.00     0.031 C 
ATOM     52  C   UNL A   1      38.034  33.605  35.231  1.00  0.00     0.029 A 
ATOM     53  N   UNL A   1      39.889  32.377  35.009  1.00  0.00    -0.354 N 
ATOM     54  C   UNL A   1      40.813  30.370  31.300  1.00  0.00     0.074 A 
ATOM     55  C   UNL A   1      39.764  30.573  30.324  1.00  0.00     0.031 C 
ATOM     56  C   UNL A   1      38.696  33.663  36.397  1.00  0.00     0.029 A 
ATOM     57  C   UNL A   1      39.909  32.857  36.298  1.00  0.00     0.049 A 
ATOM     58  H   UNL A   1      40.590  31.791  34.643  1.00  0.00     0.167 HD
ATOM     59  C   UNL A   1      41.933  29.639  31.073  1.00  0.00     0.031 A 
ATOM     60  C   UNL A   1      40.802  32.672  37.288  1.00  0.00     0.031 A 
ATOM     61  C   UNL A   1      42.969  29.432  32.050  1.00  0.00     0.049 A 
ATOM     62  C   UNL A   1      42.015  31.819  37.031  1.00  0.00     0.074 A 
ATOM     63  C   UNL A   1      44.159  28.739  31.911  1.00  0.00     0.029 A 
ATOM     64  N   UNL A   1      42.938  29.914  33.351  1.00  0.00    -0.354 N 
ATOM     65  N   UNL A   1      42.372  31.205  35.928  1.00  0.00    -0.248 NA
ATOM     66  C   UNL A   1      42.948  31.643  38.151  1.00  0.00     0.031 C 
ATOM     67  C   UNL A   1      44.819  28.752  33.145  1.00  0.00     0.029 A 
ATOM     68  C   UNL A   1      44.074  29.511  34.034  1.00  0.00     0.049 A 
ATOM     69  H   UNL A   1      42.214  30.461  33.732  1.00  0.00     0.167 HD
ATOM     70  C   UNL A   1      43.592  30.597  36.211  1.00  0.00     0.074 A 
ATOM     71  C   UNL A   1      43.912  30.927  37.587  1.00  0.00     0.031 C 
ATOM     72  C   UNL A   1      44.377  29.841  35.405  1.00  0.00     0.031 A 
BRANCH  59  73
ATOM     73  C   UNL A   1      42.075  29.001  29.714  1.00  0.00    -0.014 A 
ATOM     74  C   UNL A   1      42.654  29.699  28.638  1.00  0.00     0.010 A 
ATOM     75  C   UNL A   1      41.622  27.685  29.506  1.00  0.00     0.010 A 
ATOM     76  C   UNL A   1      42.715  29.122  27.367  1.00  0.00     0.020 A 
ATOM     77  C   UNL A   1      41.712  27.091  28.243  1.00  0.00     0.020 A 
ATOM     78  C   UNL A   1      42.235  27.824  27.176  1.00  0.00     0.054 A 
BRANCH  78  79
ATOM     79  S   UNL A   1      42.306  27.108  25.511  1.00  0.00     0.124 S 
ATOM     80  O   UNL A   1      42.313  28.302  24.670  1.00  0.00    -0.237 OA
ATOM     81  O   UNL A   1      43.558  26.354  25.541  1.00  0.00    -0.237 OA
ATOM     82  O   UNL A   1      41.095  26.295  25.431  1.00  0.00    -0.744 OA
ENDBRANCH  78  79
ENDBRANCH  59  73
BRANCH  60  83
ATOM     83  C   UNL A   1      40.603  33.341  38.603  1.00  0.00    -0.014 A 
ATOM     84  C   UNL A   1      41.273  34.543  38.893  1.00  0.00     0.010 A 
ATOM     85  C   UNL A   1      39.729  32.798  39.562  1.00  0.00     0.010 A 
ATOM     86  C   UNL A   1      41.082  35.184  40.121  1.00  0.00     0.020 A 
ATOM     87  C   UNL A   1      39.513  33.450  40.779  1.00  0.00     0.020 A 
ATOM     88  C   UNL A   1      40.198  34.636  41.054  1.00  0.00     0.054 A 
BRANCH  88  89
ATOM     89  S   UNL A   1      39.920  35.519  42.615  1.00  0.00     0.124 S 
ATOM     90  O   UNL A   1      38.637  36.170  42.372  1.00  0.00    -0.237 OA
ATOM     91  O   UNL A   1      39.906  34.434  43.591  1.00  0.00    -0.237 OA
ATOM     92  O   UNL A   1      41.071  36.416  42.709  1.00  0.00    -0.744 OA
ENDBRANCH  88  89
ENDBRANCH  60  83
BRANCH  72  93
ATOM     93  C   UNL A   1      45.682  29.348  35.974  1.00  0.00    -0.014 A 
ATOM     94  C   UNL A   1      45.802  28.059  36.524  1.00  0.00     0.010 A 
ATOM     95  C   UNL A   1      46.820  30.174  35.912  1.00  0.00     0.010 A 
ATOM     96  C   UNL A   1      47.028  27.620  37.032  1.00  0.00     0.020 A 
ATOM     97  C   UNL A   1      48.053  29.726  36.389  1.00  0.00     0.020 A 
ATOM     98  C   UNL A   1      48.146  28.456  36.960  1.00  0.00     0.054 A 
BRANCH  98  99
ATOM     99  S   UNL A   1      49.735  27.845  37.586  1.00  0.00     0.124 S 
ATOM    100  O   UNL A   1      49.701  28.282  38.980  1.00  0.00    -0.237 OA
ATOM    101  O   UNL A   1      49.628  26.403  37.377  1.00  0.00    -0.237 OA
ATOM    102  O   UNL A   1      50.722  28.520  36.747  1.00  0.00    -0.744 OA
ENDBRANCH  98  99
ENDBRANCH  72  93
ENDBRANCH  46  47
ENDBRANCH  38  41
ENDBRANCH  36  37
ENDBRANCH  35  36
ENDBRANCH  34  35
ENDBRANCH  33  34
ENDBRANCH  32  33
ENDBRANCH  31  32
ENDBRANCH   3  31
TORSDOF 25
ENDMDL
MODEL 3
REMARK VINA RESULT:      -9.3      6.084      8.154
REMARK SMILES CCCCCCNC(=O)Oc1cccc(-c2ccc([C@H](C)C(=O)NCCCCCCNC(=O)c3ccc(-c4c5nc(c(-c6ccc(S(=O)(=O)[O-])cc6)c6ccc([nH]6)c(-c6ccc(S(=O)(=O)[O-])cc6)c6nc(c(-c7ccc(S(=O)(=O)[O-])cc7)c7ccc4[nH]7)C=C6)C=C5)cc3)cc2F)c1
REMARK SMILES IDX 22 1 23 2 24 3 20 5 21 6 19 7 16 8 17 9 95 10 18 11 94 12
REMARK SMILES IDX 96 13 15 14 11 15 12 16 97 17 13 18 14 19 10 20 8 21 7 22
REMARK SMILES IDX 9 24 6 25 5 26 4 27 3 28 2 29 1 30 25 31 26 32 27 33 28 34
REMARK SMILES IDX 29 35 30 36 31 37 32 38 33 40 34 41 35 42 93 43 36 44 92 45
REMARK SMILES IDX 37 46 38 47 39 48 86 49 40 50 91 51 85 52 87 53 41 54 90 55
REMARK SMILES IDX 84 56 83 57 42 59 72 60 53 61 71 62 54 63 57 64 70 65 88 66
REMARK SMILES IDX 55 67 56 68 69 70 89 71 58 72 43 73 44 74 52 75 45 76 51 77
REMARK SMILES IDX 46 78 47 79 48 80 49 81 50 82 73 83 74 84 82 85 75 86 81 87
REMARK SMILES IDX 76 88 77 89 78 90 79 91 80 92 59 93 60 94 68 95 61 96 67 97
REMARK SMILES IDX 62 98 63 99 64 100 65 101 66 102
REMARK H PARENT 24 4 7 23 31 39 87 58 57 69
REMARK Flexibility Score: inf
ROOT
ATOM      1  C   UNL A   1      31.717  29.322  25.321  1.00  0.00     0.227 C 
ATOM      2  O   UNL A   1      31.681  28.729  24.236  1.00  0.00    -0.274 OA
ATOM      3  N   UNL A   1      31.314  30.624  25.333  1.00  0.00    -0.356 N 
ATOM      4  H   UNL A   1      31.139  31.018  24.448  1.00  0.00     0.163 HD
ENDROOT
BRANCH   1   5
ATOM      5  C   UNL A   1      32.212  28.598  26.584  1.00  0.00     0.105 C 
ATOM      6  C   UNL A   1      31.393  28.913  27.842  1.00  0.00     0.023 C 
BRANCH   5   7
ATOM      7  C   UNL A   1      32.530  27.125  26.349  1.00  0.00    -0.033 A 
ATOM      8  C   UNL A   1      33.195  24.399  25.865  1.00  0.00     0.018 A 
ATOM      9  C   UNL A   1      31.960  24.751  26.417  1.00  0.00     0.012 A 
ATOM     10  C   UNL A   1      34.090  25.429  25.560  1.00  0.00     0.131 A 
ATOM     11  C   UNL A   1      31.646  26.088  26.678  1.00  0.00     0.005 A 
ATOM     12  C   UNL A   1      33.762  26.770  25.778  1.00  0.00     0.044 A 
ATOM     13  F   UNL A   1      35.306  25.145  25.067  1.00  0.00    -0.206 F 
BRANCH   8  14
ATOM     14  C   UNL A   1      33.542  22.986  25.720  1.00  0.00    -0.012 A 
ATOM     15  C   UNL A   1      32.927  20.762  24.991  1.00  0.00     0.133 A 
ATOM     16  C   UNL A   1      34.214  20.294  25.240  1.00  0.00     0.047 A 
ATOM     17  C   UNL A   1      32.579  22.085  25.251  1.00  0.00     0.056 A 
ATOM     18  C   UNL A   1      35.177  21.178  25.725  1.00  0.00     0.004 A 
ATOM     19  C   UNL A   1      34.845  22.516  25.957  1.00  0.00     0.009 A 
BRANCH  15  20
ATOM     20  O   UNL A   1      31.967  19.834  24.566  1.00  0.00    -0.410 OA
BRANCH  20  21
ATOM     21  C   UNL A   1      32.207  19.153  23.382  1.00  0.00     0.412 C 
ATOM     22  N   UNL A   1      32.062  19.945  22.276  1.00  0.00    -0.321 N 
ATOM     23  H   UNL A   1      32.176  19.509  21.400  1.00  0.00     0.167 HD
ATOM     24  O   UNL A   1      32.527  17.977  23.269  1.00  0.00    -0.224 OA
BRANCH  22  25
ATOM     25  C   UNL A   1      31.757  21.359  22.266  1.00  0.00     0.119 C 
BRANCH  25  26
ATOM     26  C   UNL A   1      32.747  22.144  21.408  1.00  0.00     0.021 C 
BRANCH  26  27
ATOM     27  C   UNL A   1      33.494  23.258  22.153  1.00  0.00     0.002 C 
BRANCH  27  28
ATOM     28  C   UNL A   1      32.934  24.671  21.953  1.00  0.00    -0.000 C 
BRANCH  28  29
ATOM     29  C   UNL A   1      31.719  25.020  22.815  1.00  0.00    -0.003 C 
ATOM     30  C   UNL A   1      30.947  26.226  22.303  1.00  0.00     0.004 C 
ENDBRANCH  28  29
ENDBRANCH  27  28
ENDBRANCH  26  27
ENDBRANCH  25  26
ENDBRANCH  22  25
ENDBRANCH  20  21
ENDBRANCH  15  20
ENDBRANCH   8  14
ENDBRANCH   5   7
ENDBRANCH   1   5
BRANCH   3  31
ATOM     31  C   UNL A   1      31.104  31.509  26.456  1.00  0.00     0.116 C 
BRANCH  31  32
ATOM     32  C   UNL A   1      32.248  32.487  26.685  1.00  0.00     0.021 C 
BRANCH  32  33
ATOM     33  C   UNL A   1      33.178  32.151  27.849  1.00  0.00     0.002 C 
BRANCH  33  34
ATOM     34  C   UNL A   1      34.266  33.184  28.156  1.00  0.00     0.002 C 
BRANCH  34  35
ATOM     35  C   UNL A   1      35.712  32.704  28.008  1.00  0.00     0.021 C 
BRANCH  35  36
ATOM     36  C   UNL A   1      35.925  31.200  28.139  1.00  0.00     0.116 C 
BRANCH  36  37
ATOM     37  N   UNL A   1      35.742  30.724  29.499  1.00  0.00    -0.352 N 
ATOM     38  C   UNL A   1      36.600  30.002  30.292  1.00  0.00     0.251 C 
ATOM     39  H   UNL A   1      34.879  30.952  29.912  1.00  0.00     0.163 HD
ATOM     40  O   UNL A   1      36.208  29.559  31.368  1.00  0.00    -0.269 OA
BRANCH  38  41
ATOM     41  C   UNL A   1      37.983  29.738  29.840  1.00  0.00     0.039 A 
ATOM     42  C   UNL A   1      38.973  29.511  30.800  1.00  0.00     0.014 A 
ATOM     43  C   UNL A   1      38.307  29.719  28.480  1.00  0.00     0.014 A 
ATOM     44  C   UNL A   1      40.276  29.210  30.394  1.00  0.00     0.010 A 
ATOM     45  C   UNL A   1      39.586  29.342  28.078  1.00  0.00     0.010 A 
ATOM     46  C   UNL A   1      40.585  29.092  29.029  1.00  0.00    -0.014 A 
BRANCH  46  47
ATOM     47  C   UNL A   1      41.951  28.714  28.580  1.00  0.00     0.031 A 
ATOM     48  C   UNL A   1      43.039  29.750  28.510  1.00  0.00     0.074 A 
ATOM     49  C   UNL A   1      42.198  27.448  28.190  1.00  0.00     0.049 A 
ATOM     50  N   UNL A   1      44.280  29.618  28.115  1.00  0.00    -0.248 NA
ATOM     51  C   UNL A   1      42.680  31.119  28.914  1.00  0.00     0.031 C 
ATOM     52  C   UNL A   1      41.222  26.355  28.186  1.00  0.00     0.029 A 
ATOM     53  N   UNL A   1      43.349  26.864  27.723  1.00  0.00    -0.354 N 
ATOM     54  C   UNL A   1      44.845  30.884  28.215  1.00  0.00     0.074 A 
ATOM     55  C   UNL A   1      43.795  31.781  28.645  1.00  0.00     0.031 C 
ATOM     56  C   UNL A   1      41.827  25.227  27.782  1.00  0.00     0.029 A 
ATOM     57  C   UNL A   1      43.217  25.522  27.453  1.00  0.00     0.049 A 
ATOM     58  H   UNL A   1      44.191  27.359  27.594  1.00  0.00     0.167 HD
ATOM     59  C   UNL A   1      46.128  31.266  27.992  1.00  0.00     0.031 A 
ATOM     60  C   UNL A   1      44.114  24.629  26.993  1.00  0.00     0.031 A 
ATOM     61  C   UNL A   1      47.168  30.372  27.555  1.00  0.00     0.049 A 
ATOM     62  C   UNL A   1      45.520  25.082  26.707  1.00  0.00     0.074 A 
ATOM     63  C   UNL A   1      48.505  30.649  27.333  1.00  0.00     0.029 A 
ATOM     64  N   UNL A   1      46.987  29.027  27.267  1.00  0.00    -0.354 N 
ATOM     65  N   UNL A   1      46.049  26.274  26.858  1.00  0.00    -0.248 NA
ATOM     66  C   UNL A   1      46.451  24.067  26.197  1.00  0.00     0.031 C 
ATOM     67  C   UNL A   1      49.120  29.486  26.857  1.00  0.00     0.029 A 
ATOM     68  C   UNL A   1      48.180  28.466  26.845  1.00  0.00     0.049 A 
ATOM     69  H   UNL A   1      46.134  28.542  27.352  1.00  0.00     0.167 HD
ATOM     70  C   UNL A   1      47.386  26.143  26.495  1.00  0.00     0.074 A 
ATOM     71  C   UNL A   1      47.583  24.754  26.126  1.00  0.00     0.031 C 
ATOM     72  C   UNL A   1      48.362  27.084  26.474  1.00  0.00     0.031 A 
BRANCH  59  73
ATOM     73  C   UNL A   1      46.460  32.721  28.206  1.00  0.00    -0.014 A 
ATOM     74  C   UNL A   1      46.883  33.194  29.463  1.00  0.00     0.010 A 
ATOM     75  C   UNL A   1      46.346  33.631  27.139  1.00  0.00     0.010 A 
ATOM     76  C   UNL A   1      47.120  34.556  29.666  1.00  0.00     0.020 A 
ATOM     77  C   UNL A   1      46.615  34.991  27.330  1.00  0.00     0.020 A 
ATOM     78  C   UNL A   1      46.975  35.448  28.600  1.00  0.00     0.054 A 
BRANCH  78  79
ATOM     79  S   UNL A   1      47.267  37.213  28.897  1.00  0.00     0.124 S 
ATOM     80  O   UNL A   1      47.453  37.247  30.345  1.00  0.00    -0.237 OA
ATOM     81  O   UNL A   1      48.465  37.477  28.103  1.00  0.00    -0.237 OA
ATOM     82  O   UNL A   1      46.047  37.853  28.410  1.00  0.00    -0.744 OA
ENDBRANCH  78  79
ENDBRANCH  59  73
BRANCH  60  83
ATOM     83  C   UNL A   1      43.719  23.204  26.814  1.00  0.00    -0.014 A 
ATOM     84  C   UNL A   1      43.181  22.479  27.891  1.00  0.00     0.010 A 
ATOM     85  C   UNL A   1      43.856  22.572  25.565  1.00  0.00     0.010 A 
ATOM     86  C   UNL A   1      42.796  21.145  27.727  1.00  0.00     0.020 A 
ATOM     87  C   UNL A   1      43.446  21.247  25.390  1.00  0.00     0.020 A 
ATOM     88  C   UNL A   1      42.926  20.539  26.475  1.00  0.00     0.054 A 
BRANCH  88  89
ATOM     89  S   UNL A   1      42.363  18.826  26.273  1.00  0.00     0.124 S 
ATOM     90  O   UNL A   1      42.508  18.296  27.625  1.00  0.00    -0.237 OA
ATOM     91  O   UNL A   1      40.991  19.000  25.805  1.00  0.00    -0.237 OA
ATOM     92  O   UNL A   1      43.286  18.277  25.281  1.00  0.00    -0.744 OA
ENDBRANCH  88  89
ENDBRANCH  60  83
BRANCH  72  93
ATOM     93  C   UNL A   1      49.745  26.640  26.076  1.00  0.00    -0.014 A 
ATOM     94  C   UNL A   1      50.232  26.837  24.772  1.00  0.00     0.010 A 
ATOM     95  C   UNL A   1      50.588  26.056  27.041  1.00  0.00     0.010 A 
ATOM     96  C   UNL A   1      51.526  26.429  24.432  1.00  0.00     0.020 A 
ATOM     97  C   UNL A   1      51.891  25.676  26.713  1.00  0.00     0.020 A 
ATOM     98  C   UNL A   1      52.347  25.852  25.406  1.00  0.00     0.054 A 
BRANCH  98  99
ATOM     99  S   UNL A   1      54.035  25.371  24.949  1.00  0.00     0.124 S 
ATOM    100  O   UNL A   1      54.823  25.966  26.026  1.00  0.00    -0.237 OA
ATOM    101  O   UNL A   1      53.965  23.912  24.954  1.00  0.00    -0.237 OA
ATOM    102  O   UNL A   1      54.225  25.975  23.633  1.00  0.00    -0.744 OA
ENDBRANCH  98  99
ENDBRANCH  72  93
ENDBRANCH  46  47
ENDBRANCH  38  41
ENDBRANCH  36  37
ENDBRANCH  35  36
ENDBRANCH  34  35
ENDBRANCH  33  34
ENDBRANCH  32  33
ENDBRANCH  31  32
ENDBRANCH   3  31
TORSDOF 25
ENDMDL
