MODEL 1
REMARK VINA RESULT:     -10.2      0.000      0.000
REMARK SMILES C[C@@H]1CCC[C@H](NC(=O)N(C)CC(=O)NCCCCCCNC(=O)c2ccc(-c3c4nc(c(-c5ccc(S(=O)(=O)[O-])cc5)c5ccc([nH]5)c(-c5ccc(S(=O)(=O)[O-])cc5)c5nc(c(-c6ccc(S(=O)(=O)[O-])cc6)c6ccc3[nH]6)C=C5)C=C4)cc2)C1
REMARK SMILES IDX 18 1 17 2 16 3 15 4 13 5 14 6 12 8 10 9 11 10 8 11 7 12 9 14
REMARK SMILES IDX 6 15 1 16 2 17 3 18 85 19 4 20 5 21 19 22 20 23 21 24 22 25
REMARK SMILES IDX 23 26 24 28 25 29 26 30 84 31 27 32 83 33 28 34 29 35 30 36
REMARK SMILES IDX 77 37 31 38 82 39 76 40 78 41 32 42 81 43 75 44 74 45 33 47
REMARK SMILES IDX 63 48 44 49 62 50 45 51 48 52 61 53 79 54 46 55 47 56 60 58
REMARK SMILES IDX 80 59 49 60 34 61 35 62 43 63 36 64 42 65 37 66 38 67 39 68
REMARK SMILES IDX 40 69 41 70 64 71 65 72 73 73 66 74 72 75 67 76 68 77 69 78
REMARK SMILES IDX 70 79 71 80 50 81 51 82 59 83 52 84 58 85 53 86 54 87 55 88
REMARK SMILES IDX 56 89 57 90
REMARK H PARENT 15 7 7 13 22 27 78 46 48 57
REMARK Flexibility Score: inf
ROOT
ATOM      1  C   UNL A   1      33.002  26.411  24.590  1.00  0.00     0.002 C 
ENDROOT
BRANCH   1   2
ATOM      2  C   UNL A   1      31.743  25.930  23.854  1.00  0.00     0.021 C 
BRANCH   2   3
ATOM      3  C   UNL A   1      32.007  24.812  22.850  1.00  0.00     0.116 C 
BRANCH   3   4
ATOM      4  N   UNL A   1      33.415  24.500  22.764  1.00  0.00    -0.355 N 
ATOM      5  C   UNL A   1      34.061  23.328  23.031  1.00  0.00     0.239 C 
ATOM      6  O   UNL A   1      35.246  23.249  22.691  1.00  0.00    -0.273 OA
ATOM      7  H   UNL A   1      33.994  25.241  22.469  1.00  0.00     0.163 HD
BRANCH   5   8
ATOM      8  C   UNL A   1      33.284  22.083  23.495  1.00  0.00     0.220 C 
BRANCH   8   9
ATOM      9  N   UNL A   1      33.293  21.743  24.926  1.00  0.00    -0.319 N 
ATOM     10  C   UNL A   1      32.115  22.134  25.684  1.00  0.00     0.149 C 
BRANCH   9  11
ATOM     11  C   UNL A   1      34.202  20.796  25.303  1.00  0.00     0.317 C 
ATOM     12  N   UNL A   1      33.931  19.479  25.303  1.00  0.00    -0.335 N 
ATOM     13  H   UNL A   1      34.744  18.942  25.445  1.00  0.00     0.165 HD
ATOM     14  O   UNL A   1      35.336  21.102  25.683  1.00  0.00    -0.249 OA
BRANCH  12  15
ATOM     15  C   UNL A   1      32.748  18.636  25.148  1.00  0.00     0.084 C 
ATOM     16  C   UNL A   1      35.324  16.542  25.281  1.00  0.00     0.008 C 
ATOM     17  C   UNL A   1      33.831  16.268  25.084  1.00  0.00    -0.012 C 
ATOM     18  C   UNL A   1      33.457  16.179  23.599  1.00  0.00     0.003 C 
ATOM     19  C   UNL A   1      32.931  17.269  25.827  1.00  0.00     0.028 C 
ATOM     20  C   UNL A   1      33.362  17.545  22.922  1.00  0.00     0.002 C 
ATOM     21  C   UNL A   1      32.404  18.480  23.661  1.00  0.00     0.025 C 
ENDBRANCH  12  15
ENDBRANCH   9  11
ENDBRANCH   8   9
ENDBRANCH   5   8
ENDBRANCH   3   4
ENDBRANCH   2   3
ENDBRANCH   1   2
BRANCH   1  22
ATOM     22  C   UNL A   1      32.877  26.480  26.116  1.00  0.00     0.002 C 
BRANCH  22  23
ATOM     23  C   UNL A   1      32.750  27.893  26.691  1.00  0.00     0.021 C 
BRANCH  23  24
ATOM     24  C   UNL A   1      33.979  28.771  26.480  1.00  0.00     0.116 C 
BRANCH  24  25
ATOM     25  N   UNL A   1      33.818  30.085  27.082  1.00  0.00    -0.352 N 
ATOM     26  C   UNL A   1      34.626  30.734  27.983  1.00  0.00     0.251 C 
ATOM     27  H   UNL A   1      33.014  30.581  26.803  1.00  0.00     0.163 HD
ATOM     28  O   UNL A   1      34.227  31.745  28.550  1.00  0.00    -0.269 OA
BRANCH  26  29
ATOM     29  C   UNL A   1      35.972  30.198  28.277  1.00  0.00     0.039 A 
ATOM     30  C   UNL A   1      36.966  30.286  27.299  1.00  0.00     0.014 A 
ATOM     31  C   UNL A   1      36.251  29.609  29.513  1.00  0.00     0.014 A 
ATOM     32  C   UNL A   1      38.257  29.838  27.586  1.00  0.00     0.010 A 
ATOM     33  C   UNL A   1      37.554  29.235  29.824  1.00  0.00     0.010 A 
ATOM     34  C   UNL A   1      38.571  29.341  28.862  1.00  0.00    -0.014 A 
BRANCH  34  35
ATOM     35  C   UNL A   1      39.957  28.935  29.213  1.00  0.00     0.031 A 
ATOM     36  C   UNL A   1      40.883  29.909  29.889  1.00  0.00     0.074 A 
ATOM     37  C   UNL A   1      40.399  27.709  28.867  1.00  0.00     0.049 A 
ATOM     38  N   UNL A   1      42.140  29.756  30.221  1.00  0.00    -0.248 NA
ATOM     39  C   UNL A   1      40.335  31.238  30.212  1.00  0.00     0.031 C 
ATOM     40  C   UNL A   1      39.609  26.687  28.176  1.00  0.00     0.029 A 
ATOM     41  N   UNL A   1      41.624  27.116  29.047  1.00  0.00    -0.354 N 
ATOM     42  C   UNL A   1      42.535  30.968  30.778  1.00  0.00     0.074 A 
ATOM     43  C   UNL A   1      41.402  31.863  30.688  1.00  0.00     0.031 C 
ATOM     44  C   UNL A   1      40.358  25.585  28.018  1.00  0.00     0.029 A 
ATOM     45  C   UNL A   1      41.694  25.835  28.551  1.00  0.00     0.049 A 
ATOM     46  H   UNL A   1      42.380  27.565  29.488  1.00  0.00     0.167 HD
ATOM     47  C   UNL A   1      43.726  31.299  31.332  1.00  0.00     0.031 A 
ATOM     48  C   UNL A   1      42.719  24.960  28.519  1.00  0.00     0.031 A 
ATOM     49  C   UNL A   1      44.848  30.403  31.423  1.00  0.00     0.049 A 
ATOM     50  C   UNL A   1      44.040  25.360  29.119  1.00  0.00     0.074 A 
ATOM     51  C   UNL A   1      46.081  30.627  32.011  1.00  0.00     0.029 A 
ATOM     52  N   UNL A   1      44.879  29.115  30.909  1.00  0.00    -0.354 N 
ATOM     53  N   UNL A   1      44.373  26.489  29.698  1.00  0.00    -0.248 NA
ATOM     54  C   UNL A   1      45.119  24.365  29.071  1.00  0.00     0.031 C 
ATOM     55  C   UNL A   1      46.878  29.498  31.798  1.00  0.00     0.029 A 
ATOM     56  C   UNL A   1      46.118  28.542  31.141  1.00  0.00     0.049 A 
ATOM     57  H   UNL A   1      44.129  28.673  30.448  1.00  0.00     0.167 HD
ATOM     58  C   UNL A   1      45.692  26.327  30.112  1.00  0.00     0.074 A 
ATOM     59  C   UNL A   1      46.088  24.988  29.729  1.00  0.00     0.031 C 
ATOM     60  C   UNL A   1      46.499  27.207  30.753  1.00  0.00     0.031 A 
BRANCH  47  61
ATOM     61  C   UNL A   1      43.879  32.697  31.875  1.00  0.00    -0.014 A 
ATOM     62  C   UNL A   1      43.514  33.009  33.198  1.00  0.00     0.010 A 
ATOM     63  C   UNL A   1      44.437  33.704  31.066  1.00  0.00     0.010 A 
ATOM     64  C   UNL A   1      43.662  34.310  33.686  1.00  0.00     0.020 A 
ATOM     65  C   UNL A   1      44.619  34.998  31.562  1.00  0.00     0.020 A 
ATOM     66  C   UNL A   1      44.214  35.297  32.864  1.00  0.00     0.054 A 
BRANCH  66  67
ATOM     67  S   UNL A   1      44.417  36.970  33.533  1.00  0.00     0.124 S 
ATOM     68  O   UNL A   1      43.111  37.212  34.142  1.00  0.00    -0.237 OA
ATOM     69  O   UNL A   1      45.525  36.807  34.470  1.00  0.00    -0.237 OA
ATOM     70  O   UNL A   1      44.714  37.782  32.357  1.00  0.00    -0.744 OA
ENDBRANCH  66  67
ENDBRANCH  47  61
BRANCH  48  71
ATOM     71  C   UNL A   1      42.533  23.616  27.905  1.00  0.00    -0.014 A 
ATOM     72  C   UNL A   1      42.627  23.445  26.513  1.00  0.00     0.010 A 
ATOM     73  C   UNL A   1      42.270  22.495  28.714  1.00  0.00     0.010 A 
ATOM     74  C   UNL A   1      42.441  22.184  25.939  1.00  0.00     0.020 A 
ATOM     75  C   UNL A   1      42.116  21.228  28.147  1.00  0.00     0.020 A 
ATOM     76  C   UNL A   1      42.190  21.082  26.761  1.00  0.00     0.054 A 
BRANCH  76  77
ATOM     77  S   UNL A   1      41.999  19.447  25.998  1.00  0.00     0.124 S 
ATOM     78  O   UNL A   1      42.895  19.541  24.850  1.00  0.00    -0.237 OA
ATOM     79  O   UNL A   1      42.430  18.550  27.068  1.00  0.00    -0.237 OA
ATOM     80  O   UNL A   1      40.575  19.384  25.678  1.00  0.00    -0.744 OA
ENDBRANCH  76  77
ENDBRANCH  48  71
BRANCH  60  81
ATOM     81  C   UNL A   1      47.885  26.740  31.120  1.00  0.00    -0.014 A 
ATOM     82  C   UNL A   1      48.985  26.975  30.278  1.00  0.00     0.010 A 
ATOM     83  C   UNL A   1      48.094  26.105  32.358  1.00  0.00     0.010 A 
ATOM     84  C   UNL A   1      50.264  26.554  30.652  1.00  0.00     0.020 A 
ATOM     85  C   UNL A   1      49.374  25.711  32.751  1.00  0.00     0.020 A 
ATOM     86  C   UNL A   1      50.450  25.926  31.888  1.00  0.00     0.054 A 
BRANCH  86  87
ATOM     87  S   UNL A   1      52.127  25.432  32.370  1.00  0.00     0.124 S 
ATOM     88  O   UNL A   1      52.946  26.131  31.384  1.00  0.00    -0.237 OA
ATOM     89  O   UNL A   1      52.227  25.932  33.738  1.00  0.00    -0.237 OA
ATOM     90  O   UNL A   1      52.110  23.976  32.245  1.00  0.00    -0.744 OA
ENDBRANCH  86  87
ENDBRANCH  60  81
ENDBRANCH  34  35
ENDBRANCH  26  29
ENDBRANCH  24  25
ENDBRANCH  23  24
ENDBRANCH  22  23
ENDBRANCH   1  22
TORSDOF 19
ENDMDL
MODEL 2
REMARK VINA RESULT:      -9.9      4.668      9.868
REMARK SMILES C[C@@H]1CCC[C@H](NC(=O)N(C)CC(=O)NCCCCCCNC(=O)c2ccc(-c3c4nc(c(-c5ccc(S(=O)(=O)[O-])cc5)c5ccc([nH]5)c(-c5ccc(S(=O)(=O)[O-])cc5)c5nc(c(-c6ccc(S(=O)(=O)[O-])cc6)c6ccc3[nH]6)C=C5)C=C4)cc2)C1
REMARK SMILES IDX 18 1 17 2 16 3 15 4 13 5 14 6 12 8 10 9 11 10 8 11 7 12 9 14
REMARK SMILES IDX 6 15 1 16 2 17 3 18 85 19 4 20 5 21 19 22 20 23 21 24 22 25
REMARK SMILES IDX 23 26 24 28 25 29 26 30 84 31 27 32 83 33 28 34 29 35 30 36
REMARK SMILES IDX 77 37 31 38 82 39 76 40 78 41 32 42 81 43 75 44 74 45 33 47
REMARK SMILES IDX 63 48 44 49 62 50 45 51 48 52 61 53 79 54 46 55 47 56 60 58
REMARK SMILES IDX 80 59 49 60 34 61 35 62 43 63 36 64 42 65 37 66 38 67 39 68
REMARK SMILES IDX 40 69 41 70 64 71 65 72 73 73 66 74 72 75 67 76 68 77 69 78
REMARK SMILES IDX 70 79 71 80 50 81 51 82 59 83 52 84 58 85 53 86 54 87 55 88
REMARK SMILES IDX 56 89 57 90
REMARK H PARENT 15 7 7 13 22 27 78 46 48 57
REMARK Flexibility Score: inf
ROOT
ATOM      1  C   UNL A   1      35.913  21.453  25.718  1.00  0.00     0.002 C 
ENDROOT
BRANCH   1   2
ATOM      2  C   UNL A   1      34.855  22.255  26.489  1.00  0.00     0.021 C 
BRANCH   2   3
ATOM      3  C   UNL A   1      33.475  21.603  26.498  1.00  0.00     0.116 C 
BRANCH   3   4
ATOM      4  N   UNL A   1      32.484  22.471  27.093  1.00  0.00    -0.355 N 
ATOM      5  C   UNL A   1      31.387  23.050  26.525  1.00  0.00     0.239 C 
ATOM      6  O   UNL A   1      30.579  23.590  27.288  1.00  0.00    -0.273 OA
ATOM      7  H   UNL A   1      32.620  22.673  28.047  1.00  0.00     0.163 HD
BRANCH   5   8
ATOM      8  C   UNL A   1      31.046  22.819  25.043  1.00  0.00     0.220 C 
BRANCH   8   9
ATOM      9  N   UNL A   1      31.722  23.643  24.030  1.00  0.00    -0.319 N 
ATOM     10  C   UNL A   1      32.539  22.926  23.063  1.00  0.00     0.149 C 
BRANCH   9  11
ATOM     11  C   UNL A   1      31.231  24.907  23.872  1.00  0.00     0.317 C 
ATOM     12  N   UNL A   1      32.018  25.979  23.676  1.00  0.00    -0.335 N 
ATOM     13  H   UNL A   1      31.494  26.773  23.422  1.00  0.00     0.165 HD
ATOM     14  O   UNL A   1      30.020  25.142  23.912  1.00  0.00    -0.249 OA
BRANCH  12  15
ATOM     15  C   UNL A   1      33.447  26.277  23.742  1.00  0.00     0.084 C 
ATOM     16  C   UNL A   1      32.233  27.069  26.732  1.00  0.00     0.008 C 
ATOM     17  C   UNL A   1      33.652  27.194  26.171  1.00  0.00    -0.012 C 
ATOM     18  C   UNL A   1      33.912  28.588  25.582  1.00  0.00     0.003 C 
ATOM     19  C   UNL A   1      34.002  26.088  25.163  1.00  0.00     0.028 C 
ATOM     20  C   UNL A   1      33.281  28.783  24.205  1.00  0.00     0.002 C 
ATOM     21  C   UNL A   1      33.714  27.695  23.222  1.00  0.00     0.025 C 
ENDBRANCH  12  15
ENDBRANCH   9  11
ENDBRANCH   8   9
ENDBRANCH   5   8
ENDBRANCH   3   4
ENDBRANCH   2   3
ENDBRANCH   1   2
BRANCH   1  22
ATOM     22  C   UNL A   1      37.067  22.282  25.143  1.00  0.00     0.002 C 
BRANCH  22  23
ATOM     23  C   UNL A   1      37.064  23.760  25.542  1.00  0.00     0.021 C 
BRANCH  23  24
ATOM     24  C   UNL A   1      38.066  24.118  26.635  1.00  0.00     0.116 C 
BRANCH  24  25
ATOM     25  N   UNL A   1      39.436  24.091  26.145  1.00  0.00    -0.352 N 
ATOM     26  C   UNL A   1      40.475  24.945  26.421  1.00  0.00     0.251 C 
ATOM     27  H   UNL A   1      39.648  23.353  25.528  1.00  0.00     0.163 HD
ATOM     28  O   UNL A   1      41.501  24.899  25.753  1.00  0.00    -0.269 OA
BRANCH  26  29
ATOM     29  C   UNL A   1      40.342  25.928  27.516  1.00  0.00     0.039 A 
ATOM     30  C   UNL A   1      39.465  25.658  28.569  1.00  0.00     0.014 A 
ATOM     31  C   UNL A   1      41.081  27.115  27.503  1.00  0.00     0.014 A 
ATOM     32  C   UNL A   1      39.376  26.550  29.639  1.00  0.00     0.010 A 
ATOM     33  C   UNL A   1      41.049  27.963  28.605  1.00  0.00     0.010 A 
ATOM     34  C   UNL A   1      40.192  27.693  29.683  1.00  0.00    -0.014 A 
BRANCH  34  35
ATOM     35  C   UNL A   1      40.171  28.612  30.851  1.00  0.00     0.031 A 
ATOM     36  C   UNL A   1      39.197  29.759  30.893  1.00  0.00     0.074 A 
ATOM     37  C   UNL A   1      41.070  28.451  31.843  1.00  0.00     0.049 A 
ATOM     38  N   UNL A   1      39.067  30.696  31.797  1.00  0.00    -0.248 NA
ATOM     39  C   UNL A   1      38.264  29.885  29.761  1.00  0.00     0.031 C 
ATOM     40  C   UNL A   1      42.089  27.400  31.900  1.00  0.00     0.029 A 
ATOM     41  N   UNL A   1      41.273  29.172  32.992  1.00  0.00    -0.354 N 
ATOM     42  C   UNL A   1      38.050  31.527  31.338  1.00  0.00     0.074 A 
ATOM     43  C   UNL A   1      37.637  31.016  30.050  1.00  0.00     0.031 C 
ATOM     44  C   UNL A   1      42.788  27.527  33.038  1.00  0.00     0.029 A 
ATOM     45  C   UNL A   1      42.302  28.693  33.769  1.00  0.00     0.049 A 
ATOM     46  H   UNL A   1      40.735  29.958  33.238  1.00  0.00     0.167 HD
ATOM     47  C   UNL A   1      37.498  32.605  31.944  1.00  0.00     0.031 A 
ATOM     48  C   UNL A   1      42.806  29.144  34.935  1.00  0.00     0.031 A 
ATOM     49  C   UNL A   1      37.910  33.107  33.227  1.00  0.00     0.049 A 
ATOM     50  C   UNL A   1      42.192  30.360  35.575  1.00  0.00     0.074 A 
ATOM     51  C   UNL A   1      37.380  34.163  33.949  1.00  0.00     0.029 A 
ATOM     52  N   UNL A   1      38.956  32.594  33.982  1.00  0.00    -0.354 N 
ATOM     53  N   UNL A   1      41.189  31.094  35.156  1.00  0.00    -0.248 NA
ATOM     54  C   UNL A   1      42.770  30.801  36.852  1.00  0.00     0.031 C 
ATOM     55  C   UNL A   1      38.143  34.327  35.108  1.00  0.00     0.029 A 
ATOM     56  C   UNL A   1      39.104  33.329  35.146  1.00  0.00     0.049 A 
ATOM     57  H   UNL A   1      39.510  31.821  33.727  1.00  0.00     0.167 HD
ATOM     58  C   UNL A   1      40.995  32.064  36.133  1.00  0.00     0.074 A 
ATOM     59  C   UNL A   1      41.975  31.814  37.170  1.00  0.00     0.031 C 
ATOM     60  C   UNL A   1      40.085  33.069  36.169  1.00  0.00     0.031 A 
BRANCH  47  61
ATOM     61  C   UNL A   1      36.390  33.323  31.216  1.00  0.00    -0.014 A 
ATOM     62  C   UNL A   1      35.143  33.550  31.827  1.00  0.00     0.010 A 
ATOM     63  C   UNL A   1      36.613  33.818  29.917  1.00  0.00     0.010 A 
ATOM     64  C   UNL A   1      34.127  34.218  31.138  1.00  0.00     0.020 A 
ATOM     65  C   UNL A   1      35.611  34.516  29.238  1.00  0.00     0.020 A 
ATOM     66  C   UNL A   1      34.368  34.696  29.847  1.00  0.00     0.054 A 
BRANCH  66  67
ATOM     67  S   UNL A   1      33.038  35.580  28.987  1.00  0.00     0.124 S 
ATOM     68  O   UNL A   1      33.784  36.580  28.225  1.00  0.00    -0.237 OA
ATOM     69  O   UNL A   1      32.414  34.525  28.194  1.00  0.00    -0.237 OA
ATOM     70  O   UNL A   1      32.215  36.111  30.070  1.00  0.00    -0.744 OA
ENDBRANCH  66  67
ENDBRANCH  47  61
BRANCH  48  71
ATOM     71  C   UNL A   1      43.949  28.437  35.576  1.00  0.00    -0.014 A 
ATOM     72  C   UNL A   1      45.266  28.897  35.400  1.00  0.00     0.010 A 
ATOM     73  C   UNL A   1      43.725  27.303  36.378  1.00  0.00     0.010 A 
ATOM     74  C   UNL A   1      46.339  28.225  35.993  1.00  0.00     0.020 A 
ATOM     75  C   UNL A   1      44.790  26.647  36.999  1.00  0.00     0.020 A 
ATOM     76  C   UNL A   1      46.092  27.105  36.793  1.00  0.00     0.054 A 
BRANCH  76  77
ATOM     77  S   UNL A   1      47.495  26.276  37.593  1.00  0.00     0.124 S 
ATOM     78  O   UNL A   1      46.955  24.946  37.850  1.00  0.00    -0.237 OA
ATOM     79  O   UNL A   1      48.532  26.353  36.566  1.00  0.00    -0.237 OA
ATOM     80  O   UNL A   1      47.741  27.093  38.780  1.00  0.00    -0.744 OA
ENDBRANCH  76  77
ENDBRANCH  48  71
BRANCH  60  81
ATOM     81  C   UNL A   1      40.078  33.956  37.388  1.00  0.00    -0.014 A 
ATOM     82  C   UNL A   1      40.905  35.089  37.477  1.00  0.00     0.010 A 
ATOM     83  C   UNL A   1      39.182  33.679  38.438  1.00  0.00     0.010 A 
ATOM     84  C   UNL A   1      40.861  35.909  38.607  1.00  0.00     0.020 A 
ATOM     85  C   UNL A   1      39.111  34.514  39.555  1.00  0.00     0.020 A 
ATOM     86  C   UNL A   1      39.962  35.617  39.638  1.00  0.00     0.054 A 
BRANCH  86  87
ATOM     87  S   UNL A   1      39.892  36.724  41.073  1.00  0.00     0.124 S 
ATOM     88  O   UNL A   1      39.417  35.831  42.125  1.00  0.00    -0.237 OA
ATOM     89  O   UNL A   1      41.278  37.167  41.202  1.00  0.00    -0.237 OA
ATOM     90  O   UNL A   1      38.948  37.763  40.665  1.00  0.00    -0.744 OA
ENDBRANCH  86  87
ENDBRANCH  60  81
ENDBRANCH  34  35
ENDBRANCH  26  29
ENDBRANCH  24  25
ENDBRANCH  23  24
ENDBRANCH  22  23
ENDBRANCH   1  22
TORSDOF 19
ENDMDL
MODEL 3
REMARK VINA RESULT:      -9.8      3.103      9.600
REMARK SMILES C[C@@H]1CCC[C@H](NC(=O)N(C)CC(=O)NCCCCCCNC(=O)c2ccc(-c3c4nc(c(-c5ccc(S(=O)(=O)[O-])cc5)c5ccc([nH]5)c(-c5ccc(S(=O)(=O)[O-])cc5)c5nc(c(-c6ccc(S(=O)(=O)[O-])cc6)c6ccc3[nH]6)C=C5)C=C4)cc2)C1
REMARK SMILES IDX 18 1 17 2 16 3 15 4 13 5 14 6 12 8 10 9 11 10 8 11 7 12 9 14
REMARK SMILES IDX 6 15 1 16 2 17 3 18 85 19 4 20 5 21 19 22 20 23 21 24 22 25
REMARK SMILES IDX 23 26 24 28 25 29 26 30 84 31 27 32 83 33 28 34 29 35 30 36
REMARK SMILES IDX 77 37 31 38 82 39 76 40 78 41 32 42 81 43 75 44 74 45 33 47
REMARK SMILES IDX 63 48 44 49 62 50 45 51 48 52 61 53 79 54 46 55 47 56 60 58
REMARK SMILES IDX 80 59 49 60 34 61 35 62 43 63 36 64 42 65 37 66 38 67 39 68
REMARK SMILES IDX 40 69 41 70 64 71 65 72 73 73 66 74 72 75 67 76 68 77 69 78
REMARK SMILES IDX 70 79 71 80 50 81 51 82 59 83 52 84 58 85 53 86 54 87 55 88
REMARK SMILES IDX 56 89 57 90
REMARK H PARENT 15 7 7 13 22 27 78 46 48 57
REMARK Flexibility Score: inf
ROOT
ATOM      1  C   UNL A   1      34.914  20.998  24.490  1.00  0.00     0.002 C 
ENDROOT
BRANCH   1   2
ATOM      2  C   UNL A   1      33.708  20.705  25.393  1.00  0.00     0.021 C 
BRANCH   2   3
ATOM      3  C   UNL A   1      32.422  21.392  24.944  1.00  0.00     0.116 C 
BRANCH   3   4
ATOM      4  N   UNL A   1      31.632  21.826  26.073  1.00  0.00    -0.355 N 
ATOM      5  C   UNL A   1      31.675  23.005  26.758  1.00  0.00     0.239 C 
ATOM      6  O   UNL A   1      30.762  23.222  27.562  1.00  0.00    -0.273 OA
ATOM      7  H   UNL A   1      30.964  21.177  26.395  1.00  0.00     0.163 HD
BRANCH   5   8
ATOM      8  C   UNL A   1      32.664  24.115  26.364  1.00  0.00     0.220 C 
BRANCH   8   9
ATOM      9  N   UNL A   1      32.389  24.904  25.154  1.00  0.00    -0.319 N 
ATOM     10  C   UNL A   1      31.013  24.893  24.682  1.00  0.00     0.149 C 
BRANCH   9  11
ATOM     11  C   UNL A   1      33.333  25.835  24.827  1.00  0.00     0.317 C 
ATOM     12  N   UNL A   1      33.631  26.884  25.614  1.00  0.00    -0.335 N 
ATOM     13  H   UNL A   1      34.438  27.353  25.303  1.00  0.00     0.165 HD
ATOM     14  O   UNL A   1      33.967  25.772  23.770  1.00  0.00    -0.249 OA
BRANCH  12  15
ATOM     15  C   UNL A   1      33.071  27.511  26.809  1.00  0.00     0.084 C 
ATOM     16  C   UNL A   1      31.554  28.974  24.241  1.00  0.00     0.008 C 
ATOM     17  C   UNL A   1      31.426  29.227  25.746  1.00  0.00    -0.012 C 
ATOM     18  C   UNL A   1      32.357  30.353  26.217  1.00  0.00     0.003 C 
ATOM     19  C   UNL A   1      31.616  27.956  26.589  1.00  0.00     0.028 C 
ATOM     20  C   UNL A   1      33.813  29.911  26.349  1.00  0.00     0.002 C 
ATOM     21  C   UNL A   1      33.954  28.684  27.252  1.00  0.00     0.025 C 
ENDBRANCH  12  15
ENDBRANCH   9  11
ENDBRANCH   8   9
ENDBRANCH   5   8
ENDBRANCH   3   4
ENDBRANCH   2   3
ENDBRANCH   1   2
BRANCH   1  22
ATOM     22  C   UNL A   1      35.037  22.451  24.019  1.00  0.00     0.002 C 
BRANCH  22  23
ATOM     23  C   UNL A   1      36.448  23.041  24.104  1.00  0.00     0.021 C 
BRANCH  23  24
ATOM     24  C   UNL A   1      36.972  23.216  25.525  1.00  0.00     0.116 C 
BRANCH  24  25
ATOM     25  N   UNL A   1      37.929  22.179  25.882  1.00  0.00    -0.352 N 
ATOM     26  C   UNL A   1      39.210  22.306  26.359  1.00  0.00     0.251 C 
ATOM     27  H   UNL A   1      37.611  21.255  25.765  1.00  0.00     0.163 HD
ATOM     28  O   UNL A   1      39.949  21.329  26.401  1.00  0.00    -0.269 OA
BRANCH  26  29
ATOM     29  C   UNL A   1      39.696  23.628  26.806  1.00  0.00     0.039 A 
ATOM     30  C   UNL A   1      40.071  23.798  28.142  1.00  0.00     0.014 A 
ATOM     31  C   UNL A   1      39.781  24.698  25.910  1.00  0.00     0.014 A 
ATOM     32  C   UNL A   1      40.589  25.025  28.562  1.00  0.00     0.010 A 
ATOM     33  C   UNL A   1      40.369  25.893  26.312  1.00  0.00     0.010 A 
ATOM     34  C   UNL A   1      40.775  26.071  27.643  1.00  0.00    -0.014 A 
BRANCH  34  35
ATOM     35  C   UNL A   1      41.399  27.356  28.053  1.00  0.00     0.031 A 
ATOM     36  C   UNL A   1      42.891  27.536  27.964  1.00  0.00     0.074 A 
ATOM     37  C   UNL A   1      40.628  28.338  28.563  1.00  0.00     0.049 A 
ATOM     38  N   UNL A   1      43.620  28.560  28.325  1.00  0.00    -0.248 NA
ATOM     39  C   UNL A   1      43.668  26.409  27.420  1.00  0.00     0.031 C 
ATOM     40  C   UNL A   1      39.175  28.272  28.736  1.00  0.00     0.029 A 
ATOM     41  N   UNL A   1      40.961  29.584  29.034  1.00  0.00    -0.354 N 
ATOM     42  C   UNL A   1      44.937  28.198  28.067  1.00  0.00     0.074 A 
ATOM     43  C   UNL A   1      44.912  26.840  27.570  1.00  0.00     0.031 C 
ATOM     44  C   UNL A   1      38.739  29.434  29.244  1.00  0.00     0.029 A 
ATOM     45  C   UNL A   1      39.882  30.311  29.480  1.00  0.00     0.049 A 
ATOM     46  H   UNL A   1      41.884  29.924  29.052  1.00  0.00     0.167 HD
ATOM     47  C   UNL A   1      46.064  28.936  28.210  1.00  0.00     0.031 A 
ATOM     48  C   UNL A   1      39.818  31.541  30.026  1.00  0.00     0.031 A 
ATOM     49  C   UNL A   1      46.084  30.288  28.701  1.00  0.00     0.049 A 
ATOM     50  C   UNL A   1      41.087  32.332  30.198  1.00  0.00     0.074 A 
ATOM     51  C   UNL A   1      47.168  31.138  28.836  1.00  0.00     0.029 A 
ATOM     52  N   UNL A   1      44.970  30.989  29.142  1.00  0.00    -0.354 N 
ATOM     53  N   UNL A   1      42.316  31.995  29.888  1.00  0.00    -0.248 NA
ATOM     54  C   UNL A   1      40.958  33.673  30.785  1.00  0.00     0.031 C 
ATOM     55  C   UNL A   1      46.720  32.329  29.417  1.00  0.00     0.029 A 
ATOM     56  C   UNL A   1      45.345  32.249  29.576  1.00  0.00     0.049 A 
ATOM     57  H   UNL A   1      44.049  30.641  29.145  1.00  0.00     0.167 HD
ATOM     58  C   UNL A   1      43.103  33.095  30.211  1.00  0.00     0.074 A 
ATOM     59  C   UNL A   1      42.209  34.111  30.728  1.00  0.00     0.031 C 
ATOM     60  C   UNL A   1      44.444  33.250  30.089  1.00  0.00     0.031 A 
BRANCH  47  61
ATOM     61  C   UNL A   1      47.374  28.289  27.840  1.00  0.00    -0.014 A 
ATOM     62  C   UNL A   1      47.890  28.381  26.534  1.00  0.00     0.010 A 
ATOM     63  C   UNL A   1      48.124  27.616  28.823  1.00  0.00     0.010 A 
ATOM     64  C   UNL A   1      49.107  27.775  26.208  1.00  0.00     0.020 A 
ATOM     65  C   UNL A   1      49.358  27.038  28.509  1.00  0.00     0.020 A 
ATOM     66  C   UNL A   1      49.832  27.107  27.198  1.00  0.00     0.054 A 
BRANCH  66  67
ATOM     67  S   UNL A   1      51.420  26.352  26.751  1.00  0.00     0.124 S 
ATOM     68  O   UNL A   1      52.343  27.035  27.654  1.00  0.00    -0.237 OA
ATOM     69  O   UNL A   1      51.193  24.938  27.037  1.00  0.00    -0.237 OA
ATOM     70  O   UNL A   1      51.575  26.681  25.337  1.00  0.00    -0.744 OA
ENDBRANCH  66  67
ENDBRANCH  47  61
BRANCH  48  71
ATOM     71  C   UNL A   1      38.503  32.105  30.440  1.00  0.00    -0.014 A 
ATOM     72  C   UNL A   1      37.975  31.831  31.714  1.00  0.00     0.010 A 
ATOM     73  C   UNL A   1      37.774  32.930  29.563  1.00  0.00     0.010 A 
ATOM     74  C   UNL A   1      36.735  32.352  32.096  1.00  0.00     0.020 A 
ATOM     75  C   UNL A   1      36.550  33.479  29.952  1.00  0.00     0.020 A 
ATOM     76  C   UNL A   1      36.032  33.176  31.212  1.00  0.00     0.054 A 
BRANCH  76  77
ATOM     77  S   UNL A   1      34.448  33.881  31.747  1.00  0.00     0.124 S 
ATOM     78  O   UNL A   1      33.769  34.104  30.475  1.00  0.00    -0.237 OA
ATOM     79  O   UNL A   1      33.897  32.816  32.582  1.00  0.00    -0.237 OA
ATOM     80  O   UNL A   1      34.838  35.090  32.469  1.00  0.00    -0.744 OA
ENDBRANCH  76  77
ENDBRANCH  48  71
BRANCH  60  81
ATOM     81  C   UNL A   1      45.029  34.582  30.484  1.00  0.00    -0.014 A 
ATOM     82  C   UNL A   1      45.492  34.822  31.789  1.00  0.00     0.010 A 
ATOM     83  C   UNL A   1      45.169  35.591  29.513  1.00  0.00     0.010 A 
ATOM     84  C   UNL A   1      46.053  36.058  32.124  1.00  0.00     0.020 A 
ATOM     85  C   UNL A   1      45.758  36.815  29.834  1.00  0.00     0.020 A 
ATOM     86  C   UNL A   1      46.184  37.045  31.143  1.00  0.00     0.054 A 
BRANCH  86  87
ATOM     87  S   UNL A   1      46.959  38.622  31.592  1.00  0.00     0.124 S 
ATOM     88  O   UNL A   1      47.785  38.241  32.734  1.00  0.00    -0.237 OA
ATOM     89  O   UNL A   1      47.689  38.978  30.378  1.00  0.00    -0.237 OA
ATOM     90  O   UNL A   1      45.825  39.489  31.907  1.00  0.00    -0.744 OA
ENDBRANCH  86  87
ENDBRANCH  60  81
ENDBRANCH  34  35
ENDBRANCH  26  29
ENDBRANCH  24  25
ENDBRANCH  23  24
ENDBRANCH  22  23
ENDBRANCH   1  22
TORSDOF 19
ENDMDL
