MODEL 1
REMARK VINA RESULT:      -7.2      0.000      0.000
REMARK SMILES C=CC[N@@H+](CC(=O)NCCCCCCNC(=O)c1ccc(-c2c3nc(c(-c4ccc(S(=O)(=O)[O-])cc4)c4ccc([nH]4)c(-c4ccc(S(=O)(=O)[O-])cc4)c4nc(c(-c5ccc(S(=O)(=O)[O-])cc5)c5ccc2[nH]5)C=C4)C=C3)cc1)[C@@H]1CC[N@@H+](C(C)C)C1
REMARK SMILES IDX 11 1 10 2 9 3 8 4 6 5 7 6 5 8 4 9 3 11 2 12 1 13 78 14 79 15
REMARK SMILES IDX 85 16 80 17 81 18 82 20 83 21 84 22 12 23 13 24 14 25 15 26
REMARK SMILES IDX 16 27 17 29 18 30 19 31 77 32 20 33 76 34 21 35 22 36 23 37
REMARK SMILES IDX 70 38 24 39 75 40 69 41 71 42 25 43 74 44 68 45 67 46 26 48
REMARK SMILES IDX 56 49 37 50 55 51 38 52 41 53 54 54 72 55 39 56 40 57 53 59
REMARK SMILES IDX 73 60 42 61 27 62 28 63 36 64 29 65 35 66 30 67 31 68 32 69
REMARK SMILES IDX 33 70 34 71 57 72 58 73 66 74 59 75 65 76 60 77 61 78 62 79
REMARK SMILES IDX 63 80 64 81 43 82 44 83 52 84 45 85 51 86 46 87 47 88 48 89
REMARK SMILES IDX 49 90 50 91
REMARK H PARENT 8 7 4 10 81 19 15 28 71 47 41 58
REMARK Flexibility Score: inf
ROOT
ATOM      1  C   UNL A   1      45.380  22.270  23.948  1.00  0.00     0.002 C 
ENDROOT
BRANCH   1   2
ATOM      2  C   UNL A   1      44.230  22.848  24.768  1.00  0.00     0.021 C 
BRANCH   2   3
ATOM      3  C   UNL A   1      43.804  22.013  25.982  1.00  0.00     0.116 C 
BRANCH   3   4
ATOM      4  N   UNL A   1      42.450  21.515  25.827  1.00  0.00    -0.351 N 
ATOM      5  C   UNL A   1      41.253  22.027  26.235  1.00  0.00     0.275 C 
ATOM      6  O   UNL A   1      40.252  21.325  26.046  1.00  0.00    -0.269 OA
ATOM      7  H   UNL A   1      42.384  20.660  25.344  1.00  0.00     0.163 HD
BRANCH   5   8
ATOM      8  C   UNL A   1      41.108  23.424  26.852  1.00  0.00     0.364 C 
BRANCH   8   9
ATOM      9  N   UNL A   1      42.218  23.932  27.696  1.00  0.00    -0.317 N 
ATOM     10  H   UNL A   1      43.099  23.621  27.285  1.00  0.00     0.349 HD
BRANCH   9  11
ATOM     11  C   UNL A   1      42.299  23.264  28.984  1.00  0.00     0.291 C 
BRANCH  11  12
ATOM     12  C   UNL A   1      43.653  22.938  29.540  1.00  0.00     0.025 C 
ATOM     13  C   UNL A   1      44.072  23.393  30.732  1.00  0.00     0.010 C 
ENDBRANCH  11  12
ENDBRANCH   9  11
BRANCH   9  14
ATOM     14  C   UNL A   1      42.530  25.373  27.559  1.00  0.00     0.246 C 
ATOM     15  C   UNL A   1      42.444  26.206  28.840  1.00  0.00     0.132 C 
ATOM     16  C   UNL A   1      41.731  26.285  26.577  1.00  0.00     0.328 C 
ATOM     17  C   UNL A   1      41.070  26.849  28.769  1.00  0.00     0.269 C 
ATOM     18  N   UNL A   1      40.893  27.208  27.362  1.00  0.00    -0.328 N 
ATOM     19  H   UNL A   1      39.928  27.074  27.060  1.00  0.00     0.348 HD
BRANCH  18  20
ATOM     20  C   UNL A   1      41.012  28.647  27.085  1.00  0.00     0.177 C 
ATOM     21  C   UNL A   1      41.673  29.481  28.189  1.00  0.00     0.075 C 
ATOM     22  C   UNL A   1      41.692  28.936  25.741  1.00  0.00     0.075 C 
ENDBRANCH  18  20
ENDBRANCH   9  14
ENDBRANCH   8   9
ENDBRANCH   5   8
ENDBRANCH   3   4
ENDBRANCH   2   3
ENDBRANCH   1   2
BRANCH   1  23
ATOM     23  C   UNL A   1      46.657  23.115  23.949  1.00  0.00     0.002 C 
BRANCH  23  24
ATOM     24  C   UNL A   1      46.634  24.354  24.852  1.00  0.00     0.021 C 
BRANCH  24  25
ATOM     25  C   UNL A   1      47.945  25.138  24.913  1.00  0.00     0.116 C 
BRANCH  25  26
ATOM     26  N   UNL A   1      47.979  26.209  23.931  1.00  0.00    -0.352 N 
ATOM     27  C   UNL A   1      47.407  27.456  23.977  1.00  0.00     0.251 C 
ATOM     28  H   UNL A   1      48.487  26.011  23.111  1.00  0.00     0.163 HD
ATOM     29  O   UNL A   1      47.323  28.129  22.955  1.00  0.00    -0.269 OA
BRANCH  27  30
ATOM     30  C   UNL A   1      46.889  27.988  25.257  1.00  0.00     0.039 A 
ATOM     31  C   UNL A   1      47.767  28.635  26.130  1.00  0.00     0.014 A 
ATOM     32  C   UNL A   1      45.548  27.812  25.614  1.00  0.00     0.014 A 
ATOM     33  C   UNL A   1      47.290  29.152  27.338  1.00  0.00     0.010 A 
ATOM     34  C   UNL A   1      45.062  28.383  26.787  1.00  0.00     0.010 A 
ATOM     35  C   UNL A   1      45.928  29.051  27.666  1.00  0.00    -0.014 A 
BRANCH  35  36
ATOM     36  C   UNL A   1      45.390  29.623  28.927  1.00  0.00     0.031 A 
ATOM     37  C   UNL A   1      45.301  28.771  30.165  1.00  0.00     0.074 A 
ATOM     38  C   UNL A   1      44.918  30.886  28.941  1.00  0.00     0.049 A 
ATOM     39  N   UNL A   1      44.787  29.063  31.333  1.00  0.00    -0.248 NA
ATOM     40  C   UNL A   1      45.836  27.403  30.070  1.00  0.00     0.031 C 
ATOM     41  C   UNL A   1      44.918  31.804  27.800  1.00  0.00     0.029 A 
ATOM     42  N   UNL A   1      44.338  31.613  29.952  1.00  0.00    -0.354 N 
ATOM     43  C   UNL A   1      44.917  27.912  32.102  1.00  0.00     0.074 A 
ATOM     44  C   UNL A   1      45.517  26.904  31.255  1.00  0.00     0.031 C 
ATOM     45  C   UNL A   1      44.382  32.975  28.178  1.00  0.00     0.029 A 
ATOM     46  C   UNL A   1      43.964  32.881  29.574  1.00  0.00     0.049 A 
ATOM     47  H   UNL A   1      44.203  31.260  30.860  1.00  0.00     0.167 HD
ATOM     48  C   UNL A   1      44.583  27.715  33.400  1.00  0.00     0.031 A 
ATOM     49  C   UNL A   1      43.345  33.856  30.268  1.00  0.00     0.031 A 
ATOM     50  C   UNL A   1      44.000  28.725  34.244  1.00  0.00     0.049 A 
ATOM     51  C   UNL A   1      42.980  33.614  31.708  1.00  0.00     0.074 A 
ATOM     52  C   UNL A   1      43.676  28.641  35.586  1.00  0.00     0.029 A 
ATOM     53  N   UNL A   1      43.655  30.002  33.828  1.00  0.00    -0.354 N 
ATOM     54  N   UNL A   1      43.164  32.537  32.434  1.00  0.00    -0.248 NA
ATOM     55  C   UNL A   1      42.336  34.723  32.425  1.00  0.00     0.031 C 
ATOM     56  C   UNL A   1      43.091  29.852  35.971  1.00  0.00     0.029 A 
ATOM     57  C   UNL A   1      43.103  30.709  34.882  1.00  0.00     0.049 A 
ATOM     58  H   UNL A   1      43.783  30.354  32.917  1.00  0.00     0.167 HD
ATOM     59  C   UNL A   1      42.685  32.849  33.701  1.00  0.00     0.074 A 
ATOM     60  C   UNL A   1      42.214  34.219  33.646  1.00  0.00     0.031 C 
ATOM     61  C   UNL A   1      42.643  32.073  34.812  1.00  0.00     0.031 A 
BRANCH  48  62
ATOM     62  C   UNL A   1      44.835  26.350  33.986  1.00  0.00    -0.014 A 
ATOM     63  C   UNL A   1      43.827  25.368  34.003  1.00  0.00     0.010 A 
ATOM     64  C   UNL A   1      46.107  26.032  34.495  1.00  0.00     0.010 A 
ATOM     65  C   UNL A   1      44.074  24.110  34.558  1.00  0.00     0.020 A 
ATOM     66  C   UNL A   1      46.366  24.764  35.024  1.00  0.00     0.020 A 
ATOM     67  C   UNL A   1      45.341  23.817  35.069  1.00  0.00     0.054 A 
BRANCH  67  68
ATOM     68  S   UNL A   1      45.637  22.170  35.769  1.00  0.00     0.124 S 
ATOM     69  O   UNL A   1      45.403  22.401  37.192  1.00  0.00    -0.237 OA
ATOM     70  O   UNL A   1      44.637  21.350  35.092  1.00  0.00    -0.237 OA
ATOM     71  O   UNL A   1      47.023  21.883  35.405  1.00  0.00    -0.744 OA
ENDBRANCH  67  68
ENDBRANCH  48  62
BRANCH  49  72
ATOM     72  C   UNL A   1      43.045  35.158  29.612  1.00  0.00    -0.014 A 
ATOM     73  C   UNL A   1      43.935  36.240  29.732  1.00  0.00     0.010 A 
ATOM     74  C   UNL A   1      41.873  35.319  28.851  1.00  0.00     0.010 A 
ATOM     75  C   UNL A   1      43.651  37.463  29.118  1.00  0.00     0.020 A 
ATOM     76  C   UNL A   1      41.599  36.532  28.212  1.00  0.00     0.020 A 
ATOM     77  C   UNL A   1      42.485  37.600  28.359  1.00  0.00     0.054 A 
BRANCH  77  78
ATOM     78  S   UNL A   1      42.164  39.180  27.525  1.00  0.00     0.124 S 
ATOM     79  O   UNL A   1      41.295  38.771  26.426  1.00  0.00    -0.237 OA
ATOM     80  O   UNL A   1      41.529  39.970  28.577  1.00  0.00    -0.237 OA
ATOM     81  O   UNL A   1      43.497  39.635  27.135  1.00  0.00    -0.744 OA
ENDBRANCH  77  78
ENDBRANCH  49  72
BRANCH  61  82
ATOM     82  C   UNL A   1      42.106  32.694  36.073  1.00  0.00    -0.014 A 
ATOM     83  C   UNL A   1      42.934  33.433  36.935  1.00  0.00     0.010 A 
ATOM     84  C   UNL A   1      40.733  32.586  36.365  1.00  0.00     0.010 A 
ATOM     85  C   UNL A   1      42.404  34.031  38.082  1.00  0.00     0.020 A 
ATOM     86  C   UNL A   1      40.194  33.205  37.496  1.00  0.00     0.020 A 
ATOM     87  C   UNL A   1      41.037  33.913  38.355  1.00  0.00     0.054 A 
BRANCH  87  88
ATOM     88  S   UNL A   1      40.364  34.740  39.822  1.00  0.00     0.124 S 
ATOM     89  O   UNL A   1      38.987  35.006  39.415  1.00  0.00    -0.237 OA
ATOM     90  O   UNL A   1      40.527  33.729  40.865  1.00  0.00    -0.237 OA
ATOM     91  O   UNL A   1      41.209  35.923  39.973  1.00  0.00    -0.744 OA
ENDBRANCH  87  88
ENDBRANCH  61  82
ENDBRANCH  35  36
ENDBRANCH  27  30
ENDBRANCH  25  26
ENDBRANCH  24  25
ENDBRANCH  23  24
ENDBRANCH   1  23
TORSDOF 21
ENDMDL
MODEL 2
REMARK VINA RESULT:      -7.0      3.695      9.159
REMARK SMILES C=CC[N@@H+](CC(=O)NCCCCCCNC(=O)c1ccc(-c2c3nc(c(-c4ccc(S(=O)(=O)[O-])cc4)c4ccc([nH]4)c(-c4ccc(S(=O)(=O)[O-])cc4)c4nc(c(-c5ccc(S(=O)(=O)[O-])cc5)c5ccc2[nH]5)C=C4)C=C3)cc1)[C@@H]1CC[N@@H+](C(C)C)C1
REMARK SMILES IDX 11 1 10 2 9 3 8 4 6 5 7 6 5 8 4 9 3 11 2 12 1 13 78 14 79 15
REMARK SMILES IDX 85 16 80 17 81 18 82 20 83 21 84 22 12 23 13 24 14 25 15 26
REMARK SMILES IDX 16 27 17 29 18 30 19 31 77 32 20 33 76 34 21 35 22 36 23 37
REMARK SMILES IDX 70 38 24 39 75 40 69 41 71 42 25 43 74 44 68 45 67 46 26 48
REMARK SMILES IDX 56 49 37 50 55 51 38 52 41 53 54 54 72 55 39 56 40 57 53 59
REMARK SMILES IDX 73 60 42 61 27 62 28 63 36 64 29 65 35 66 30 67 31 68 32 69
REMARK SMILES IDX 33 70 34 71 57 72 58 73 66 74 59 75 65 76 60 77 61 78 62 79
REMARK SMILES IDX 63 80 64 81 43 82 44 83 52 84 45 85 51 86 46 87 47 88 48 89
REMARK SMILES IDX 49 90 50 91
REMARK H PARENT 8 7 4 10 81 19 15 28 71 47 41 58
REMARK Flexibility Score: inf
ROOT
ATOM      1  C   UNL A   1      45.552  25.136  25.338  1.00  0.00     0.002 C 
ENDROOT
BRANCH   1   2
ATOM      2  C   UNL A   1      45.766  26.620  25.050  1.00  0.00     0.021 C 
BRANCH   2   3
ATOM      3  C   UNL A   1      46.881  27.293  25.862  1.00  0.00     0.116 C 
BRANCH   3   4
ATOM      4  N   UNL A   1      46.899  28.726  25.639  1.00  0.00    -0.351 N 
ATOM      5  C   UNL A   1      46.048  29.709  26.053  1.00  0.00     0.275 C 
ATOM      6  O   UNL A   1      46.261  30.849  25.622  1.00  0.00    -0.269 OA
ATOM      7  H   UNL A   1      47.654  29.043  25.093  1.00  0.00     0.163 HD
BRANCH   5   8
ATOM      8  C   UNL A   1      44.906  29.462  27.047  1.00  0.00     0.364 C 
BRANCH   8   9
ATOM      9  N   UNL A   1      44.974  30.134  28.369  1.00  0.00    -0.317 N 
ATOM     10  H   UNL A   1      45.745  30.802  28.347  1.00  0.00     0.349 HD
BRANCH   9  11
ATOM     11  C   UNL A   1      45.444  29.254  29.426  1.00  0.00     0.291 C 
BRANCH  11  12
ATOM     12  C   UNL A   1      45.523  27.782  29.151  1.00  0.00     0.025 C 
ATOM     13  C   UNL A   1      45.489  26.863  30.129  1.00  0.00     0.010 C 
ENDBRANCH  11  12
ENDBRANCH   9  11
BRANCH   9  14
ATOM     14  C   UNL A   1      43.939  31.161  28.629  1.00  0.00     0.246 C 
ATOM     15  C   UNL A   1      44.209  32.552  28.048  1.00  0.00     0.132 C 
ATOM     16  C   UNL A   1      43.521  31.539  30.083  1.00  0.00     0.328 C 
ATOM     17  C   UNL A   1      44.785  33.332  29.217  1.00  0.00     0.269 C 
ATOM     18  N   UNL A   1      44.013  32.896  30.380  1.00  0.00    -0.328 N 
ATOM     19  H   UNL A   1      44.596  32.832  31.215  1.00  0.00     0.348 HD
BRANCH  18  20
ATOM     20  C   UNL A   1      43.041  33.886  30.866  1.00  0.00     0.177 C 
ATOM     21  C   UNL A   1      42.549  34.899  29.824  1.00  0.00     0.075 C 
ATOM     22  C   UNL A   1      41.840  33.241  31.569  1.00  0.00     0.075 C 
ENDBRANCH  18  20
ENDBRANCH   9  14
ENDBRANCH   8   9
ENDBRANCH   5   8
ENDBRANCH   3   4
ENDBRANCH   2   3
ENDBRANCH   1   2
BRANCH   1  23
ATOM     23  C   UNL A   1      45.390  24.786  26.820  1.00  0.00     0.002 C 
BRANCH  23  24
ATOM     24  C   UNL A   1      44.489  23.583  27.125  1.00  0.00     0.021 C 
BRANCH  24  25
ATOM     25  C   UNL A   1      43.053  23.930  27.516  1.00  0.00     0.116 C 
BRANCH  25  26
ATOM     26  N   UNL A   1      42.302  24.461  26.391  1.00  0.00    -0.352 N 
ATOM     27  C   UNL A   1      41.344  25.445  26.365  1.00  0.00     0.251 C 
ATOM     28  H   UNL A   1      42.509  24.055  25.517  1.00  0.00     0.163 HD
ATOM     29  O   UNL A   1      40.636  25.583  25.374  1.00  0.00    -0.269 OA
BRANCH  27  30
ATOM     30  C   UNL A   1      41.165  26.335  27.533  1.00  0.00     0.039 A 
ATOM     31  C   UNL A   1      40.122  26.082  28.427  1.00  0.00     0.014 A 
ATOM     32  C   UNL A   1      41.998  27.442  27.723  1.00  0.00     0.014 A 
ATOM     33  C   UNL A   1      39.946  26.908  29.541  1.00  0.00     0.010 A 
ATOM     34  C   UNL A   1      41.862  28.225  28.866  1.00  0.00     0.010 A 
ATOM     35  C   UNL A   1      40.830  27.972  29.783  1.00  0.00    -0.014 A 
BRANCH  35  36
ATOM     36  C   UNL A   1      40.686  28.842  30.979  1.00  0.00     0.031 A 
ATOM     37  C   UNL A   1      39.638  29.922  31.004  1.00  0.00     0.074 A 
ATOM     38  C   UNL A   1      41.541  28.707  32.012  1.00  0.00     0.049 A 
ATOM     39  N   UNL A   1      39.412  30.832  31.918  1.00  0.00    -0.248 NA
ATOM     40  C   UNL A   1      38.742  30.008  29.838  1.00  0.00     0.031 C 
ATOM     41  C   UNL A   1      42.621  27.721  32.096  1.00  0.00     0.029 A 
ATOM     42  N   UNL A   1      41.642  29.410  33.187  1.00  0.00    -0.354 N 
ATOM     43  C   UNL A   1      38.367  31.608  31.429  1.00  0.00     0.074 A 
ATOM     44  C   UNL A   1      38.034  31.091  30.120  1.00  0.00     0.031 C 
ATOM     45  C   UNL A   1      43.262  27.869  33.266  1.00  0.00     0.029 A 
ATOM     46  C   UNL A   1      42.669  28.984  33.998  1.00  0.00     0.049 A 
ATOM     47  H   UNL A   1      41.038  30.148  33.427  1.00  0.00     0.167 HD
ATOM     48  C   UNL A   1      37.732  32.648  32.021  1.00  0.00     0.031 A 
ATOM     49  C   UNL A   1      43.092  29.445  35.191  1.00  0.00     0.031 A 
ATOM     50  C   UNL A   1      38.056  33.151  33.330  1.00  0.00     0.049 A 
ATOM     51  C   UNL A   1      42.373  30.603  35.828  1.00  0.00     0.074 A 
ATOM     52  C   UNL A   1      37.436  34.163  34.040  1.00  0.00     0.029 A 
ATOM     53  N   UNL A   1      39.090  32.680  34.125  1.00  0.00    -0.354 N 
ATOM     54  N   UNL A   1      41.350  31.287  35.376  1.00  0.00    -0.248 NA
ATOM     55  C   UNL A   1      42.858  31.042  37.145  1.00  0.00     0.031 C 
ATOM     56  C   UNL A   1      38.124  34.337  35.245  1.00  0.00     0.029 A 
ATOM     57  C   UNL A   1      39.137  33.393  35.310  1.00  0.00     0.049 A 
ATOM     58  H   UNL A   1      39.700  31.946  33.883  1.00  0.00     0.167 HD
ATOM     59  C   UNL A   1      41.050  32.218  36.363  1.00  0.00     0.074 A 
ATOM     60  C   UNL A   1      41.992  32.002  37.443  1.00  0.00     0.031 C 
ATOM     61  C   UNL A   1      40.079  33.164  36.377  1.00  0.00     0.031 A 
BRANCH  48  62
ATOM     62  C   UNL A   1      36.622  33.316  31.252  1.00  0.00    -0.014 A 
ATOM     63  C   UNL A   1      35.318  33.396  31.776  1.00  0.00     0.010 A 
ATOM     64  C   UNL A   1      36.892  33.905  30.004  1.00  0.00     0.010 A 
ATOM     65  C   UNL A   1      34.298  34.011  31.047  1.00  0.00     0.020 A 
ATOM     66  C   UNL A   1      35.881  34.548  29.284  1.00  0.00     0.020 A 
ATOM     67  C   UNL A   1      34.584  34.580  29.803  1.00  0.00     0.054 A 
BRANCH  67  68
ATOM     68  S   UNL A   1      33.244  35.387  28.885  1.00  0.00     0.124 S 
ATOM     69  O   UNL A   1      32.658  34.264  28.158  1.00  0.00    -0.237 OA
ATOM     70  O   UNL A   1      32.416  35.945  29.952  1.00  0.00    -0.237 OA
ATOM     71  O   UNL A   1      33.935  36.372  28.057  1.00  0.00    -0.744 OA
ENDBRANCH  67  68
ENDBRANCH  48  62
BRANCH  49  72
ATOM     72  C   UNL A   1      44.249  28.798  35.867  1.00  0.00    -0.014 A 
ATOM     73  C   UNL A   1      45.548  29.314  35.711  1.00  0.00     0.010 A 
ATOM     74  C   UNL A   1      44.057  27.670  36.687  1.00  0.00     0.010 A 
ATOM     75  C   UNL A   1      46.635  28.704  36.345  1.00  0.00     0.020 A 
ATOM     76  C   UNL A   1      45.137  27.075  37.345  1.00  0.00     0.020 A 
ATOM     77  C   UNL A   1      46.421  27.589  37.161  1.00  0.00     0.054 A 
BRANCH  77  78
ATOM     78  S   UNL A   1      47.838  26.848  38.018  1.00  0.00     0.124 S 
ATOM     79  O   UNL A   1      47.460  25.440  38.068  1.00  0.00    -0.237 OA
ATOM     80  O   UNL A   1      48.952  27.174  37.130  1.00  0.00    -0.237 OA
ATOM     81  O   UNL A   1      47.857  27.539  39.306  1.00  0.00    -0.744 OA
ENDBRANCH  77  78
ENDBRANCH  49  72
BRANCH  61  82
ATOM     82  C   UNL A   1      39.955  34.014  37.612  1.00  0.00    -0.014 A 
ATOM     83  C   UNL A   1      40.713  35.187  37.771  1.00  0.00     0.010 A 
ATOM     84  C   UNL A   1      39.017  33.664  38.601  1.00  0.00     0.010 A 
ATOM     85  C   UNL A   1      40.554  35.980  38.912  1.00  0.00     0.020 A 
ATOM     86  C   UNL A   1      38.836  34.468  39.729  1.00  0.00     0.020 A 
ATOM     87  C   UNL A   1      39.617  35.615  39.883  1.00  0.00     0.054 A 
BRANCH  87  88
ATOM     88  S   UNL A   1      39.393  36.688  41.329  1.00  0.00     0.124 S 
ATOM     89  O   UNL A   1      40.762  36.828  41.817  1.00  0.00    -0.237 OA
ATOM     90  O   UNL A   1      38.806  37.893  40.747  1.00  0.00    -0.237 OA
ATOM     91  O   UNL A   1      38.498  35.923  42.194  1.00  0.00    -0.744 OA
ENDBRANCH  87  88
ENDBRANCH  61  82
ENDBRANCH  35  36
ENDBRANCH  27  30
ENDBRANCH  25  26
ENDBRANCH  24  25
ENDBRANCH  23  24
ENDBRANCH   1  23
TORSDOF 21
ENDMDL
MODEL 3
REMARK VINA RESULT:      -7.0      5.139     10.698
REMARK SMILES C=CC[N@@H+](CC(=O)NCCCCCCNC(=O)c1ccc(-c2c3nc(c(-c4ccc(S(=O)(=O)[O-])cc4)c4ccc([nH]4)c(-c4ccc(S(=O)(=O)[O-])cc4)c4nc(c(-c5ccc(S(=O)(=O)[O-])cc5)c5ccc2[nH]5)C=C4)C=C3)cc1)[C@@H]1CC[N@@H+](C(C)C)C1
REMARK SMILES IDX 11 1 10 2 9 3 8 4 6 5 7 6 5 8 4 9 3 11 2 12 1 13 78 14 79 15
REMARK SMILES IDX 85 16 80 17 81 18 82 20 83 21 84 22 12 23 13 24 14 25 15 26
REMARK SMILES IDX 16 27 17 29 18 30 19 31 77 32 20 33 76 34 21 35 22 36 23 37
REMARK SMILES IDX 70 38 24 39 75 40 69 41 71 42 25 43 74 44 68 45 67 46 26 48
REMARK SMILES IDX 56 49 37 50 55 51 38 52 41 53 54 54 72 55 39 56 40 57 53 59
REMARK SMILES IDX 73 60 42 61 27 62 28 63 36 64 29 65 35 66 30 67 31 68 32 69
REMARK SMILES IDX 33 70 34 71 57 72 58 73 66 74 59 75 65 76 60 77 61 78 62 79
REMARK SMILES IDX 63 80 64 81 43 82 44 83 52 84 45 85 51 86 46 87 47 88 48 89
REMARK SMILES IDX 49 90 50 91
REMARK H PARENT 8 7 4 10 81 19 15 28 71 47 41 58
REMARK Flexibility Score: inf
ROOT
ATOM      1  C   UNL A   1      45.868  21.543  35.026  1.00  0.00     0.002 C 
ENDROOT
BRANCH   1   2
ATOM      2  C   UNL A   1      46.830  20.365  34.901  1.00  0.00     0.021 C 
BRANCH   2   3
ATOM      3  C   UNL A   1      48.238  20.716  34.405  1.00  0.00     0.116 C 
BRANCH   3   4
ATOM      4  N   UNL A   1      49.215  19.753  34.878  1.00  0.00    -0.351 N 
ATOM      5  C   UNL A   1      50.303  19.902  35.688  1.00  0.00     0.275 C 
ATOM      6  O   UNL A   1      51.023  18.909  35.842  1.00  0.00    -0.269 OA
ATOM      7  H   UNL A   1      49.068  18.834  34.558  1.00  0.00     0.163 HD
BRANCH   5   8
ATOM      8  C   UNL A   1      50.620  21.207  36.430  1.00  0.00     0.364 C 
BRANCH   8   9
ATOM      9  N   UNL A   1      50.026  21.406  37.775  1.00  0.00    -0.317 N 
ATOM     10  H   UNL A   1      49.235  22.044  37.683  1.00  0.00     0.349 HD
BRANCH   9  11
ATOM     11  C   UNL A   1      50.873  22.193  38.656  1.00  0.00     0.291 C 
BRANCH  11  12
ATOM     12  C   UNL A   1      50.443  23.585  39.011  1.00  0.00     0.025 C 
ATOM     13  C   UNL A   1      49.639  23.848  40.054  1.00  0.00     0.010 C 
ENDBRANCH  11  12
ENDBRANCH   9  11
BRANCH   9  14
ATOM     14  C   UNL A   1      49.210  20.285  38.296  1.00  0.00     0.246 C 
ATOM     15  C   UNL A   1      47.694  20.502  38.301  1.00  0.00     0.132 C 
ATOM     16  C   UNL A   1      49.420  19.732  39.739  1.00  0.00     0.328 C 
ATOM     17  C   UNL A   1      47.390  20.932  39.726  1.00  0.00     0.269 C 
ATOM     18  N   UNL A   1      48.257  20.105  40.564  1.00  0.00    -0.328 N 
ATOM     19  H   UNL A   1      48.609  20.627  41.368  1.00  0.00     0.348 HD
BRANCH  18  20
ATOM     20  C   UNL A   1      47.557  19.033  41.287  1.00  0.00     0.177 C 
ATOM     21  C   UNL A   1      46.025  19.095  41.242  1.00  0.00     0.075 C 
ATOM     22  C   UNL A   1      48.031  17.634  40.873  1.00  0.00     0.075 C 
ENDBRANCH  18  20
ENDBRANCH   9  14
ENDBRANCH   8   9
ENDBRANCH   5   8
ENDBRANCH   3   4
ENDBRANCH   2   3
ENDBRANCH   1   2
BRANCH   1  23
ATOM     23  C   UNL A   1      46.509  22.920  34.829  1.00  0.00     0.002 C 
BRANCH  23  24
ATOM     24  C   UNL A   1      46.521  23.831  36.062  1.00  0.00     0.021 C 
BRANCH  24  25
ATOM     25  C   UNL A   1      47.565  24.947  36.034  1.00  0.00     0.116 C 
BRANCH  25  26
ATOM     26  N   UNL A   1      47.724  25.569  37.338  1.00  0.00    -0.352 N 
ATOM     27  C   UNL A   1      47.178  26.731  37.826  1.00  0.00     0.251 C 
ATOM     28  H   UNL A   1      48.309  25.086  37.966  1.00  0.00     0.163 HD
ATOM     29  O   UNL A   1      47.625  27.233  38.852  1.00  0.00    -0.269 OA
BRANCH  27  30
ATOM     30  C   UNL A   1      46.056  27.379  37.112  1.00  0.00     0.039 A 
ATOM     31  C   UNL A   1      44.753  26.933  37.347  1.00  0.00     0.014 A 
ATOM     32  C   UNL A   1      46.292  28.397  36.183  1.00  0.00     0.014 A 
ATOM     33  C   UNL A   1      43.681  27.544  36.688  1.00  0.00     0.010 A 
ATOM     34  C   UNL A   1      45.220  29.046  35.577  1.00  0.00     0.010 A 
ATOM     35  C   UNL A   1      43.904  28.621  35.816  1.00  0.00    -0.014 A 
BRANCH  35  36
ATOM     36  C   UNL A   1      42.778  29.309  35.132  1.00  0.00     0.031 A 
ATOM     37  C   UNL A   1      42.347  28.868  33.759  1.00  0.00     0.074 A 
ATOM     38  C   UNL A   1      42.191  30.374  35.714  1.00  0.00     0.049 A 
ATOM     39  N   UNL A   1      41.446  29.393  32.968  1.00  0.00    -0.248 NA
ATOM     40  C   UNL A   1      43.037  27.699  33.188  1.00  0.00     0.031 C 
ATOM     41  C   UNL A   1      42.539  30.921  37.028  1.00  0.00     0.029 A 
ATOM     42  N   UNL A   1      41.182  31.192  35.271  1.00  0.00    -0.354 N 
ATOM     43  C   UNL A   1      41.475  28.634  31.803  1.00  0.00     0.074 A 
ATOM     44  C   UNL A   1      42.514  27.642  31.973  1.00  0.00     0.031 C 
ATOM     45  C   UNL A   1      41.745  31.971  37.291  1.00  0.00     0.029 A 
ATOM     46  C   UNL A   1      40.861  32.199  36.151  1.00  0.00     0.049 A 
ATOM     47  H   UNL A   1      40.731  31.071  34.405  1.00  0.00     0.167 HD
ATOM     48  C   UNL A   1      40.699  28.743  30.699  1.00  0.00     0.031 A 
ATOM     49  C   UNL A   1      39.964  33.199  36.051  1.00  0.00     0.031 A 
ATOM     50  C   UNL A   1      39.656  29.722  30.539  1.00  0.00     0.049 A 
ATOM     51  C   UNL A   1      39.114  33.302  34.813  1.00  0.00     0.074 A 
ATOM     52  C   UNL A   1      38.779  29.879  29.482  1.00  0.00     0.029 A 
ATOM     53  N   UNL A   1      39.351  30.711  31.463  1.00  0.00    -0.354 N 
ATOM     54  N   UNL A   1      39.118  32.539  33.746  1.00  0.00    -0.248 NA
ATOM     55  C   UNL A   1      38.130  34.392  34.772  1.00  0.00     0.031 C 
ATOM     56  C   UNL A   1      37.973  30.992  29.744  1.00  0.00     0.029 A 
ATOM     57  C   UNL A   1      38.311  31.493  30.991  1.00  0.00     0.049 A 
ATOM     58  H   UNL A   1      39.806  30.837  32.326  1.00  0.00     0.167 HD
ATOM     59  C   UNL A   1      38.119  33.039  32.919  1.00  0.00     0.074 A 
ATOM     60  C   UNL A   1      37.523  34.162  33.615  1.00  0.00     0.031 C 
ATOM     61  C   UNL A   1      37.726  32.605  31.696  1.00  0.00     0.031 A 
BRANCH  48  62
ATOM     62  C   UNL A   1      40.954  27.778  29.569  1.00  0.00    -0.014 A 
ATOM     63  C   UNL A   1      40.074  26.711  29.312  1.00  0.00     0.010 A 
ATOM     64  C   UNL A   1      42.069  27.961  28.732  1.00  0.00     0.010 A 
ATOM     65  C   UNL A   1      40.329  25.820  28.266  1.00  0.00     0.020 A 
ATOM     66  C   UNL A   1      42.312  27.089  27.667  1.00  0.00     0.020 A 
ATOM     67  C   UNL A   1      41.449  26.012  27.453  1.00  0.00     0.054 A 
BRANCH  67  68
ATOM     68  S   UNL A   1      41.746  24.849  26.092  1.00  0.00     0.124 S 
ATOM     69  O   UNL A   1      43.204  24.858  26.002  1.00  0.00    -0.237 OA
ATOM     70  O   UNL A   1      41.156  23.611  26.594  1.00  0.00    -0.237 OA
ATOM     71  O   UNL A   1      41.049  25.454  24.960  1.00  0.00    -0.744 OA
ENDBRANCH  67  68
ENDBRANCH  48  62
BRANCH  49  72
ATOM     72  C   UNL A   1      39.813  34.175  37.164  1.00  0.00    -0.014 A 
ATOM     73  C   UNL A   1      40.543  35.377  37.164  1.00  0.00     0.010 A 
ATOM     74  C   UNL A   1      38.925  33.916  38.225  1.00  0.00     0.010 A 
ATOM     75  C   UNL A   1      40.402  36.292  38.211  1.00  0.00     0.020 A 
ATOM     76  C   UNL A   1      38.761  34.841  39.259  1.00  0.00     0.020 A 
ATOM     77  C   UNL A   1      39.509  36.019  39.252  1.00  0.00     0.054 A 
BRANCH  77  78
ATOM     78  S   UNL A   1      39.302  37.247  40.572  1.00  0.00     0.124 S 
ATOM     79  O   UNL A   1      40.621  37.869  40.617  1.00  0.00    -0.237 OA
ATOM     80  O   UNL A   1      38.223  38.086  40.057  1.00  0.00    -0.237 OA
ATOM     81  O   UNL A   1      38.949  36.438  41.737  1.00  0.00    -0.744 OA
ENDBRANCH  77  78
ENDBRANCH  49  72
BRANCH  61  82
ATOM     82  C   UNL A   1      36.573  33.318  31.043  1.00  0.00    -0.014 A 
ATOM     83  C   UNL A   1      35.345  33.482  31.706  1.00  0.00     0.010 A 
ATOM     84  C   UNL A   1      36.747  33.887  29.768  1.00  0.00     0.010 A 
ATOM     85  C   UNL A   1      34.300  34.180  31.092  1.00  0.00     0.020 A 
ATOM     86  C   UNL A   1      35.715  34.608  29.163  1.00  0.00     0.020 A 
ATOM     87  C   UNL A   1      34.492  34.739  29.824  1.00  0.00     0.054 A 
BRANCH  87  88
ATOM     88  S   UNL A   1      33.139  35.683  29.071  1.00  0.00     0.124 S 
ATOM     89  O   UNL A   1      32.334  36.040  30.235  1.00  0.00    -0.237 OA
ATOM     90  O   UNL A   1      33.841  36.792  28.428  1.00  0.00    -0.237 OA
ATOM     91  O   UNL A   1      32.520  34.731  28.152  1.00  0.00    -0.744 OA
ENDBRANCH  87  88
ENDBRANCH  61  82
ENDBRANCH  35  36
ENDBRANCH  27  30
ENDBRANCH  25  26
ENDBRANCH  24  25
ENDBRANCH  23  24
ENDBRANCH   1  23
TORSDOF 21
ENDMDL
