MODEL 1
REMARK VINA RESULT:     -12.1      0.000      0.000
REMARK SMILES C[C@H](C(=O)NCCCCCCNC(=O)c1ccc(-c2c3nc(c(-c4ccc(S(=O)(=O)[O-])cc4)c4ccc([nH]4)c(-c4ccc(S(=O)(=O)[O-])cc4)c4nc(c(-c5ccc(S(=O)(=O)[O-])cc5)c5ccc2[nH]5)C=C4)C=C3)cc1)N1C(=O)C[C@@H](N2C(=O)/C(=C/c3ccccc3)SC2=S)C1=O
REMARK SMILES IDX 8 1 7 2 6 3 5 4 3 5 4 6 2 8 1 9 75 10 76 11 94 12 77 13
REMARK SMILES IDX 78 14 79 15 95 16 80 17 81 18 92 19 82 20 83 21 91 22 93 23
REMARK SMILES IDX 84 24 85 25 86 26 90 27 87 28 89 29 88 30 9 31 10 32 11 33
REMARK SMILES IDX 12 34 13 35 14 37 15 38 16 39 74 40 17 41 73 42 18 43 19 44
REMARK SMILES IDX 20 45 67 46 21 47 72 48 66 49 68 50 22 51 71 52 65 53 64 54
REMARK SMILES IDX 23 56 53 57 34 58 52 59 35 60 38 61 51 62 69 63 36 64 37 65
REMARK SMILES IDX 50 67 70 68 39 69 24 70 25 71 33 72 26 73 32 74 27 75 28 76
REMARK SMILES IDX 29 77 30 78 31 79 54 80 55 81 63 82 56 83 62 84 57 85 58 86
REMARK SMILES IDX 59 87 60 88 61 89 40 90 41 91 49 92 42 93 48 94 43 95 44 96
REMARK SMILES IDX 45 97 46 98 47 99
REMARK H PARENT 5 7 12 36 68 55 38 66
REMARK Flexibility Score: inf
ROOT
ATOM      1  C   UNL A   1      32.914  29.955  27.045  1.00  0.00     0.002 C 
ENDROOT
BRANCH   1   2
ATOM      2  C   UNL A   1      33.541  29.355  25.784  1.00  0.00     0.021 C 
BRANCH   2   3
ATOM      3  C   UNL A   1      32.803  29.718  24.494  1.00  0.00     0.116 C 
BRANCH   3   4
ATOM      4  N   UNL A   1      33.470  29.197  23.320  1.00  0.00    -0.354 N 
ATOM      5  C   UNL A   1      33.351  28.063  22.585  1.00  0.00     0.243 C 
ATOM      6  O   UNL A   1      34.144  27.978  21.635  1.00  0.00    -0.273 OA
ATOM      7  H   UNL A   1      34.169  29.800  22.979  1.00  0.00     0.163 HD
BRANCH   5   8
ATOM      8  C   UNL A   1      32.425  26.860  22.891  1.00  0.00     0.179 C 
ATOM      9  C   UNL A   1      32.329  25.968  21.647  1.00  0.00     0.042 C 
BRANCH   8  10
ATOM     10  N   UNL A   1      32.596  26.082  24.111  1.00  0.00    -0.268 N 
ATOM     11  C   UNL A   1      31.747  26.163  25.182  1.00  0.00     0.232 C 
ATOM     12  C   UNL A   1      33.507  25.080  24.274  1.00  0.00     0.253 C 
ATOM     13  O   UNL A   1      30.814  26.941  25.313  1.00  0.00    -0.274 OA
ATOM     14  C   UNL A   1      32.086  25.091  26.185  1.00  0.00     0.136 C 
ATOM     15  C   UNL A   1      33.457  24.638  25.724  1.00  0.00     0.191 C 
ATOM     16  O   UNL A   1      34.282  24.640  23.441  1.00  0.00    -0.272 OA
BRANCH  15  17
ATOM     17  N   UNL A   1      33.783  23.220  25.771  1.00  0.00    -0.280 N 
ATOM     18  C   UNL A   1      32.760  22.310  25.569  1.00  0.00     0.266 C 
ATOM     19  C   UNL A   1      35.065  22.709  25.795  1.00  0.00     0.149 C 
ATOM     20  O   UNL A   1      31.568  22.584  25.521  1.00  0.00    -0.268 OA
ATOM     21  C   UNL A   1      33.313  20.957  25.350  1.00  0.00     0.081 C 
ATOM     22  S   UNL A   1      35.009  20.962  25.614  1.00  0.00    -0.054 SA
ATOM     23  S   UNL A   1      36.499  23.544  25.961  1.00  0.00    -0.052 S 
ATOM     24  C   UNL A   1      32.529  19.952  24.944  1.00  0.00     0.029 C 
BRANCH  24  25
ATOM     25  C   UNL A   1      32.944  18.561  24.767  1.00  0.00    -0.024 A 
ATOM     26  C   UNL A   1      33.587  18.153  23.595  1.00  0.00     0.008 A 
ATOM     27  C   UNL A   1      32.626  17.613  25.747  1.00  0.00     0.008 A 
ATOM     28  C   UNL A   1      33.915  16.807  23.413  1.00  0.00     0.001 A 
ATOM     29  C   UNL A   1      32.957  16.274  25.565  1.00  0.00     0.001 A 
ATOM     30  C   UNL A   1      33.598  15.870  24.396  1.00  0.00     0.000 A 
ENDBRANCH  24  25
ENDBRANCH  15  17
ENDBRANCH   8  10
ENDBRANCH   5   8
ENDBRANCH   3   4
ENDBRANCH   2   3
ENDBRANCH   1   2
BRANCH   1  31
ATOM     31  C   UNL A   1      31.585  30.684  26.813  1.00  0.00     0.002 C 
BRANCH  31  32
ATOM     32  C   UNL A   1      31.663  32.214  26.861  1.00  0.00     0.021 C 
BRANCH  32  33
ATOM     33  C   UNL A   1      32.988  32.760  27.387  1.00  0.00     0.116 C 
BRANCH  33  34
ATOM     34  N   UNL A   1      32.879  34.171  27.729  1.00  0.00    -0.352 N 
ATOM     35  C   UNL A   1      33.439  34.861  28.774  1.00  0.00     0.251 C 
ATOM     36  H   UNL A   1      32.321  34.709  27.122  1.00  0.00     0.163 HD
ATOM     37  O   UNL A   1      33.008  35.971  29.074  1.00  0.00    -0.269 OA
BRANCH  35  38
ATOM     38  C   UNL A   1      34.562  34.269  29.530  1.00  0.00     0.039 A 
ATOM     39  C   UNL A   1      34.290  33.521  30.677  1.00  0.00     0.014 A 
ATOM     40  C   UNL A   1      35.883  34.482  29.125  1.00  0.00     0.014 A 
ATOM     41  C   UNL A   1      35.345  32.950  31.394  1.00  0.00     0.010 A 
ATOM     42  C   UNL A   1      36.924  33.848  29.793  1.00  0.00     0.010 A 
ATOM     43  C   UNL A   1      36.668  33.087  30.942  1.00  0.00    -0.014 A 
BRANCH  43  44
ATOM     44  C   UNL A   1      37.796  32.446  31.665  1.00  0.00     0.031 A 
ATOM     45  C   UNL A   1      38.249  32.989  32.994  1.00  0.00     0.074 A 
ATOM     46  C   UNL A   1      38.445  31.411  31.097  1.00  0.00     0.049 A 
ATOM     47  N   UNL A   1      39.236  32.589  33.753  1.00  0.00    -0.248 NA
ATOM     48  C   UNL A   1      37.511  34.145  33.530  1.00  0.00     0.031 C 
ATOM     49  C   UNL A   1      38.126  30.823  29.794  1.00  0.00     0.029 A 
ATOM     50  N   UNL A   1      39.512  30.670  31.543  1.00  0.00    -0.354 N 
ATOM     51  C   UNL A   1      39.248  33.452  34.843  1.00  0.00     0.074 A 
ATOM     52  C   UNL A   1      38.204  34.427  34.623  1.00  0.00     0.031 C 
ATOM     53  C   UNL A   1      38.958  29.795  29.560  1.00  0.00     0.029 A 
ATOM     54  C   UNL A   1      39.896  29.678  30.672  1.00  0.00     0.049 A 
ATOM     55  H   UNL A   1      39.959  30.834  32.404  1.00  0.00     0.167 HD
ATOM     56  C   UNL A   1      40.045  33.422  35.940  1.00  0.00     0.031 A 
ATOM     57  C   UNL A   1      40.897  28.781  30.753  1.00  0.00     0.031 A 
ATOM     58  C   UNL A   1      41.079  32.445  36.155  1.00  0.00     0.049 A 
ATOM     59  C   UNL A   1      41.776  28.777  31.973  1.00  0.00     0.074 A 
ATOM     60  C   UNL A   1      41.904  32.296  37.256  1.00  0.00     0.029 A 
ATOM     61  N   UNL A   1      41.434  31.454  35.251  1.00  0.00    -0.354 N 
ATOM     62  N   UNL A   1      41.728  29.557  33.027  1.00  0.00    -0.248 NA
ATOM     63  C   UNL A   1      42.837  27.761  32.022  1.00  0.00     0.031 C 
ATOM     64  C   UNL A   1      42.799  31.254  36.992  1.00  0.00     0.029 A 
ATOM     65  C   UNL A   1      42.485  30.707  35.757  1.00  0.00     0.049 A 
ATOM     66  H   UNL A   1      41.002  31.305  34.379  1.00  0.00     0.167 HD
ATOM     67  C   UNL A   1      42.732  29.108  33.877  1.00  0.00     0.074 A 
ATOM     68  C   UNL A   1      43.358  27.978  33.222  1.00  0.00     0.031 C 
ATOM     69  C   UNL A   1      43.100  29.587  35.091  1.00  0.00     0.031 A 
BRANCH  56  70
ATOM     70  C   UNL A   1      39.833  34.485  36.988  1.00  0.00    -0.014 A 
ATOM     71  C   UNL A   1      39.035  34.243  38.122  1.00  0.00     0.010 A 
ATOM     72  C   UNL A   1      40.477  35.729  36.862  1.00  0.00     0.010 A 
ATOM     73  C   UNL A   1      38.853  35.237  39.087  1.00  0.00     0.020 A 
ATOM     74  C   UNL A   1      40.324  36.716  37.840  1.00  0.00     0.020 A 
ATOM     75  C   UNL A   1      39.499  36.469  38.939  1.00  0.00     0.054 A 
BRANCH  75  76
ATOM     76  S   UNL A   1      39.268  37.730  40.222  1.00  0.00     0.124 S 
ATOM     77  O   UNL A   1      40.586  38.361  40.265  1.00  0.00    -0.237 OA
ATOM     78  O   UNL A   1      38.195  38.553  39.671  1.00  0.00    -0.237 OA
ATOM     79  O   UNL A   1      38.911  36.957  41.408  1.00  0.00    -0.744 OA
ENDBRANCH  75  76
ENDBRANCH  56  70
BRANCH  57  80
ATOM     80  C   UNL A   1      41.111  27.803  29.649  1.00  0.00    -0.014 A 
ATOM     81  C   UNL A   1      40.212  26.742  29.447  1.00  0.00     0.010 A 
ATOM     82  C   UNL A   1      42.212  27.940  28.783  1.00  0.00     0.010 A 
ATOM     83  C   UNL A   1      40.421  25.823  28.414  1.00  0.00     0.020 A 
ATOM     84  C   UNL A   1      42.407  27.042  27.730  1.00  0.00     0.020 A 
ATOM     85  C   UNL A   1      41.516  25.981  27.559  1.00  0.00     0.054 A 
BRANCH  85  86
ATOM     86  S   UNL A   1      41.740  24.804  26.197  1.00  0.00     0.124 S 
ATOM     87  O   UNL A   1      41.611  25.666  25.026  1.00  0.00    -0.237 OA
ATOM     88  O   UNL A   1      43.077  24.276  26.453  1.00  0.00    -0.237 OA
ATOM     89  O   UNL A   1      40.653  23.846  26.391  1.00  0.00    -0.744 OA
ENDBRANCH  85  86
ENDBRANCH  57  80
BRANCH  69  90
ATOM     90  C   UNL A   1      44.210  28.866  35.814  1.00  0.00    -0.014 A 
ATOM     91  C   UNL A   1      43.947  27.768  36.653  1.00  0.00     0.010 A 
ATOM     92  C   UNL A   1      45.543  29.267  35.607  1.00  0.00     0.010 A 
ATOM     93  C   UNL A   1      44.994  27.108  37.300  1.00  0.00     0.020 A 
ATOM     94  C   UNL A   1      46.595  28.588  36.226  1.00  0.00     0.020 A 
ATOM     95  C   UNL A   1      46.313  27.523  37.081  1.00  0.00     0.054 A 
BRANCH  95  96
ATOM     96  S   UNL A   1      47.656  26.624  37.903  1.00  0.00     0.124 S 
ATOM     97  O   UNL A   1      47.778  25.430  37.070  1.00  0.00    -0.237 OA
ATOM     98  O   UNL A   1      48.770  27.565  37.818  1.00  0.00    -0.237 OA
ATOM     99  O   UNL A   1      47.145  26.393  39.252  1.00  0.00    -0.744 OA
ENDBRANCH  95  96
ENDBRANCH  69  90
ENDBRANCH  43  44
ENDBRANCH  35  38
ENDBRANCH  33  34
ENDBRANCH  32  33
ENDBRANCH  31  32
ENDBRANCH   1  31
TORSDOF 19
ENDMDL
MODEL 2
REMARK VINA RESULT:     -12.0      2.668      9.533
REMARK SMILES C[C@H](C(=O)NCCCCCCNC(=O)c1ccc(-c2c3nc(c(-c4ccc(S(=O)(=O)[O-])cc4)c4ccc([nH]4)c(-c4ccc(S(=O)(=O)[O-])cc4)c4nc(c(-c5ccc(S(=O)(=O)[O-])cc5)c5ccc2[nH]5)C=C4)C=C3)cc1)N1C(=O)C[C@@H](N2C(=O)/C(=C/c3ccccc3)SC2=S)C1=O
REMARK SMILES IDX 8 1 7 2 6 3 5 4 3 5 4 6 2 8 1 9 75 10 76 11 94 12 77 13
REMARK SMILES IDX 78 14 79 15 95 16 80 17 81 18 92 19 82 20 83 21 91 22 93 23
REMARK SMILES IDX 84 24 85 25 86 26 90 27 87 28 89 29 88 30 9 31 10 32 11 33
REMARK SMILES IDX 12 34 13 35 14 37 15 38 16 39 74 40 17 41 73 42 18 43 19 44
REMARK SMILES IDX 20 45 67 46 21 47 72 48 66 49 68 50 22 51 71 52 65 53 64 54
REMARK SMILES IDX 23 56 53 57 34 58 52 59 35 60 38 61 51 62 69 63 36 64 37 65
REMARK SMILES IDX 50 67 70 68 39 69 24 70 25 71 33 72 26 73 32 74 27 75 28 76
REMARK SMILES IDX 29 77 30 78 31 79 54 80 55 81 63 82 56 83 62 84 57 85 58 86
REMARK SMILES IDX 59 87 60 88 61 89 40 90 41 91 49 92 42 93 48 94 43 95 44 96
REMARK SMILES IDX 45 97 46 98 47 99
REMARK H PARENT 5 7 12 36 68 55 38 66
REMARK Flexibility Score: inf
ROOT
ATOM      1  C   UNL A   1      37.632  21.417  25.197  1.00  0.00     0.002 C 
ENDROOT
BRANCH   1   2
ATOM      2  C   UNL A   1      36.148  21.322  25.557  1.00  0.00     0.021 C 
BRANCH   2   3
ATOM      3  C   UNL A   1      35.454  20.078  24.996  1.00  0.00     0.116 C 
BRANCH   3   4
ATOM      4  N   UNL A   1      34.033  20.077  25.270  1.00  0.00    -0.354 N 
ATOM      5  C   UNL A   1      32.997  20.878  24.917  1.00  0.00     0.243 C 
ATOM      6  O   UNL A   1      31.900  20.540  25.384  1.00  0.00    -0.273 OA
ATOM      7  H   UNL A   1      33.755  19.327  25.842  1.00  0.00     0.163 HD
BRANCH   5   8
ATOM      8  C   UNL A   1      33.087  22.196  24.108  1.00  0.00     0.179 C 
ATOM      9  C   UNL A   1      32.692  21.922  22.651  1.00  0.00     0.042 C 
BRANCH   8  10
ATOM     10  N   UNL A   1      32.487  23.424  24.617  1.00  0.00    -0.268 N 
ATOM     11  C   UNL A   1      32.812  23.977  25.826  1.00  0.00     0.232 C 
ATOM     12  C   UNL A   1      31.666  24.243  23.900  1.00  0.00     0.253 C 
ATOM     13  O   UNL A   1      33.549  23.494  26.672  1.00  0.00    -0.274 OA
ATOM     14  C   UNL A   1      32.171  25.334  25.955  1.00  0.00     0.136 C 
ATOM     15  C   UNL A   1      31.147  25.316  24.838  1.00  0.00     0.191 C 
ATOM     16  O   UNL A   1      31.336  24.125  22.731  1.00  0.00    -0.272 OA
BRANCH  15  17
ATOM     17  N   UNL A   1      30.936  26.527  24.057  1.00  0.00    -0.280 N 
ATOM     18  C   UNL A   1      29.632  26.927  23.817  1.00  0.00     0.266 C 
ATOM     19  C   UNL A   1      31.928  27.422  23.710  1.00  0.00     0.149 C 
ATOM     20  O   UNL A   1      28.632  26.264  24.059  1.00  0.00    -0.268 OA
ATOM     21  C   UNL A   1      29.609  28.307  23.286  1.00  0.00     0.081 C 
ATOM     22  S   UNL A   1      31.208  28.848  22.977  1.00  0.00    -0.054 SA
ATOM     23  S   UNL A   1      33.574  27.260  23.922  1.00  0.00    -0.052 S 
ATOM     24  C   UNL A   1      28.457  28.975  23.161  1.00  0.00     0.029 C 
BRANCH  24  25
ATOM     25  C   UNL A   1      28.300  30.308  22.581  1.00  0.00    -0.024 A 
ATOM     26  C   UNL A   1      28.109  30.469  21.206  1.00  0.00     0.008 A 
ATOM     27  C   UNL A   1      28.420  31.438  23.399  1.00  0.00     0.008 A 
ATOM     28  C   UNL A   1      28.030  31.752  20.659  1.00  0.00     0.001 A 
ATOM     29  C   UNL A   1      28.338  32.715  22.852  1.00  0.00     0.001 A 
ATOM     30  C   UNL A   1      28.146  32.872  21.481  1.00  0.00     0.000 A 
ENDBRANCH  24  25
ENDBRANCH  15  17
ENDBRANCH   8  10
ENDBRANCH   5   8
ENDBRANCH   3   4
ENDBRANCH   2   3
ENDBRANCH   1   2
BRANCH   1  31
ATOM     31  C   UNL A   1      38.402  22.514  25.943  1.00  0.00     0.002 C 
BRANCH  31  32
ATOM     32  C   UNL A   1      39.712  22.061  26.596  1.00  0.00     0.021 C 
BRANCH  32  33
ATOM     33  C   UNL A   1      40.547  23.195  27.185  1.00  0.00     0.116 C 
BRANCH  33  34
ATOM     34  N   UNL A   1      41.271  23.913  26.145  1.00  0.00    -0.352 N 
ATOM     35  C   UNL A   1      41.535  25.255  26.034  1.00  0.00     0.251 C 
ATOM     36  H   UNL A   1      41.623  23.354  25.416  1.00  0.00     0.163 HD
ATOM     37  O   UNL A   1      41.897  25.718  24.956  1.00  0.00    -0.269 OA
BRANCH  35  38
ATOM     38  C   UNL A   1      41.385  26.135  27.210  1.00  0.00     0.039 A 
ATOM     39  C   UNL A   1      42.292  27.181  27.398  1.00  0.00     0.014 A 
ATOM     40  C   UNL A   1      40.371  25.906  28.145  1.00  0.00     0.014 A 
ATOM     41  C   UNL A   1      42.153  28.024  28.504  1.00  0.00     0.010 A 
ATOM     42  C   UNL A   1      40.188  26.793  29.201  1.00  0.00     0.010 A 
ATOM     43  C   UNL A   1      41.083  27.852  29.399  1.00  0.00    -0.014 A 
BRANCH  43  44
ATOM     44  C   UNL A   1      40.894  28.769  30.552  1.00  0.00     0.031 A 
ATOM     45  C   UNL A   1      41.757  28.632  31.777  1.00  0.00     0.074 A 
ATOM     46  C   UNL A   1      39.908  29.686  30.515  1.00  0.00     0.049 A 
ATOM     47  N   UNL A   1      41.715  29.312  32.894  1.00  0.00    -0.248 NA
ATOM     48  C   UNL A   1      42.789  27.582  31.754  1.00  0.00     0.031 C 
ATOM     49  C   UNL A   1      38.979  29.886  29.400  1.00  0.00     0.029 A 
ATOM     50  N   UNL A   1      39.520  30.622  31.442  1.00  0.00    -0.354 N 
ATOM     51  C   UNL A   1      42.698  28.762  33.709  1.00  0.00     0.074 A 
ATOM     52  C   UNL A   1      43.285  27.660  32.979  1.00  0.00     0.031 C 
ATOM     53  C   UNL A   1      38.149  30.901  29.696  1.00  0.00     0.029 A 
ATOM     54  C   UNL A   1      38.457  31.393  31.035  1.00  0.00     0.049 A 
ATOM     55  H   UNL A   1      39.961  30.730  32.315  1.00  0.00     0.167 HD
ATOM     56  C   UNL A   1      43.090  29.151  34.947  1.00  0.00     0.031 A 
ATOM     57  C   UNL A   1      37.796  32.380  31.670  1.00  0.00     0.031 A 
ATOM     58  C   UNL A   1      42.504  30.252  35.665  1.00  0.00     0.049 A 
ATOM     59  C   UNL A   1      38.241  32.785  33.049  1.00  0.00     0.074 A 
ATOM     60  C   UNL A   1      42.865  30.761  36.900  1.00  0.00     0.029 A 
ATOM     61  N   UNL A   1      41.432  31.011  35.217  1.00  0.00    -0.354 N 
ATOM     62  N   UNL A   1      39.219  32.298  33.776  1.00  0.00    -0.248 NA
ATOM     63  C   UNL A   1      37.503  33.883  33.687  1.00  0.00     0.031 C 
ATOM     64  C   UNL A   1      41.973  31.788  37.226  1.00  0.00     0.029 A 
ATOM     65  C   UNL A   1      41.101  31.966  36.163  1.00  0.00     0.049 A 
ATOM     66  H   UNL A   1      40.976  30.888  34.353  1.00  0.00     0.167 HD
ATOM     67  C   UNL A   1      39.231  33.050  34.946  1.00  0.00     0.074 A 
ATOM     68  C   UNL A   1      38.176  34.034  34.820  1.00  0.00     0.031 C 
ATOM     69  C   UNL A   1      40.045  32.937  36.025  1.00  0.00     0.031 A 
BRANCH  56  70
ATOM     70  C   UNL A   1      44.201  28.374  35.606  1.00  0.00    -0.014 A 
ATOM     71  C   UNL A   1      43.926  27.295  36.466  1.00  0.00     0.010 A 
ATOM     72  C   UNL A   1      45.541  28.698  35.328  1.00  0.00     0.010 A 
ATOM     73  C   UNL A   1      44.967  26.582  37.065  1.00  0.00     0.020 A 
ATOM     74  C   UNL A   1      46.586  27.968  35.900  1.00  0.00     0.020 A 
ATOM     75  C   UNL A   1      46.292  26.924  36.779  1.00  0.00     0.054 A 
BRANCH  75  76
ATOM     76  S   UNL A   1      47.623  25.962  37.548  1.00  0.00     0.124 S 
ATOM     77  O   UNL A   1      48.663  26.011  36.522  1.00  0.00    -0.237 OA
ATOM     78  O   UNL A   1      47.905  26.721  38.764  1.00  0.00    -0.237 OA
ATOM     79  O   UNL A   1      47.024  24.648  37.762  1.00  0.00    -0.744 OA
ENDBRANCH  75  76
ENDBRANCH  56  70
BRANCH  57  80
ATOM     80  C   UNL A   1      36.652  33.060  31.001  1.00  0.00    -0.014 A 
ATOM     81  C   UNL A   1      35.358  32.986  31.543  1.00  0.00     0.010 A 
ATOM     82  C   UNL A   1      36.858  33.799  29.821  1.00  0.00     0.010 A 
ATOM     83  C   UNL A   1      34.286  33.621  30.908  1.00  0.00     0.020 A 
ATOM     84  C   UNL A   1      35.795  34.461  29.200  1.00  0.00     0.020 A 
ATOM     85  C   UNL A   1      34.512  34.357  29.741  1.00  0.00     0.054 A 
BRANCH  85  86
ATOM     86  S   UNL A   1      33.115  35.211  28.960  1.00  0.00     0.124 S 
ATOM     87  O   UNL A   1      33.760  36.388  28.386  1.00  0.00    -0.237 OA
ATOM     88  O   UNL A   1      32.634  34.219  28.003  1.00  0.00    -0.237 OA
ATOM     89  O   UNL A   1      32.210  35.476  30.077  1.00  0.00    -0.744 OA
ENDBRANCH  85  86
ENDBRANCH  57  80
BRANCH  69  90
ATOM     90  C   UNL A   1      39.854  33.928  37.144  1.00  0.00    -0.014 A 
ATOM     91  C   UNL A   1      40.420  35.214  37.089  1.00  0.00     0.010 A 
ATOM     92  C   UNL A   1      39.050  33.580  38.246  1.00  0.00     0.010 A 
ATOM     93  C   UNL A   1      40.217  36.120  38.133  1.00  0.00     0.020 A 
ATOM     94  C   UNL A   1      38.817  34.494  39.275  1.00  0.00     0.020 A 
ATOM     95  C   UNL A   1      39.415  35.753  39.220  1.00  0.00     0.054 A 
BRANCH  95  96
ATOM     96  S   UNL A   1      39.135  36.962  40.543  1.00  0.00     0.124 S 
ATOM     97  O   UNL A   1      38.180  36.262  41.398  1.00  0.00    -0.237 OA
ATOM     98  O   UNL A   1      40.472  37.137  41.105  1.00  0.00    -0.237 OA
ATOM     99  O   UNL A   1      38.603  38.128  39.841  1.00  0.00    -0.744 OA
ENDBRANCH  95  96
ENDBRANCH  69  90
ENDBRANCH  43  44
ENDBRANCH  35  38
ENDBRANCH  33  34
ENDBRANCH  32  33
ENDBRANCH  31  32
ENDBRANCH   1  31
TORSDOF 19
ENDMDL
MODEL 3
REMARK VINA RESULT:     -11.8      5.750     10.360
REMARK SMILES C[C@H](C(=O)NCCCCCCNC(=O)c1ccc(-c2c3nc(c(-c4ccc(S(=O)(=O)[O-])cc4)c4ccc([nH]4)c(-c4ccc(S(=O)(=O)[O-])cc4)c4nc(c(-c5ccc(S(=O)(=O)[O-])cc5)c5ccc2[nH]5)C=C4)C=C3)cc1)N1C(=O)C[C@@H](N2C(=O)/C(=C/c3ccccc3)SC2=S)C1=O
REMARK SMILES IDX 8 1 7 2 6 3 5 4 3 5 4 6 2 8 1 9 75 10 76 11 94 12 77 13
REMARK SMILES IDX 78 14 79 15 95 16 80 17 81 18 92 19 82 20 83 21 91 22 93 23
REMARK SMILES IDX 84 24 85 25 86 26 90 27 87 28 89 29 88 30 9 31 10 32 11 33
REMARK SMILES IDX 12 34 13 35 14 37 15 38 16 39 74 40 17 41 73 42 18 43 19 44
REMARK SMILES IDX 20 45 67 46 21 47 72 48 66 49 68 50 22 51 71 52 65 53 64 54
REMARK SMILES IDX 23 56 53 57 34 58 52 59 35 60 38 61 51 62 69 63 36 64 37 65
REMARK SMILES IDX 50 67 70 68 39 69 24 70 25 71 33 72 26 73 32 74 27 75 28 76
REMARK SMILES IDX 29 77 30 78 31 79 54 80 55 81 63 82 56 83 62 84 57 85 58 86
REMARK SMILES IDX 59 87 60 88 61 89 40 90 41 91 49 92 42 93 48 94 43 95 44 96
REMARK SMILES IDX 45 97 46 98 47 99
REMARK H PARENT 5 7 12 36 68 55 38 66
REMARK Flexibility Score: inf
ROOT
ATOM      1  C   UNL A   1      33.468  29.627  27.229  1.00  0.00     0.002 C 
ENDROOT
BRANCH   1   2
ATOM      2  C   UNL A   1      33.803  28.949  25.898  1.00  0.00     0.021 C 
BRANCH   2   3
ATOM      3  C   UNL A   1      33.088  29.566  24.693  1.00  0.00     0.116 C 
BRANCH   3   4
ATOM      4  N   UNL A   1      33.628  29.090  23.438  1.00  0.00    -0.354 N 
ATOM      5  C   UNL A   1      33.384  28.017  22.645  1.00  0.00     0.243 C 
ATOM      6  O   UNL A   1      34.092  27.954  21.629  1.00  0.00    -0.273 OA
ATOM      7  H   UNL A   1      34.332  29.676  23.079  1.00  0.00     0.163 HD
BRANCH   5   8
ATOM      8  C   UNL A   1      32.415  26.848  22.950  1.00  0.00     0.179 C 
ATOM      9  C   UNL A   1      32.268  25.974  21.698  1.00  0.00     0.042 C 
BRANCH   8  10
ATOM     10  N   UNL A   1      32.570  26.050  24.160  1.00  0.00    -0.268 N 
ATOM     11  C   UNL A   1      31.701  26.106  25.217  1.00  0.00     0.232 C 
ATOM     12  C   UNL A   1      33.486  25.053  24.322  1.00  0.00     0.253 C 
ATOM     13  O   UNL A   1      30.760  26.875  25.344  1.00  0.00    -0.274 OA
ATOM     14  C   UNL A   1      32.031  25.019  26.207  1.00  0.00     0.136 C 
ATOM     15  C   UNL A   1      33.413  24.586  25.763  1.00  0.00     0.191 C 
ATOM     16  O   UNL A   1      34.279  24.633  23.496  1.00  0.00    -0.272 OA
BRANCH  15  17
ATOM     17  N   UNL A   1      33.750  23.170  25.791  1.00  0.00    -0.280 N 
ATOM     18  C   UNL A   1      32.732  22.254  25.587  1.00  0.00     0.266 C 
ATOM     19  C   UNL A   1      35.036  22.668  25.800  1.00  0.00     0.149 C 
ATOM     20  O   UNL A   1      31.537  22.520  25.551  1.00  0.00    -0.268 OA
ATOM     21  C   UNL A   1      33.293  20.908  25.348  1.00  0.00     0.081 C 
ATOM     22  S   UNL A   1      34.990  20.922  25.599  1.00  0.00    -0.054 SA
ATOM     23  S   UNL A   1      36.465  23.511  25.964  1.00  0.00    -0.052 S 
ATOM     24  C   UNL A   1      32.512  19.902  24.938  1.00  0.00     0.029 C 
BRANCH  24  25
ATOM     25  C   UNL A   1      32.936  18.516  24.742  1.00  0.00    -0.024 A 
ATOM     26  C   UNL A   1      33.561  18.122  23.555  1.00  0.00     0.008 A 
ATOM     27  C   UNL A   1      32.645  17.558  25.720  1.00  0.00     0.008 A 
ATOM     28  C   UNL A   1      33.897  16.781  23.356  1.00  0.00     0.001 A 
ATOM     29  C   UNL A   1      32.984  16.222  25.521  1.00  0.00     0.001 A 
ATOM     30  C   UNL A   1      33.606  15.834  24.337  1.00  0.00     0.000 A 
ENDBRANCH  24  25
ENDBRANCH  15  17
ENDBRANCH   8  10
ENDBRANCH   5   8
ENDBRANCH   3   4
ENDBRANCH   2   3
ENDBRANCH   1   2
BRANCH   1  31
ATOM     31  C   UNL A   1      33.508  31.159  27.194  1.00  0.00     0.002 C 
BRANCH  31  32
ATOM     32  C   UNL A   1      34.712  31.796  27.895  1.00  0.00     0.021 C 
BRANCH  32  33
ATOM     33  C   UNL A   1      35.802  30.806  28.300  1.00  0.00     0.116 C 
BRANCH  33  34
ATOM     34  N   UNL A   1      35.756  30.524  29.728  1.00  0.00    -0.352 N 
ATOM     35  C   UNL A   1      36.657  29.850  30.513  1.00  0.00     0.251 C 
ATOM     36  H   UNL A   1      34.963  30.868  30.199  1.00  0.00     0.163 HD
ATOM     37  O   UNL A   1      36.321  29.455  31.626  1.00  0.00    -0.269 OA
BRANCH  35  38
ATOM     38  C   UNL A   1      38.027  29.605  30.018  1.00  0.00     0.039 A 
ATOM     39  C   UNL A   1      39.043  29.328  30.935  1.00  0.00     0.014 A 
ATOM     40  C   UNL A   1      38.314  29.684  28.652  1.00  0.00     0.014 A 
ATOM     41  C   UNL A   1      40.340  29.087  30.476  1.00  0.00     0.010 A 
ATOM     42  C   UNL A   1      39.588  29.366  28.192  1.00  0.00     0.010 A 
ATOM     43  C   UNL A   1      40.616  29.078  29.099  1.00  0.00    -0.014 A 
BRANCH  43  44
ATOM     44  C   UNL A   1      41.979  28.776  28.592  1.00  0.00     0.031 A 
ATOM     45  C   UNL A   1      42.326  27.384  28.134  1.00  0.00     0.074 A 
ATOM     46  C   UNL A   1      42.918  29.743  28.596  1.00  0.00     0.049 A 
ATOM     47  N   UNL A   1      43.469  26.921  27.698  1.00  0.00    -0.248 NA
ATOM     48  C   UNL A   1      41.255  26.375  28.194  1.00  0.00     0.031 C 
ATOM     49  C   UNL A   1      42.714  31.119  29.055  1.00  0.00     0.029 A 
ATOM     50  N   UNL A   1      44.233  29.715  28.205  1.00  0.00    -0.354 N 
ATOM     51  C   UNL A   1      43.260  25.570  27.450  1.00  0.00     0.074 A 
ATOM     52  C   UNL A   1      41.897  25.275  27.831  1.00  0.00     0.031 C 
ATOM     53  C   UNL A   1      43.853  31.810  28.891  1.00  0.00     0.029 A 
ATOM     54  C   UNL A   1      44.879  30.919  28.359  1.00  0.00     0.049 A 
ATOM     55  H   UNL A   1      44.673  28.910  27.848  1.00  0.00     0.167 HD
ATOM     56  C   UNL A   1      44.121  24.660  26.931  1.00  0.00     0.031 A 
ATOM     57  C   UNL A   1      46.156  31.266  28.109  1.00  0.00     0.031 A 
ATOM     58  C   UNL A   1      45.475  24.962  26.549  1.00  0.00     0.049 A 
ATOM     59  C   UNL A   1      47.096  30.235  27.547  1.00  0.00     0.074 A 
ATOM     60  C   UNL A   1      46.409  24.125  25.965  1.00  0.00     0.029 A 
ATOM     61  N   UNL A   1      46.090  26.194  26.716  1.00  0.00    -0.354 N 
ATOM     62  N   UNL A   1      46.860  28.978  27.253  1.00  0.00    -0.248 NA
ATOM     63  C   UNL A   1      48.471  30.673  27.269  1.00  0.00     0.031 C 
ATOM     64  C   UNL A   1      47.608  24.833  25.836  1.00  0.00     0.029 A 
ATOM     65  C   UNL A   1      47.400  26.133  26.273  1.00  0.00     0.049 A 
ATOM     66  H   UNL A   1      45.658  26.994  27.095  1.00  0.00     0.167 HD
ATOM     67  C   UNL A   1      48.049  28.483  26.728  1.00  0.00     0.074 A 
ATOM     68  C   UNL A   1      48.994  29.580  26.729  1.00  0.00     0.031 C 
ATOM     69  C   UNL A   1      48.331  27.233  26.283  1.00  0.00     0.031 A 
BRANCH  56  70
ATOM     70  C   UNL A   1      43.624  23.247  26.756  1.00  0.00    -0.014 A 
ATOM     71  C   UNL A   1      43.752  22.577  25.525  1.00  0.00     0.010 A 
ATOM     72  C   UNL A   1      43.062  22.563  27.848  1.00  0.00     0.010 A 
ATOM     73  C   UNL A   1      43.291  21.266  25.380  1.00  0.00     0.020 A 
ATOM     74  C   UNL A   1      42.628  21.241  27.717  1.00  0.00     0.020 A 
ATOM     75  C   UNL A   1      42.731  20.606  26.478  1.00  0.00     0.054 A 
BRANCH  75  76
ATOM     76  S   UNL A   1      42.168  18.894  26.268  1.00  0.00     0.124 S 
ATOM     77  O   UNL A   1      40.791  19.084  25.813  1.00  0.00    -0.237 OA
ATOM     78  O   UNL A   1      43.094  18.374  25.265  1.00  0.00    -0.237 OA
ATOM     79  O   UNL A   1      42.307  18.316  27.601  1.00  0.00    -0.744 OA
ENDBRANCH  75  76
ENDBRANCH  56  70
BRANCH  57  80
ATOM     80  C   UNL A   1      46.615  32.658  28.377  1.00  0.00    -0.014 A 
ATOM     81  C   UNL A   1      47.175  33.002  29.619  1.00  0.00     0.010 A 
ATOM     82  C   UNL A   1      46.504  33.646  27.381  1.00  0.00     0.010 A 
ATOM     83  C   UNL A   1      47.598  34.311  29.868  1.00  0.00     0.020 A 
ATOM     84  C   UNL A   1      46.953  34.949  27.615  1.00  0.00     0.020 A 
ATOM     85  C   UNL A   1      47.487  35.277  28.862  1.00  0.00     0.054 A 
BRANCH  85  86
ATOM     86  S   UNL A   1      48.085  36.957  29.193  1.00  0.00     0.124 S 
ATOM     87  O   UNL A   1      47.059  37.776  28.555  1.00  0.00    -0.237 OA
ATOM     88  O   UNL A   1      48.116  36.999  30.652  1.00  0.00    -0.237 OA
ATOM     89  O   UNL A   1      49.397  36.985  28.549  1.00  0.00    -0.744 OA
ENDBRANCH  85  86
ENDBRANCH  57  80
BRANCH  69  90
ATOM     90  C   UNL A   1      49.708  26.991  25.723  1.00  0.00    -0.014 A 
ATOM     91  C   UNL A   1      50.002  27.235  24.369  1.00  0.00     0.010 A 
ATOM     92  C   UNL A   1      50.738  26.559  26.580  1.00  0.00     0.010 A 
ATOM     93  C   UNL A   1      51.291  27.016  23.876  1.00  0.00     0.020 A 
ATOM     94  C   UNL A   1      52.035  26.371  26.099  1.00  0.00     0.020 A 
ATOM     95  C   UNL A   1      52.300  26.586  24.746  1.00  0.00     0.054 A 
BRANCH  95  96
ATOM     96  S   UNL A   1      53.973  26.347  24.088  1.00  0.00     0.124 S 
ATOM     97  O   UNL A   1      53.727  26.265  22.651  1.00  0.00    -0.237 OA
ATOM     98  O   UNL A   1      54.669  27.550  24.539  1.00  0.00    -0.237 OA
ATOM     99  O   UNL A   1      54.419  25.105  24.716  1.00  0.00    -0.744 OA
ENDBRANCH  95  96
ENDBRANCH  69  90
ENDBRANCH  43  44
ENDBRANCH  35  38
ENDBRANCH  33  34
ENDBRANCH  32  33
ENDBRANCH  31  32
ENDBRANCH   1  31
TORSDOF 19
ENDMDL
