MODEL 1
REMARK VINA RESULT:     -12.3      0.000      0.000
REMARK SMILES Cc1cc(C)n(CC(=O)N[C@@H]2C(=O)N3C(C(=O)NCCCCCCNC(=O)c4ccc(-c5c6nc(c(-c7ccc(S(=O)(=O)[O-])cc7)c7ccc([nH]7)c(-c7ccc(S(=O)(=O)[O-])cc7)c7nc(c(-c8ccc(S(=O)(=O)[O-])cc8)c8ccc5[nH]8)C=C7)C=C6)cc4)=C(CSc4nnc(C)s4)CS[C@H]23)n1
REMARK SMILES IDX 21 1 20 2 19 3 18 4 16 5 17 6 15 8 11 9 12 10 99 11 13 12
REMARK SMILES IDX 14 13 98 14 97 15 88 16 10 17 8 18 9 19 7 21 6 22 1 23 2 24
REMARK SMILES IDX 3 25 100 26 4 27 5 28 89 29 90 30 91 31 92 32 96 33 93 34
REMARK SMILES IDX 94 35 95 36 22 37 23 38 24 39 25 40 26 41 27 43 28 44 29 45
REMARK SMILES IDX 87 46 30 47 86 48 31 49 32 50 33 51 80 52 34 53 85 54 79 55
REMARK SMILES IDX 81 56 35 57 84 58 78 59 77 60 36 62 66 63 47 64 65 65 48 66
REMARK SMILES IDX 51 67 64 68 82 69 49 70 50 71 63 73 83 74 52 75 37 76 38 77
REMARK SMILES IDX 46 78 39 79 45 80 40 81 41 82 42 83 43 84 44 85 67 86 68 87
REMARK SMILES IDX 76 88 69 89 75 90 70 91 71 92 72 93 73 94 74 95 53 96 54 97
REMARK SMILES IDX 62 98 55 99 61 100 56 101 57 102 58 103 59 104 60 105
REMARK H PARENT 18 7 10 20 25 42 81 61 51 72
REMARK Flexibility Score: inf
ROOT
ATOM      1  C   UNL A   1      38.386  24.142  26.494  1.00  0.00     0.002 C 
ENDROOT
BRANCH   1   2
ATOM      2  C   UNL A   1      37.016  23.640  26.066  1.00  0.00     0.021 C 
BRANCH   2   3
ATOM      3  C   UNL A   1      36.950  22.252  25.435  1.00  0.00     0.116 C 
BRANCH   3   4
ATOM      4  N   UNL A   1      36.387  22.292  24.109  1.00  0.00    -0.351 N 
ATOM      5  C   UNL A   1      35.235  22.691  23.536  1.00  0.00     0.268 C 
ATOM      6  O   UNL A   1      35.431  23.072  22.370  1.00  0.00    -0.268 OA
ATOM      7  H   UNL A   1      37.012  21.929  23.441  1.00  0.00     0.163 HD
BRANCH   5   8
ATOM      8  C   UNL A   1      33.818  22.805  24.123  1.00  0.00     0.111 C 
ATOM      9  C   UNL A   1      32.667  26.053  24.716  1.00  0.00     0.205 C 
ATOM     10  C   UNL A   1      33.574  25.341  23.636  1.00  0.00     0.253 C 
ATOM     11  C   UNL A   1      32.419  24.601  25.171  1.00  0.00     0.181 C 
ATOM     12  O   UNL A   1      34.070  25.691  22.572  1.00  0.00    -0.272 OA
ATOM     13  N   UNL A   1      33.479  24.160  24.305  1.00  0.00    -0.290 N 
ATOM     14  S   UNL A   1      30.944  23.823  24.456  1.00  0.00    -0.129 SA
ATOM     15  C   UNL A   1      31.520  22.273  25.089  1.00  0.00     0.106 C 
ATOM     16  C   UNL A   1      32.882  21.865  24.512  1.00  0.00    -0.020 C 
BRANCH   9  17
ATOM     17  N   UNL A   1      31.433  26.791  24.298  1.00  0.00    -0.340 N 
ATOM     18  C   UNL A   1      31.265  28.155  24.178  1.00  0.00     0.242 C 
ATOM     19  O   UNL A   1      30.121  28.582  23.995  1.00  0.00    -0.273 OA
ATOM     20  H   UNL A   1      30.650  26.236  24.082  1.00  0.00     0.164 HD
BRANCH  18  21
ATOM     21  C   UNL A   1      32.449  29.106  24.136  1.00  0.00     0.244 C 
BRANCH  21  22
ATOM     22  N   UNL A   1      32.948  29.639  25.401  1.00  0.00    -0.260 N 
ATOM     23  C   UNL A   1      35.390  29.285  27.960  1.00  0.00     0.069 C 
ATOM     24  C   UNL A   1      34.313  29.738  27.042  1.00  0.00     0.060 A 
ATOM     25  C   UNL A   1      33.323  30.706  27.289  1.00  0.00     0.048 A 
ATOM     26  N   UNL A   1      34.130  29.140  25.859  1.00  0.00    -0.178 NA
ATOM     27  C   UNL A   1      32.442  30.617  26.227  1.00  0.00     0.036 A 
ATOM     28  C   UNL A   1      31.133  31.301  26.055  1.00  0.00     0.066 C 
ENDBRANCH  21  22
ENDBRANCH  18  21
ENDBRANCH   9  17
BRANCH  16  29
ATOM     29  C   UNL A   1      32.876  20.355  24.626  1.00  0.00     0.111 C 
BRANCH  29  30
ATOM     30  S   UNL A   1      34.386  19.432  24.755  1.00  0.00    -0.089 SA
BRANCH  30  31
ATOM     31  C   UNL A   1      34.028  17.753  24.725  1.00  0.00     0.174 A 
ATOM     32  N   UNL A   1      34.910  16.805  24.545  1.00  0.00    -0.132 NA
ATOM     33  S   UNL A   1      32.418  17.213  24.937  1.00  0.00    -0.091 S 
ATOM     34  N   UNL A   1      34.357  15.564  24.802  1.00  0.00    -0.143 NA
ATOM     35  C   UNL A   1      33.088  15.650  25.151  1.00  0.00     0.115 A 
ATOM     36  C   UNL A   1      32.266  14.590  25.781  1.00  0.00     0.081 C 
ENDBRANCH  30  31
ENDBRANCH  29  30
ENDBRANCH  16  29
ENDBRANCH   5   8
ENDBRANCH   3   4
ENDBRANCH   2   3
ENDBRANCH   1   2
BRANCH   1  37
ATOM     37  C   UNL A   1      39.377  23.034  26.877  1.00  0.00     0.002 C 
BRANCH  37  38
ATOM     38  C   UNL A   1      40.535  23.421  27.813  1.00  0.00     0.021 C 
BRANCH  38  39
ATOM     39  C   UNL A   1      41.692  22.438  27.802  1.00  0.00     0.116 C 
BRANCH  39  40
ATOM     40  N   UNL A   1      42.508  22.531  26.587  1.00  0.00    -0.352 N 
ATOM     41  C   UNL A   1      42.752  23.629  25.779  1.00  0.00     0.251 C 
ATOM     42  H   UNL A   1      42.945  21.694  26.307  1.00  0.00     0.163 HD
ATOM     43  O   UNL A   1      43.204  23.489  24.650  1.00  0.00    -0.269 OA
BRANCH  41  44
ATOM     44  C   UNL A   1      42.467  24.968  26.320  1.00  0.00     0.039 A 
ATOM     45  C   UNL A   1      41.508  25.829  25.778  1.00  0.00     0.014 A 
ATOM     46  C   UNL A   1      43.193  25.340  27.440  1.00  0.00     0.014 A 
ATOM     47  C   UNL A   1      41.282  27.050  26.415  1.00  0.00     0.010 A 
ATOM     48  C   UNL A   1      42.760  26.368  28.213  1.00  0.00     0.010 A 
ATOM     49  C   UNL A   1      41.929  27.305  27.633  1.00  0.00    -0.014 A 
BRANCH  49  50
ATOM     50  C   UNL A   1      41.776  28.539  28.383  1.00  0.00     0.031 A 
ATOM     51  C   UNL A   1      42.811  29.558  28.102  1.00  0.00     0.074 A 
ATOM     52  C   UNL A   1      40.630  28.834  29.040  1.00  0.00     0.049 A 
ATOM     53  N   UNL A   1      43.770  29.938  28.875  1.00  0.00    -0.248 NA
ATOM     54  C   UNL A   1      42.882  30.110  26.739  1.00  0.00     0.031 C 
ATOM     55  C   UNL A   1      39.367  28.075  29.101  1.00  0.00     0.029 A 
ATOM     56  N   UNL A   1      40.309  29.970  29.705  1.00  0.00    -0.354 N 
ATOM     57  C   UNL A   1      44.427  30.952  28.187  1.00  0.00     0.074 A 
ATOM     58  C   UNL A   1      43.982  30.861  26.818  1.00  0.00     0.031 C 
ATOM     59  C   UNL A   1      38.370  28.877  29.544  1.00  0.00     0.029 A 
ATOM     60  C   UNL A   1      38.957  30.124  29.993  1.00  0.00     0.049 A 
ATOM     61  H   UNL A   1      40.985  30.637  29.966  1.00  0.00     0.167 HD
ATOM     62  C   UNL A   1      45.074  31.955  28.843  1.00  0.00     0.031 A 
ATOM     63  C   UNL A   1      38.372  31.212  30.556  1.00  0.00     0.031 A 
ATOM     64  C   UNL A   1      45.221  31.664  30.249  1.00  0.00     0.049 A 
ATOM     65  C   UNL A   1      39.449  31.988  31.212  1.00  0.00     0.074 A 
ATOM     66  C   UNL A   1      45.832  30.659  30.974  1.00  0.00     0.029 A 
ATOM     67  N   UNL A   1      44.306  32.238  31.103  1.00  0.00    -0.354 N 
ATOM     68  N   UNL A   1      40.130  31.535  32.228  1.00  0.00    -0.248 NA
ATOM     69  C   UNL A   1      40.101  33.034  30.439  1.00  0.00     0.031 C 
ATOM     70  C   UNL A   1      44.917  30.360  32.027  1.00  0.00     0.029 A 
ATOM     71  C   UNL A   1      43.843  31.248  31.935  1.00  0.00     0.049 A 
ATOM     72  H   UNL A   1      44.034  33.183  31.114  1.00  0.00     0.167 HD
ATOM     73  C   UNL A   1      41.440  31.914  31.976  1.00  0.00     0.074 A 
ATOM     74  C   UNL A   1      41.347  32.908  30.906  1.00  0.00     0.031 C 
ATOM     75  C   UNL A   1      42.492  31.185  32.454  1.00  0.00     0.031 A 
BRANCH  62  76
ATOM     76  C   UNL A   1      45.206  33.355  28.301  1.00  0.00    -0.014 A 
ATOM     77  C   UNL A   1      46.470  33.975  28.315  1.00  0.00     0.010 A 
ATOM     78  C   UNL A   1      44.092  34.175  28.024  1.00  0.00     0.010 A 
ATOM     79  C   UNL A   1      46.603  35.356  28.121  1.00  0.00     0.020 A 
ATOM     80  C   UNL A   1      44.217  35.543  27.784  1.00  0.00     0.020 A 
ATOM     81  C   UNL A   1      45.470  36.132  27.870  1.00  0.00     0.054 A 
BRANCH  81  82
ATOM     82  S   UNL A   1      45.637  37.928  27.734  1.00  0.00     0.124 S 
ATOM     83  O   UNL A   1      46.550  38.060  26.604  1.00  0.00    -0.237 OA
ATOM     84  O   UNL A   1      44.259  38.347  27.491  1.00  0.00    -0.237 OA
ATOM     85  O   UNL A   1      46.182  38.320  29.031  1.00  0.00    -0.744 OA
ENDBRANCH  81  82
ENDBRANCH  62  76
BRANCH  63  86
ATOM     86  C   UNL A   1      37.108  31.854  30.128  1.00  0.00    -0.014 A 
ATOM     87  C   UNL A   1      35.988  31.957  30.970  1.00  0.00     0.010 A 
ATOM     88  C   UNL A   1      37.130  32.639  28.959  1.00  0.00     0.010 A 
ATOM     89  C   UNL A   1      34.908  32.795  30.634  1.00  0.00     0.020 A 
ATOM     90  C   UNL A   1      36.086  33.518  28.653  1.00  0.00     0.020 A 
ATOM     91  C   UNL A   1      34.966  33.575  29.476  1.00  0.00     0.054 A 
BRANCH  91  92
ATOM     92  S   UNL A   1      33.549  34.620  29.017  1.00  0.00     0.124 S 
ATOM     93  O   UNL A   1      32.824  33.767  28.079  1.00  0.00    -0.237 OA
ATOM     94  O   UNL A   1      32.899  34.852  30.302  1.00  0.00    -0.237 OA
ATOM     95  O   UNL A   1      34.171  35.794  28.410  1.00  0.00    -0.744 OA
ENDBRANCH  91  92
ENDBRANCH  63  86
BRANCH  75  96
ATOM     96  C   UNL A   1      42.196  30.081  33.448  1.00  0.00    -0.014 A 
ATOM     97  C   UNL A   1      41.714  28.804  33.088  1.00  0.00     0.010 A 
ATOM     98  C   UNL A   1      42.554  30.301  34.788  1.00  0.00     0.010 A 
ATOM     99  C   UNL A   1      41.568  27.790  34.050  1.00  0.00     0.020 A 
ATOM    100  C   UNL A   1      42.426  29.293  35.746  1.00  0.00     0.020 A 
ATOM    101  C   UNL A   1      41.925  28.045  35.377  1.00  0.00     0.054 A 
BRANCH 101 102
ATOM    102  S   UNL A   1      41.765  26.728  36.618  1.00  0.00     0.124 S 
ATOM    103  O   UNL A   1      41.673  25.524  35.795  1.00  0.00    -0.237 OA
ATOM    104  O   UNL A   1      42.992  26.865  37.399  1.00  0.00    -0.237 OA
ATOM    105  O   UNL A   1      40.540  27.077  37.339  1.00  0.00    -0.744 OA
ENDBRANCH 101 102
ENDBRANCH  75  96
ENDBRANCH  49  50
ENDBRANCH  41  44
ENDBRANCH  39  40
ENDBRANCH  38  39
ENDBRANCH  37  38
ENDBRANCH   1  37
TORSDOF 22
ENDMDL
MODEL 2
REMARK VINA RESULT:     -10.3      1.487      2.070
REMARK SMILES Cc1cc(C)n(CC(=O)N[C@@H]2C(=O)N3C(C(=O)NCCCCCCNC(=O)c4ccc(-c5c6nc(c(-c7ccc(S(=O)(=O)[O-])cc7)c7ccc([nH]7)c(-c7ccc(S(=O)(=O)[O-])cc7)c7nc(c(-c8ccc(S(=O)(=O)[O-])cc8)c8ccc5[nH]8)C=C7)C=C6)cc4)=C(CSc4nnc(C)s4)CS[C@H]23)n1
REMARK SMILES IDX 21 1 20 2 19 3 18 4 16 5 17 6 15 8 11 9 12 10 99 11 13 12
REMARK SMILES IDX 14 13 98 14 97 15 88 16 10 17 8 18 9 19 7 21 6 22 1 23 2 24
REMARK SMILES IDX 3 25 100 26 4 27 5 28 89 29 90 30 91 31 92 32 96 33 93 34
REMARK SMILES IDX 94 35 95 36 22 37 23 38 24 39 25 40 26 41 27 43 28 44 29 45
REMARK SMILES IDX 87 46 30 47 86 48 31 49 32 50 33 51 80 52 34 53 85 54 79 55
REMARK SMILES IDX 81 56 35 57 84 58 78 59 77 60 36 62 66 63 47 64 65 65 48 66
REMARK SMILES IDX 51 67 64 68 82 69 49 70 50 71 63 73 83 74 52 75 37 76 38 77
REMARK SMILES IDX 46 78 39 79 45 80 40 81 41 82 42 83 43 84 44 85 67 86 68 87
REMARK SMILES IDX 76 88 69 89 75 90 70 91 71 92 72 93 73 94 74 95 53 96 54 97
REMARK SMILES IDX 62 98 55 99 61 100 56 101 57 102 58 103 59 104 60 105
REMARK H PARENT 18 7 10 20 25 42 81 61 51 72
REMARK Flexibility Score: inf
ROOT
ATOM      1  C   UNL A   1      38.426  24.190  26.579  1.00  0.00     0.002 C 
ENDROOT
BRANCH   1   2
ATOM      2  C   UNL A   1      37.085  23.748  26.014  1.00  0.00     0.021 C 
BRANCH   2   3
ATOM      3  C   UNL A   1      37.014  22.350  25.407  1.00  0.00     0.116 C 
BRANCH   3   4
ATOM      4  N   UNL A   1      36.351  22.355  24.126  1.00  0.00    -0.351 N 
ATOM      5  C   UNL A   1      35.169  22.762  23.627  1.00  0.00     0.268 C 
ATOM      6  O   UNL A   1      35.283  23.094  22.436  1.00  0.00    -0.268 OA
ATOM      7  H   UNL A   1      36.915  21.951  23.428  1.00  0.00     0.163 HD
BRANCH   5   8
ATOM      8  C   UNL A   1      33.803  22.934  24.315  1.00  0.00     0.111 C 
ATOM      9  C   UNL A   1      32.674  26.225  24.663  1.00  0.00     0.205 C 
ATOM     10  C   UNL A   1      33.495  25.406  23.591  1.00  0.00     0.253 C 
ATOM     11  C   UNL A   1      32.479  24.828  25.285  1.00  0.00     0.181 C 
ATOM     12  O   UNL A   1      33.899  25.644  22.459  1.00  0.00    -0.272 OA
ATOM     13  N   UNL A   1      33.468  24.300  24.384  1.00  0.00    -0.290 N 
ATOM     14  S   UNL A   1      30.958  23.979  24.779  1.00  0.00    -0.129 SA
ATOM     15  C   UNL A   1      31.599  22.503  25.519  1.00  0.00     0.106 C 
ATOM     16  C   UNL A   1      32.913  22.039  24.876  1.00  0.00    -0.020 C 
BRANCH   9  17
ATOM     17  N   UNL A   1      31.403  26.914  24.275  1.00  0.00    -0.340 N 
ATOM     18  C   UNL A   1      31.173  28.271  24.180  1.00  0.00     0.242 C 
ATOM     19  O   UNL A   1      30.009  28.650  24.021  1.00  0.00    -0.273 OA
ATOM     20  H   UNL A   1      30.641  26.329  24.062  1.00  0.00     0.164 HD
BRANCH  18  21
ATOM     21  C   UNL A   1      32.313  29.274  24.137  1.00  0.00     0.244 C 
BRANCH  21  22
ATOM     22  N   UNL A   1      32.832  29.781  25.405  1.00  0.00    -0.260 N 
ATOM     23  C   UNL A   1      35.294  29.353  27.933  1.00  0.00     0.069 C 
ATOM     24  C   UNL A   1      34.215  29.835  27.034  1.00  0.00     0.060 A 
ATOM     25  C   UNL A   1      33.240  30.813  27.306  1.00  0.00     0.048 A 
ATOM     26  N   UNL A   1      34.012  29.258  25.843  1.00  0.00    -0.178 NA
ATOM     27  C   UNL A   1      32.349  30.753  26.251  1.00  0.00     0.036 A 
ATOM     28  C   UNL A   1      31.047  31.458  26.103  1.00  0.00     0.066 C 
ENDBRANCH  21  22
ENDBRANCH  18  21
ENDBRANCH   9  17
BRANCH  16  29
ATOM     29  C   UNL A   1      32.930  20.549  25.146  1.00  0.00     0.111 C 
BRANCH  29  30
ATOM     30  S   UNL A   1      34.358  19.561  24.779  1.00  0.00    -0.089 SA
BRANCH  30  31
ATOM     31  C   UNL A   1      33.876  17.927  24.566  1.00  0.00     0.174 A 
ATOM     32  N   UNL A   1      34.505  17.053  23.823  1.00  0.00    -0.132 NA
ATOM     33  S   UNL A   1      32.478  17.332  25.354  1.00  0.00    -0.091 S 
ATOM     34  N   UNL A   1      34.012  15.780  24.038  1.00  0.00    -0.143 NA
ATOM     35  C   UNL A   1      33.033  15.770  24.923  1.00  0.00     0.115 A 
ATOM     36  C   UNL A   1      32.477  14.585  25.618  1.00  0.00     0.081 C 
ENDBRANCH  30  31
ENDBRANCH  29  30
ENDBRANCH  16  29
ENDBRANCH   5   8
ENDBRANCH   3   4
ENDBRANCH   2   3
ENDBRANCH   1   2
BRANCH   1  37
ATOM     37  C   UNL A   1      39.551  23.158  26.424  1.00  0.00     0.002 C 
BRANCH  37  38
ATOM     38  C   UNL A   1      40.566  23.049  27.576  1.00  0.00     0.021 C 
BRANCH  38  39
ATOM     39  C   UNL A   1      41.521  21.875  27.448  1.00  0.00     0.116 C 
BRANCH  39  40
ATOM     40  N   UNL A   1      42.323  21.923  26.222  1.00  0.00    -0.352 N 
ATOM     41  C   UNL A   1      42.821  23.023  25.546  1.00  0.00     0.251 C 
ATOM     42  H   UNL A   1      42.538  21.049  25.823  1.00  0.00     0.163 HD
ATOM     43  O   UNL A   1      43.215  22.925  24.390  1.00  0.00    -0.269 OA
BRANCH  41  44
ATOM     44  C   UNL A   1      42.880  24.310  26.257  1.00  0.00     0.039 A 
ATOM     45  C   UNL A   1      42.248  25.471  25.804  1.00  0.00     0.014 A 
ATOM     46  C   UNL A   1      43.589  24.316  27.449  1.00  0.00     0.014 A 
ATOM     47  C   UNL A   1      42.322  26.617  26.597  1.00  0.00     0.010 A 
ATOM     48  C   UNL A   1      43.400  25.321  28.341  1.00  0.00     0.010 A 
ATOM     49  C   UNL A   1      42.914  26.523  27.865  1.00  0.00    -0.014 A 
BRANCH  49  50
ATOM     50  C   UNL A   1      43.053  27.645  28.775  1.00  0.00     0.031 A 
ATOM     51  C   UNL A   1      44.205  28.528  28.487  1.00  0.00     0.074 A 
ATOM     52  C   UNL A   1      42.052  28.011  29.610  1.00  0.00     0.049 A 
ATOM     53  N   UNL A   1      45.294  28.646  29.167  1.00  0.00    -0.248 NA
ATOM     54  C   UNL A   1      44.214  29.251  27.205  1.00  0.00     0.031 C 
ATOM     55  C   UNL A   1      40.695  27.449  29.743  1.00  0.00     0.029 A 
ATOM     56  N   UNL A   1      42.000  29.076  30.446  1.00  0.00    -0.354 N 
ATOM     57  C   UNL A   1      46.029  29.637  28.528  1.00  0.00     0.074 A 
ATOM     58  C   UNL A   1      45.426  29.810  27.229  1.00  0.00     0.031 C 
ATOM     59  C   UNL A   1      39.901  28.320  30.410  1.00  0.00     0.029 A 
ATOM     60  C   UNL A   1      40.733  29.388  30.927  1.00  0.00     0.049 A 
ATOM     61  H   UNL A   1      42.802  29.590  30.696  1.00  0.00     0.167 HD
ATOM     62  C   UNL A   1      46.903  30.428  29.211  1.00  0.00     0.031 A 
ATOM     63  C   UNL A   1      40.403  30.460  31.693  1.00  0.00     0.031 A 
ATOM     64  C   UNL A   1      47.155  29.920  30.538  1.00  0.00     0.049 A 
ATOM     65  C   UNL A   1      41.661  30.964  32.290  1.00  0.00     0.074 A 
ATOM     66  C   UNL A   1      47.668  28.743  31.046  1.00  0.00     0.029 A 
ATOM     67  N   UNL A   1      46.448  30.497  31.570  1.00  0.00    -0.354 N 
ATOM     68  N   UNL A   1      42.365  30.274  33.143  1.00  0.00    -0.248 NA
ATOM     69  C   UNL A   1      42.387  32.000  31.573  1.00  0.00     0.031 C 
ATOM     70  C   UNL A   1      46.838  28.436  32.167  1.00  0.00     0.029 A 
ATOM     71  C   UNL A   1      45.924  29.479  32.328  1.00  0.00     0.049 A 
ATOM     72  H   UNL A   1      46.340  31.461  31.734  1.00  0.00     0.167 HD
ATOM     73  C   UNL A   1      43.684  30.485  32.769  1.00  0.00     0.074 A 
ATOM     74  C   UNL A   1      43.639  31.624  31.851  1.00  0.00     0.031 C 
ATOM     75  C   UNL A   1      44.647  29.546  33.010  1.00  0.00     0.031 A 
BRANCH  62  76
ATOM     76  C   UNL A   1      47.204  31.855  28.833  1.00  0.00    -0.014 A 
ATOM     77  C   UNL A   1      46.229  32.843  29.069  1.00  0.00     0.010 A 
ATOM     78  C   UNL A   1      48.298  32.215  28.017  1.00  0.00     0.010 A 
ATOM     79  C   UNL A   1      46.316  34.106  28.470  1.00  0.00     0.020 A 
ATOM     80  C   UNL A   1      48.418  33.485  27.453  1.00  0.00     0.020 A 
ATOM     81  C   UNL A   1      47.407  34.413  27.654  1.00  0.00     0.054 A 
BRANCH  81  82
ATOM     82  S   UNL A   1      47.454  36.004  26.795  1.00  0.00     0.124 S 
ATOM     83  O   UNL A   1      46.762  36.874  27.738  1.00  0.00    -0.237 OA
ATOM     84  O   UNL A   1      48.889  36.233  26.652  1.00  0.00    -0.237 OA
ATOM     85  O   UNL A   1      46.744  35.738  25.546  1.00  0.00    -0.744 OA
ENDBRANCH  81  82
ENDBRANCH  62  76
BRANCH  63  86
ATOM     86  C   UNL A   1      39.224  31.338  31.519  1.00  0.00    -0.014 A 
ATOM     87  C   UNL A   1      39.291  32.571  30.849  1.00  0.00     0.010 A 
ATOM     88  C   UNL A   1      37.951  30.789  31.768  1.00  0.00     0.010 A 
ATOM     89  C   UNL A   1      38.117  33.251  30.471  1.00  0.00     0.020 A 
ATOM     90  C   UNL A   1      36.785  31.433  31.340  1.00  0.00     0.020 A 
ATOM     91  C   UNL A   1      36.869  32.674  30.718  1.00  0.00     0.054 A 
BRANCH  91  92
ATOM     92  S   UNL A   1      35.351  33.576  30.274  1.00  0.00     0.124 S 
ATOM     93  O   UNL A   1      34.356  32.507  30.228  1.00  0.00    -0.237 OA
ATOM     94  O   UNL A   1      35.217  34.525  31.372  1.00  0.00    -0.237 OA
ATOM     95  O   UNL A   1      35.669  34.163  28.975  1.00  0.00    -0.744 OA
ENDBRANCH  91  92
ENDBRANCH  63  86
BRANCH  75  96
ATOM     96  C   UNL A   1      44.285  28.367  33.891  1.00  0.00    -0.014 A 
ATOM     97  C   UNL A   1      44.116  28.451  35.290  1.00  0.00     0.010 A 
ATOM     98  C   UNL A   1      43.968  27.156  33.256  1.00  0.00     0.010 A 
ATOM     99  C   UNL A   1      43.670  27.343  36.030  1.00  0.00     0.020 A 
ATOM    100  C   UNL A   1      43.510  26.055  33.984  1.00  0.00     0.020 A 
ATOM    101  C   UNL A   1      43.371  26.149  35.368  1.00  0.00     0.054 A 
BRANCH 101 102
ATOM    102  S   UNL A   1      42.768  24.723  36.319  1.00  0.00     0.124 S 
ATOM    103  O   UNL A   1      42.844  23.637  35.347  1.00  0.00    -0.237 OA
ATOM    104  O   UNL A   1      43.718  24.645  37.426  1.00  0.00    -0.237 OA
ATOM    105  O   UNL A   1      41.411  25.112  36.705  1.00  0.00    -0.744 OA
ENDBRANCH 101 102
ENDBRANCH  75  96
ENDBRANCH  49  50
ENDBRANCH  41  44
ENDBRANCH  39  40
ENDBRANCH  38  39
ENDBRANCH  37  38
ENDBRANCH   1  37
TORSDOF 22
ENDMDL
MODEL 3
REMARK VINA RESULT:     -10.2      5.469     11.458
REMARK SMILES Cc1cc(C)n(CC(=O)N[C@@H]2C(=O)N3C(C(=O)NCCCCCCNC(=O)c4ccc(-c5c6nc(c(-c7ccc(S(=O)(=O)[O-])cc7)c7ccc([nH]7)c(-c7ccc(S(=O)(=O)[O-])cc7)c7nc(c(-c8ccc(S(=O)(=O)[O-])cc8)c8ccc5[nH]8)C=C7)C=C6)cc4)=C(CSc4nnc(C)s4)CS[C@H]23)n1
REMARK SMILES IDX 21 1 20 2 19 3 18 4 16 5 17 6 15 8 11 9 12 10 99 11 13 12
REMARK SMILES IDX 14 13 98 14 97 15 88 16 10 17 8 18 9 19 7 21 6 22 1 23 2 24
REMARK SMILES IDX 3 25 100 26 4 27 5 28 89 29 90 30 91 31 92 32 96 33 93 34
REMARK SMILES IDX 94 35 95 36 22 37 23 38 24 39 25 40 26 41 27 43 28 44 29 45
REMARK SMILES IDX 87 46 30 47 86 48 31 49 32 50 33 51 80 52 34 53 85 54 79 55
REMARK SMILES IDX 81 56 35 57 84 58 78 59 77 60 36 62 66 63 47 64 65 65 48 66
REMARK SMILES IDX 51 67 64 68 82 69 49 70 50 71 63 73 83 74 52 75 37 76 38 77
REMARK SMILES IDX 46 78 39 79 45 80 40 81 41 82 42 83 43 84 44 85 67 86 68 87
REMARK SMILES IDX 76 88 69 89 75 90 70 91 71 92 72 93 73 94 74 95 53 96 54 97
REMARK SMILES IDX 62 98 55 99 61 100 56 101 57 102 58 103 59 104 60 105
REMARK H PARENT 18 7 10 20 25 42 81 61 51 72
REMARK Flexibility Score: inf
ROOT
ATOM      1  C   UNL A   1      44.604  26.143  26.163  1.00  0.00     0.002 C 
ENDROOT
BRANCH   1   2
ATOM      2  C   UNL A   1      45.234  26.456  27.511  1.00  0.00     0.021 C 
BRANCH   2   3
ATOM      3  C   UNL A   1      46.431  25.607  27.932  1.00  0.00     0.116 C 
BRANCH   3   4
ATOM      4  N   UNL A   1      47.269  26.297  28.881  1.00  0.00    -0.351 N 
ATOM      5  C   UNL A   1      48.392  27.039  28.851  1.00  0.00     0.268 C 
ATOM      6  O   UNL A   1      48.395  27.872  29.773  1.00  0.00    -0.268 OA
ATOM      7  H   UNL A   1      46.929  26.197  29.799  1.00  0.00     0.163 HD
BRANCH   5   8
ATOM      8  C   UNL A   1      49.556  27.044  27.846  1.00  0.00     0.111 C 
ATOM      9  C   UNL A   1      52.768  27.061  29.230  1.00  0.00     0.205 C 
ATOM     10  C   UNL A   1      51.368  26.425  29.596  1.00  0.00     0.253 C 
ATOM     11  C   UNL A   1      52.031  27.433  27.927  1.00  0.00     0.181 C 
ATOM     12  O   UNL A   1      50.990  25.617  30.436  1.00  0.00    -0.272 OA
ATOM     13  N   UNL A   1      50.786  27.045  28.533  1.00  0.00    -0.290 N 
ATOM     14  S   UNL A   1      52.230  26.239  26.577  1.00  0.00    -0.129 SA
ATOM     15  C   UNL A   1      50.942  27.088  25.707  1.00  0.00     0.106 C 
ATOM     16  C   UNL A   1      49.608  27.080  26.465  1.00  0.00    -0.020 C 
BRANCH   9  17
ATOM     17  N   UNL A   1      53.967  26.187  29.036  1.00  0.00    -0.340 N 
ATOM     18  C   UNL A   1      55.075  26.081  29.851  1.00  0.00     0.242 C 
ATOM     19  O   UNL A   1      56.043  25.440  29.430  1.00  0.00    -0.273 OA
ATOM     20  H   UNL A   1      53.964  25.619  28.232  1.00  0.00     0.164 HD
BRANCH  18  21
ATOM     21  C   UNL A   1      55.077  26.615  31.273  1.00  0.00     0.244 C 
BRANCH  21  22
ATOM     22  N   UNL A   1      54.427  25.815  32.308  1.00  0.00    -0.260 N 
ATOM     23  C   UNL A   1      52.348  23.004  32.954  1.00  0.00     0.069 C 
ATOM     24  C   UNL A   1      53.276  24.162  33.024  1.00  0.00     0.060 A 
ATOM     25  C   UNL A   1      53.594  24.943  34.150  1.00  0.00     0.048 A 
ATOM     26  N   UNL A   1      53.844  24.648  31.914  1.00  0.00    -0.178 NA
ATOM     27  C   UNL A   1      54.324  26.013  33.666  1.00  0.00     0.036 A 
ATOM     28  C   UNL A   1      54.781  27.224  34.400  1.00  0.00     0.066 C 
ENDBRANCH  21  22
ENDBRANCH  18  21
ENDBRANCH   9  17
BRANCH  16  29
ATOM     29  C   UNL A   1      48.577  27.229  25.366  1.00  0.00     0.111 C 
BRANCH  29  30
ATOM     30  S   UNL A   1      48.526  26.109  23.990  1.00  0.00    -0.089 SA
BRANCH  30  31
ATOM     31  C   UNL A   1      48.874  26.970  22.546  1.00  0.00     0.174 A 
ATOM     32  N   UNL A   1      48.816  28.270  22.420  1.00  0.00    -0.132 NA
ATOM     33  S   UNL A   1      49.334  26.126  21.130  1.00  0.00    -0.091 S 
ATOM     34  N   UNL A   1      49.370  28.672  21.219  1.00  0.00    -0.143 NA
ATOM     35  C   UNL A   1      49.805  27.650  20.507  1.00  0.00     0.115 A 
ATOM     36  C   UNL A   1      50.710  27.706  19.335  1.00  0.00     0.081 C 
ENDBRANCH  30  31
ENDBRANCH  29  30
ENDBRANCH  16  29
ENDBRANCH   5   8
ENDBRANCH   3   4
ENDBRANCH   2   3
ENDBRANCH   1   2
BRANCH   1  37
ATOM     37  C   UNL A   1      45.186  24.909  25.461  1.00  0.00     0.002 C 
BRANCH  37  38
ATOM     38  C   UNL A   1      44.499  23.558  25.732  1.00  0.00     0.021 C 
BRANCH  38  39
ATOM     39  C   UNL A   1      43.464  23.172  24.691  1.00  0.00     0.116 C 
BRANCH  39  40
ATOM     40  N   UNL A   1      42.349  22.402  25.253  1.00  0.00    -0.352 N 
ATOM     41  C   UNL A   1      41.517  22.715  26.313  1.00  0.00     0.251 C 
ATOM     42  H   UNL A   1      42.168  21.540  24.813  1.00  0.00     0.163 HD
ATOM     43  O   UNL A   1      40.832  21.853  26.850  1.00  0.00    -0.269 OA
BRANCH  41  44
ATOM     44  C   UNL A   1      41.465  24.114  26.768  1.00  0.00     0.039 A 
ATOM     45  C   UNL A   1      40.841  25.136  26.047  1.00  0.00     0.014 A 
ATOM     46  C   UNL A   1      42.055  24.378  27.995  1.00  0.00     0.014 A 
ATOM     47  C   UNL A   1      40.802  26.412  26.610  1.00  0.00     0.010 A 
ATOM     48  C   UNL A   1      41.749  25.522  28.657  1.00  0.00     0.010 A 
ATOM     49  C   UNL A   1      41.272  26.587  27.919  1.00  0.00    -0.014 A 
BRANCH  49  50
ATOM     50  C   UNL A   1      41.286  27.866  28.606  1.00  0.00     0.031 A 
ATOM     51  C   UNL A   1      42.377  28.773  28.188  1.00  0.00     0.074 A 
ATOM     52  C   UNL A   1      40.226  28.295  29.331  1.00  0.00     0.049 A 
ATOM     53  N   UNL A   1      43.425  29.105  28.862  1.00  0.00    -0.248 NA
ATOM     54  C   UNL A   1      42.383  29.246  26.795  1.00  0.00     0.031 C 
ATOM     55  C   UNL A   1      38.912  27.655  29.532  1.00  0.00     0.029 A 
ATOM     56  N   UNL A   1      40.058  29.487  29.952  1.00  0.00    -0.354 N 
ATOM     57  C   UNL A   1      44.107  30.019  28.069  1.00  0.00     0.074 A 
ATOM     58  C   UNL A   1      43.546  29.899  26.746  1.00  0.00     0.031 C 
ATOM     59  C   UNL A   1      38.027  28.565  30.004  1.00  0.00     0.029 A 
ATOM     60  C   UNL A   1      38.752  29.776  30.333  1.00  0.00     0.049 A 
ATOM     61  H   UNL A   1      40.807  30.104  30.122  1.00  0.00     0.167 HD
ATOM     62  C   UNL A   1      44.889  30.993  28.614  1.00  0.00     0.031 A 
ATOM     63  C   UNL A   1      38.308  30.939  30.875  1.00  0.00     0.031 A 
ATOM     64  C   UNL A   1      45.124  30.762  30.019  1.00  0.00     0.049 A 
ATOM     65  C   UNL A   1      39.498  31.648  31.401  1.00  0.00     0.074 A 
ATOM     66  C   UNL A   1      45.705  29.745  30.752  1.00  0.00     0.029 A 
ATOM     67  N   UNL A   1      44.333  31.458  30.906  1.00  0.00    -0.354 N 
ATOM     68  N   UNL A   1      40.218  31.188  32.386  1.00  0.00    -0.248 NA
ATOM     69  C   UNL A   1      40.171  32.591  30.522  1.00  0.00     0.031 C 
ATOM     70  C   UNL A   1      44.856  29.582  31.888  1.00  0.00     0.029 A 
ATOM     71  C   UNL A   1      43.858  30.557  31.827  1.00  0.00     0.049 A 
ATOM     72  H   UNL A   1      44.144  32.423  30.883  1.00  0.00     0.167 HD
ATOM     73  C   UNL A   1      41.531  31.436  32.013  1.00  0.00     0.074 A 
ATOM     74  C   UNL A   1      41.436  32.379  30.898  1.00  0.00     0.031 C 
ATOM     75  C   UNL A   1      42.552  30.641  32.451  1.00  0.00     0.031 A 
BRANCH  62  76
ATOM     76  C   UNL A   1      45.094  32.346  27.984  1.00  0.00    -0.014 A 
ATOM     77  C   UNL A   1      46.399  32.867  27.899  1.00  0.00     0.010 A 
ATOM     78  C   UNL A   1      44.030  33.233  27.714  1.00  0.00     0.010 A 
ATOM     79  C   UNL A   1      46.623  34.221  27.616  1.00  0.00     0.020 A 
ATOM     80  C   UNL A   1      44.243  34.572  27.387  1.00  0.00     0.020 A 
ATOM     81  C   UNL A   1      45.539  35.067  27.375  1.00  0.00     0.054 A 
BRANCH  81  82
ATOM     82  S   UNL A   1      45.830  36.834  27.124  1.00  0.00     0.124 S 
ATOM     83  O   UNL A   1      46.596  37.184  28.315  1.00  0.00    -0.237 OA
ATOM     84  O   UNL A   1      46.571  36.848  25.865  1.00  0.00    -0.237 OA
ATOM     85  O   UNL A   1      44.484  37.396  27.054  1.00  0.00    -0.744 OA
ENDBRANCH  81  82
ENDBRANCH  62  76
BRANCH  63  86
ATOM     86  C   UNL A   1      37.074  31.668  30.509  1.00  0.00    -0.014 A 
ATOM     87  C   UNL A   1      36.378  32.483  31.418  1.00  0.00     0.010 A 
ATOM     88  C   UNL A   1      36.757  31.784  29.141  1.00  0.00     0.010 A 
ATOM     89  C   UNL A   1      35.371  33.362  30.975  1.00  0.00     0.020 A 
ATOM     90  C   UNL A   1      35.800  32.700  28.692  1.00  0.00     0.020 A 
ATOM     91  C   UNL A   1      35.091  33.467  29.610  1.00  0.00     0.054 A 
BRANCH  91  92
ATOM     92  S   UNL A   1      33.756  34.566  29.042  1.00  0.00     0.124 S 
ATOM     93  O   UNL A   1      33.043  33.722  28.087  1.00  0.00    -0.237 OA
ATOM     94  O   UNL A   1      33.047  34.866  30.280  1.00  0.00    -0.237 OA
ATOM     95  O   UNL A   1      34.470  35.690  28.442  1.00  0.00    -0.744 OA
ENDBRANCH  91  92
ENDBRANCH  63  86
BRANCH  75  96
ATOM     96  C   UNL A   1      42.246  29.620  33.527  1.00  0.00    -0.014 A 
ATOM     97  C   UNL A   1      41.631  28.374  33.279  1.00  0.00     0.010 A 
ATOM     98  C   UNL A   1      42.728  29.875  34.820  1.00  0.00     0.010 A 
ATOM     99  C   UNL A   1      41.478  27.427  34.306  1.00  0.00     0.020 A 
ATOM    100  C   UNL A   1      42.593  28.933  35.843  1.00  0.00     0.020 A 
ATOM    101  C   UNL A   1      41.961  27.717  35.586  1.00  0.00     0.054 A 
BRANCH 101 102
ATOM    102  S   UNL A   1      41.791  26.484  36.909  1.00  0.00     0.124 S 
ATOM    103  O   UNL A   1      41.881  25.221  36.182  1.00  0.00    -0.237 OA
ATOM    104  O   UNL A   1      42.919  26.789  37.785  1.00  0.00    -0.237 OA
ATOM    105  O   UNL A   1      40.476  26.772  37.485  1.00  0.00    -0.744 OA
ENDBRANCH 101 102
ENDBRANCH  75  96
ENDBRANCH  49  50
ENDBRANCH  41  44
ENDBRANCH  39  40
ENDBRANCH  38  39
ENDBRANCH  37  38
ENDBRANCH   1  37
TORSDOF 22
ENDMDL
