MODEL 1
REMARK VINA RESULT:     -12.1      0.000      0.000
REMARK SMILES NS(=O)(=O)c1ccc(-n2nc(C(F)F)cc2-c2ccc(C(=O)NCCCCCCNC(=O)c3ccc(-c4c5nc(c(-c6ccc(S(=O)(=O)[O-])cc6)c6ccc([nH]6)c(-c6ccc(S(=O)(=O)[O-])cc6)c6nc(c(-c7ccc(S(=O)(=O)[O-])cc7)c7ccc4[nH]7)C=C6)C=C5)cc3)cc2)cc1
REMARK SMILES IDX 26 1 25 2 24 3 23 4 21 5 22 6 20 8 17 9 18 10 94 11 19 12
REMARK SMILES IDX 93 13 16 14 9 15 10 16 11 17 15 18 8 19 5 20 6 21 96 22 7 23
REMARK SMILES IDX 95 24 2 25 3 26 4 27 1 28 12 31 13 32 14 33 27 34 28 35
REMARK SMILES IDX 29 36 30 37 31 38 32 40 33 41 34 42 92 43 35 44 91 45 36 46
REMARK SMILES IDX 37 47 38 48 85 49 39 50 90 51 84 52 86 53 40 54 89 55 83 56
REMARK SMILES IDX 82 57 41 59 71 60 52 61 70 62 53 63 56 64 69 65 87 66 54 67
REMARK SMILES IDX 55 68 68 70 88 71 57 72 42 73 43 74 51 75 44 76 50 77 45 78
REMARK SMILES IDX 46 79 47 80 48 81 49 82 72 83 73 84 81 85 74 86 80 87 75 88
REMARK SMILES IDX 76 89 77 90 78 91 79 92 58 93 59 94 67 95 60 96 66 97 61 98
REMARK SMILES IDX 62 99 63 100 64 101 65 102
REMARK H PARENT 23 7 1 29 1 30 30 39 86 58 56 69
REMARK Flexibility Score: inf
ROOT
ATOM      1  C   UNL A   1      40.096  20.169  25.940  1.00  0.00     0.002 C 
ENDROOT
BRANCH   1   2
ATOM      2  C   UNL A   1      38.743  19.738  25.361  1.00  0.00     0.021 C 
BRANCH   2   3
ATOM      3  C   UNL A   1      37.821  20.920  25.062  1.00  0.00     0.116 C 
BRANCH   3   4
ATOM      4  N   UNL A   1      38.383  22.138  25.612  1.00  0.00    -0.352 N 
ATOM      5  C   UNL A   1      37.852  23.385  25.813  1.00  0.00     0.251 C 
ATOM      6  O   UNL A   1      38.570  24.241  26.329  1.00  0.00    -0.269 OA
ATOM      7  H   UNL A   1      39.323  22.053  25.895  1.00  0.00     0.163 HD
BRANCH   5   8
ATOM      8  C   UNL A   1      36.427  23.699  25.521  1.00  0.00     0.039 A 
ATOM      9  C   UNL A   1      33.826  24.492  24.831  1.00  0.00     0.000 A 
ATOM     10  C   UNL A   1      34.799  24.326  23.837  1.00  0.00     0.011 A 
ATOM     11  C   UNL A   1      34.144  24.220  26.160  1.00  0.00     0.011 A 
ATOM     12  C   UNL A   1      36.093  23.936  24.182  1.00  0.00     0.014 A 
ATOM     13  C   UNL A   1      35.423  23.772  26.491  1.00  0.00     0.014 A 
BRANCH   9  14
ATOM     14  C   UNL A   1      32.459  24.840  24.476  1.00  0.00     0.075 A 
ATOM     15  N   UNL A   1      31.513  23.922  24.040  1.00  0.00    -0.233 N 
ATOM     16  N   UNL A   1      30.420  24.538  23.526  1.00  0.00    -0.166 NA
ATOM     17  C   UNL A   1      30.550  25.825  23.904  1.00  0.00     0.129 A 
ATOM     18  C   UNL A   1      31.834  26.067  24.447  1.00  0.00     0.060 A 
BRANCH  15  19
ATOM     19  C   UNL A   1      31.666  22.514  24.013  1.00  0.00     0.065 A 
ATOM     20  C   UNL A   1      32.341  19.817  24.007  1.00  0.00     0.082 A 
ATOM     21  C   UNL A   1      32.028  20.442  25.216  1.00  0.00     0.024 A 
ATOM     22  C   UNL A   1      32.276  20.523  22.798  1.00  0.00     0.024 A 
ATOM     23  C   UNL A   1      31.693  21.794  25.219  1.00  0.00     0.030 A 
ATOM     24  C   UNL A   1      31.909  21.873  22.797  1.00  0.00     0.030 A 
BRANCH  20  25
ATOM     25  S   UNL A   1      32.843  18.126  24.069  1.00  0.00     0.238 S 
ATOM     26  O   UNL A   1      32.016  17.421  25.004  1.00  0.00    -0.207 OA
ATOM     27  O   UNL A   1      34.294  18.078  24.085  1.00  0.00    -0.207 OA
BRANCH  25  28
ATOM     28  N   UNL A   1      32.425  17.500  22.559  1.00  0.00    -0.225 NA
ATOM     29  H   UNL A   1      33.269  17.196  22.072  1.00  0.00     0.137 HD
ATOM     30  H   UNL A   1      31.957  18.221  22.010  1.00  0.00     0.137 HD
ENDBRANCH  25  28
ENDBRANCH  20  25
ENDBRANCH  15  19
BRANCH  17  31
ATOM     31  C   UNL A   1      29.463  26.844  23.730  1.00  0.00     0.393 C 
ATOM     32  F   UNL A   1      29.661  27.645  22.647  1.00  0.00    -0.203 F 
ATOM     33  F   UNL A   1      28.244  26.262  23.570  1.00  0.00    -0.203 F 
ENDBRANCH  17  31
ENDBRANCH   9  14
ENDBRANCH   5   8
ENDBRANCH   3   4
ENDBRANCH   2   3
ENDBRANCH   1   2
BRANCH   1  34
ATOM     34  C   UNL A   1      41.129  19.039  26.091  1.00  0.00     0.002 C 
BRANCH  34  35
ATOM     35  C   UNL A   1      42.394  19.393  26.888  1.00  0.00     0.021 C 
BRANCH  35  36
ATOM     36  C   UNL A   1      42.631  20.891  26.996  1.00  0.00     0.116 C 
BRANCH  36  37
ATOM     37  N   UNL A   1      43.295  21.416  25.803  1.00  0.00    -0.352 N 
ATOM     38  C   UNL A   1      43.302  22.707  25.317  1.00  0.00     0.251 C 
ATOM     39  H   UNL A   1      43.807  20.760  25.276  1.00  0.00     0.163 HD
ATOM     40  O   UNL A   1      43.564  22.928  24.141  1.00  0.00    -0.269 OA
BRANCH  38  41
ATOM     41  C   UNL A   1      42.993  23.811  26.239  1.00  0.00     0.039 A 
ATOM     42  C   UNL A   1      43.719  24.000  27.418  1.00  0.00     0.014 A 
ATOM     43  C   UNL A   1      41.960  24.678  25.891  1.00  0.00     0.014 A 
ATOM     44  C   UNL A   1      43.443  25.117  28.203  1.00  0.00     0.010 A 
ATOM     45  C   UNL A   1      41.800  25.855  26.573  1.00  0.00     0.010 A 
ATOM     46  C   UNL A   1      42.492  26.051  27.762  1.00  0.00    -0.014 A 
BRANCH  46  47
ATOM     47  C   UNL A   1      42.285  27.310  28.468  1.00  0.00     0.031 A 
ATOM     48  C   UNL A   1      43.350  28.320  28.242  1.00  0.00     0.074 A 
ATOM     49  C   UNL A   1      41.118  27.625  29.073  1.00  0.00     0.049 A 
ATOM     50  N   UNL A   1      44.244  28.720  29.083  1.00  0.00    -0.248 NA
ATOM     51  C   UNL A   1      43.549  28.831  26.875  1.00  0.00     0.031 C 
ATOM     52  C   UNL A   1      39.869  26.853  29.097  1.00  0.00     0.029 A 
ATOM     53  N   UNL A   1      40.761  28.781  29.695  1.00  0.00    -0.354 N 
ATOM     54  C   UNL A   1      44.960  29.716  28.428  1.00  0.00     0.074 A 
ATOM     55  C   UNL A   1      44.640  29.585  27.030  1.00  0.00     0.031 C 
ATOM     56  C   UNL A   1      38.846  27.655  29.471  1.00  0.00     0.029 A 
ATOM     57  C   UNL A   1      39.391  28.934  29.886  1.00  0.00     0.049 A 
ATOM     58  H   UNL A   1      41.418  29.454  29.985  1.00  0.00     0.167 HD
ATOM     59  C   UNL A   1      45.536  30.742  29.118  1.00  0.00     0.031 A 
ATOM     60  C   UNL A   1      38.749  30.043  30.332  1.00  0.00     0.031 A 
ATOM     61  C   UNL A   1      45.552  30.479  30.536  1.00  0.00     0.049 A 
ATOM     62  C   UNL A   1      39.758  30.864  31.043  1.00  0.00     0.074 A 
ATOM     63  C   UNL A   1      46.084  29.490  31.338  1.00  0.00     0.029 A 
ATOM     64  N   UNL A   1      44.582  31.102  31.289  1.00  0.00    -0.354 N 
ATOM     65  N   UNL A   1      40.343  30.479  32.145  1.00  0.00    -0.248 NA
ATOM     66  C   UNL A   1      40.459  31.894  30.294  1.00  0.00     0.031 C 
ATOM     67  C   UNL A   1      45.093  29.258  32.338  1.00  0.00     0.029 A 
ATOM     68  C   UNL A   1      44.054  30.171  32.144  1.00  0.00     0.049 A 
ATOM     69  H   UNL A   1      44.316  32.048  31.224  1.00  0.00     0.167 HD
ATOM     70  C   UNL A   1      41.665  30.871  31.998  1.00  0.00     0.074 A 
ATOM     71  C   UNL A   1      41.652  31.829  30.892  1.00  0.00     0.031 C 
ATOM     72  C   UNL A   1      42.676  30.171  32.593  1.00  0.00     0.031 A 
BRANCH  59  73
ATOM     73  C   UNL A   1      45.678  32.147  28.577  1.00  0.00    -0.014 A 
ATOM     74  C   UNL A   1      46.910  32.814  28.744  1.00  0.00     0.010 A 
ATOM     75  C   UNL A   1      44.579  32.932  28.171  1.00  0.00     0.010 A 
ATOM     76  C   UNL A   1      47.013  34.202  28.593  1.00  0.00     0.020 A 
ATOM     77  C   UNL A   1      44.682  34.310  27.973  1.00  0.00     0.020 A 
ATOM     78  C   UNL A   1      45.891  34.942  28.221  1.00  0.00     0.054 A 
BRANCH  78  79
ATOM     79  S   UNL A   1      46.007  36.745  28.127  1.00  0.00     0.124 S 
ATOM     80  O   UNL A   1      45.854  37.127  29.527  1.00  0.00    -0.237 OA
ATOM     81  O   UNL A   1      47.338  36.938  27.557  1.00  0.00    -0.237 OA
ATOM     82  O   UNL A   1      44.899  37.112  27.248  1.00  0.00    -0.744 OA
ENDBRANCH  78  79
ENDBRANCH  59  73
BRANCH  60  83
ATOM     83  C   UNL A   1      37.421  30.574  29.932  1.00  0.00    -0.014 A 
ATOM     84  C   UNL A   1      36.657  31.356  30.820  1.00  0.00     0.010 A 
ATOM     85  C   UNL A   1      37.040  30.564  28.574  1.00  0.00     0.010 A 
ATOM     86  C   UNL A   1      35.600  32.159  30.354  1.00  0.00     0.020 A 
ATOM     87  C   UNL A   1      35.986  31.357  28.104  1.00  0.00     0.020 A 
ATOM     88  C   UNL A   1      35.288  32.174  28.993  1.00  0.00     0.054 A 
BRANCH  88  89
ATOM     89  S   UNL A   1      34.065  33.366  28.366  1.00  0.00     0.124 S 
ATOM     90  O   UNL A   1      33.135  32.504  27.645  1.00  0.00    -0.237 OA
ATOM     91  O   UNL A   1      33.551  33.967  29.593  1.00  0.00    -0.237 OA
ATOM     92  O   UNL A   1      34.862  34.262  27.529  1.00  0.00    -0.744 OA
ENDBRANCH  88  89
ENDBRANCH  60  83
BRANCH  72  93
ATOM     93  C   UNL A   1      42.322  29.160  33.662  1.00  0.00    -0.014 A 
ATOM     94  C   UNL A   1      41.918  27.836  33.398  1.00  0.00     0.010 A 
ATOM     95  C   UNL A   1      42.551  29.536  34.996  1.00  0.00     0.010 A 
ATOM     96  C   UNL A   1      41.723  26.924  34.450  1.00  0.00     0.020 A 
ATOM     97  C   UNL A   1      42.377  28.630  36.044  1.00  0.00     0.020 A 
ATOM     98  C   UNL A   1      41.954  27.330  35.768  1.00  0.00     0.054 A 
BRANCH  98  99
ATOM     99  S   UNL A   1      41.737  26.144  37.125  1.00  0.00     0.124 S 
ATOM    100  O   UNL A   1      40.401  26.467  37.619  1.00  0.00    -0.237 OA
ATOM    101  O   UNL A   1      41.865  24.852  36.453  1.00  0.00    -0.237 OA
ATOM    102  O   UNL A   1      42.829  26.463  38.044  1.00  0.00    -0.744 OA
ENDBRANCH  98  99
ENDBRANCH  72  93
ENDBRANCH  46  47
ENDBRANCH  38  41
ENDBRANCH  36  37
ENDBRANCH  35  36
ENDBRANCH  34  35
ENDBRANCH   1  34
TORSDOF 21
ENDMDL
MODEL 2
REMARK VINA RESULT:     -11.9      3.210      9.420
REMARK SMILES NS(=O)(=O)c1ccc(-n2nc(C(F)F)cc2-c2ccc(C(=O)NCCCCCCNC(=O)c3ccc(-c4c5nc(c(-c6ccc(S(=O)(=O)[O-])cc6)c6ccc([nH]6)c(-c6ccc(S(=O)(=O)[O-])cc6)c6nc(c(-c7ccc(S(=O)(=O)[O-])cc7)c7ccc4[nH]7)C=C6)C=C5)cc3)cc2)cc1
REMARK SMILES IDX 26 1 25 2 24 3 23 4 21 5 22 6 20 8 17 9 18 10 94 11 19 12
REMARK SMILES IDX 93 13 16 14 9 15 10 16 11 17 15 18 8 19 5 20 6 21 96 22 7 23
REMARK SMILES IDX 95 24 2 25 3 26 4 27 1 28 12 31 13 32 14 33 27 34 28 35
REMARK SMILES IDX 29 36 30 37 31 38 32 40 33 41 34 42 92 43 35 44 91 45 36 46
REMARK SMILES IDX 37 47 38 48 85 49 39 50 90 51 84 52 86 53 40 54 89 55 83 56
REMARK SMILES IDX 82 57 41 59 71 60 52 61 70 62 53 63 56 64 69 65 87 66 54 67
REMARK SMILES IDX 55 68 68 70 88 71 57 72 42 73 43 74 51 75 44 76 50 77 45 78
REMARK SMILES IDX 46 79 47 80 48 81 49 82 72 83 73 84 81 85 74 86 80 87 75 88
REMARK SMILES IDX 76 89 77 90 78 91 79 92 58 93 59 94 67 95 60 96 66 97 61 98
REMARK SMILES IDX 62 99 63 100 64 101 65 102
REMARK H PARENT 23 7 1 29 1 30 30 39 86 58 56 69
REMARK Flexibility Score: inf
ROOT
ATOM      1  C   UNL A   1      31.987  26.865  26.538  1.00  0.00     0.002 C 
ENDROOT
BRANCH   1   2
ATOM      2  C   UNL A   1      33.369  26.822  25.875  1.00  0.00     0.021 C 
BRANCH   2   3
ATOM      3  C   UNL A   1      33.301  26.937  24.352  1.00  0.00     0.116 C 
BRANCH   3   4
ATOM      4  N   UNL A   1      31.926  26.825  23.908  1.00  0.00    -0.352 N 
ATOM      5  C   UNL A   1      31.157  25.742  23.569  1.00  0.00     0.251 C 
ATOM      6  O   UNL A   1      29.988  25.946  23.242  1.00  0.00    -0.269 OA
ATOM      7  H   UNL A   1      31.456  27.687  23.837  1.00  0.00     0.163 HD
BRANCH   5   8
ATOM      8  C   UNL A   1      31.655  24.345  23.681  1.00  0.00     0.039 A 
ATOM      9  C   UNL A   1      32.671  21.769  24.132  1.00  0.00     0.000 A 
ATOM     10  C   UNL A   1      31.794  22.352  25.054  1.00  0.00     0.011 A 
ATOM     11  C   UNL A   1      33.004  22.458  22.966  1.00  0.00     0.011 A 
ATOM     12  C   UNL A   1      31.293  23.634  24.832  1.00  0.00     0.014 A 
ATOM     13  C   UNL A   1      32.451  23.715  22.720  1.00  0.00     0.014 A 
BRANCH   9  14
ATOM     14  C   UNL A   1      33.152  20.410  24.325  1.00  0.00     0.075 A 
ATOM     15  N   UNL A   1      34.453  20.093  24.692  1.00  0.00    -0.233 N 
ATOM     16  N   UNL A   1      34.706  18.769  24.541  1.00  0.00    -0.166 NA
ATOM     17  C   UNL A   1      33.491  18.213  24.363  1.00  0.00     0.129 A 
ATOM     18  C   UNL A   1      32.503  19.207  24.162  1.00  0.00     0.060 A 
BRANCH  15  19
ATOM     19  C   UNL A   1      35.461  21.011  25.078  1.00  0.00     0.065 A 
ATOM     20  C   UNL A   1      37.492  22.584  26.139  1.00  0.00     0.082 A 
ATOM     21  C   UNL A   1      37.815  21.559  25.247  1.00  0.00     0.024 A 
ATOM     22  C   UNL A   1      36.157  22.852  26.470  1.00  0.00     0.024 A 
ATOM     23  C   UNL A   1      36.797  20.770  24.718  1.00  0.00     0.030 A 
ATOM     24  C   UNL A   1      35.132  22.080  25.914  1.00  0.00     0.030 A 
BRANCH  20  25
ATOM     25  S   UNL A   1      38.826  23.499  26.848  1.00  0.00     0.238 S 
ATOM     26  O   UNL A   1      39.908  22.606  27.143  1.00  0.00    -0.207 OA
ATOM     27  O   UNL A   1      38.278  24.441  27.806  1.00  0.00    -0.207 OA
BRANCH  25  28
ATOM     28  N   UNL A   1      39.393  24.471  25.591  1.00  0.00    -0.225 NA
ATOM     29  H   UNL A   1      39.188  25.448  25.798  1.00  0.00     0.137 HD
ATOM     30  H   UNL A   1      38.934  24.203  24.720  1.00  0.00     0.137 HD
ENDBRANCH  25  28
ENDBRANCH  20  25
ENDBRANCH  15  19
BRANCH  17  31
ATOM     31  C   UNL A   1      33.261  16.731  24.355  1.00  0.00     0.393 C 
ATOM     32  F   UNL A   1      34.114  16.070  23.525  1.00  0.00    -0.203 F 
ATOM     33  F   UNL A   1      33.417  16.188  25.593  1.00  0.00    -0.203 F 
ENDBRANCH  17  31
ENDBRANCH   9  14
ENDBRANCH   5   8
ENDBRANCH   3   4
ENDBRANCH   2   3
ENDBRANCH   1   2
BRANCH   1  34
ATOM     34  C   UNL A   1      31.754  28.059  27.480  1.00  0.00     0.002 C 
BRANCH  34  35
ATOM     35  C   UNL A   1      32.280  29.414  26.983  1.00  0.00     0.021 C 
BRANCH  35  36
ATOM     36  C   UNL A   1      33.579  29.832  27.654  1.00  0.00     0.116 C 
BRANCH  36  37
ATOM     37  N   UNL A   1      33.919  31.221  27.346  1.00  0.00    -0.352 N 
ATOM     38  C   UNL A   1      35.030  31.942  27.727  1.00  0.00     0.251 C 
ATOM     39  H   UNL A   1      33.266  31.706  26.790  1.00  0.00     0.163 HD
ATOM     40  O   UNL A   1      35.007  33.167  27.728  1.00  0.00    -0.269 OA
BRANCH  38  41
ATOM     41  C   UNL A   1      36.244  31.212  28.127  1.00  0.00     0.039 A 
ATOM     42  C   UNL A   1      36.510  29.926  27.651  1.00  0.00     0.014 A 
ATOM     43  C   UNL A   1      37.133  31.853  28.986  1.00  0.00     0.014 A 
ATOM     44  C   UNL A   1      37.720  29.324  27.989  1.00  0.00     0.010 A 
ATOM     45  C   UNL A   1      38.383  31.331  29.186  1.00  0.00     0.010 A 
ATOM     46  C   UNL A   1      38.660  30.043  28.743  1.00  0.00    -0.014 A 
BRANCH  46  47
ATOM     47  C   UNL A   1      39.997  29.515  28.986  1.00  0.00     0.031 A 
ATOM     48  C   UNL A   1      40.326  29.320  30.422  1.00  0.00     0.074 A 
ATOM     49  C   UNL A   1      40.777  29.017  28.002  1.00  0.00     0.049 A 
ATOM     50  N   UNL A   1      41.148  30.007  31.140  1.00  0.00    -0.248 NA
ATOM     51  C   UNL A   1      39.530  28.350  31.195  1.00  0.00     0.031 C 
ATOM     52  C   UNL A   1      40.449  28.850  26.579  1.00  0.00     0.029 A 
ATOM     53  N   UNL A   1      41.999  28.428  28.092  1.00  0.00    -0.354 N 
ATOM     54  C   UNL A   1      41.162  29.398  32.390  1.00  0.00     0.074 A 
ATOM     55  C   UNL A   1      40.004  28.541  32.428  1.00  0.00     0.031 C 
ATOM     56  C   UNL A   1      41.325  27.992  26.009  1.00  0.00     0.029 A 
ATOM     57  C   UNL A   1      42.372  27.696  26.968  1.00  0.00     0.049 A 
ATOM     58  H   UNL A   1      42.572  28.510  28.888  1.00  0.00     0.167 HD
ATOM     59  C   UNL A   1      42.272  29.431  33.181  1.00  0.00     0.031 A 
ATOM     60  C   UNL A   1      43.454  26.887  26.844  1.00  0.00     0.031 A 
ATOM     61  C   UNL A   1      43.236  30.386  32.694  1.00  0.00     0.049 A 
ATOM     62  C   UNL A   1      44.417  27.296  27.894  1.00  0.00     0.074 A 
ATOM     63  C   UNL A   1      43.227  31.745  32.453  1.00  0.00     0.029 A 
ATOM     64  N   UNL A   1      44.300  29.879  31.982  1.00  0.00    -0.354 N 
ATOM     65  N   UNL A   1      45.004  28.462  27.909  1.00  0.00    -0.248 NA
ATOM     66  C   UNL A   1      44.376  26.605  29.173  1.00  0.00     0.031 C 
ATOM     67  C   UNL A   1      43.973  31.908  31.249  1.00  0.00     0.029 A 
ATOM     68  C   UNL A   1      44.468  30.658  30.868  1.00  0.00     0.049 A 
ATOM     69  H   UNL A   1      44.843  29.096  32.230  1.00  0.00     0.167 HD
ATOM     70  C   UNL A   1      44.998  28.843  29.242  1.00  0.00     0.074 A 
ATOM     71  C   UNL A   1      44.699  27.618  29.982  1.00  0.00     0.031 C 
ATOM     72  C   UNL A   1      44.954  30.162  29.596  1.00  0.00     0.031 A 
BRANCH  59  73
ATOM     73  C   UNL A   1      42.674  28.313  34.115  1.00  0.00    -0.014 A 
ATOM     74  C   UNL A   1      42.848  28.606  35.485  1.00  0.00     0.010 A 
ATOM     75  C   UNL A   1      43.161  27.068  33.665  1.00  0.00     0.010 A 
ATOM     76  C   UNL A   1      43.542  27.737  36.335  1.00  0.00     0.020 A 
ATOM     77  C   UNL A   1      43.814  26.173  34.514  1.00  0.00     0.020 A 
ATOM     78  C   UNL A   1      44.033  26.530  35.837  1.00  0.00     0.054 A 
BRANCH  78  79
ATOM     79  S   UNL A   1      45.016  25.459  36.913  1.00  0.00     0.124 S 
ATOM     80  O   UNL A   1      44.324  24.181  36.774  1.00  0.00    -0.237 OA
ATOM     81  O   UNL A   1      46.339  25.537  36.299  1.00  0.00    -0.237 OA
ATOM     82  O   UNL A   1      44.903  26.097  38.223  1.00  0.00    -0.744 OA
ENDBRANCH  78  79
ENDBRANCH  59  73
BRANCH  60  83
ATOM     83  C   UNL A   1      43.581  25.612  26.093  1.00  0.00    -0.014 A 
ATOM     84  C   UNL A   1      44.706  25.358  25.284  1.00  0.00     0.010 A 
ATOM     85  C   UNL A   1      42.743  24.523  26.408  1.00  0.00     0.010 A 
ATOM     86  C   UNL A   1      45.023  24.052  24.871  1.00  0.00     0.020 A 
ATOM     87  C   UNL A   1      43.050  23.220  25.997  1.00  0.00     0.020 A 
ATOM     88  C   UNL A   1      44.205  22.986  25.253  1.00  0.00     0.054 A 
BRANCH  88  89
ATOM     89  S   UNL A   1      44.730  21.281  24.897  1.00  0.00     0.124 S 
ATOM     90  O   UNL A   1      46.113  21.280  25.362  1.00  0.00    -0.237 OA
ATOM     91  O   UNL A   1      43.794  20.489  25.691  1.00  0.00    -0.237 OA
ATOM     92  O   UNL A   1      44.558  21.167  23.450  1.00  0.00    -0.744 OA
ENDBRANCH  88  89
ENDBRANCH  60  83
BRANCH  72  93
ATOM     93  C   UNL A   1      45.226  31.204  28.532  1.00  0.00    -0.014 A 
ATOM     94  C   UNL A   1      44.233  31.786  27.719  1.00  0.00     0.010 A 
ATOM     95  C   UNL A   1      46.533  31.716  28.461  1.00  0.00     0.010 A 
ATOM     96  C   UNL A   1      44.552  32.834  26.838  1.00  0.00     0.020 A 
ATOM     97  C   UNL A   1      46.852  32.769  27.603  1.00  0.00     0.020 A 
ATOM     98  C   UNL A   1      45.863  33.317  26.786  1.00  0.00     0.054 A 
BRANCH  98  99
ATOM     99  S   UNL A   1      46.270  34.694  25.675  1.00  0.00     0.124 S 
ATOM    100  O   UNL A   1      47.684  34.468  25.393  1.00  0.00    -0.237 OA
ATOM    101  O   UNL A   1      45.362  34.484  24.549  1.00  0.00    -0.237 OA
ATOM    102  O   UNL A   1      45.982  35.884  26.476  1.00  0.00    -0.744 OA
ENDBRANCH  98  99
ENDBRANCH  72  93
ENDBRANCH  46  47
ENDBRANCH  38  41
ENDBRANCH  36  37
ENDBRANCH  35  36
ENDBRANCH  34  35
ENDBRANCH   1  34
TORSDOF 21
ENDMDL
MODEL 3
REMARK VINA RESULT:     -11.8      2.449      3.325
REMARK SMILES NS(=O)(=O)c1ccc(-n2nc(C(F)F)cc2-c2ccc(C(=O)NCCCCCCNC(=O)c3ccc(-c4c5nc(c(-c6ccc(S(=O)(=O)[O-])cc6)c6ccc([nH]6)c(-c6ccc(S(=O)(=O)[O-])cc6)c6nc(c(-c7ccc(S(=O)(=O)[O-])cc7)c7ccc4[nH]7)C=C6)C=C5)cc3)cc2)cc1
REMARK SMILES IDX 26 1 25 2 24 3 23 4 21 5 22 6 20 8 17 9 18 10 94 11 19 12
REMARK SMILES IDX 93 13 16 14 9 15 10 16 11 17 15 18 8 19 5 20 6 21 96 22 7 23
REMARK SMILES IDX 95 24 2 25 3 26 4 27 1 28 12 31 13 32 14 33 27 34 28 35
REMARK SMILES IDX 29 36 30 37 31 38 32 40 33 41 34 42 92 43 35 44 91 45 36 46
REMARK SMILES IDX 37 47 38 48 85 49 39 50 90 51 84 52 86 53 40 54 89 55 83 56
REMARK SMILES IDX 82 57 41 59 71 60 52 61 70 62 53 63 56 64 69 65 87 66 54 67
REMARK SMILES IDX 55 68 68 70 88 71 57 72 42 73 43 74 51 75 44 76 50 77 45 78
REMARK SMILES IDX 46 79 47 80 48 81 49 82 72 83 73 84 81 85 74 86 80 87 75 88
REMARK SMILES IDX 76 89 77 90 78 91 79 92 58 93 59 94 67 95 60 96 66 97 61 98
REMARK SMILES IDX 62 99 63 100 64 101 65 102
REMARK H PARENT 23 7 1 29 1 30 30 39 86 58 56 69
REMARK Flexibility Score: inf
ROOT
ATOM      1  C   UNL A   1      40.659  20.693  26.316  1.00  0.00     0.002 C 
ENDROOT
BRANCH   1   2
ATOM      2  C   UNL A   1      39.400  20.094  25.677  1.00  0.00     0.021 C 
BRANCH   2   3
ATOM      3  C   UNL A   1      38.340  21.146  25.350  1.00  0.00     0.116 C 
BRANCH   3   4
ATOM      4  N   UNL A   1      38.761  22.442  25.846  1.00  0.00    -0.352 N 
ATOM      5  C   UNL A   1      38.101  23.637  25.965  1.00  0.00     0.251 C 
ATOM      6  O   UNL A   1      38.714  24.588  26.450  1.00  0.00    -0.269 OA
ATOM      7  H   UNL A   1      39.696  22.469  26.155  1.00  0.00     0.163 HD
BRANCH   5   8
ATOM      8  C   UNL A   1      36.661  23.789  25.623  1.00  0.00     0.039 A 
ATOM      9  C   UNL A   1      34.014  24.276  24.831  1.00  0.00     0.000 A 
ATOM     10  C   UNL A   1      35.029  24.174  23.872  1.00  0.00     0.011 A 
ATOM     11  C   UNL A   1      34.318  24.091  26.179  1.00  0.00     0.011 A 
ATOM     12  C   UNL A   1      36.345  23.936  24.266  1.00  0.00     0.014 A 
ATOM     13  C   UNL A   1      35.626  23.793  26.562  1.00  0.00     0.014 A 
BRANCH   9  14
ATOM     14  C   UNL A   1      32.630  24.465  24.426  1.00  0.00     0.075 A 
ATOM     15  N   UNL A   1      31.846  23.470  23.857  1.00  0.00    -0.233 N 
ATOM     16  N   UNL A   1      30.702  23.975  23.333  1.00  0.00    -0.166 NA
ATOM     17  C   UNL A   1      30.629  25.227  23.828  1.00  0.00     0.129 A 
ATOM     18  C   UNL A   1      31.839  25.592  24.465  1.00  0.00     0.060 A 
BRANCH  15  19
ATOM     19  C   UNL A   1      32.199  22.105  23.718  1.00  0.00     0.065 A 
ATOM     20  C   UNL A   1      32.515  19.353  23.488  1.00  0.00     0.082 A 
ATOM     21  C   UNL A   1      32.286  20.114  22.339  1.00  0.00     0.024 A 
ATOM     22  C   UNL A   1      32.628  19.966  24.743  1.00  0.00     0.024 A 
ATOM     23  C   UNL A   1      32.125  21.492  22.456  1.00  0.00     0.030 A 
ATOM     24  C   UNL A   1      32.497  21.354  24.856  1.00  0.00     0.030 A 
BRANCH  20  25
ATOM     25  S   UNL A   1      32.626  17.601  23.296  1.00  0.00     0.238 S 
ATOM     26  O   UNL A   1      33.995  17.197  23.430  1.00  0.00    -0.207 OA
ATOM     27  O   UNL A   1      31.777  17.206  22.188  1.00  0.00    -0.207 OA
BRANCH  25  28
ATOM     28  N   UNL A   1      31.850  16.972  24.656  1.00  0.00    -0.225 NA
ATOM     29  H   UNL A   1      32.540  16.782  25.383  1.00  0.00     0.137 HD
ATOM     30  H   UNL A   1      31.374  16.105  24.404  1.00  0.00     0.137 HD
ENDBRANCH  25  28
ENDBRANCH  20  25
ENDBRANCH  15  19
BRANCH  17  31
ATOM     31  C   UNL A   1      29.417  26.098  23.677  1.00  0.00     0.393 C 
ATOM     32  F   UNL A   1      28.976  26.596  24.865  1.00  0.00    -0.203 F 
ATOM     33  F   UNL A   1      29.659  27.166  22.869  1.00  0.00    -0.203 F 
ENDBRANCH  17  31
ENDBRANCH   9  14
ENDBRANCH   5   8
ENDBRANCH   3   4
ENDBRANCH   2   3
ENDBRANCH   1   2
BRANCH   1  34
ATOM     34  C   UNL A   1      41.574  19.681  27.025  1.00  0.00     0.002 C 
BRANCH  34  35
ATOM     35  C   UNL A   1      42.267  18.655  26.115  1.00  0.00     0.021 C 
BRANCH  35  36
ATOM     36  C   UNL A   1      43.780  18.653  26.261  1.00  0.00     0.116 C 
BRANCH  36  37
ATOM     37  N   UNL A   1      44.444  18.701  24.958  1.00  0.00    -0.352 N 
ATOM     38  C   UNL A   1      44.648  19.787  24.134  1.00  0.00     0.251 C 
ATOM     39  H   UNL A   1      44.793  17.842  24.626  1.00  0.00     0.163 HD
ATOM     40  O   UNL A   1      44.865  19.629  22.938  1.00  0.00    -0.269 OA
BRANCH  38  41
ATOM     41  C   UNL A   1      44.606  21.137  24.719  1.00  0.00     0.039 A 
ATOM     42  C   UNL A   1      43.562  22.021  24.434  1.00  0.00     0.014 A 
ATOM     43  C   UNL A   1      45.634  21.502  25.584  1.00  0.00     0.014 A 
ATOM     44  C   UNL A   1      43.526  23.249  25.091  1.00  0.00     0.010 A 
ATOM     45  C   UNL A   1      45.513  22.634  26.346  1.00  0.00     0.010 A 
ATOM     46  C   UNL A   1      44.498  23.539  26.061  1.00  0.00    -0.014 A 
BRANCH  46  47
ATOM     47  C   UNL A   1      44.410  24.740  26.884  1.00  0.00     0.031 A 
ATOM     48  C   UNL A   1      45.454  25.757  26.595  1.00  0.00     0.074 A 
ATOM     49  C   UNL A   1      43.341  25.016  27.663  1.00  0.00     0.049 A 
ATOM     50  N   UNL A   1      46.459  26.082  27.336  1.00  0.00    -0.248 NA
ATOM     51  C   UNL A   1      45.478  26.372  25.257  1.00  0.00     0.031 C 
ATOM     52  C   UNL A   1      42.091  24.254  27.795  1.00  0.00     0.029 A 
ATOM     53  N   UNL A   1      43.091  26.122  28.413  1.00  0.00    -0.354 N 
ATOM     54  C   UNL A   1      47.100  27.121  26.670  1.00  0.00     0.074 A 
ATOM     55  C   UNL A   1      46.593  27.103  25.321  1.00  0.00     0.031 C 
ATOM     56  C   UNL A   1      41.143  25.032  28.363  1.00  0.00     0.029 A 
ATOM     57  C   UNL A   1      41.761  26.270  28.798  1.00  0.00     0.049 A 
ATOM     58  H   UNL A   1      43.792  26.765  28.663  1.00  0.00     0.167 HD
ATOM     59  C   UNL A   1      47.781  28.085  27.353  1.00  0.00     0.031 A 
ATOM     60  C   UNL A   1      41.205  27.346  29.411  1.00  0.00     0.031 A 
ATOM     61  C   UNL A   1      47.982  27.711  28.731  1.00  0.00     0.049 A 
ATOM     62  C   UNL A   1      42.315  28.100  30.041  1.00  0.00     0.074 A 
ATOM     63  C   UNL A   1      48.597  26.658  29.376  1.00  0.00     0.029 A 
ATOM     64  N   UNL A   1      47.132  28.280  29.653  1.00  0.00    -0.354 N 
ATOM     65  N   UNL A   1      43.034  27.625  31.021  1.00  0.00    -0.248 NA
ATOM     66  C   UNL A   1      42.928  29.180  29.285  1.00  0.00     0.031 C 
ATOM     67  C   UNL A   1      47.744  26.356  30.479  1.00  0.00     0.029 A 
ATOM     68  C   UNL A   1      46.706  27.289  30.498  1.00  0.00     0.049 A 
ATOM     69  H   UNL A   1      46.877  29.231  29.698  1.00  0.00     0.167 HD
ATOM     70  C   UNL A   1      44.331  28.017  30.728  1.00  0.00     0.074 A 
ATOM     71  C   UNL A   1      44.189  29.059  29.711  1.00  0.00     0.031 C 
ATOM     72  C   UNL A   1      45.400  27.265  31.127  1.00  0.00     0.031 A 
BRANCH  59  73
ATOM     73  C   UNL A   1      47.875  29.527  26.907  1.00  0.00    -0.014 A 
ATOM     74  C   UNL A   1      49.105  30.202  27.058  1.00  0.00     0.010 A 
ATOM     75  C   UNL A   1      46.746  30.320  26.616  1.00  0.00     0.010 A 
ATOM     76  C   UNL A   1      49.181  31.599  27.002  1.00  0.00     0.020 A 
ATOM     77  C   UNL A   1      46.819  31.709  26.512  1.00  0.00     0.020 A 
ATOM     78  C   UNL A   1      48.031  32.344  26.742  1.00  0.00     0.054 A 
BRANCH  78  79
ATOM     79  S   UNL A   1      48.118  34.151  26.771  1.00  0.00     0.124 S 
ATOM     80  O   UNL A   1      47.084  34.482  27.747  1.00  0.00    -0.237 OA
ATOM     81  O   UNL A   1      49.495  34.385  27.199  1.00  0.00    -0.237 OA
ATOM     82  O   UNL A   1      47.825  34.527  25.390  1.00  0.00    -0.744 OA
ENDBRANCH  78  79
ENDBRANCH  59  73
BRANCH  60  83
ATOM     83  C   UNL A   1      39.846  27.917  29.234  1.00  0.00    -0.014 A 
ATOM     84  C   UNL A   1      38.947  27.992  30.315  1.00  0.00     0.010 A 
ATOM     85  C   UNL A   1      39.540  28.661  28.076  1.00  0.00     0.010 A 
ATOM     86  C   UNL A   1      37.827  28.842  30.270  1.00  0.00     0.020 A 
ATOM     87  C   UNL A   1      38.424  29.505  28.022  1.00  0.00     0.020 A 
ATOM     88  C   UNL A   1      37.587  29.613  29.131  1.00  0.00     0.054 A 
BRANCH  88  89
ATOM     89  S   UNL A   1      36.263  30.861  29.155  1.00  0.00     0.124 S 
ATOM     90  O   UNL A   1      35.175  30.171  28.471  1.00  0.00    -0.237 OA
ATOM     91  O   UNL A   1      36.069  31.090  30.585  1.00  0.00    -0.237 OA
ATOM     92  O   UNL A   1      36.844  31.987  28.425  1.00  0.00    -0.744 OA
ENDBRANCH  88  89
ENDBRANCH  60  83
BRANCH  72  93
ATOM     93  C   UNL A   1      45.173  26.176  32.152  1.00  0.00    -0.014 A 
ATOM     94  C   UNL A   1      44.825  24.847  31.835  1.00  0.00     0.010 A 
ATOM     95  C   UNL A   1      45.470  26.487  33.490  1.00  0.00     0.010 A 
ATOM     96  C   UNL A   1      44.750  23.867  32.839  1.00  0.00     0.020 A 
ATOM     97  C   UNL A   1      45.416  25.515  34.489  1.00  0.00     0.020 A 
ATOM     98  C   UNL A   1      45.046  24.210  34.162  1.00  0.00     0.054 A 
BRANCH  98  99
ATOM     99  S   UNL A   1      44.984  22.938  35.456  1.00  0.00     0.124 S 
ATOM    100  O   UNL A   1      44.679  23.716  36.653  1.00  0.00    -0.237 OA
ATOM    101  O   UNL A   1      43.919  22.052  34.992  1.00  0.00    -0.237 OA
ATOM    102  O   UNL A   1      46.322  22.348  35.428  1.00  0.00    -0.744 OA
ENDBRANCH  98  99
ENDBRANCH  72  93
ENDBRANCH  46  47
ENDBRANCH  38  41
ENDBRANCH  36  37
ENDBRANCH  35  36
ENDBRANCH  34  35
ENDBRANCH   1  34
TORSDOF 21
ENDMDL
