MODEL 1
REMARK VINA RESULT:     -12.1      0.000      0.000
REMARK SMILES Cn1c(=O)c2c(nc(Nc3cccc(Cl)c3Cl)n2CC(=O)NCCCCCCNC(=O)c2ccc(-c3c4nc(c(-c5ccc(S(=O)(=O)[O-])cc5)c5ccc([nH]5)c(-c5ccc(S(=O)(=O)[O-])cc5)c5nc(c(-c6ccc(S(=O)(=O)[O-])cc6)c6ccc3[nH]6)C=C5)C=C4)cc2)n(C)c1=O
REMARK SMILES IDX 25 1 24 2 23 3 22 4 20 5 21 6 19 8 18 9 1 10 2 11 3 12 94 13
REMARK SMILES IDX 4 14 5 15 92 16 95 17 6 18 93 19 7 20 8 21 9 22 10 24 11 25
REMARK SMILES IDX 16 26 12 27 14 28 17 29 13 30 15 31 26 32 27 33 28 34 29 35
REMARK SMILES IDX 30 36 31 38 32 39 33 40 91 41 34 42 90 43 35 44 36 45 37 46
REMARK SMILES IDX 84 47 38 48 89 49 83 50 85 51 39 52 88 53 82 54 81 55 40 57
REMARK SMILES IDX 70 58 51 59 69 60 52 61 55 62 68 63 86 64 53 65 54 66 67 68
REMARK SMILES IDX 87 69 56 70 41 71 42 72 50 73 43 74 49 75 44 76 45 77 46 78
REMARK SMILES IDX 47 79 48 80 71 81 72 82 80 83 73 84 79 85 74 86 75 87 76 88
REMARK SMILES IDX 77 89 78 90 57 91 58 92 66 93 59 94 65 95 60 96 61 97 62 98
REMARK SMILES IDX 63 99 64 100
REMARK H PARENT 22 7 9 23 29 37 85 56 55 67
REMARK Flexibility Score: inf
ROOT
ATOM      1  C   UNL A   1      40.097  22.063  26.304  1.00  0.00     0.002 C 
ENDROOT
BRANCH   1   2
ATOM      2  C   UNL A   1      38.875  21.324  25.753  1.00  0.00     0.021 C 
BRANCH   2   3
ATOM      3  C   UNL A   1      37.659  22.221  25.570  1.00  0.00     0.116 C 
BRANCH   3   4
ATOM      4  N   UNL A   1      36.588  21.867  26.470  1.00  0.00    -0.355 N 
ATOM      5  C   UNL A   1      35.247  22.071  26.339  1.00  0.00     0.240 C 
ATOM      6  O   UNL A   1      34.523  21.570  27.205  1.00  0.00    -0.273 OA
ATOM      7  H   UNL A   1      36.867  21.413  27.298  1.00  0.00     0.163 HD
BRANCH   5   8
ATOM      8  C   UNL A   1      34.664  22.715  25.095  1.00  0.00     0.226 C 
BRANCH   8   9
ATOM      9  N   UNL A   1      33.304  23.221  25.189  1.00  0.00    -0.295 N 
ATOM     10  C   UNL A   1      33.754  28.147  24.761  1.00  0.00     0.159 C 
ATOM     11  N   UNL A   1      33.012  26.911  24.910  1.00  0.00    -0.261 N 
ATOM     12  C   UNL A   1      33.771  25.738  24.998  1.00  0.00     0.282 A 
ATOM     13  C   UNL A   1      31.610  26.990  25.003  1.00  0.00     0.332 A 
ATOM     14  O   UNL A   1      34.991  25.720  24.986  1.00  0.00    -0.267 OA
ATOM     15  C   UNL A   1      32.975  24.561  25.126  1.00  0.00     0.154 A 
ATOM     16  N   UNL A   1      30.918  25.790  25.174  1.00  0.00    -0.279 N 
ATOM     17  O   UNL A   1      31.027  28.075  24.940  1.00  0.00    -0.247 OA
ATOM     18  C   UNL A   1      31.622  24.610  25.227  1.00  0.00     0.170 A 
ATOM     19  C   UNL A   1      29.470  25.791  25.308  1.00  0.00     0.157 C 
ATOM     20  N   UNL A   1      31.092  23.377  25.393  1.00  0.00    -0.194 NA
ATOM     21  C   UNL A   1      32.111  22.540  25.432  1.00  0.00     0.210 A 
BRANCH  21  22
ATOM     22  N   UNL A   1      31.888  21.213  25.593  1.00  0.00    -0.324 N 
ATOM     23  H   UNL A   1      31.343  21.008  26.386  1.00  0.00     0.170 HD
BRANCH  22  24
ATOM     24  C   UNL A   1      32.263  20.066  24.871  1.00  0.00     0.061 A 
ATOM     25  C   UNL A   1      32.734  18.971  25.624  1.00  0.00     0.028 A 
ATOM     26  C   UNL A   1      32.218  19.946  23.468  1.00  0.00     0.083 A 
ATOM     27  C   UNL A   1      33.041  17.753  25.021  1.00  0.00     0.004 A 
ATOM     28  C   UNL A   1      32.511  18.711  22.867  1.00  0.00     0.061 A 
ATOM     29  Cl  UNL A   1      31.811  21.327  22.496  1.00  0.00    -0.080 Cl
ATOM     30  C   UNL A   1      32.905  17.617  23.645  1.00  0.00     0.022 A 
ATOM     31  Cl  UNL A   1      32.373  18.451  21.161  1.00  0.00    -0.083 Cl
ENDBRANCH  22  24
ENDBRANCH  21  22
ENDBRANCH   8   9
ENDBRANCH   5   8
ENDBRANCH   3   4
ENDBRANCH   2   3
ENDBRANCH   1   2
BRANCH   1  32
ATOM     32  C   UNL A   1      40.751  21.429  27.542  1.00  0.00     0.002 C 
BRANCH  32  33
ATOM     33  C   UNL A   1      41.576  20.156  27.296  1.00  0.00     0.021 C 
BRANCH  33  34
ATOM     34  C   UNL A   1      41.789  19.836  25.825  1.00  0.00     0.116 C 
BRANCH  34  35
ATOM     35  N   UNL A   1      43.193  19.596  25.514  1.00  0.00    -0.352 N 
ATOM     36  C   UNL A   1      44.182  20.513  25.235  1.00  0.00     0.251 C 
ATOM     37  H   UNL A   1      43.471  18.652  25.503  1.00  0.00     0.163 HD
ATOM     38  O   UNL A   1      45.181  20.159  24.615  1.00  0.00    -0.269 OA
BRANCH  36  39
ATOM     39  C   UNL A   1      44.030  21.912  25.680  1.00  0.00     0.039 A 
ATOM     40  C   UNL A   1      43.395  22.848  24.861  1.00  0.00     0.014 A 
ATOM     41  C   UNL A   1      44.553  22.300  26.914  1.00  0.00     0.014 A 
ATOM     42  C   UNL A   1      43.230  24.150  25.328  1.00  0.00     0.010 A 
ATOM     43  C   UNL A   1      44.280  23.546  27.430  1.00  0.00     0.010 A 
ATOM     44  C   UNL A   1      43.654  24.488  26.627  1.00  0.00    -0.014 A 
BRANCH  44  45
ATOM     45  C   UNL A   1      43.316  25.787  27.195  1.00  0.00     0.031 A 
ATOM     46  C   UNL A   1      44.264  26.862  26.816  1.00  0.00     0.074 A 
ATOM     47  C   UNL A   1      42.182  26.073  27.870  1.00  0.00     0.049 A 
ATOM     48  N   UNL A   1      45.256  27.296  27.518  1.00  0.00    -0.248 NA
ATOM     49  C   UNL A   1      44.242  27.370  25.436  1.00  0.00     0.031 C 
ATOM     50  C   UNL A   1      41.004  25.229  28.091  1.00  0.00     0.029 A 
ATOM     51  N   UNL A   1      41.821  27.247  28.460  1.00  0.00    -0.354 N 
ATOM     52  C   UNL A   1      45.817  28.330  26.780  1.00  0.00     0.074 A 
ATOM     53  C   UNL A   1      45.310  28.172  25.440  1.00  0.00     0.031 C 
ATOM     54  C   UNL A   1      39.989  25.979  28.584  1.00  0.00     0.029 A 
ATOM     55  C   UNL A   1      40.497  27.305  28.885  1.00  0.00     0.049 A 
ATOM     56  H   UNL A   1      42.449  27.996  28.577  1.00  0.00     0.167 HD
ATOM     57  C   UNL A   1      46.411  29.385  27.407  1.00  0.00     0.031 A 
ATOM     58  C   UNL A   1      39.876  28.364  29.465  1.00  0.00     0.031 A 
ATOM     59  C   UNL A   1      46.624  29.102  28.810  1.00  0.00     0.049 A 
ATOM     60  C   UNL A   1      40.944  29.190  30.077  1.00  0.00     0.074 A 
ATOM     61  C   UNL A   1      47.311  28.141  29.525  1.00  0.00     0.029 A 
ATOM     62  N   UNL A   1      45.711  29.647  29.685  1.00  0.00    -0.354 N 
ATOM     63  N   UNL A   1      41.680  28.782  31.074  1.00  0.00    -0.248 NA
ATOM     64  C   UNL A   1      41.486  30.298  29.311  1.00  0.00     0.031 C 
ATOM     65  C   UNL A   1      46.478  27.846  30.646  1.00  0.00     0.029 A 
ATOM     66  C   UNL A   1      45.369  28.693  30.604  1.00  0.00     0.049 A 
ATOM     67  H   UNL A   1      45.365  30.568  29.655  1.00  0.00     0.167 HD
ATOM     68  C   UNL A   1      42.948  29.267  30.795  1.00  0.00     0.074 A 
ATOM     69  C   UNL A   1      42.743  30.283  29.765  1.00  0.00     0.031 C 
ATOM     70  C   UNL A   1      44.063  28.605  31.228  1.00  0.00     0.031 A 
BRANCH  57  71
ATOM     71  C   UNL A   1      46.347  30.811  26.893  1.00  0.00    -0.014 A 
ATOM     72  C   UNL A   1      47.549  31.551  26.837  1.00  0.00     0.010 A 
ATOM     73  C   UNL A   1      45.151  31.539  26.747  1.00  0.00     0.010 A 
ATOM     74  C   UNL A   1      47.545  32.949  26.771  1.00  0.00     0.020 A 
ATOM     75  C   UNL A   1      45.135  32.932  26.637  1.00  0.00     0.020 A 
ATOM     76  C   UNL A   1      46.333  33.630  26.693  1.00  0.00     0.054 A 
BRANCH  76  77
ATOM     77  S   UNL A   1      46.331  35.438  26.729  1.00  0.00     0.124 S 
ATOM     78  O   UNL A   1      47.230  35.758  25.626  1.00  0.00    -0.237 OA
ATOM     79  O   UNL A   1      44.920  35.746  26.513  1.00  0.00    -0.237 OA
ATOM     80  O   UNL A   1      46.835  35.752  28.065  1.00  0.00    -0.744 OA
ENDBRANCH  76  77
ENDBRANCH  57  71
BRANCH  58  81
ATOM     81  C   UNL A   1      38.487  28.863  29.305  1.00  0.00    -0.014 A 
ATOM     82  C   UNL A   1      37.827  29.500  30.377  1.00  0.00     0.010 A 
ATOM     83  C   UNL A   1      37.930  29.008  28.019  1.00  0.00     0.010 A 
ATOM     84  C   UNL A   1      36.712  30.328  30.158  1.00  0.00     0.020 A 
ATOM     85  C   UNL A   1      36.813  29.827  27.793  1.00  0.00     0.020 A 
ATOM     86  C   UNL A   1      36.229  30.509  28.860  1.00  0.00     0.054 A 
BRANCH  86  87
ATOM     87  S   UNL A   1      34.926  31.743  28.560  1.00  0.00     0.124 S 
ATOM     88  O   UNL A   1      35.587  32.686  27.664  1.00  0.00    -0.237 OA
ATOM     89  O   UNL A   1      33.862  30.942  27.959  1.00  0.00    -0.237 OA
ATOM     90  O   UNL A   1      34.627  32.260  29.895  1.00  0.00    -0.744 OA
ENDBRANCH  86  87
ENDBRANCH  58  81
BRANCH  70  91
ATOM     91  C   UNL A   1      43.906  27.545  32.296  1.00  0.00    -0.014 A 
ATOM     92  C   UNL A   1      43.319  27.771  33.557  1.00  0.00     0.010 A 
ATOM     93  C   UNL A   1      44.224  26.225  31.932  1.00  0.00     0.010 A 
ATOM     94  C   UNL A   1      43.062  26.698  34.429  1.00  0.00     0.020 A 
ATOM     95  C   UNL A   1      43.956  25.154  32.786  1.00  0.00     0.020 A 
ATOM     96  C   UNL A   1      43.379  25.394  34.032  1.00  0.00     0.054 A 
BRANCH  96  97
ATOM     97  S   UNL A   1      42.982  24.001  35.128  1.00  0.00     0.124 S 
ATOM     98  O   UNL A   1      43.922  24.184  36.230  1.00  0.00    -0.237 OA
ATOM     99  O   UNL A   1      41.577  24.235  35.454  1.00  0.00    -0.237 OA
ATOM    100  O   UNL A   1      43.227  22.823  34.297  1.00  0.00    -0.744 OA
ENDBRANCH  96  97
ENDBRANCH  70  91
ENDBRANCH  44  45
ENDBRANCH  36  39
ENDBRANCH  34  35
ENDBRANCH  33  34
ENDBRANCH  32  33
ENDBRANCH   1  32
TORSDOF 19
ENDMDL
MODEL 2
REMARK VINA RESULT:     -12.0      2.874      9.429
REMARK SMILES Cn1c(=O)c2c(nc(Nc3cccc(Cl)c3Cl)n2CC(=O)NCCCCCCNC(=O)c2ccc(-c3c4nc(c(-c5ccc(S(=O)(=O)[O-])cc5)c5ccc([nH]5)c(-c5ccc(S(=O)(=O)[O-])cc5)c5nc(c(-c6ccc(S(=O)(=O)[O-])cc6)c6ccc3[nH]6)C=C5)C=C4)cc2)n(C)c1=O
REMARK SMILES IDX 25 1 24 2 23 3 22 4 20 5 21 6 19 8 18 9 1 10 2 11 3 12 94 13
REMARK SMILES IDX 4 14 5 15 92 16 95 17 6 18 93 19 7 20 8 21 9 22 10 24 11 25
REMARK SMILES IDX 16 26 12 27 14 28 17 29 13 30 15 31 26 32 27 33 28 34 29 35
REMARK SMILES IDX 30 36 31 38 32 39 33 40 91 41 34 42 90 43 35 44 36 45 37 46
REMARK SMILES IDX 84 47 38 48 89 49 83 50 85 51 39 52 88 53 82 54 81 55 40 57
REMARK SMILES IDX 70 58 51 59 69 60 52 61 55 62 68 63 86 64 53 65 54 66 67 68
REMARK SMILES IDX 87 69 56 70 41 71 42 72 50 73 43 74 49 75 44 76 45 77 46 78
REMARK SMILES IDX 47 79 48 80 71 81 72 82 80 83 73 84 79 85 74 86 75 87 76 88
REMARK SMILES IDX 77 89 78 90 57 91 58 92 66 93 59 94 65 95 60 96 61 97 62 98
REMARK SMILES IDX 63 99 64 100
REMARK H PARENT 22 7 9 23 29 37 85 56 55 67
REMARK Flexibility Score: inf
ROOT
ATOM      1  C   UNL A   1      31.970  28.713  26.241  1.00  0.00     0.002 C 
ENDROOT
BRANCH   1   2
ATOM      2  C   UNL A   1      31.387  27.440  26.861  1.00  0.00     0.021 C 
BRANCH   2   3
ATOM      3  C   UNL A   1      32.107  26.173  26.424  1.00  0.00     0.116 C 
BRANCH   3   4
ATOM      4  N   UNL A   1      31.459  24.985  26.924  1.00  0.00    -0.355 N 
ATOM      5  C   UNL A   1      31.774  23.675  26.717  1.00  0.00     0.240 C 
ATOM      6  O   UNL A   1      31.125  22.840  27.354  1.00  0.00    -0.273 OA
ATOM      7  H   UNL A   1      30.675  25.143  27.499  1.00  0.00     0.163 HD
BRANCH   5   8
ATOM      8  C   UNL A   1      32.984  23.277  25.892  1.00  0.00     0.226 C 
BRANCH   8   9
ATOM      9  N   UNL A   1      32.729  22.589  24.636  1.00  0.00    -0.295 N 
ATOM     10  C   UNL A   1      32.907  17.761  25.778  1.00  0.00     0.159 C 
ATOM     11  N   UNL A   1      32.721  18.886  24.883  1.00  0.00    -0.261 N 
ATOM     12  C   UNL A   1      32.915  20.157  25.436  1.00  0.00     0.282 A 
ATOM     13  C   UNL A   1      32.414  18.614  23.537  1.00  0.00     0.332 A 
ATOM     14  O   UNL A   1      33.253  20.347  26.592  1.00  0.00    -0.267 OA
ATOM     15  C   UNL A   1      32.699  21.214  24.503  1.00  0.00     0.154 A 
ATOM     16  N   UNL A   1      32.265  19.712  22.688  1.00  0.00    -0.279 N 
ATOM     17  O   UNL A   1      32.286  17.456  23.133  1.00  0.00    -0.247 OA
ATOM     18  C   UNL A   1      32.409  20.981  23.197  1.00  0.00     0.170 A 
ATOM     19  C   UNL A   1      31.977  19.514  21.276  1.00  0.00     0.157 C 
ATOM     20  N   UNL A   1      32.300  22.133  22.499  1.00  0.00    -0.194 NA
ATOM     21  C   UNL A   1      32.554  23.107  23.352  1.00  0.00     0.210 A 
BRANCH  21  22
ATOM     22  N   UNL A   1      32.520  24.396  22.935  1.00  0.00    -0.324 N 
ATOM     23  H   UNL A   1      33.334  24.666  22.453  1.00  0.00     0.170 HD
BRANCH  22  24
ATOM     24  C   UNL A   1      31.573  25.430  23.037  1.00  0.00     0.061 A 
ATOM     25  C   UNL A   1      30.304  25.079  23.542  1.00  0.00     0.028 A 
ATOM     26  C   UNL A   1      31.798  26.768  22.658  1.00  0.00     0.083 A 
ATOM     27  C   UNL A   1      29.324  26.041  23.776  1.00  0.00     0.004 A 
ATOM     28  C   UNL A   1      30.813  27.737  22.913  1.00  0.00     0.061 A 
ATOM     29  Cl  UNL A   1      33.284  27.206  21.872  1.00  0.00    -0.080 Cl
ATOM     30  C   UNL A   1      29.589  27.374  23.485  1.00  0.00     0.022 A 
ATOM     31  Cl  UNL A   1      31.054  29.419  22.579  1.00  0.00    -0.083 Cl
ENDBRANCH  22  24
ENDBRANCH  21  22
ENDBRANCH   8   9
ENDBRANCH   5   8
ENDBRANCH   3   4
ENDBRANCH   2   3
ENDBRANCH   1   2
BRANCH   1  32
ATOM     32  C   UNL A   1      31.751  30.002  27.049  1.00  0.00     0.002 C 
BRANCH  32  33
ATOM     33  C   UNL A   1      32.619  31.207  26.653  1.00  0.00     0.021 C 
BRANCH  33  34
ATOM     34  C   UNL A   1      33.986  31.224  27.321  1.00  0.00     0.116 C 
BRANCH  34  35
ATOM     35  N   UNL A   1      34.006  32.078  28.502  1.00  0.00    -0.352 N 
ATOM     36  C   UNL A   1      34.857  32.030  29.585  1.00  0.00     0.251 C 
ATOM     37  H   UNL A   1      33.321  32.784  28.530  1.00  0.00     0.163 HD
ATOM     38  O   UNL A   1      34.511  32.529  30.651  1.00  0.00    -0.269 OA
BRANCH  36  39
ATOM     39  C   UNL A   1      36.173  31.373  29.454  1.00  0.00     0.039 A 
ATOM     40  C   UNL A   1      37.348  32.125  29.528  1.00  0.00     0.014 A 
ATOM     41  C   UNL A   1      36.233  29.997  29.228  1.00  0.00     0.014 A 
ATOM     42  C   UNL A   1      38.573  31.469  29.444  1.00  0.00     0.010 A 
ATOM     43  C   UNL A   1      37.437  29.332  29.274  1.00  0.00     0.010 A 
ATOM     44  C   UNL A   1      38.612  30.066  29.340  1.00  0.00    -0.014 A 
BRANCH  44  45
ATOM     45  C   UNL A   1      39.881  29.356  29.446  1.00  0.00     0.031 A 
ATOM     46  C   UNL A   1      40.246  29.004  30.838  1.00  0.00     0.074 A 
ATOM     47  C   UNL A   1      40.610  28.900  28.405  1.00  0.00     0.049 A 
ATOM     48  N   UNL A   1      41.043  29.659  31.615  1.00  0.00    -0.248 NA
ATOM     49  C   UNL A   1      39.500  27.934  31.516  1.00  0.00     0.031 C 
ATOM     50  C   UNL A   1      40.273  28.893  26.977  1.00  0.00     0.029 A 
ATOM     51  N   UNL A   1      41.817  28.269  28.428  1.00  0.00    -0.354 N 
ATOM     52  C   UNL A   1      41.113  28.925  32.791  1.00  0.00     0.074 A 
ATOM     53  C   UNL A   1      39.986  28.026  32.756  1.00  0.00     0.031 C 
ATOM     54  C   UNL A   1      41.152  28.113  26.304  1.00  0.00     0.029 A 
ATOM     55  C   UNL A   1      42.212  27.717  27.213  1.00  0.00     0.049 A 
ATOM     56  H   UNL A   1      42.367  28.208  29.242  1.00  0.00     0.167 HD
ATOM     57  C   UNL A   1      42.252  28.923  33.539  1.00  0.00     0.031 A 
ATOM     58  C   UNL A   1      43.345  27.008  26.973  1.00  0.00     0.031 A 
ATOM     59  C   UNL A   1      43.155  29.971  33.113  1.00  0.00     0.049 A 
ATOM     60  C   UNL A   1      44.317  27.410  28.017  1.00  0.00     0.074 A 
ATOM     61  C   UNL A   1      43.085  31.346  33.010  1.00  0.00     0.029 A 
ATOM     62  N   UNL A   1      44.197  29.581  32.302  1.00  0.00    -0.354 N 
ATOM     63  N   UNL A   1      44.815  28.612  28.105  1.00  0.00    -0.248 NA
ATOM     64  C   UNL A   1      44.413  26.602  29.221  1.00  0.00     0.031 C 
ATOM     65  C   UNL A   1      43.785  31.664  31.808  1.00  0.00     0.029 A 
ATOM     66  C   UNL A   1      44.313  30.484  31.281  1.00  0.00     0.049 A 
ATOM     67  H   UNL A   1      44.764  28.787  32.436  1.00  0.00     0.167 HD
ATOM     68  C   UNL A   1      44.877  28.866  29.466  1.00  0.00     0.074 A 
ATOM     69  C   UNL A   1      44.727  27.557  30.100  1.00  0.00     0.031 C 
ATOM     70  C   UNL A   1      44.769  30.141  29.948  1.00  0.00     0.031 A 
BRANCH  57  71
ATOM     71  C   UNL A   1      42.758  27.710  34.297  1.00  0.00    -0.014 A 
ATOM     72  C   UNL A   1      43.002  27.846  35.681  1.00  0.00     0.010 A 
ATOM     73  C   UNL A   1      43.274  26.556  33.675  1.00  0.00     0.010 A 
ATOM     74  C   UNL A   1      43.825  26.947  36.370  1.00  0.00     0.020 A 
ATOM     75  C   UNL A   1      44.062  25.629  34.363  1.00  0.00     0.020 A 
ATOM     76  C   UNL A   1      44.367  25.855  35.697  1.00  0.00     0.054 A 
BRANCH  76  77
ATOM     77  S   UNL A   1      45.523  24.768  36.562  1.00  0.00     0.124 S 
ATOM     78  O   UNL A   1      46.690  24.818  35.687  1.00  0.00    -0.237 OA
ATOM     79  O   UNL A   1      45.664  25.437  37.852  1.00  0.00    -0.237 OA
ATOM     80  O   UNL A   1      44.820  23.487  36.603  1.00  0.00    -0.744 OA
ENDBRANCH  76  77
ENDBRANCH  57  71
BRANCH  58  81
ATOM     81  C   UNL A   1      43.567  25.829  26.099  1.00  0.00    -0.014 A 
ATOM     82  C   UNL A   1      44.828  25.603  25.507  1.00  0.00     0.010 A 
ATOM     83  C   UNL A   1      42.652  24.757  26.108  1.00  0.00     0.010 A 
ATOM     84  C   UNL A   1      45.193  24.332  25.031  1.00  0.00     0.020 A 
ATOM     85  C   UNL A   1      43.006  23.487  25.629  1.00  0.00     0.020 A 
ATOM     86  C   UNL A   1      44.288  23.273  25.122  1.00  0.00     0.054 A 
BRANCH  86  87
ATOM     87  S   UNL A   1      44.841  21.591  24.701  1.00  0.00     0.124 S 
ATOM     88  O   UNL A   1      44.540  21.510  23.275  1.00  0.00    -0.237 OA
ATOM     89  O   UNL A   1      46.259  21.627  25.045  1.00  0.00    -0.237 OA
ATOM     90  O   UNL A   1      44.022  20.735  25.558  1.00  0.00    -0.744 OA
ENDBRANCH  86  87
ENDBRANCH  58  81
BRANCH  70  91
ATOM     91  C   UNL A   1      44.930  31.295  28.982  1.00  0.00    -0.014 A 
ATOM     92  C   UNL A   1      46.128  32.011  28.795  1.00  0.00     0.010 A 
ATOM     93  C   UNL A   1      43.855  31.549  28.112  1.00  0.00     0.010 A 
ATOM     94  C   UNL A   1      46.241  32.960  27.763  1.00  0.00     0.020 A 
ATOM     95  C   UNL A   1      43.966  32.477  27.075  1.00  0.00     0.020 A 
ATOM     96  C   UNL A   1      45.157  33.181  26.906  1.00  0.00     0.054 A 
BRANCH  96  97
ATOM     97  S   UNL A   1      45.326  34.354  25.529  1.00  0.00     0.124 S 
ATOM     98  O   UNL A   1      46.767  34.368  25.298  1.00  0.00    -0.237 OA
ATOM     99  O   UNL A   1      44.525  33.734  24.476  1.00  0.00    -0.237 OA
ATOM    100  O   UNL A   1      44.774  35.599  26.062  1.00  0.00    -0.744 OA
ENDBRANCH  96  97
ENDBRANCH  70  91
ENDBRANCH  44  45
ENDBRANCH  36  39
ENDBRANCH  34  35
ENDBRANCH  33  34
ENDBRANCH  32  33
ENDBRANCH   1  32
TORSDOF 19
ENDMDL
MODEL 3
REMARK VINA RESULT:     -11.9      2.668      3.918
REMARK SMILES Cn1c(=O)c2c(nc(Nc3cccc(Cl)c3Cl)n2CC(=O)NCCCCCCNC(=O)c2ccc(-c3c4nc(c(-c5ccc(S(=O)(=O)[O-])cc5)c5ccc([nH]5)c(-c5ccc(S(=O)(=O)[O-])cc5)c5nc(c(-c6ccc(S(=O)(=O)[O-])cc6)c6ccc3[nH]6)C=C5)C=C4)cc2)n(C)c1=O
REMARK SMILES IDX 25 1 24 2 23 3 22 4 20 5 21 6 19 8 18 9 1 10 2 11 3 12 94 13
REMARK SMILES IDX 4 14 5 15 92 16 95 17 6 18 93 19 7 20 8 21 9 22 10 24 11 25
REMARK SMILES IDX 16 26 12 27 14 28 17 29 13 30 15 31 26 32 27 33 28 34 29 35
REMARK SMILES IDX 30 36 31 38 32 39 33 40 91 41 34 42 90 43 35 44 36 45 37 46
REMARK SMILES IDX 84 47 38 48 89 49 83 50 85 51 39 52 88 53 82 54 81 55 40 57
REMARK SMILES IDX 70 58 51 59 69 60 52 61 55 62 68 63 86 64 53 65 54 66 67 68
REMARK SMILES IDX 87 69 56 70 41 71 42 72 50 73 43 74 49 75 44 76 45 77 46 78
REMARK SMILES IDX 47 79 48 80 71 81 72 82 80 83 73 84 79 85 74 86 75 87 76 88
REMARK SMILES IDX 77 89 78 90 57 91 58 92 66 93 59 94 65 95 60 96 61 97 62 98
REMARK SMILES IDX 63 99 64 100
REMARK H PARENT 22 7 9 23 29 37 85 56 55 67
REMARK Flexibility Score: inf
ROOT
ATOM      1  C   UNL A   1      36.939  23.632  24.498  1.00  0.00     0.002 C 
ENDROOT
BRANCH   1   2
ATOM      2  C   UNL A   1      35.438  23.369  24.353  1.00  0.00     0.021 C 
BRANCH   2   3
ATOM      3  C   UNL A   1      34.637  24.619  24.016  1.00  0.00     0.116 C 
BRANCH   3   4
ATOM      4  N   UNL A   1      33.993  24.515  22.729  1.00  0.00    -0.355 N 
ATOM      5  C   UNL A   1      33.006  25.286  22.192  1.00  0.00     0.240 C 
ATOM      6  O   UNL A   1      32.701  25.059  21.017  1.00  0.00    -0.273 OA
ATOM      7  H   UNL A   1      34.312  23.781  22.156  1.00  0.00     0.163 HD
BRANCH   5   8
ATOM      8  C   UNL A   1      32.446  26.484  22.939  1.00  0.00     0.226 C 
BRANCH   8   9
ATOM      9  N   UNL A   1      31.019  26.477  23.223  1.00  0.00    -0.295 N 
ATOM     10  C   UNL A   1      29.550  31.152  22.432  1.00  0.00     0.159 C 
ATOM     11  N   UNL A   1      29.345  29.759  22.773  1.00  0.00    -0.261 N 
ATOM     12  C   UNL A   1      30.490  28.953  22.807  1.00  0.00     0.282 A 
ATOM     13  C   UNL A   1      28.039  29.341  23.089  1.00  0.00     0.332 A 
ATOM     14  O   UNL A   1      31.617  29.372  22.598  1.00  0.00    -0.267 OA
ATOM     15  C   UNL A   1      30.211  27.593  23.133  1.00  0.00     0.154 A 
ATOM     16  N   UNL A   1      27.871  28.001  23.441  1.00  0.00    -0.279 N 
ATOM     17  O   UNL A   1      27.092  30.131  23.056  1.00  0.00    -0.247 OA
ATOM     18  C   UNL A   1      28.962  27.166  23.450  1.00  0.00     0.170 A 
ATOM     19  C   UNL A   1      26.556  27.500  23.809  1.00  0.00     0.157 C 
ATOM     20  N   UNL A   1      28.954  25.853  23.773  1.00  0.00    -0.194 NA
ATOM     21  C   UNL A   1      30.207  25.446  23.696  1.00  0.00     0.210 A 
BRANCH  21  22
ATOM     22  N   UNL A   1      30.515  24.156  23.971  1.00  0.00    -0.324 N 
ATOM     23  H   UNL A   1      30.087  23.518  23.354  1.00  0.00     0.170 HD
BRANCH  22  24
ATOM     24  C   UNL A   1      31.313  23.529  24.943  1.00  0.00     0.061 A 
ATOM     25  C   UNL A   1      31.452  24.198  26.176  1.00  0.00     0.028 A 
ATOM     26  C   UNL A   1      31.990  22.306  24.764  1.00  0.00     0.083 A 
ATOM     27  C   UNL A   1      32.140  23.623  27.242  1.00  0.00     0.004 A 
ATOM     28  C   UNL A   1      32.667  21.721  25.847  1.00  0.00     0.061 A 
ATOM     29  Cl  UNL A   1      31.987  21.537  23.206  1.00  0.00    -0.080 Cl
ATOM     30  C   UNL A   1      32.726  22.372  27.084  1.00  0.00     0.022 A 
ATOM     31  Cl  UNL A   1      33.428  20.170  25.740  1.00  0.00    -0.083 Cl
ENDBRANCH  22  24
ENDBRANCH  21  22
ENDBRANCH   8   9
ENDBRANCH   5   8
ENDBRANCH   3   4
ENDBRANCH   2   3
ENDBRANCH   1   2
BRANCH   1  32
ATOM     32  C   UNL A   1      37.589  23.067  25.771  1.00  0.00     0.002 C 
BRANCH  32  33
ATOM     33  C   UNL A   1      38.581  21.911  25.571  1.00  0.00     0.021 C 
BRANCH  33  34
ATOM     34  C   UNL A   1      39.664  21.838  26.637  1.00  0.00     0.116 C 
BRANCH  34  35
ATOM     35  N   UNL A   1      41.002  21.933  26.066  1.00  0.00    -0.352 N 
ATOM     36  C   UNL A   1      41.783  23.052  25.884  1.00  0.00     0.251 C 
ATOM     37  H   UNL A   1      41.400  21.082  25.771  1.00  0.00     0.163 HD
ATOM     38  O   UNL A   1      42.683  23.036  25.050  1.00  0.00    -0.269 OA
BRANCH  36  39
ATOM     39  C   UNL A   1      41.528  24.263  26.690  1.00  0.00     0.039 A 
ATOM     40  C   UNL A   1      42.120  24.414  27.945  1.00  0.00     0.014 A 
ATOM     41  C   UNL A   1      40.666  25.245  26.198  1.00  0.00     0.014 A 
ATOM     42  C   UNL A   1      41.893  25.587  28.661  1.00  0.00     0.010 A 
ATOM     43  C   UNL A   1      40.543  26.455  26.841  1.00  0.00     0.010 A 
ATOM     44  C   UNL A   1      41.121  26.617  28.092  1.00  0.00    -0.014 A 
BRANCH  44  45
ATOM     45  C   UNL A   1      41.036  27.918  28.744  1.00  0.00     0.031 A 
ATOM     46  C   UNL A   1      42.124  28.845  28.353  1.00  0.00     0.074 A 
ATOM     47  C   UNL A   1      40.007  28.343  29.508  1.00  0.00     0.049 A 
ATOM     48  N   UNL A   1      43.215  29.071  29.007  1.00  0.00    -0.248 NA
ATOM     49  C   UNL A   1      42.105  29.431  27.005  1.00  0.00     0.031 C 
ATOM     50  C   UNL A   1      38.721  27.689  29.768  1.00  0.00     0.029 A 
ATOM     51  N   UNL A   1      39.881  29.523  30.178  1.00  0.00    -0.354 N 
ATOM     52  C   UNL A   1      43.894  30.042  28.284  1.00  0.00     0.074 A 
ATOM     53  C   UNL A   1      43.289  30.048  26.975  1.00  0.00     0.031 C 
ATOM     54  C   UNL A   1      37.875  28.563  30.365  1.00  0.00     0.029 A 
ATOM     55  C   UNL A   1      38.612  29.769  30.695  1.00  0.00     0.049 A 
ATOM     56  H   UNL A   1      40.630  30.152  30.288  1.00  0.00     0.167 HD
ATOM     57  C   UNL A   1      44.690  30.949  28.919  1.00  0.00     0.031 A 
ATOM     58  C   UNL A   1      38.211  30.878  31.366  1.00  0.00     0.031 A 
ATOM     59  C   UNL A   1      44.937  30.553  30.288  1.00  0.00     0.049 A 
ATOM     60  C   UNL A   1      39.435  31.483  31.943  1.00  0.00     0.074 A 
ATOM     61  C   UNL A   1      45.496  29.452  30.907  1.00  0.00     0.029 A 
ATOM     62  N   UNL A   1      44.180  31.185  31.249  1.00  0.00    -0.354 N 
ATOM     63  N   UNL A   1      40.151  30.904  32.867  1.00  0.00    -0.248 NA
ATOM     64  C   UNL A   1      40.106  32.532  31.197  1.00  0.00     0.031 C 
ATOM     65  C   UNL A   1      44.695  29.231  32.067  1.00  0.00     0.029 A 
ATOM     66  C   UNL A   1      43.740  30.247  32.142  1.00  0.00     0.049 A 
ATOM     67  H   UNL A   1      43.990  32.150  31.287  1.00  0.00     0.167 HD
ATOM     68  C   UNL A   1      41.463  31.192  32.526  1.00  0.00     0.074 A 
ATOM     69  C   UNL A   1      41.368  32.288  31.562  1.00  0.00     0.031 C 
ATOM     70  C   UNL A   1      42.477  30.335  32.849  1.00  0.00     0.031 A 
BRANCH  57  71
ATOM     71  C   UNL A   1      44.833  32.394  28.480  1.00  0.00    -0.014 A 
ATOM     72  C   UNL A   1      46.121  32.971  28.505  1.00  0.00     0.010 A 
ATOM     73  C   UNL A   1      43.747  33.279  28.332  1.00  0.00     0.010 A 
ATOM     74  C   UNL A   1      46.300  34.360  28.514  1.00  0.00     0.020 A 
ATOM     75  C   UNL A   1      43.917  34.666  28.296  1.00  0.00     0.020 A 
ATOM     76  C   UNL A   1      45.191  35.197  28.431  1.00  0.00     0.054 A 
BRANCH  76  77
ATOM     77  S   UNL A   1      45.421  36.985  28.564  1.00  0.00     0.124 S 
ATOM     78  O   UNL A   1      46.726  37.164  27.937  1.00  0.00    -0.237 OA
ATOM     79  O   UNL A   1      44.277  37.497  27.814  1.00  0.00    -0.237 OA
ATOM     80  O   UNL A   1      45.375  37.228  30.005  1.00  0.00    -0.744 OA
ENDBRANCH  76  77
ENDBRANCH  57  71
BRANCH  58  81
ATOM     81  C   UNL A   1      36.916  31.604  31.327  1.00  0.00    -0.014 A 
ATOM     82  C   UNL A   1      36.088  31.655  32.467  1.00  0.00     0.010 A 
ATOM     83  C   UNL A   1      36.646  32.514  30.285  1.00  0.00     0.010 A 
ATOM     84  C   UNL A   1      35.093  32.639  32.603  1.00  0.00     0.020 A 
ATOM     85  C   UNL A   1      35.650  33.494  30.409  1.00  0.00     0.020 A 
ATOM     86  C   UNL A   1      34.899  33.572  31.582  1.00  0.00     0.054 A 
BRANCH  86  87
ATOM     87  S   UNL A   1      33.761  34.965  31.854  1.00  0.00     0.124 S 
ATOM     88  O   UNL A   1      33.212  35.187  30.520  1.00  0.00    -0.237 OA
ATOM     89  O   UNL A   1      32.826  34.425  32.838  1.00  0.00    -0.237 OA
ATOM     90  O   UNL A   1      34.630  36.029  32.353  1.00  0.00    -0.744 OA
ENDBRANCH  86  87
ENDBRANCH  58  81
BRANCH  70  91
ATOM     91  C   UNL A   1      42.211  29.253  33.873  1.00  0.00    -0.014 A 
ATOM     92  C   UNL A   1      41.606  28.015  33.579  1.00  0.00     0.010 A 
ATOM     93  C   UNL A   1      42.751  29.447  35.156  1.00  0.00     0.010 A 
ATOM     94  C   UNL A   1      41.543  27.001  34.552  1.00  0.00     0.020 A 
ATOM     95  C   UNL A   1      42.707  28.438  36.120  1.00  0.00     0.020 A 
ATOM     96  C   UNL A   1      42.101  27.220  35.816  1.00  0.00     0.054 A 
BRANCH  96  97
ATOM     97  S   UNL A   1      42.085  25.886  37.048  1.00  0.00     0.124 S 
ATOM     98  O   UNL A   1      40.658  25.640  37.233  1.00  0.00    -0.237 OA
ATOM     99  O   UNL A   1      42.826  24.819  36.381  1.00  0.00    -0.237 OA
ATOM    100  O   UNL A   1      42.764  26.470  38.204  1.00  0.00    -0.744 OA
ENDBRANCH  96  97
ENDBRANCH  70  91
ENDBRANCH  44  45
ENDBRANCH  36  39
ENDBRANCH  34  35
ENDBRANCH  33  34
ENDBRANCH  32  33
ENDBRANCH   1  32
TORSDOF 19
ENDMDL
