MODEL 1
REMARK VINA RESULT:     -11.2      0.000      0.000
REMARK SMILES Cc1ccc(C(=O)N2C[C@H](C(=O)NCCCCCCNC(=O)c3ccc(-c4c5nc(c(-c6ccc(S(=O)(=O)[O-])cc6)c6ccc([nH]6)c(-c6ccc(S(=O)(=O)[O-])cc6)c6nc(c(-c7ccc(S(=O)(=O)[O-])cc7)c7ccc4[nH]7)C=C6)C=C5)cc3)Oc3ccccc32)o1
REMARK SMILES IDX 17 1 16 2 15 3 14 4 13 5 11 6 12 7 10 9 8 10 9 11 89 12
REMARK SMILES IDX 84 13 88 14 83 15 85 16 87 17 86 18 6 19 7 20 5 21 1 22 2 23
REMARK SMILES IDX 3 24 90 25 4 26 18 27 19 28 20 29 21 30 22 32 23 33 24 34
REMARK SMILES IDX 82 35 25 36 81 37 26 38 27 39 28 40 75 41 29 42 80 43 74 44
REMARK SMILES IDX 76 45 30 46 79 47 73 48 72 49 31 51 61 52 42 53 60 54 43 55
REMARK SMILES IDX 46 56 59 57 77 58 44 59 45 60 58 62 78 63 47 64 32 65 33 66
REMARK SMILES IDX 41 67 34 68 40 69 35 70 36 71 37 72 38 73 39 74 62 75 63 76
REMARK SMILES IDX 71 77 64 78 70 79 65 80 66 81 67 82 68 83 69 84 48 85 49 86
REMARK SMILES IDX 57 87 50 88 56 89 51 90 52 91 53 92 54 93 55 94
REMARK H PARENT 13 8 20 31 76 50 46 61
REMARK Flexibility Score: inf
ROOT
ATOM      1  C   UNL A   1      39.811  21.830  26.975  1.00  0.00     0.002 C 
ENDROOT
BRANCH   1   2
ATOM      2  C   UNL A   1      38.729  22.217  25.962  1.00  0.00     0.002 C 
BRANCH   2   3
ATOM      3  C   UNL A   1      38.111  23.606  26.152  1.00  0.00     0.021 C 
BRANCH   3   4
ATOM      4  C   UNL A   1      36.625  23.697  25.799  1.00  0.00     0.116 C 
BRANCH   4   5
ATOM      5  N   UNL A   1      35.899  22.530  26.274  1.00  0.00    -0.353 N 
ATOM      6  C   UNL A   1      34.572  22.216  26.172  1.00  0.00     0.262 C 
ATOM      7  O   UNL A   1      34.193  21.159  26.683  1.00  0.00    -0.271 OA
ATOM      8  H   UNL A   1      36.448  21.860  26.741  1.00  0.00     0.163 HD
BRANCH   6   9
ATOM      9  C   UNL A   1      33.574  23.166  25.503  1.00  0.00     0.281 C 
ATOM     10  N   UNL A   1      32.617  25.435  25.618  1.00  0.00    -0.298 N 
ATOM     11  C   UNL A   1      33.537  24.493  26.254  1.00  0.00     0.181 C 
ATOM     12  C   UNL A   1      32.556  25.368  24.190  1.00  0.00     0.087 A 
ATOM     13  C   UNL A   1      33.241  24.347  23.509  1.00  0.00     0.144 A 
ATOM     14  C   UNL A   1      31.919  26.358  23.430  1.00  0.00     0.030 A 
ATOM     15  O   UNL A   1      33.913  23.321  24.125  1.00  0.00    -0.477 OA
ATOM     16  C   UNL A   1      33.310  24.337  22.113  1.00  0.00     0.049 A 
ATOM     17  C   UNL A   1      31.982  26.343  22.033  1.00  0.00     0.002 A 
ATOM     18  C   UNL A   1      32.683  25.336  21.375  1.00  0.00     0.004 A 
BRANCH  10  19
ATOM     19  C   UNL A   1      31.832  26.325  26.364  1.00  0.00     0.294 C 
ATOM     20  O   UNL A   1      30.739  25.984  26.823  1.00  0.00    -0.265 OA
BRANCH  19  21
ATOM     21  C   UNL A   1      32.340  27.680  26.530  1.00  0.00     0.192 A 
ATOM     22  C   UNL A   1      35.199  29.519  27.663  1.00  0.00     0.087 C 
ATOM     23  C   UNL A   1      33.864  29.155  27.149  1.00  0.00     0.101 A 
ATOM     24  C   UNL A   1      32.732  29.878  26.854  1.00  0.00     0.046 A 
ATOM     25  O   UNL A   1      33.641  27.830  26.939  1.00  0.00    -0.456 OA
ATOM     26  C   UNL A   1      31.750  28.933  26.468  1.00  0.00     0.056 A 
ENDBRANCH  19  21
ENDBRANCH  10  19
ENDBRANCH   6   9
ENDBRANCH   4   5
ENDBRANCH   3   4
ENDBRANCH   2   3
ENDBRANCH   1   2
BRANCH   1  27
ATOM     27  C   UNL A   1      41.258  22.006  26.505  1.00  0.00     0.021 C 
BRANCH  27  28
ATOM     28  C   UNL A   1      41.934  23.309  26.930  1.00  0.00     0.116 C 
BRANCH  28  29
ATOM     29  N   UNL A   1      42.218  24.183  25.805  1.00  0.00    -0.352 N 
ATOM     30  C   UNL A   1      42.210  25.556  25.752  1.00  0.00     0.251 C 
ATOM     31  H   UNL A   1      42.451  23.728  24.963  1.00  0.00     0.163 HD
ATOM     32  O   UNL A   1      42.337  26.129  24.673  1.00  0.00    -0.269 OA
BRANCH  30  33
ATOM     33  C   UNL A   1      42.018  26.344  26.990  1.00  0.00     0.039 A 
ATOM     34  C   UNL A   1      43.071  27.139  27.453  1.00  0.00     0.014 A 
ATOM     35  C   UNL A   1      40.811  26.294  27.694  1.00  0.00     0.014 A 
ATOM     36  C   UNL A   1      42.893  27.937  28.586  1.00  0.00     0.010 A 
ATOM     37  C   UNL A   1      40.623  27.119  28.803  1.00  0.00     0.010 A 
ATOM     38  C   UNL A   1      41.658  27.954  29.252  1.00  0.00    -0.014 A 
BRANCH  38  39
ATOM     39  C   UNL A   1      41.419  28.855  30.407  1.00  0.00     0.031 A 
ATOM     40  C   UNL A   1      42.255  28.736  31.649  1.00  0.00     0.074 A 
ATOM     41  C   UNL A   1      40.395  29.729  30.367  1.00  0.00     0.049 A 
ATOM     42  N   UNL A   1      42.123  29.357  32.793  1.00  0.00    -0.248 NA
ATOM     43  C   UNL A   1      43.374  27.783  31.604  1.00  0.00     0.031 C 
ATOM     44  C   UNL A   1      39.490  29.925  29.231  1.00  0.00     0.029 A 
ATOM     45  N   UNL A   1      39.933  30.607  31.315  1.00  0.00    -0.354 N 
ATOM     46  C   UNL A   1      43.124  28.854  33.614  1.00  0.00     0.074 A 
ATOM     47  C   UNL A   1      43.845  27.863  32.841  1.00  0.00     0.031 C 
ATOM     48  C   UNL A   1      38.588  30.868  29.548  1.00  0.00     0.029 A 
ATOM     49  C   UNL A   1      38.830  31.320  30.915  1.00  0.00     0.049 A 
ATOM     50  H   UNL A   1      40.353  30.715  32.199  1.00  0.00     0.167 HD
ATOM     51  C   UNL A   1      43.421  29.188  34.892  1.00  0.00     0.031 A 
ATOM     52  C   UNL A   1      38.085  32.227  31.576  1.00  0.00     0.031 A 
ATOM     53  C   UNL A   1      42.720  30.184  35.659  1.00  0.00     0.049 A 
ATOM     54  C   UNL A   1      38.437  32.589  32.990  1.00  0.00     0.074 A 
ATOM     55  C   UNL A   1      42.979  30.619  36.946  1.00  0.00     0.029 A 
ATOM     56  N   UNL A   1      41.624  30.899  35.207  1.00  0.00    -0.354 N 
ATOM     57  N   UNL A   1      39.408  32.122  33.739  1.00  0.00    -0.248 NA
ATOM     58  C   UNL A   1      37.597  33.600  33.646  1.00  0.00     0.031 C 
ATOM     59  C   UNL A   1      42.023  31.585  37.282  1.00  0.00     0.029 A 
ATOM     60  C   UNL A   1      41.185  31.767  36.192  1.00  0.00     0.049 A 
ATOM     61  H   UNL A   1      41.215  30.805  34.316  1.00  0.00     0.167 HD
ATOM     62  C   UNL A   1      39.301  32.791  34.952  1.00  0.00     0.074 A 
ATOM     63  C   UNL A   1      38.180  33.701  34.834  1.00  0.00     0.031 C 
ATOM     64  C   UNL A   1      40.066  32.662  36.061  1.00  0.00     0.031 A 
BRANCH  51  65
ATOM     65  C   UNL A   1      44.555  28.451  35.544  1.00  0.00    -0.014 A 
ATOM     66  C   UNL A   1      44.310  27.400  36.446  1.00  0.00     0.010 A 
ATOM     67  C   UNL A   1      45.882  28.807  35.246  1.00  0.00     0.010 A 
ATOM     68  C   UNL A   1      45.374  26.748  37.074  1.00  0.00     0.020 A 
ATOM     69  C   UNL A   1      46.949  28.144  35.860  1.00  0.00     0.020 A 
ATOM     70  C   UNL A   1      46.686  27.133  36.786  1.00  0.00     0.054 A 
BRANCH  70  71
ATOM     71  S   UNL A   1      48.057  26.280  37.616  1.00  0.00     0.124 S 
ATOM     72  O   UNL A   1      49.215  26.999  37.091  1.00  0.00    -0.237 OA
ATOM     73  O   UNL A   1      47.770  26.501  39.031  1.00  0.00    -0.237 OA
ATOM     74  O   UNL A   1      47.923  24.898  37.165  1.00  0.00    -0.744 OA
ENDBRANCH  70  71
ENDBRANCH  51  65
BRANCH  52  75
ATOM     75  C   UNL A   1      36.927  32.859  30.896  1.00  0.00    -0.014 A 
ATOM     76  C   UNL A   1      35.618  32.455  31.210  1.00  0.00     0.010 A 
ATOM     77  C   UNL A   1      37.126  33.890  29.961  1.00  0.00     0.010 A 
ATOM     78  C   UNL A   1      34.523  33.070  30.596  1.00  0.00     0.020 A 
ATOM     79  C   UNL A   1      36.033  34.517  29.356  1.00  0.00     0.020 A 
ATOM     80  C   UNL A   1      34.738  34.098  29.673  1.00  0.00     0.054 A 
BRANCH  80  81
ATOM     81  S   UNL A   1      33.308  34.943  28.941  1.00  0.00     0.124 S 
ATOM     82  O   UNL A   1      32.861  33.973  27.947  1.00  0.00    -0.237 OA
ATOM     83  O   UNL A   1      32.423  35.131  30.088  1.00  0.00    -0.237 OA
ATOM     84  O   UNL A   1      33.887  36.174  28.405  1.00  0.00    -0.744 OA
ENDBRANCH  80  81
ENDBRANCH  52  75
BRANCH  64  85
ATOM     85  C   UNL A   1      39.727  33.537  37.235  1.00  0.00    -0.014 A 
ATOM     86  C   UNL A   1      38.746  33.147  38.162  1.00  0.00     0.010 A 
ATOM     87  C   UNL A   1      40.434  34.736  37.439  1.00  0.00     0.010 A 
ATOM     88  C   UNL A   1      38.462  33.952  39.268  1.00  0.00     0.020 A 
ATOM     89  C   UNL A   1      40.163  35.535  38.551  1.00  0.00     0.020 A 
ATOM     90  C   UNL A   1      39.171  35.143  39.454  1.00  0.00     0.054 A 
BRANCH  90  91
ATOM     91  S   UNL A   1      38.831  36.152  40.923  1.00  0.00     0.124 S 
ATOM     92  O   UNL A   1      38.489  37.443  40.332  1.00  0.00    -0.237 OA
ATOM     93  O   UNL A   1      37.725  35.440  41.560  1.00  0.00    -0.237 OA
ATOM     94  O   UNL A   1      40.091  36.117  41.662  1.00  0.00    -0.744 OA
ENDBRANCH  90  91
ENDBRANCH  64  85
ENDBRANCH  38  39
ENDBRANCH  30  33
ENDBRANCH  28  29
ENDBRANCH  27  28
ENDBRANCH   1  27
TORSDOF 18
ENDMDL
MODEL 2
REMARK VINA RESULT:     -11.1      2.517      8.810
REMARK SMILES Cc1ccc(C(=O)N2C[C@H](C(=O)NCCCCCCNC(=O)c3ccc(-c4c5nc(c(-c6ccc(S(=O)(=O)[O-])cc6)c6ccc([nH]6)c(-c6ccc(S(=O)(=O)[O-])cc6)c6nc(c(-c7ccc(S(=O)(=O)[O-])cc7)c7ccc4[nH]7)C=C6)C=C5)cc3)Oc3ccccc32)o1
REMARK SMILES IDX 17 1 16 2 15 3 14 4 13 5 11 6 12 7 10 9 8 10 9 11 89 12
REMARK SMILES IDX 84 13 88 14 83 15 85 16 87 17 86 18 6 19 7 20 5 21 1 22 2 23
REMARK SMILES IDX 3 24 90 25 4 26 18 27 19 28 20 29 21 30 22 32 23 33 24 34
REMARK SMILES IDX 82 35 25 36 81 37 26 38 27 39 28 40 75 41 29 42 80 43 74 44
REMARK SMILES IDX 76 45 30 46 79 47 73 48 72 49 31 51 61 52 42 53 60 54 43 55
REMARK SMILES IDX 46 56 59 57 77 58 44 59 45 60 58 62 78 63 47 64 32 65 33 66
REMARK SMILES IDX 41 67 34 68 40 69 35 70 36 71 37 72 38 73 39 74 62 75 63 76
REMARK SMILES IDX 71 77 64 78 70 79 65 80 66 81 67 82 68 83 69 84 48 85 49 86
REMARK SMILES IDX 57 87 50 88 56 89 51 90 52 91 53 92 54 93 55 94
REMARK H PARENT 13 8 20 31 76 50 46 61
REMARK Flexibility Score: inf
ROOT
ATOM      1  C   UNL A   1      35.504  33.099  28.003  1.00  0.00     0.002 C 
ENDROOT
BRANCH   1   2
ATOM      2  C   UNL A   1      35.421  31.667  28.544  1.00  0.00     0.002 C 
BRANCH   2   3
ATOM      3  C   UNL A   1      36.289  30.635  27.817  1.00  0.00     0.021 C 
BRANCH   3   4
ATOM      4  C   UNL A   1      35.509  29.494  27.162  1.00  0.00     0.116 C 
BRANCH   4   5
ATOM      5  N   UNL A   1      34.204  29.944  26.703  1.00  0.00    -0.353 N 
ATOM      6  C   UNL A   1      33.372  29.413  25.757  1.00  0.00     0.262 C 
ATOM      7  O   UNL A   1      32.312  30.003  25.532  1.00  0.00    -0.271 OA
ATOM      8  H   UNL A   1      33.867  30.758  27.141  1.00  0.00     0.163 HD
BRANCH   6   9
ATOM      9  C   UNL A   1      33.762  28.167  24.957  1.00  0.00     0.281 C 
ATOM     10  N   UNL A   1      33.936  25.710  25.074  1.00  0.00    -0.298 N 
ATOM     11  C   UNL A   1      33.603  26.922  25.823  1.00  0.00     0.181 C 
ATOM     12  C   UNL A   1      33.577  25.724  23.689  1.00  0.00     0.087 A 
ATOM     13  C   UNL A   1      33.079  26.903  23.108  1.00  0.00     0.144 A 
ATOM     14  C   UNL A   1      33.603  24.561  22.907  1.00  0.00     0.030 A 
ATOM     15  O   UNL A   1      32.989  28.108  23.758  1.00  0.00    -0.477 OA
ATOM     16  C   UNL A   1      32.595  26.907  21.797  1.00  0.00     0.049 A 
ATOM     17  C   UNL A   1      33.125  24.569  21.593  1.00  0.00     0.002 A 
ATOM     18  C   UNL A   1      32.615  25.740  21.040  1.00  0.00     0.004 A 
BRANCH  10  19
ATOM     19  C   UNL A   1      34.585  24.623  25.673  1.00  0.00     0.294 C 
ATOM     20  O   UNL A   1      35.802  24.456  25.550  1.00  0.00    -0.265 OA
BRANCH  19  21
ATOM     21  C   UNL A   1      33.755  23.673  26.403  1.00  0.00     0.192 A 
ATOM     22  C   UNL A   1      30.342  22.747  26.976  1.00  0.00     0.087 C 
ATOM     23  C   UNL A   1      31.815  22.824  27.030  1.00  0.00     0.101 A 
ATOM     24  C   UNL A   1      32.768  22.219  27.817  1.00  0.00     0.046 A 
ATOM     25  O   UNL A   1      32.404  23.690  26.163  1.00  0.00    -0.456 OA
ATOM     26  C   UNL A   1      34.011  22.771  27.424  1.00  0.00     0.056 A 
ENDBRANCH  19  21
ENDBRANCH  10  19
ENDBRANCH   6   9
ENDBRANCH   4   5
ENDBRANCH   3   4
ENDBRANCH   2   3
ENDBRANCH   1   2
BRANCH   1  27
ATOM     27  C   UNL A   1      34.193  33.892  28.014  1.00  0.00     0.021 C 
BRANCH  27  28
ATOM     28  C   UNL A   1      34.276  35.290  28.625  1.00  0.00     0.116 C 
BRANCH  28  29
ATOM     29  N   UNL A   1      33.238  35.530  29.612  1.00  0.00    -0.352 N 
ATOM     30  C   UNL A   1      33.198  35.159  30.934  1.00  0.00     0.251 C 
ATOM     31  H   UNL A   1      32.453  36.029  29.289  1.00  0.00     0.163 HD
ATOM     32  O   UNL A   1      32.172  35.324  31.588  1.00  0.00    -0.269 OA
BRANCH  30  33
ATOM     33  C   UNL A   1      34.383  34.535  31.564  1.00  0.00     0.039 A 
ATOM     34  C   UNL A   1      34.380  33.154  31.785  1.00  0.00     0.014 A 
ATOM     35  C   UNL A   1      35.487  35.305  31.943  1.00  0.00     0.014 A 
ATOM     36  C   UNL A   1      35.510  32.534  32.324  1.00  0.00     0.010 A 
ATOM     37  C   UNL A   1      36.628  34.681  32.446  1.00  0.00     0.010 A 
ATOM     38  C   UNL A   1      36.653  33.289  32.631  1.00  0.00    -0.014 A 
BRANCH  38  39
ATOM     39  C   UNL A   1      37.893  32.642  33.126  1.00  0.00     0.031 A 
ATOM     40  C   UNL A   1      38.363  32.877  34.533  1.00  0.00     0.074 A 
ATOM     41  C   UNL A   1      38.640  31.904  32.282  1.00  0.00     0.049 A 
ATOM     42  N   UNL A   1      39.473  32.488  35.106  1.00  0.00    -0.248 NA
ATOM     43  C   UNL A   1      37.478  33.666  35.403  1.00  0.00     0.031 C 
ATOM     44  C   UNL A   1      38.310  31.620  30.884  1.00  0.00     0.029 A 
ATOM     45  N   UNL A   1      39.841  31.270  32.476  1.00  0.00    -0.354 N 
ATOM     46  C   UNL A   1      39.434  33.005  36.395  1.00  0.00     0.074 A 
ATOM     47  C   UNL A   1      38.197  33.750  36.514  1.00  0.00     0.031 C 
ATOM     48  C   UNL A   1      39.282  30.863  30.349  1.00  0.00     0.029 A 
ATOM     49  C   UNL A   1      40.315  30.634  31.355  1.00  0.00     0.049 A 
ATOM     50  H   UNL A   1      40.317  31.269  33.337  1.00  0.00     0.167 HD
ATOM     51  C   UNL A   1      40.341  32.869  37.392  1.00  0.00     0.031 A 
ATOM     52  C   UNL A   1      41.460  29.954  31.150  1.00  0.00     0.031 A 
ATOM     53  C   UNL A   1      41.562  32.116  37.287  1.00  0.00     0.049 A 
ATOM     54  C   UNL A   1      42.448  29.809  32.272  1.00  0.00     0.074 A 
ATOM     55  C   UNL A   1      42.519  31.886  38.259  1.00  0.00     0.029 A 
ATOM     56  N   UNL A   1      41.992  31.468  36.140  1.00  0.00    -0.354 N 
ATOM     57  N   UNL A   1      42.377  30.281  33.494  1.00  0.00    -0.248 NA
ATOM     58  C   UNL A   1      43.666  29.038  31.989  1.00  0.00     0.031 C 
ATOM     59  C   UNL A   1      43.543  31.117  37.691  1.00  0.00     0.029 A 
ATOM     60  C   UNL A   1      43.207  30.848  36.374  1.00  0.00     0.049 A 
ATOM     61  H   UNL A   1      41.507  31.452  35.284  1.00  0.00     0.167 HD
ATOM     62  C   UNL A   1      43.537  29.854  34.129  1.00  0.00     0.074 A 
ATOM     63  C   UNL A   1      44.287  29.079  33.161  1.00  0.00     0.031 C 
ATOM     64  C   UNL A   1      43.942  30.084  35.400  1.00  0.00     0.031 A 
BRANCH  51  65
ATOM     65  C   UNL A   1      40.041  33.568  38.687  1.00  0.00    -0.014 A 
ATOM     66  C   UNL A   1      40.570  34.842  38.958  1.00  0.00     0.010 A 
ATOM     67  C   UNL A   1      39.216  32.947  39.641  1.00  0.00     0.010 A 
ATOM     68  C   UNL A   1      40.315  35.465  40.182  1.00  0.00     0.020 A 
ATOM     69  C   UNL A   1      38.944  33.576  40.860  1.00  0.00     0.020 A 
ATOM     70  C   UNL A   1      39.513  34.823  41.130  1.00  0.00     0.054 A 
BRANCH  70  71
ATOM     71  S   UNL A   1      39.197  35.642  42.718  1.00  0.00     0.124 S 
ATOM     72  O   UNL A   1      40.070  34.893  43.618  1.00  0.00    -0.237 OA
ATOM     73  O   UNL A   1      39.598  37.023  42.459  1.00  0.00    -0.237 OA
ATOM     74  O   UNL A   1      37.766  35.441  42.927  1.00  0.00    -0.744 OA
ENDBRANCH  70  71
ENDBRANCH  51  65
BRANCH  52  75
ATOM     75  C   UNL A   1      41.729  29.356  29.819  1.00  0.00    -0.014 A 
ATOM     76  C   UNL A   1      41.077  28.173  29.431  1.00  0.00     0.010 A 
ATOM     77  C   UNL A   1      42.611  29.983  28.922  1.00  0.00     0.010 A 
ATOM     78  C   UNL A   1      41.303  27.624  28.167  1.00  0.00     0.020 A 
ATOM     79  C   UNL A   1      42.828  29.445  27.651  1.00  0.00     0.020 A 
ATOM     80  C   UNL A   1      42.177  28.264  27.284  1.00  0.00     0.054 A 
BRANCH  80  81
ATOM     81  S   UNL A   1      42.404  27.586  25.616  1.00  0.00     0.124 S 
ATOM     82  O   UNL A   1      43.798  27.156  25.651  1.00  0.00    -0.237 OA
ATOM     83  O   UNL A   1      41.411  26.516  25.564  1.00  0.00    -0.237 OA
ATOM     84  O   UNL A   1      42.118  28.729  24.749  1.00  0.00    -0.744 OA
ENDBRANCH  80  81
ENDBRANCH  52  75
BRANCH  64  85
ATOM     85  C   UNL A   1      45.249  29.477  35.825  1.00  0.00    -0.014 A 
ATOM     86  C   UNL A   1      46.449  30.196  35.700  1.00  0.00     0.010 A 
ATOM     87  C   UNL A   1      45.268  28.195  36.403  1.00  0.00     0.010 A 
ATOM     88  C   UNL A   1      47.654  29.636  36.130  1.00  0.00     0.020 A 
ATOM     89  C   UNL A   1      46.469  27.638  36.847  1.00  0.00     0.020 A 
ATOM     90  C   UNL A   1      47.657  28.359  36.698  1.00  0.00     0.054 A 
BRANCH  90  91
ATOM     91  S   UNL A   1      49.221  27.664  37.303  1.00  0.00     0.124 S 
ATOM     92  O   UNL A   1      50.156  28.069  36.256  1.00  0.00    -0.237 OA
ATOM     93  O   UNL A   1      49.396  28.328  38.592  1.00  0.00    -0.237 OA
ATOM     94  O   UNL A   1      48.952  26.231  37.380  1.00  0.00    -0.744 OA
ENDBRANCH  90  91
ENDBRANCH  64  85
ENDBRANCH  38  39
ENDBRANCH  30  33
ENDBRANCH  28  29
ENDBRANCH  27  28
ENDBRANCH   1  27
TORSDOF 18
ENDMDL
MODEL 3
REMARK VINA RESULT:     -11.0      2.531      8.678
REMARK SMILES Cc1ccc(C(=O)N2C[C@H](C(=O)NCCCCCCNC(=O)c3ccc(-c4c5nc(c(-c6ccc(S(=O)(=O)[O-])cc6)c6ccc([nH]6)c(-c6ccc(S(=O)(=O)[O-])cc6)c6nc(c(-c7ccc(S(=O)(=O)[O-])cc7)c7ccc4[nH]7)C=C6)C=C5)cc3)Oc3ccccc32)o1
REMARK SMILES IDX 17 1 16 2 15 3 14 4 13 5 11 6 12 7 10 9 8 10 9 11 89 12
REMARK SMILES IDX 84 13 88 14 83 15 85 16 87 17 86 18 6 19 7 20 5 21 1 22 2 23
REMARK SMILES IDX 3 24 90 25 4 26 18 27 19 28 20 29 21 30 22 32 23 33 24 34
REMARK SMILES IDX 82 35 25 36 81 37 26 38 27 39 28 40 75 41 29 42 80 43 74 44
REMARK SMILES IDX 76 45 30 46 79 47 73 48 72 49 31 51 61 52 42 53 60 54 43 55
REMARK SMILES IDX 46 56 59 57 77 58 44 59 45 60 58 62 78 63 47 64 32 65 33 66
REMARK SMILES IDX 41 67 34 68 40 69 35 70 36 71 37 72 38 73 39 74 62 75 63 76
REMARK SMILES IDX 71 77 64 78 70 79 65 80 66 81 67 82 68 83 69 84 48 85 49 86
REMARK SMILES IDX 57 87 50 88 56 89 51 90 52 91 53 92 54 93 55 94
REMARK H PARENT 13 8 20 31 76 50 46 61
REMARK Flexibility Score: inf
ROOT
ATOM      1  C   UNL A   1      34.614  30.935  28.226  1.00  0.00     0.002 C 
ENDROOT
BRANCH   1   2
ATOM      2  C   UNL A   1      35.264  29.911  27.289  1.00  0.00     0.002 C 
BRANCH   2   3
ATOM      3  C   UNL A   1      34.324  28.838  26.728  1.00  0.00     0.021 C 
BRANCH   3   4
ATOM      4  C   UNL A   1      33.443  29.306  25.569  1.00  0.00     0.116 C 
BRANCH   4   5
ATOM      5  N   UNL A   1      34.076  29.041  24.287  1.00  0.00    -0.353 N 
ATOM      6  C   UNL A   1      33.617  28.340  23.206  1.00  0.00     0.262 C 
ATOM      7  O   UNL A   1      34.365  28.241  22.229  1.00  0.00    -0.271 OA
ATOM      8  H   UNL A   1      34.974  29.428  24.179  1.00  0.00     0.163 HD
BRANCH   6   9
ATOM      9  C   UNL A   1      32.252  27.646  23.223  1.00  0.00     0.281 C 
ATOM     10  N   UNL A   1      30.759  26.243  24.595  1.00  0.00    -0.298 N 
ATOM     11  C   UNL A   1      32.070  26.889  24.535  1.00  0.00     0.181 C 
ATOM     12  C   UNL A   1      29.688  26.963  23.978  1.00  0.00     0.087 A 
ATOM     13  C   UNL A   1      29.963  28.133  23.248  1.00  0.00     0.144 A 
ATOM     14  C   UNL A   1      28.348  26.601  24.167  1.00  0.00     0.030 A 
ATOM     15  O   UNL A   1      31.224  28.609  22.994  1.00  0.00    -0.477 OA
ATOM     16  C   UNL A   1      28.926  28.928  22.751  1.00  0.00     0.049 A 
ATOM     17  C   UNL A   1      27.312  27.393  23.663  1.00  0.00     0.002 A 
ATOM     18  C   UNL A   1      27.600  28.560  22.961  1.00  0.00     0.004 A 
BRANCH  10  19
ATOM     19  C   UNL A   1      30.576  24.991  25.197  1.00  0.00     0.294 C 
ATOM     20  O   UNL A   1      30.079  24.888  26.322  1.00  0.00    -0.265 OA
BRANCH  19  21
ATOM     21  C   UNL A   1      31.045  23.824  24.460  1.00  0.00     0.192 A 
ATOM     22  C   UNL A   1      32.747  20.700  24.881  1.00  0.00     0.087 C 
ATOM     23  C   UNL A   1      32.064  21.871  24.298  1.00  0.00     0.101 A 
ATOM     24  C   UNL A   1      31.824  22.284  23.008  1.00  0.00     0.046 A 
ATOM     25  O   UNL A   1      31.581  22.787  25.180  1.00  0.00    -0.456 OA
ATOM     26  C   UNL A   1      31.181  23.542  23.110  1.00  0.00     0.056 A 
ENDBRANCH  19  21
ENDBRANCH  10  19
ENDBRANCH   6   9
ENDBRANCH   4   5
ENDBRANCH   3   4
ENDBRANCH   2   3
ENDBRANCH   1   2
BRANCH   1  27
ATOM     27  C   UNL A   1      34.234  32.275  27.588  1.00  0.00     0.021 C 
BRANCH  27  28
ATOM     28  C   UNL A   1      32.802  32.741  27.842  1.00  0.00     0.116 C 
BRANCH  28  29
ATOM     29  N   UNL A   1      32.695  34.186  27.947  1.00  0.00    -0.352 N 
ATOM     30  C   UNL A   1      33.415  35.052  28.733  1.00  0.00     0.251 C 
ATOM     31  H   UNL A   1      32.011  34.602  27.374  1.00  0.00     0.163 HD
ATOM     32  O   UNL A   1      33.091  36.235  28.799  1.00  0.00    -0.269 OA
BRANCH  30  33
ATOM     33  C   UNL A   1      34.564  34.555  29.523  1.00  0.00     0.039 A 
ATOM     34  C   UNL A   1      34.321  33.953  30.762  1.00  0.00     0.014 A 
ATOM     35  C   UNL A   1      35.873  34.688  29.050  1.00  0.00     0.014 A 
ATOM     36  C   UNL A   1      35.384  33.424  31.497  1.00  0.00     0.010 A 
ATOM     37  C   UNL A   1      36.929  34.127  29.768  1.00  0.00     0.010 A 
ATOM     38  C   UNL A   1      36.692  33.481  30.993  1.00  0.00    -0.014 A 
BRANCH  38  39
ATOM     39  C   UNL A   1      37.825  32.854  31.716  1.00  0.00     0.031 A 
ATOM     40  C   UNL A   1      38.529  31.660  31.138  1.00  0.00     0.074 A 
ATOM     41  C   UNL A   1      38.170  33.312  32.936  1.00  0.00     0.049 A 
ATOM     42  N   UNL A   1      39.462  30.915  31.672  1.00  0.00    -0.248 NA
ATOM     43  C   UNL A   1      38.118  31.240  29.789  1.00  0.00     0.031 C 
ATOM     44  C   UNL A   1      37.549  34.447  33.622  1.00  0.00     0.029 A 
ATOM     45  N   UNL A   1      39.119  32.867  33.820  1.00  0.00    -0.354 N 
ATOM     46  C   UNL A   1      39.734  29.923  30.739  1.00  0.00     0.074 A 
ATOM     47  C   UNL A   1      38.855  30.151  29.611  1.00  0.00     0.031 C 
ATOM     48  C   UNL A   1      38.139  34.612  34.817  1.00  0.00     0.029 A 
ATOM     49  C   UNL A   1      39.156  33.579  34.994  1.00  0.00     0.049 A 
ATOM     50  H   UNL A   1      39.719  32.109  33.631  1.00  0.00     0.167 HD
ATOM     51  C   UNL A   1      40.637  28.915  30.810  1.00  0.00     0.031 A 
ATOM     52  C   UNL A   1      39.912  33.415  36.096  1.00  0.00     0.031 A 
ATOM     53  C   UNL A   1      41.525  28.693  31.920  1.00  0.00     0.049 A 
ATOM     54  C   UNL A   1      40.912  32.296  36.151  1.00  0.00     0.074 A 
ATOM     55  C   UNL A   1      42.503  27.724  32.060  1.00  0.00     0.029 A 
ATOM     56  N   UNL A   1      41.545  29.453  33.079  1.00  0.00    -0.354 N 
ATOM     57  N   UNL A   1      41.174  31.385  35.244  1.00  0.00    -0.248 NA
ATOM     58  C   UNL A   1      41.718  32.185  37.374  1.00  0.00     0.031 C 
ATOM     59  C   UNL A   1      43.100  27.884  33.317  1.00  0.00     0.029 A 
ATOM     60  C   UNL A   1      42.510  28.969  33.945  1.00  0.00     0.049 A 
ATOM     61  H   UNL A   1      40.959  30.223  33.260  1.00  0.00     0.167 HD
ATOM     62  C   UNL A   1      42.185  30.599  35.783  1.00  0.00     0.074 A 
ATOM     63  C   UNL A   1      42.493  31.145  37.089  1.00  0.00     0.031 C 
ATOM     64  C   UNL A   1      42.801  29.521  35.242  1.00  0.00     0.031 A 
BRANCH  51  65
ATOM     65  C   UNL A   1      40.693  27.966  29.648  1.00  0.00    -0.014 A 
ATOM     66  C   UNL A   1      39.769  26.913  29.532  1.00  0.00     0.010 A 
ATOM     67  C   UNL A   1      41.676  28.133  28.657  1.00  0.00     0.010 A 
ATOM     68  C   UNL A   1      39.856  26.014  28.465  1.00  0.00     0.020 A 
ATOM     69  C   UNL A   1      41.755  27.246  27.580  1.00  0.00     0.020 A 
ATOM     70  C   UNL A   1      40.856  26.179  27.503  1.00  0.00     0.054 A 
BRANCH  70  71
ATOM     71  S   UNL A   1      40.960  25.000  26.128  1.00  0.00     0.124 S 
ATOM     72  O   UNL A   1      39.585  24.511  26.051  1.00  0.00    -0.237 OA
ATOM     73  O   UNL A   1      41.392  25.837  25.011  1.00  0.00    -0.237 OA
ATOM     74  O   UNL A   1      41.944  24.024  26.588  1.00  0.00    -0.744 OA
ENDBRANCH  70  71
ENDBRANCH  51  65
BRANCH  52  75
ATOM     75  C   UNL A   1      39.747  34.343  37.243  1.00  0.00    -0.014 A 
ATOM     76  C   UNL A   1      39.039  33.935  38.386  1.00  0.00     0.010 A 
ATOM     77  C   UNL A   1      40.328  35.623  37.211  1.00  0.00     0.010 A 
ATOM     78  C   UNL A   1      38.909  34.794  39.480  1.00  0.00     0.020 A 
ATOM     79  C   UNL A   1      40.212  36.479  38.310  1.00  0.00     0.020 A 
ATOM     80  C   UNL A   1      39.498  36.060  39.435  1.00  0.00     0.054 A 
BRANCH  80  81
ATOM     81  S   UNL A   1      39.391  37.138  40.892  1.00  0.00     0.124 S 
ATOM     82  O   UNL A   1      40.794  37.276  41.269  1.00  0.00    -0.237 OA
ATOM     83  O   UNL A   1      38.756  38.341  40.357  1.00  0.00    -0.237 OA
ATOM     84  O   UNL A   1      38.562  36.368  41.817  1.00  0.00    -0.744 OA
ENDBRANCH  80  81
ENDBRANCH  52  75
BRANCH  64  85
ATOM     85  C   UNL A   1      43.884  28.869  36.055  1.00  0.00    -0.014 A 
ATOM     86  C   UNL A   1      45.192  29.381  36.052  1.00  0.00     0.010 A 
ATOM     87  C   UNL A   1      43.575  27.766  36.871  1.00  0.00     0.010 A 
ATOM     88  C   UNL A   1      46.182  28.787  36.838  1.00  0.00     0.020 A 
ATOM     89  C   UNL A   1      44.559  27.179  37.668  1.00  0.00     0.020 A 
ATOM     90  C   UNL A   1      45.861  27.688  37.639  1.00  0.00     0.054 A 
BRANCH  90  91
ATOM     91  S   UNL A   1      47.143  26.960  38.696  1.00  0.00     0.124 S 
ATOM     92  O   UNL A   1      46.463  26.883  39.987  1.00  0.00    -0.237 OA
ATOM     93  O   UNL A   1      47.410  25.677  38.050  1.00  0.00    -0.237 OA
ATOM     94  O   UNL A   1      48.236  27.926  38.623  1.00  0.00    -0.744 OA
ENDBRANCH  90  91
ENDBRANCH  64  85
ENDBRANCH  38  39
ENDBRANCH  30  33
ENDBRANCH  28  29
ENDBRANCH  27  28
ENDBRANCH   1  27
TORSDOF 18
ENDMDL
