MODEL 1
REMARK VINA RESULT:     -12.0      0.000      0.000
REMARK SMILES O=C(NCCCCCCNC(=O)[C@H]1CC2=c3ccccc3=N[C@H]2[C@H](c2ccccc2F)[NH2+]1)c1ccc(-c2c3nc(c(-c4ccc(S(=O)(=O)[O-])cc4)c4ccc([nH]4)c(-c4ccc(S(=O)(=O)[O-])cc4)c4nc(c(-c5ccc(S(=O)(=O)[O-])cc5)c5ccc2[nH]5)C=C4)C=C3)cc1
REMARK SMILES IDX 5 1 4 2 3 3 1 4 2 5 33 7 34 8 92 9 35 10 91 11 36 12 37 13
REMARK SMILES IDX 38 14 85 15 39 16 90 17 84 18 86 19 40 20 89 21 83 22 82 23
REMARK SMILES IDX 41 25 71 26 52 27 70 28 53 29 56 30 69 31 87 32 54 33 55 34
REMARK SMILES IDX 68 36 88 37 57 38 42 39 43 40 51 41 44 42 50 43 45 44 46 45
REMARK SMILES IDX 47 46 48 47 49 48 72 49 73 50 81 51 74 52 80 53 75 54 76 55
REMARK SMILES IDX 77 56 78 57 79 58 58 59 59 60 67 61 60 62 66 63 61 64 62 65
REMARK SMILES IDX 63 66 64 67 65 68 6 69 7 70 8 71 9 72 10 73 11 74 12 76
REMARK SMILES IDX 13 77 14 78 32 79 15 80 24 81 16 84 23 85 17 86 21 87 22 88
REMARK SMILES IDX 18 89 20 90 19 91 25 92 26 93 30 94 27 95 29 96 31 97 28 98
REMARK H PARENT 3 6 86 24 56 35 10 75 32 82 32 83
REMARK Flexibility Score: inf
ROOT
ATOM      1  C   UNL A   1      33.681  28.185  25.064  1.00  0.00     0.021 C 
ENDROOT
BRANCH   1   2
ATOM      2  C   UNL A   1      34.303  28.599  26.395  1.00  0.00     0.116 C 
BRANCH   2   3
ATOM      3  N   UNL A   1      34.030  29.991  26.702  1.00  0.00    -0.352 N 
ATOM      4  O   UNL A   1      34.131  31.893  27.897  1.00  0.00    -0.269 OA
ATOM      5  C   UNL A   1      34.642  30.810  27.611  1.00  0.00     0.251 C 
ATOM      6  H   UNL A   1      33.302  30.404  26.183  1.00  0.00     0.163 HD
BRANCH   5   7
ATOM      7  C   UNL A   1      35.912  30.401  28.245  1.00  0.00     0.039 A 
ATOM      8  C   UNL A   1      35.867  29.717  29.463  1.00  0.00     0.014 A 
ATOM      9  C   UNL A   1      37.142  30.755  27.681  1.00  0.00     0.014 A 
ATOM     10  C   UNL A   1      37.055  29.379  30.113  1.00  0.00     0.010 A 
ATOM     11  C   UNL A   1      38.327  30.372  28.304  1.00  0.00     0.010 A 
ATOM     12  C   UNL A   1      38.292  29.706  29.538  1.00  0.00    -0.014 A 
BRANCH  12  13
ATOM     13  C   UNL A   1      39.564  29.417  30.244  1.00  0.00     0.031 A 
ATOM     14  C   UNL A   1      40.450  28.307  29.755  1.00  0.00     0.074 A 
ATOM     15  C   UNL A   1      39.901  30.124  31.339  1.00  0.00     0.049 A 
ATOM     16  N   UNL A   1      41.569  27.864  30.266  1.00  0.00    -0.248 NA
ATOM     17  C   UNL A   1      40.015  27.589  28.547  1.00  0.00     0.031 C 
ATOM     18  C   UNL A   1      39.118  31.221  31.907  1.00  0.00     0.029 A 
ATOM     19  N   UNL A   1      40.990  30.021  32.169  1.00  0.00    -0.354 N 
ATOM     20  C   UNL A   1      41.961  26.806  29.455  1.00  0.00     0.074 A 
ATOM     21  C   UNL A   1      40.940  26.645  28.444  1.00  0.00     0.031 C 
ATOM     22  C   UNL A   1      39.766  31.710  32.975  1.00  0.00     0.029 A 
ATOM     23  C   UNL A   1      40.986  30.934  33.196  1.00  0.00     0.049 A 
ATOM     24  H   UNL A   1      41.705  29.358  32.041  1.00  0.00     0.167 HD
ATOM     25  C   UNL A   1      43.080  26.051  29.536  1.00  0.00     0.031 A 
ATOM     26  C   UNL A   1      41.860  31.128  34.204  1.00  0.00     0.031 A 
ATOM     27  C   UNL A   1      44.105  26.240  30.527  1.00  0.00     0.049 A 
ATOM     28  C   UNL A   1      43.080  30.259  34.299  1.00  0.00     0.074 A 
ATOM     29  C   UNL A   1      45.314  25.578  30.641  1.00  0.00     0.029 A 
ATOM     30  N   UNL A   1      44.042  27.149  31.572  1.00  0.00    -0.354 N 
ATOM     31  N   UNL A   1      43.462  29.295  33.493  1.00  0.00    -0.248 NA
ATOM     32  C   UNL A   1      43.988  30.494  35.430  1.00  0.00     0.031 C 
ATOM     33  C   UNL A   1      45.953  26.040  31.794  1.00  0.00     0.029 A 
ATOM     34  C   UNL A   1      45.173  27.035  32.363  1.00  0.00     0.049 A 
ATOM     35  H   UNL A   1      43.305  27.781  31.728  1.00  0.00     0.167 HD
ATOM     36  C   UNL A   1      44.654  28.812  34.017  1.00  0.00     0.074 A 
ATOM     37  C   UNL A   1      44.940  29.596  35.202  1.00  0.00     0.031 C 
ATOM     38  C   UNL A   1      45.438  27.806  33.553  1.00  0.00     0.031 A 
BRANCH  25  39
ATOM     39  C   UNL A   1      43.264  24.946  28.529  1.00  0.00    -0.014 A 
ATOM     40  C   UNL A   1      43.840  25.232  27.278  1.00  0.00     0.010 A 
ATOM     41  C   UNL A   1      42.802  23.642  28.788  1.00  0.00     0.010 A 
ATOM     42  C   UNL A   1      43.945  24.241  26.301  1.00  0.00     0.020 A 
ATOM     43  C   UNL A   1      42.931  22.640  27.822  1.00  0.00     0.020 A 
ATOM     44  C   UNL A   1      43.486  22.951  26.578  1.00  0.00     0.054 A 
BRANCH  44  45
ATOM     45  S   UNL A   1      43.647  21.668  25.306  1.00  0.00     0.124 S 
ATOM     46  O   UNL A   1      44.988  21.149  25.560  1.00  0.00    -0.237 OA
ATOM     47  O   UNL A   1      42.547  20.760  25.622  1.00  0.00    -0.237 OA
ATOM     48  O   UNL A   1      43.489  22.408  24.055  1.00  0.00    -0.744 OA
ENDBRANCH  44  45
ENDBRANCH  25  39
BRANCH  26  49
ATOM     49  C   UNL A   1      41.595  32.229  35.168  1.00  0.00    -0.014 A 
ATOM     50  C   UNL A   1      40.659  32.058  36.204  1.00  0.00     0.010 A 
ATOM     51  C   UNL A   1      42.161  33.498  34.956  1.00  0.00     0.010 A 
ATOM     52  C   UNL A   1      40.230  33.154  36.958  1.00  0.00     0.020 A 
ATOM     53  C   UNL A   1      41.751  34.592  35.724  1.00  0.00     0.020 A 
ATOM     54  C   UNL A   1      40.760  34.419  36.692  1.00  0.00     0.054 A 
BRANCH  54  55
ATOM     55  S   UNL A   1      40.094  35.848  37.592  1.00  0.00     0.124 S 
ATOM     56  O   UNL A   1      39.657  36.710  36.496  1.00  0.00    -0.237 OA
ATOM     57  O   UNL A   1      39.025  35.254  38.390  1.00  0.00    -0.237 OA
ATOM     58  O   UNL A   1      41.240  36.338  38.353  1.00  0.00    -0.744 OA
ENDBRANCH  54  55
ENDBRANCH  26  49
BRANCH  38  59
ATOM     59  C   UNL A   1      46.677  27.449  34.328  1.00  0.00    -0.014 A 
ATOM     60  C   UNL A   1      47.931  27.928  33.904  1.00  0.00     0.010 A 
ATOM     61  C   UNL A   1      46.618  26.501  35.364  1.00  0.00     0.010 A 
ATOM     62  C   UNL A   1      49.107  27.427  34.465  1.00  0.00     0.020 A 
ATOM     63  C   UNL A   1      47.793  26.015  35.946  1.00  0.00     0.020 A 
ATOM     64  C   UNL A   1      49.030  26.459  35.470  1.00  0.00     0.054 A 
BRANCH  64  65
ATOM     65  S   UNL A   1      50.568  25.765  36.137  1.00  0.00     0.124 S 
ATOM     66  O   UNL A   1      50.131  25.230  37.423  1.00  0.00    -0.237 OA
ATOM     67  O   UNL A   1      50.932  24.769  35.131  1.00  0.00    -0.237 OA
ATOM     68  O   UNL A   1      51.461  26.918  36.210  1.00  0.00    -0.744 OA
ENDBRANCH  64  65
ENDBRANCH  38  59
ENDBRANCH  12  13
ENDBRANCH   5   7
ENDBRANCH   2   3
ENDBRANCH   1   2
BRANCH   1  69
ATOM     69  C   UNL A   1      33.140  26.751  25.029  1.00  0.00     0.002 C 
BRANCH  69  70
ATOM     70  C   UNL A   1      32.134  26.410  26.133  1.00  0.00     0.002 C 
BRANCH  70  71
ATOM     71  C   UNL A   1      30.898  25.638  25.660  1.00  0.00     0.021 C 
BRANCH  71  72
ATOM     72  C   UNL A   1      31.072  24.121  25.679  1.00  0.00     0.116 C 
BRANCH  72  73
ATOM     73  N   UNL A   1      31.649  23.693  26.935  1.00  0.00    -0.351 N 
ATOM     74  C   UNL A   1      32.591  22.744  27.200  1.00  0.00     0.278 C 
ATOM     75  H   UNL A   1      31.305  24.164  27.728  1.00  0.00     0.163 HD
ATOM     76  O   UNL A   1      32.754  22.426  28.383  1.00  0.00    -0.268 OA
BRANCH  74  77
ATOM     77  C   UNL A   1      33.432  22.101  26.075  1.00  0.00     0.277 C 
ATOM     78  C   UNL A   1      34.431  23.084  25.419  1.00  0.00     0.109 C 
ATOM     79  N   UNL A   1      33.993  20.808  26.568  1.00  0.00    -0.327 N 
ATOM     80  C   UNL A   1      35.796  22.486  25.367  1.00  0.00    -0.024 C 
ATOM     81  C   UNL A   1      34.809  20.107  25.547  1.00  0.00     0.246 C 
ATOM     82  H   UNL A   1      33.220  20.200  26.840  1.00  0.00     0.347 HD
ATOM     83  H   UNL A   1      34.604  21.020  27.356  1.00  0.00     0.347 HD
ATOM     84  C   UNL A   1      36.977  22.966  25.737  1.00  0.00     0.002 A 
ATOM     85  C   UNL A   1      35.903  21.056  24.922  1.00  0.00     0.196 C 
ATOM     86  C   UNL A   1      37.462  24.224  26.197  1.00  0.00     0.010 A 
ATOM     87  C   UNL A   1      37.832  21.766  25.686  1.00  0.00     0.066 A 
ATOM     88  N   UNL A   1      37.290  20.650  25.296  1.00  0.00    -0.270 NA
ATOM     89  C   UNL A   1      38.749  24.319  26.570  1.00  0.00     0.001 A 
ATOM     90  C   UNL A   1      39.231  21.946  26.134  1.00  0.00     0.028 A 
ATOM     91  C   UNL A   1      39.633  23.164  26.541  1.00  0.00     0.002 A 
BRANCH  81  92
ATOM     92  C   UNL A   1      33.991  19.396  24.458  1.00  0.00     0.048 A 
ATOM     93  C   UNL A   1      32.991  20.120  23.774  1.00  0.00     0.013 A 
ATOM     94  C   UNL A   1      34.174  18.059  24.071  1.00  0.00     0.132 A 
ATOM     95  C   UNL A   1      32.136  19.501  22.857  1.00  0.00     0.001 A 
ATOM     96  C   UNL A   1      33.320  17.435  23.161  1.00  0.00     0.040 A 
ATOM     97  F   UNL A   1      35.168  17.312  24.567  1.00  0.00    -0.206 F 
ATOM     98  C   UNL A   1      32.285  18.149  22.569  1.00  0.00     0.003 A 
ENDBRANCH  81  92
ENDBRANCH  74  77
ENDBRANCH  72  73
ENDBRANCH  71  72
ENDBRANCH  70  71
ENDBRANCH  69  70
ENDBRANCH   1  69
TORSDOF 17
ENDMDL
MODEL 2
REMARK VINA RESULT:     -12.0      2.951      8.420
REMARK SMILES O=C(NCCCCCCNC(=O)[C@H]1CC2=c3ccccc3=N[C@H]2[C@H](c2ccccc2F)[NH2+]1)c1ccc(-c2c3nc(c(-c4ccc(S(=O)(=O)[O-])cc4)c4ccc([nH]4)c(-c4ccc(S(=O)(=O)[O-])cc4)c4nc(c(-c5ccc(S(=O)(=O)[O-])cc5)c5ccc2[nH]5)C=C4)C=C3)cc1
REMARK SMILES IDX 5 1 4 2 3 3 1 4 2 5 33 7 34 8 92 9 35 10 91 11 36 12 37 13
REMARK SMILES IDX 38 14 85 15 39 16 90 17 84 18 86 19 40 20 89 21 83 22 82 23
REMARK SMILES IDX 41 25 71 26 52 27 70 28 53 29 56 30 69 31 87 32 54 33 55 34
REMARK SMILES IDX 68 36 88 37 57 38 42 39 43 40 51 41 44 42 50 43 45 44 46 45
REMARK SMILES IDX 47 46 48 47 49 48 72 49 73 50 81 51 74 52 80 53 75 54 76 55
REMARK SMILES IDX 77 56 78 57 79 58 58 59 59 60 67 61 60 62 66 63 61 64 62 65
REMARK SMILES IDX 63 66 64 67 65 68 6 69 7 70 8 71 9 72 10 73 11 74 12 76
REMARK SMILES IDX 13 77 14 78 32 79 15 80 24 81 16 84 23 85 17 86 21 87 22 88
REMARK SMILES IDX 18 89 20 90 19 91 25 92 26 93 30 94 27 95 29 96 31 97 28 98
REMARK H PARENT 3 6 86 24 56 35 10 75 32 82 32 83
REMARK Flexibility Score: inf
ROOT
ATOM      1  C   UNL A   1      33.228  28.577  26.125  1.00  0.00     0.021 C 
ENDROOT
BRANCH   1   2
ATOM      2  C   UNL A   1      33.577  28.841  27.587  1.00  0.00     0.116 C 
BRANCH   2   3
ATOM      3  N   UNL A   1      33.601  30.262  27.883  1.00  0.00    -0.352 N 
ATOM      4  O   UNL A   1      34.355  32.153  28.837  1.00  0.00    -0.269 OA
ATOM      5  C   UNL A   1      34.594  31.007  28.456  1.00  0.00     0.251 C 
ATOM      6  H   UNL A   1      32.786  30.759  27.637  1.00  0.00     0.163 HD
BRANCH   5   7
ATOM      7  C   UNL A   1      35.952  30.445  28.613  1.00  0.00     0.039 A 
ATOM      8  C   UNL A   1      36.320  29.912  29.852  1.00  0.00     0.014 A 
ATOM      9  C   UNL A   1      36.880  30.510  27.569  1.00  0.00     0.014 A 
ATOM     10  C   UNL A   1      37.617  29.435  30.042  1.00  0.00     0.010 A 
ATOM     11  C   UNL A   1      38.159  29.985  27.745  1.00  0.00     0.010 A 
ATOM     12  C   UNL A   1      38.545  29.470  28.991  1.00  0.00    -0.014 A 
BRANCH  12  13
ATOM     13  C   UNL A   1      39.947  29.032  29.192  1.00  0.00     0.031 A 
ATOM     14  C   UNL A   1      40.938  29.975  29.814  1.00  0.00     0.074 A 
ATOM     15  C   UNL A   1      40.336  27.809  28.786  1.00  0.00     0.049 A 
ATOM     16  N   UNL A   1      42.217  29.801  30.023  1.00  0.00    -0.248 NA
ATOM     17  C   UNL A   1      40.432  31.290  30.239  1.00  0.00     0.031 C 
ATOM     18  C   UNL A   1      39.463  26.811  28.168  1.00  0.00     0.029 A 
ATOM     19  N   UNL A   1      41.566  27.200  28.831  1.00  0.00    -0.354 N 
ATOM     20  C   UNL A   1      42.671  30.988  30.585  1.00  0.00     0.074 A 
ATOM     21  C   UNL A   1      41.542  31.889  30.645  1.00  0.00     0.031 C 
ATOM     22  C   UNL A   1      40.178  25.703  27.918  1.00  0.00     0.029 A 
ATOM     23  C   UNL A   1      41.568  25.926  28.316  1.00  0.00     0.049 A 
ATOM     24  H   UNL A   1      42.369  27.634  29.198  1.00  0.00     0.167 HD
ATOM     25  C   UNL A   1      43.913  31.290  31.028  1.00  0.00     0.031 A 
ATOM     26  C   UNL A   1      42.571  25.037  28.173  1.00  0.00     0.031 A 
ATOM     27  C   UNL A   1      45.022  30.376  30.991  1.00  0.00     0.049 A 
ATOM     28  C   UNL A   1      43.951  25.401  28.639  1.00  0.00     0.074 A 
ATOM     29  C   UNL A   1      46.299  30.562  31.490  1.00  0.00     0.029 A 
ATOM     30  N   UNL A   1      44.991  29.111  30.424  1.00  0.00    -0.354 N 
ATOM     31  N   UNL A   1      44.352  26.510  29.216  1.00  0.00    -0.248 NA
ATOM     32  C   UNL A   1      45.013  24.406  28.439  1.00  0.00     0.031 C 
ATOM     33  C   UNL A   1      47.059  29.437  31.166  1.00  0.00     0.029 A 
ATOM     34  C   UNL A   1      46.240  28.521  30.522  1.00  0.00     0.049 A 
ATOM     35  H   UNL A   1      44.200  28.694  30.015  1.00  0.00     0.167 HD
ATOM     36  C   UNL A   1      45.712  26.345  29.450  1.00  0.00     0.074 A 
ATOM     37  C   UNL A   1      46.063  25.025  28.966  1.00  0.00     0.031 C 
ATOM     38  C   UNL A   1      46.585  27.214  30.016  1.00  0.00     0.031 A 
BRANCH  25  39
ATOM     39  C   UNL A   1      44.149  32.667  31.590  1.00  0.00    -0.014 A 
ATOM     40  C   UNL A   1      44.611  33.694  30.747  1.00  0.00     0.010 A 
ATOM     41  C   UNL A   1      43.987  32.930  32.963  1.00  0.00     0.010 A 
ATOM     42  C   UNL A   1      44.913  34.956  31.264  1.00  0.00     0.020 A 
ATOM     43  C   UNL A   1      44.264  34.199  33.479  1.00  0.00     0.020 A 
ATOM     44  C   UNL A   1      44.741  35.199  32.628  1.00  0.00     0.054 A 
BRANCH  44  45
ATOM     45  S   UNL A   1      45.120  36.849  33.282  1.00  0.00     0.124 S 
ATOM     46  O   UNL A   1      46.063  36.546  34.353  1.00  0.00    -0.237 OA
ATOM     47  O   UNL A   1      45.680  37.535  32.121  1.00  0.00    -0.237 OA
ATOM     48  O   UNL A   1      43.816  37.348  33.718  1.00  0.00    -0.744 OA
ENDBRANCH  44  45
ENDBRANCH  25  39
BRANCH  26  49
ATOM     49  C   UNL A   1      42.257  23.705  27.590  1.00  0.00    -0.014 A 
ATOM     50  C   UNL A   1      41.835  22.648  28.416  1.00  0.00     0.010 A 
ATOM     51  C   UNL A   1      42.533  23.451  26.236  1.00  0.00     0.010 A 
ATOM     52  C   UNL A   1      41.772  21.343  27.919  1.00  0.00     0.020 A 
ATOM     53  C   UNL A   1      42.449  22.150  25.729  1.00  0.00     0.020 A 
ATOM     54  C   UNL A   1      42.108  21.100  26.585  1.00  0.00     0.054 A 
BRANCH  54  55
ATOM     55  S   UNL A   1      42.148  19.384  25.996  1.00  0.00     0.124 S 
ATOM     56  O   UNL A   1      40.737  19.137  25.708  1.00  0.00    -0.237 OA
ATOM     57  O   UNL A   1      43.022  19.467  24.829  1.00  0.00    -0.237 OA
ATOM     58  O   UNL A   1      42.693  18.644  27.130  1.00  0.00    -0.744 OA
ENDBRANCH  54  55
ENDBRANCH  26  49
BRANCH  38  59
ATOM     59  C   UNL A   1      48.029  26.806  30.130  1.00  0.00    -0.014 A 
ATOM     60  C   UNL A   1      48.456  26.037  31.229  1.00  0.00     0.010 A 
ATOM     61  C   UNL A   1      48.987  27.331  29.245  1.00  0.00     0.010 A 
ATOM     62  C   UNL A   1      49.817  25.845  31.472  1.00  0.00     0.020 A 
ATOM     63  C   UNL A   1      50.350  27.120  29.471  1.00  0.00     0.020 A 
ATOM     64  C   UNL A   1      50.756  26.404  30.601  1.00  0.00     0.054 A 
BRANCH  64  65
ATOM     65  S   UNL A   1      52.521  26.207  30.973  1.00  0.00     0.124 S 
ATOM     66  O   UNL A   1      53.090  25.977  29.648  1.00  0.00    -0.237 OA
ATOM     67  O   UNL A   1      52.863  27.486  31.591  1.00  0.00    -0.237 OA
ATOM     68  O   UNL A   1      52.555  25.060  31.876  1.00  0.00    -0.744 OA
ENDBRANCH  64  65
ENDBRANCH  38  59
ENDBRANCH  12  13
ENDBRANCH   5   7
ENDBRANCH   2   3
ENDBRANCH   1   2
BRANCH   1  69
ATOM     69  C   UNL A   1      33.283  27.103  25.709  1.00  0.00     0.002 C 
BRANCH  69  70
ATOM     70  C   UNL A   1      32.277  26.191  26.419  1.00  0.00     0.002 C 
BRANCH  70  71
ATOM     71  C   UNL A   1      30.836  26.711  26.431  1.00  0.00     0.021 C 
BRANCH  71  72
ATOM     72  C   UNL A   1      29.812  25.706  25.906  1.00  0.00     0.116 C 
BRANCH  72  73
ATOM     73  N   UNL A   1      29.751  24.547  26.770  1.00  0.00    -0.351 N 
ATOM     74  C   UNL A   1      30.124  23.255  26.547  1.00  0.00     0.278 C 
ATOM     75  H   UNL A   1      29.380  24.719  27.665  1.00  0.00     0.163 HD
ATOM     76  O   UNL A   1      29.769  22.414  27.378  1.00  0.00    -0.268 OA
BRANCH  74  77
ATOM     77  C   UNL A   1      30.967  22.857  25.315  1.00  0.00     0.277 C 
ATOM     78  C   UNL A   1      30.536  23.581  24.018  1.00  0.00     0.109 C 
ATOM     79  N   UNL A   1      32.414  22.932  25.674  1.00  0.00    -0.327 N 
ATOM     80  C   UNL A   1      31.718  24.186  23.339  1.00  0.00    -0.024 C 
ATOM     81  C   UNL A   1      33.307  22.552  24.552  1.00  0.00     0.246 C 
ATOM     82  H   UNL A   1      32.590  22.302  26.457  1.00  0.00     0.347 HD
ATOM     83  H   UNL A   1      32.620  23.901  25.914  1.00  0.00     0.347 HD
ATOM     84  C   UNL A   1      31.927  25.409  22.867  1.00  0.00     0.002 A 
ATOM     85  C   UNL A   1      32.956  23.342  23.233  1.00  0.00     0.196 C 
ATOM     86  C   UNL A   1      31.131  26.578  22.690  1.00  0.00     0.010 A 
ATOM     87  C   UNL A   1      33.378  25.401  22.606  1.00  0.00     0.066 A 
ATOM     88  N   UNL A   1      34.032  24.301  22.841  1.00  0.00    -0.270 NA
ATOM     89  C   UNL A   1      31.724  27.697  22.244  1.00  0.00     0.001 A 
ATOM     90  C   UNL A   1      33.961  26.679  22.140  1.00  0.00     0.028 A 
ATOM     91  C   UNL A   1      33.153  27.742  21.975  1.00  0.00     0.002 A 
BRANCH  81  92
ATOM     92  C   UNL A   1      33.397  21.039  24.296  1.00  0.00     0.048 A 
ATOM     93  C   UNL A   1      32.428  20.429  23.471  1.00  0.00     0.013 A 
ATOM     94  C   UNL A   1      34.396  20.202  24.816  1.00  0.00     0.132 A 
ATOM     95  C   UNL A   1      32.387  19.042  23.293  1.00  0.00     0.001 A 
ATOM     96  C   UNL A   1      34.356  18.818  24.647  1.00  0.00     0.040 A 
ATOM     97  F   UNL A   1      35.431  20.689  25.513  1.00  0.00    -0.206 F 
ATOM     98  C   UNL A   1      33.338  18.233  23.903  1.00  0.00     0.003 A 
ENDBRANCH  81  92
ENDBRANCH  74  77
ENDBRANCH  72  73
ENDBRANCH  71  72
ENDBRANCH  70  71
ENDBRANCH  69  70
ENDBRANCH   1  69
TORSDOF 17
ENDMDL
MODEL 3
REMARK VINA RESULT:     -12.0      4.566     11.613
REMARK SMILES O=C(NCCCCCCNC(=O)[C@H]1CC2=c3ccccc3=N[C@H]2[C@H](c2ccccc2F)[NH2+]1)c1ccc(-c2c3nc(c(-c4ccc(S(=O)(=O)[O-])cc4)c4ccc([nH]4)c(-c4ccc(S(=O)(=O)[O-])cc4)c4nc(c(-c5ccc(S(=O)(=O)[O-])cc5)c5ccc2[nH]5)C=C4)C=C3)cc1
REMARK SMILES IDX 5 1 4 2 3 3 1 4 2 5 33 7 34 8 92 9 35 10 91 11 36 12 37 13
REMARK SMILES IDX 38 14 85 15 39 16 90 17 84 18 86 19 40 20 89 21 83 22 82 23
REMARK SMILES IDX 41 25 71 26 52 27 70 28 53 29 56 30 69 31 87 32 54 33 55 34
REMARK SMILES IDX 68 36 88 37 57 38 42 39 43 40 51 41 44 42 50 43 45 44 46 45
REMARK SMILES IDX 47 46 48 47 49 48 72 49 73 50 81 51 74 52 80 53 75 54 76 55
REMARK SMILES IDX 77 56 78 57 79 58 58 59 59 60 67 61 60 62 66 63 61 64 62 65
REMARK SMILES IDX 63 66 64 67 65 68 6 69 7 70 8 71 9 72 10 73 11 74 12 76
REMARK SMILES IDX 13 77 14 78 32 79 15 80 24 81 16 84 23 85 17 86 21 87 22 88
REMARK SMILES IDX 18 89 20 90 19 91 25 92 26 93 30 94 27 95 29 96 31 97 28 98
REMARK H PARENT 3 6 86 24 56 35 10 75 32 82 32 83
REMARK Flexibility Score: inf
ROOT
ATOM      1  C   UNL A   1      34.543  32.622  29.577  1.00  0.00     0.021 C 
ENDROOT
BRANCH   1   2
ATOM      2  C   UNL A   1      34.387  32.704  28.061  1.00  0.00     0.116 C 
BRANCH   2   3
ATOM      3  N   UNL A   1      33.768  31.506  27.522  1.00  0.00    -0.352 N 
ATOM      4  O   UNL A   1      33.711  29.465  26.582  1.00  0.00    -0.269 OA
ATOM      5  C   UNL A   1      34.336  30.293  27.245  1.00  0.00     0.251 C 
ATOM      6  H   UNL A   1      32.805  31.578  27.329  1.00  0.00     0.163 HD
BRANCH   5   7
ATOM      7  C   UNL A   1      35.690  29.972  27.742  1.00  0.00     0.039 A 
ATOM      8  C   UNL A   1      36.780  30.149  26.885  1.00  0.00     0.014 A 
ATOM      9  C   UNL A   1      35.876  29.431  29.018  1.00  0.00     0.014 A 
ATOM     10  C   UNL A   1      38.060  29.790  27.311  1.00  0.00     0.010 A 
ATOM     11  C   UNL A   1      37.160  29.123  29.461  1.00  0.00     0.010 A 
ATOM     12  C   UNL A   1      38.257  29.274  28.601  1.00  0.00    -0.014 A 
BRANCH  12  13
ATOM     13  C   UNL A   1      39.598  28.824  29.047  1.00  0.00     0.031 A 
ATOM     14  C   UNL A   1      40.452  29.740  29.877  1.00  0.00     0.074 A 
ATOM     15  C   UNL A   1      40.059  27.614  28.679  1.00  0.00     0.049 A 
ATOM     16  N   UNL A   1      41.669  29.555  30.317  1.00  0.00    -0.248 NA
ATOM     17  C   UNL A   1      39.871  31.042  30.246  1.00  0.00     0.031 C 
ATOM     18  C   UNL A   1      39.321  26.642  27.873  1.00  0.00     0.029 A 
ATOM     19  N   UNL A   1      41.260  26.999  28.933  1.00  0.00    -0.354 N 
ATOM     20  C   UNL A   1      42.006  30.719  30.995  1.00  0.00     0.074 A 
ATOM     21  C   UNL A   1      40.883  31.623  30.874  1.00  0.00     0.031 C 
ATOM     22  C   UNL A   1      40.073  25.541  27.723  1.00  0.00     0.029 A 
ATOM     23  C   UNL A   1      41.363  25.744  28.383  1.00  0.00     0.049 A 
ATOM     24  H   UNL A   1      41.979  27.417  29.460  1.00  0.00     0.167 HD
ATOM     25  C   UNL A   1      43.141  31.001  31.675  1.00  0.00     0.031 A 
ATOM     26  C   UNL A   1      42.377  24.857  28.401  1.00  0.00     0.031 A 
ATOM     27  C   UNL A   1      44.240  30.084  31.816  1.00  0.00     0.049 A 
ATOM     28  C   UNL A   1      43.643  25.199  29.131  1.00  0.00     0.074 A 
ATOM     29  C   UNL A   1      45.399  30.247  32.553  1.00  0.00     0.029 A 
ATOM     30  N   UNL A   1      44.319  28.840  31.209  1.00  0.00    -0.354 N 
ATOM     31  N   UNL A   1      43.926  26.284  29.811  1.00  0.00    -0.248 NA
ATOM     32  C   UNL A   1      44.727  24.207  29.099  1.00  0.00     0.031 C 
ATOM     33  C   UNL A   1      46.209  29.131  32.338  1.00  0.00     0.029 A 
ATOM     34  C   UNL A   1      45.529  28.241  31.519  1.00  0.00     0.049 A 
ATOM     35  H   UNL A   1      43.620  28.440  30.644  1.00  0.00     0.167 HD
ATOM     36  C   UNL A   1      45.218  26.106  30.292  1.00  0.00     0.074 A 
ATOM     37  C   UNL A   1      45.658  24.803  29.837  1.00  0.00     0.031 C 
ATOM     38  C   UNL A   1      45.967  26.952  31.043  1.00  0.00     0.031 A 
BRANCH  25  39
ATOM     39  C   UNL A   1      43.264  32.356  32.320  1.00  0.00    -0.014 A 
ATOM     40  C   UNL A   1      42.839  32.535  33.649  1.00  0.00     0.010 A 
ATOM     41  C   UNL A   1      43.728  33.468  31.594  1.00  0.00     0.010 A 
ATOM     42  C   UNL A   1      42.867  33.801  34.239  1.00  0.00     0.020 A 
ATOM     43  C   UNL A   1      43.784  34.731  32.190  1.00  0.00     0.020 A 
ATOM     44  C   UNL A   1      43.337  34.892  33.504  1.00  0.00     0.054 A 
BRANCH  44  45
ATOM     45  S   UNL A   1      43.387  36.526  34.291  1.00  0.00     0.124 S 
ATOM     46  O   UNL A   1      42.069  36.610  34.911  1.00  0.00    -0.237 OA
ATOM     47  O   UNL A   1      44.514  36.405  35.213  1.00  0.00    -0.237 OA
ATOM     48  O   UNL A   1      43.611  37.436  33.169  1.00  0.00    -0.744 OA
ENDBRANCH  44  45
ENDBRANCH  25  39
BRANCH  26  49
ATOM     49  C   UNL A   1      42.183  23.547  27.723  1.00  0.00    -0.014 A 
ATOM     50  C   UNL A   1      41.550  22.485  28.394  1.00  0.00     0.010 A 
ATOM     51  C   UNL A   1      42.769  23.314  26.467  1.00  0.00     0.010 A 
ATOM     52  C   UNL A   1      41.579  21.194  27.861  1.00  0.00     0.020 A 
ATOM     53  C   UNL A   1      42.780  22.028  25.919  1.00  0.00     0.020 A 
ATOM     54  C   UNL A   1      42.220  20.970  26.639  1.00  0.00     0.054 A 
BRANCH  54  55
ATOM     55  S   UNL A   1      42.361  19.266  26.029  1.00  0.00     0.124 S 
ATOM     56  O   UNL A   1      40.976  18.964  25.673  1.00  0.00    -0.237 OA
ATOM     57  O   UNL A   1      43.283  19.405  24.905  1.00  0.00    -0.237 OA
ATOM     58  O   UNL A   1      42.885  18.533  27.177  1.00  0.00    -0.744 OA
ENDBRANCH  54  55
ENDBRANCH  26  49
BRANCH  38  59
ATOM     59  C   UNL A   1      47.364  26.534  31.411  1.00  0.00    -0.014 A 
ATOM     60  C   UNL A   1      48.376  26.534  30.433  1.00  0.00     0.010 A 
ATOM     61  C   UNL A   1      47.630  25.979  32.675  1.00  0.00     0.010 A 
ATOM     62  C   UNL A   1      49.612  25.937  30.693  1.00  0.00     0.020 A 
ATOM     63  C   UNL A   1      48.874  25.404  32.947  1.00  0.00     0.020 A 
ATOM     64  C   UNL A   1      49.846  25.359  31.943  1.00  0.00     0.054 A 
BRANCH  64  65
ATOM     65  S   UNL A   1      51.429  24.524  32.239  1.00  0.00     0.124 S 
ATOM     66  O   UNL A   1      52.319  25.215  31.310  1.00  0.00    -0.237 OA
ATOM     67  O   UNL A   1      51.670  24.787  33.656  1.00  0.00    -0.237 OA
ATOM     68  O   UNL A   1      51.146  23.128  31.913  1.00  0.00    -0.744 OA
ENDBRANCH  64  65
ENDBRANCH  38  59
ENDBRANCH  12  13
ENDBRANCH   5   7
ENDBRANCH   2   3
ENDBRANCH   1   2
BRANCH   1  69
ATOM     69  C   UNL A   1      35.962  32.890  30.090  1.00  0.00     0.002 C 
BRANCH  69  70
ATOM     70  C   UNL A   1      36.673  34.082  29.440  1.00  0.00     0.002 C 
BRANCH  70  71
ATOM     71  C   UNL A   1      38.203  34.013  29.474  1.00  0.00     0.021 C 
BRANCH  71  72
ATOM     72  C   UNL A   1      38.818  34.559  30.761  1.00  0.00     0.116 C 
BRANCH  72  73
ATOM     73  N   UNL A   1      37.785  35.058  31.644  1.00  0.00    -0.351 N 
ATOM     74  C   UNL A   1      37.421  34.661  32.896  1.00  0.00     0.278 C 
ATOM     75  H   UNL A   1      37.259  35.807  31.280  1.00  0.00     0.163 HD
ATOM     76  O   UNL A   1      36.364  35.114  33.347  1.00  0.00    -0.268 OA
BRANCH  74  77
ATOM     77  C   UNL A   1      38.297  33.696  33.726  1.00  0.00     0.277 C 
ATOM     78  C   UNL A   1      39.434  34.408  34.495  1.00  0.00     0.109 C 
ATOM     79  N   UNL A   1      37.408  32.801  34.525  1.00  0.00    -0.327 N 
ATOM     80  C   UNL A   1      39.437  33.994  35.927  1.00  0.00    -0.024 C 
ATOM     81  C   UNL A   1      38.162  31.825  35.348  1.00  0.00     0.246 C 
ATOM     82  H   UNL A   1      36.801  32.287  33.885  1.00  0.00     0.347 HD
ATOM     83  H   UNL A   1      36.872  33.391  35.162  1.00  0.00     0.347 HD
ATOM     84  C   UNL A   1      39.471  34.709  37.045  1.00  0.00     0.002 A 
ATOM     85  C   UNL A   1      39.271  32.530  36.219  1.00  0.00     0.196 C 
ATOM     86  C   UNL A   1      39.640  36.087  37.365  1.00  0.00     0.010 A 
ATOM     87  C   UNL A   1      39.153  33.698  38.072  1.00  0.00     0.066 A 
ATOM     88  N   UNL A   1      38.971  32.471  37.681  1.00  0.00    -0.270 NA
ATOM     89  C   UNL A   1      39.530  36.467  38.648  1.00  0.00     0.001 A 
ATOM     90  C   UNL A   1      39.026  34.200  39.459  1.00  0.00     0.028 A 
ATOM     91  C   UNL A   1      39.214  35.510  39.697  1.00  0.00     0.002 A 
BRANCH  81  92
ATOM     92  C   UNL A   1      38.734  30.637  34.560  1.00  0.00     0.048 A 
ATOM     93  C   UNL A   1      40.038  30.186  34.858  1.00  0.00     0.013 A 
ATOM     94  C   UNL A   1      38.043  29.940  33.557  1.00  0.00     0.132 A 
ATOM     95  C   UNL A   1      40.659  29.188  34.100  1.00  0.00     0.001 A 
ATOM     96  C   UNL A   1      38.659  28.947  32.795  1.00  0.00     0.040 A 
ATOM     97  F   UNL A   1      36.761  30.202  33.272  1.00  0.00    -0.206 F 
ATOM     98  C   UNL A   1      39.977  28.585  33.050  1.00  0.00     0.003 A 
ENDBRANCH  81  92
ENDBRANCH  74  77
ENDBRANCH  72  73
ENDBRANCH  71  72
ENDBRANCH  70  71
ENDBRANCH  69  70
ENDBRANCH   1  69
TORSDOF 17
ENDMDL
