MODEL 1
REMARK VINA RESULT:     -11.0      0.000      0.000
REMARK SMILES Cc1c(Cl)cc2c(c1C)O[C@H](C(F)(F)F)C(C(=O)NCCCCCCNC(=O)c1ccc(-c3c4nc(c(-c5ccc(S(=O)(=O)[O-])cc5)c5ccc([nH]5)c(-c5ccc(S(=O)(=O)[O-])cc5)c5nc(c(-c6ccc(S(=O)(=O)[O-])cc6)c6ccc3[nH]6)C=C5)C=C4)cc1)=C2
REMARK SMILES IDX 23 1 22 2 21 3 20 4 19 5 17 6 18 7 16 9 1 10 2 11 3 12 8 13
REMARK SMILES IDX 4 14 5 15 7 16 9 17 6 18 10 19 89 20 11 21 12 22 13 23 14 24
REMARK SMILES IDX 15 25 24 26 25 27 26 28 27 29 28 31 29 32 30 33 88 34 31 35
REMARK SMILES IDX 87 36 32 37 33 38 34 39 81 40 35 41 86 42 80 43 82 44 36 45
REMARK SMILES IDX 85 46 79 47 78 48 37 50 67 51 48 52 66 53 49 54 52 55 65 56
REMARK SMILES IDX 83 57 50 58 51 59 64 61 84 62 53 63 38 64 39 65 47 66 40 67
REMARK SMILES IDX 46 68 41 69 42 70 43 71 44 72 45 73 68 74 69 75 77 76 70 77
REMARK SMILES IDX 76 78 71 79 72 80 73 81 74 82 75 83 54 84 55 85 63 86 56 87
REMARK SMILES IDX 62 88 57 89 58 90 59 91 60 92 61 93
REMARK H PARENT 19 8 26 30 82 49 52 60
REMARK Flexibility Score: inf
ROOT
ATOM      1  C   UNL A   1      35.294  22.146  26.502  1.00  0.00     0.002 C 
ENDROOT
BRANCH   1   2
ATOM      2  C   UNL A   1      34.323  21.414  25.565  1.00  0.00     0.002 C 
BRANCH   2   3
ATOM      3  C   UNL A   1      32.873  21.895  25.635  1.00  0.00     0.021 C 
BRANCH   3   4
ATOM      4  C   UNL A   1      32.127  21.773  24.311  1.00  0.00     0.116 C 
BRANCH   4   5
ATOM      5  N   UNL A   1      32.906  22.296  23.201  1.00  0.00    -0.352 N 
ATOM      6  C   UNL A   1      33.251  23.513  22.718  1.00  0.00     0.251 C 
ATOM      7  O   UNL A   1      33.995  23.501  21.730  1.00  0.00    -0.270 OA
ATOM      8  H   UNL A   1      33.285  21.571  22.653  1.00  0.00     0.163 HD
BRANCH   6   9
ATOM      9  C   UNL A   1      32.799  24.820  23.282  1.00  0.00     0.067 C 
ATOM     10  C   UNL A   1      32.159  30.586  26.310  1.00  0.00     0.046 C 
ATOM     11  C   UNL A   1      32.527  29.216  25.801  1.00  0.00    -0.026 A 
ATOM     12  C   UNL A   1      33.611  28.486  26.333  1.00  0.00     0.045 A 
ATOM     13  C   UNL A   1      31.795  28.648  24.733  1.00  0.00    -0.004 A 
ATOM     14  Cl  UNL A   1      34.596  29.098  27.619  1.00  0.00    -0.084 Cl
ATOM     15  C   UNL A   1      33.957  27.226  25.829  1.00  0.00     0.032 A 
ATOM     16  C   UNL A   1      32.156  27.376  24.251  1.00  0.00     0.131 A 
ATOM     17  C   UNL A   1      30.626  29.342  24.072  1.00  0.00     0.049 C 
ATOM     18  C   UNL A   1      33.231  26.665  24.782  1.00  0.00     0.019 A 
ATOM     19  O   UNL A   1      31.428  26.904  23.197  1.00  0.00    -0.475 OA
ATOM     20  C   UNL A   1      33.610  25.384  24.196  1.00  0.00     0.025 C 
ATOM     21  C   UNL A   1      31.513  25.491  22.903  1.00  0.00     0.314 C 
BRANCH  21  22
ATOM     22  C   UNL A   1      30.278  24.780  23.486  1.00  0.00     0.429 C 
ATOM     23  F   UNL A   1      29.211  25.617  23.502  1.00  0.00    -0.167 F 
ATOM     24  F   UNL A   1      29.907  23.700  22.758  1.00  0.00    -0.167 F 
ATOM     25  F   UNL A   1      30.480  24.350  24.752  1.00  0.00    -0.167 F 
ENDBRANCH  21  22
ENDBRANCH   6   9
ENDBRANCH   4   5
ENDBRANCH   3   4
ENDBRANCH   2   3
ENDBRANCH   1   2
BRANCH   1  26
ATOM     26  C   UNL A   1      35.606  23.596  26.118  1.00  0.00     0.021 C 
BRANCH  26  27
ATOM     27  C   UNL A   1      36.800  23.759  25.183  1.00  0.00     0.116 C 
BRANCH  27  28
ATOM     28  N   UNL A   1      37.796  22.724  25.400  1.00  0.00    -0.352 N 
ATOM     29  C   UNL A   1      39.038  22.824  25.967  1.00  0.00     0.251 C 
ATOM     30  H   UNL A   1      37.541  21.823  25.098  1.00  0.00     0.163 HD
ATOM     31  O   UNL A   1      39.839  21.894  25.856  1.00  0.00    -0.269 OA
BRANCH  29  32
ATOM     32  C   UNL A   1      39.414  24.045  26.704  1.00  0.00     0.039 A 
ATOM     33  C   UNL A   1      38.927  24.232  28.000  1.00  0.00     0.014 A 
ATOM     34  C   UNL A   1      40.230  25.012  26.108  1.00  0.00     0.014 A 
ATOM     35  C   UNL A   1      39.295  25.372  28.717  1.00  0.00     0.010 A 
ATOM     36  C   UNL A   1      40.646  26.115  26.845  1.00  0.00     0.010 A 
ATOM     37  C   UNL A   1      40.177  26.309  28.154  1.00  0.00    -0.014 A 
BRANCH  37  38
ATOM     38  C   UNL A   1      40.618  27.506  28.908  1.00  0.00     0.031 A 
ATOM     39  C   UNL A   1      41.962  27.514  29.583  1.00  0.00     0.074 A 
ATOM     40  C   UNL A   1      39.785  28.556  29.034  1.00  0.00     0.049 A 
ATOM     41  N   UNL A   1      42.486  28.420  30.364  1.00  0.00    -0.248 NA
ATOM     42  C   UNL A   1      42.822  26.337  29.364  1.00  0.00     0.031 C 
ATOM     43  C   UNL A   1      38.455  28.660  28.430  1.00  0.00     0.029 A 
ATOM     44  N   UNL A   1      39.933  29.737  29.717  1.00  0.00    -0.354 N 
ATOM     45  C   UNL A   1      43.731  27.926  30.736  1.00  0.00     0.074 A 
ATOM     46  C   UNL A   1      43.863  26.617  30.135  1.00  0.00     0.031 C 
ATOM     47  C   UNL A   1      37.920  29.850  28.748  1.00  0.00     0.029 A 
ATOM     48  C   UNL A   1      38.845  30.572  29.617  1.00  0.00     0.049 A 
ATOM     49  H   UNL A   1      40.741  29.965  30.230  1.00  0.00     0.167 HD
ATOM     50  C   UNL A   1      44.683  28.517  31.494  1.00  0.00     0.031 A 
ATOM     51  C   UNL A   1      38.614  31.777  30.170  1.00  0.00     0.031 A 
ATOM     52  C   UNL A   1      44.543  29.820  32.092  1.00  0.00     0.049 A 
ATOM     53  C   UNL A   1      39.670  32.392  31.048  1.00  0.00     0.074 A 
ATOM     54  C   UNL A   1      45.458  30.515  32.862  1.00  0.00     0.029 A 
ATOM     55  N   UNL A   1      43.419  30.624  31.982  1.00  0.00    -0.354 N 
ATOM     56  N   UNL A   1      40.846  31.915  31.378  1.00  0.00    -0.248 NA
ATOM     57  C   UNL A   1      39.368  33.711  31.620  1.00  0.00     0.031 C 
ATOM     58  C   UNL A   1      44.868  31.718  33.262  1.00  0.00     0.029 A 
ATOM     59  C   UNL A   1      43.610  31.801  32.686  1.00  0.00     0.049 A 
ATOM     60  H   UNL A   1      42.606  30.393  31.478  1.00  0.00     0.167 HD
ATOM     61  C   UNL A   1      41.439  32.890  32.173  1.00  0.00     0.074 A 
ATOM     62  C   UNL A   1      40.496  33.986  32.262  1.00  0.00     0.031 C 
ATOM     63  C   UNL A   1      42.656  32.880  32.771  1.00  0.00     0.031 A 
BRANCH  50  64
ATOM     64  C   UNL A   1      45.964  27.759  31.724  1.00  0.00    -0.014 A 
ATOM     65  C   UNL A   1      46.084  26.845  32.787  1.00  0.00     0.010 A 
ATOM     66  C   UNL A   1      47.044  27.918  30.837  1.00  0.00     0.010 A 
ATOM     67  C   UNL A   1      47.268  26.128  32.977  1.00  0.00     0.020 A 
ATOM     68  C   UNL A   1      48.221  27.182  31.005  1.00  0.00     0.020 A 
ATOM     69  C   UNL A   1      48.329  26.300  32.083  1.00  0.00     0.054 A 
BRANCH  69  70
ATOM     70  S   UNL A   1      49.839  25.327  32.334  1.00  0.00     0.124 S 
ATOM     71  O   UNL A   1      50.766  26.336  32.843  1.00  0.00    -0.237 OA
ATOM     72  O   UNL A   1      49.412  24.321  33.303  1.00  0.00    -0.237 OA
ATOM     73  O   UNL A   1      50.149  24.814  31.003  1.00  0.00    -0.744 OA
ENDBRANCH  69  70
ENDBRANCH  50  64
BRANCH  51  74
ATOM     74  C   UNL A   1      37.337  32.488  29.890  1.00  0.00    -0.014 A 
ATOM     75  C   UNL A   1      37.268  33.443  28.861  1.00  0.00     0.010 A 
ATOM     76  C   UNL A   1      36.176  32.193  30.628  1.00  0.00     0.010 A 
ATOM     77  C   UNL A   1      36.064  34.096  28.580  1.00  0.00     0.020 A 
ATOM     78  C   UNL A   1      34.964  32.823  30.331  1.00  0.00     0.020 A 
ATOM     79  C   UNL A   1      34.918  33.778  29.313  1.00  0.00     0.054 A 
BRANCH  79  80
ATOM     80  S   UNL A   1      33.355  34.593  28.884  1.00  0.00     0.124 S 
ATOM     81  O   UNL A   1      33.818  35.822  28.247  1.00  0.00    -0.237 OA
ATOM     82  O   UNL A   1      32.726  33.618  27.999  1.00  0.00    -0.237 OA
ATOM     83  O   UNL A   1      32.695  34.768  30.176  1.00  0.00    -0.744 OA
ENDBRANCH  79  80
ENDBRANCH  51  74
BRANCH  63  84
ATOM     84  C   UNL A   1      43.055  34.107  33.548  1.00  0.00    -0.014 A 
ATOM     85  C   UNL A   1      43.621  35.225  32.910  1.00  0.00     0.010 A 
ATOM     86  C   UNL A   1      42.814  34.157  34.934  1.00  0.00     0.010 A 
ATOM     87  C   UNL A   1      43.977  36.354  33.652  1.00  0.00     0.020 A 
ATOM     88  C   UNL A   1      43.141  35.296  35.673  1.00  0.00     0.020 A 
ATOM     89  C   UNL A   1      43.736  36.382  35.030  1.00  0.00     0.054 A 
BRANCH  89  90
ATOM     90  S   UNL A   1      44.186  37.870  35.962  1.00  0.00     0.124 S 
ATOM     91  O   UNL A   1      45.627  37.701  36.128  1.00  0.00    -0.237 OA
ATOM     92  O   UNL A   1      43.778  38.947  35.063  1.00  0.00    -0.237 OA
ATOM     93  O   UNL A   1      43.402  37.761  37.190  1.00  0.00    -0.744 OA
ENDBRANCH  89  90
ENDBRANCH  63  84
ENDBRANCH  37  38
ENDBRANCH  29  32
ENDBRANCH  27  28
ENDBRANCH  26  27
ENDBRANCH   1  26
TORSDOF 17
ENDMDL
MODEL 2
REMARK VINA RESULT:     -10.8      3.059      4.152
REMARK SMILES Cc1c(Cl)cc2c(c1C)O[C@H](C(F)(F)F)C(C(=O)NCCCCCCNC(=O)c1ccc(-c3c4nc(c(-c5ccc(S(=O)(=O)[O-])cc5)c5ccc([nH]5)c(-c5ccc(S(=O)(=O)[O-])cc5)c5nc(c(-c6ccc(S(=O)(=O)[O-])cc6)c6ccc3[nH]6)C=C5)C=C4)cc1)=C2
REMARK SMILES IDX 23 1 22 2 21 3 20 4 19 5 17 6 18 7 16 9 1 10 2 11 3 12 8 13
REMARK SMILES IDX 4 14 5 15 7 16 9 17 6 18 10 19 89 20 11 21 12 22 13 23 14 24
REMARK SMILES IDX 15 25 24 26 25 27 26 28 27 29 28 31 29 32 30 33 88 34 31 35
REMARK SMILES IDX 87 36 32 37 33 38 34 39 81 40 35 41 86 42 80 43 82 44 36 45
REMARK SMILES IDX 85 46 79 47 78 48 37 50 67 51 48 52 66 53 49 54 52 55 65 56
REMARK SMILES IDX 83 57 50 58 51 59 64 61 84 62 53 63 38 64 39 65 47 66 40 67
REMARK SMILES IDX 46 68 41 69 42 70 43 71 44 72 45 73 68 74 69 75 77 76 70 77
REMARK SMILES IDX 76 78 71 79 72 80 73 81 74 82 75 83 54 84 55 85 63 86 56 87
REMARK SMILES IDX 62 88 57 89 58 90 59 91 60 92 61 93
REMARK H PARENT 19 8 26 30 82 49 52 60
REMARK Flexibility Score: inf
ROOT
ATOM      1  C   UNL A   1      40.800  22.082  27.923  1.00  0.00     0.002 C 
ENDROOT
BRANCH   1   2
ATOM      2  C   UNL A   1      40.043  21.761  26.627  1.00  0.00     0.002 C 
BRANCH   2   3
ATOM      3  C   UNL A   1      38.929  22.747  26.270  1.00  0.00     0.021 C 
BRANCH   3   4
ATOM      4  C   UNL A   1      37.865  22.156  25.352  1.00  0.00     0.116 C 
BRANCH   4   5
ATOM      5  N   UNL A   1      36.670  21.771  26.086  1.00  0.00    -0.352 N 
ATOM      6  C   UNL A   1      35.365  22.129  26.112  1.00  0.00     0.251 C 
ATOM      7  O   UNL A   1      34.655  21.488  26.897  1.00  0.00    -0.270 OA
ATOM      8  H   UNL A   1      36.862  21.059  26.738  1.00  0.00     0.163 HD
BRANCH   6   9
ATOM      9  C   UNL A   1      34.755  23.214  25.288  1.00  0.00     0.067 C 
ATOM     10  C   UNL A   1      32.507  28.824  22.778  1.00  0.00     0.046 C 
ATOM     11  C   UNL A   1      33.016  27.676  23.611  1.00  0.00    -0.026 A 
ATOM     12  C   UNL A   1      33.230  27.797  25.000  1.00  0.00     0.045 A 
ATOM     13  C   UNL A   1      33.327  26.446  22.988  1.00  0.00    -0.004 A 
ATOM     14  Cl  UNL A   1      32.914  29.267  25.860  1.00  0.00    -0.084 Cl
ATOM     15  C   UNL A   1      33.731  26.729  25.755  1.00  0.00     0.032 A 
ATOM     16  C   UNL A   1      33.818  25.384  23.770  1.00  0.00     0.131 A 
ATOM     17  C   UNL A   1      33.156  26.204  21.506  1.00  0.00     0.049 C 
ATOM     18  C   UNL A   1      34.030  25.516  25.142  1.00  0.00     0.019 A 
ATOM     19  O   UNL A   1      34.130  24.237  23.099  1.00  0.00    -0.475 OA
ATOM     20  C   UNL A   1      34.612  24.408  25.893  1.00  0.00     0.025 C 
ATOM     21  C   UNL A   1      34.290  23.028  23.875  1.00  0.00     0.314 C 
BRANCH  21  22
ATOM     22  C   UNL A   1      33.001  22.193  23.779  1.00  0.00     0.429 C 
ATOM     23  F   UNL A   1      32.094  22.613  24.696  1.00  0.00    -0.167 F 
ATOM     24  F   UNL A   1      32.400  22.298  22.570  1.00  0.00    -0.167 F 
ATOM     25  F   UNL A   1      33.222  20.876  23.994  1.00  0.00    -0.167 F 
ENDBRANCH  21  22
ENDBRANCH   6   9
ENDBRANCH   4   5
ENDBRANCH   3   4
ENDBRANCH   2   3
ENDBRANCH   1   2
BRANCH   1  26
ATOM     26  C   UNL A   1      42.326  21.963  27.836  1.00  0.00     0.021 C 
BRANCH  26  27
ATOM     27  C   UNL A   1      43.053  23.289  27.639  1.00  0.00     0.116 C 
BRANCH  27  28
ATOM     28  N   UNL A   1      42.718  23.900  26.364  1.00  0.00    -0.352 N 
ATOM     29  C   UNL A   1      42.043  25.063  26.113  1.00  0.00     0.251 C 
ATOM     30  H   UNL A   1      43.021  23.406  25.568  1.00  0.00     0.163 HD
ATOM     31  O   UNL A   1      41.643  25.308  24.973  1.00  0.00    -0.269 OA
BRANCH  29  32
ATOM     32  C   UNL A   1      41.792  26.019  27.208  1.00  0.00     0.039 A 
ATOM     33  C   UNL A   1      40.729  25.783  28.084  1.00  0.00     0.014 A 
ATOM     34  C   UNL A   1      42.591  27.157  27.356  1.00  0.00     0.014 A 
ATOM     35  C   UNL A   1      40.496  26.667  29.139  1.00  0.00     0.010 A 
ATOM     36  C   UNL A   1      42.396  28.003  28.442  1.00  0.00     0.010 A 
ATOM     37  C   UNL A   1      41.343  27.769  29.340  1.00  0.00    -0.014 A 
BRANCH  37  38
ATOM     38  C   UNL A   1      41.144  28.700  30.476  1.00  0.00     0.031 A 
ATOM     39  C   UNL A   1      42.018  28.593  31.694  1.00  0.00     0.074 A 
ATOM     40  C   UNL A   1      40.140  29.597  30.432  1.00  0.00     0.049 A 
ATOM     41  N   UNL A   1      41.940  29.246  32.824  1.00  0.00    -0.248 NA
ATOM     42  C   UNL A   1      43.113  27.608  31.643  1.00  0.00     0.031 C 
ATOM     43  C   UNL A   1      39.223  29.789  29.306  1.00  0.00     0.029 A 
ATOM     44  N   UNL A   1      39.720  30.514  31.363  1.00  0.00    -0.354 N 
ATOM     45  C   UNL A   1      42.967  28.751  33.619  1.00  0.00     0.074 A 
ATOM     46  C   UNL A   1      43.622  27.707  32.862  1.00  0.00     0.031 C 
ATOM     47  C   UNL A   1      38.366  30.779  29.602  1.00  0.00     0.029 A 
ATOM     48  C   UNL A   1      38.639  31.258  30.954  1.00  0.00     0.049 A 
ATOM     49  H   UNL A   1      40.152  30.628  32.240  1.00  0.00     0.167 HD
ATOM     50  C   UNL A   1      43.340  29.143  34.859  1.00  0.00     0.031 A 
ATOM     51  C   UNL A   1      37.940  32.212  31.598  1.00  0.00     0.031 A 
ATOM     52  C   UNL A   1      42.681  30.181  35.608  1.00  0.00     0.049 A 
ATOM     53  C   UNL A   1      38.346  32.596  32.995  1.00  0.00     0.074 A 
ATOM     54  C   UNL A   1      42.993  30.665  36.866  1.00  0.00     0.029 A 
ATOM     55  N   UNL A   1      41.578  30.897  35.166  1.00  0.00    -0.354 N 
ATOM     56  N   UNL A   1      39.327  32.126  33.726  1.00  0.00    -0.248 NA
ATOM     57  C   UNL A   1      37.553  33.646  33.648  1.00  0.00     0.031 C 
ATOM     58  C   UNL A   1      42.049  31.638  37.207  1.00  0.00     0.029 A 
ATOM     59  C   UNL A   1      41.187  31.807  36.135  1.00  0.00     0.049 A 
ATOM     60  H   UNL A   1      41.139  30.777  34.294  1.00  0.00     0.167 HD
ATOM     61  C   UNL A   1      39.290  32.844  34.916  1.00  0.00     0.074 A 
ATOM     62  C   UNL A   1      38.196  33.787  34.800  1.00  0.00     0.031 C 
ATOM     63  C   UNL A   1      40.090  32.735  36.005  1.00  0.00     0.031 A 
BRANCH  50  64
ATOM     64  C   UNL A   1      44.517  28.444  35.489  1.00  0.00    -0.014 A 
ATOM     65  C   UNL A   1      45.817  28.969  35.374  1.00  0.00     0.010 A 
ATOM     66  C   UNL A   1      44.317  27.279  36.250  1.00  0.00     0.010 A 
ATOM     67  C   UNL A   1      46.898  28.326  35.983  1.00  0.00     0.020 A 
ATOM     68  C   UNL A   1      45.391  26.648  36.885  1.00  0.00     0.020 A 
ATOM     69  C   UNL A   1      46.678  27.170  36.736  1.00  0.00     0.054 A 
BRANCH  69  70
ATOM     70  S   UNL A   1      48.095  26.380  37.545  1.00  0.00     0.124 S 
ATOM     71  O   UNL A   1      49.150  27.369  37.338  1.00  0.00    -0.237 OA
ATOM     72  O   UNL A   1      47.634  26.233  38.923  1.00  0.00    -0.237 OA
ATOM     73  O   UNL A   1      48.264  25.129  36.810  1.00  0.00    -0.744 OA
ENDBRANCH  69  70
ENDBRANCH  50  64
BRANCH  51  74
ATOM     74  C   UNL A   1      36.799  32.882  30.917  1.00  0.00    -0.014 A 
ATOM     75  C   UNL A   1      35.477  32.596  31.300  1.00  0.00     0.010 A 
ATOM     76  C   UNL A   1      37.027  33.832  29.905  1.00  0.00     0.010 A 
ATOM     77  C   UNL A   1      34.404  33.241  30.677  1.00  0.00     0.020 A 
ATOM     78  C   UNL A   1      35.959  34.499  29.300  1.00  0.00     0.020 A 
ATOM     79  C   UNL A   1      34.652  34.193  29.686  1.00  0.00     0.054 A 
BRANCH  79  80
ATOM     80  S   UNL A   1      33.244  35.062  28.940  1.00  0.00     0.124 S 
ATOM     81  O   UNL A   1      33.888  36.223  28.336  1.00  0.00    -0.237 OA
ATOM     82  O   UNL A   1      32.723  34.068  28.006  1.00  0.00    -0.237 OA
ATOM     83  O   UNL A   1      32.376  35.350  30.080  1.00  0.00    -0.744 OA
ENDBRANCH  79  80
ENDBRANCH  51  74
BRANCH  63  84
ATOM     84  C   UNL A   1      39.838  33.684  37.147  1.00  0.00    -0.014 A 
ATOM     85  C   UNL A   1      40.383  34.980  37.155  1.00  0.00     0.010 A 
ATOM     86  C   UNL A   1      39.003  33.284  38.207  1.00  0.00     0.010 A 
ATOM     87  C   UNL A   1      40.129  35.845  38.223  1.00  0.00     0.020 A 
ATOM     88  C   UNL A   1      38.722  34.156  39.261  1.00  0.00     0.020 A 
ATOM     89  C   UNL A   1      39.302  35.426  39.270  1.00  0.00     0.054 A 
BRANCH  89  90
ATOM     90  S   UNL A   1      38.971  36.579  40.631  1.00  0.00     0.124 S 
ATOM     91  O   UNL A   1      38.437  37.739  39.923  1.00  0.00    -0.237 OA
ATOM     92  O   UNL A   1      38.008  35.841  41.447  1.00  0.00    -0.237 OA
ATOM     93  O   UNL A   1      40.281  36.773  41.248  1.00  0.00    -0.744 OA
ENDBRANCH  89  90
ENDBRANCH  63  84
ENDBRANCH  37  38
ENDBRANCH  29  32
ENDBRANCH  27  28
ENDBRANCH  26  27
ENDBRANCH   1  26
TORSDOF 17
ENDMDL
MODEL 3
REMARK VINA RESULT:     -10.6      3.242      8.918
REMARK SMILES Cc1c(Cl)cc2c(c1C)O[C@H](C(F)(F)F)C(C(=O)NCCCCCCNC(=O)c1ccc(-c3c4nc(c(-c5ccc(S(=O)(=O)[O-])cc5)c5ccc([nH]5)c(-c5ccc(S(=O)(=O)[O-])cc5)c5nc(c(-c6ccc(S(=O)(=O)[O-])cc6)c6ccc3[nH]6)C=C5)C=C4)cc1)=C2
REMARK SMILES IDX 23 1 22 2 21 3 20 4 19 5 17 6 18 7 16 9 1 10 2 11 3 12 8 13
REMARK SMILES IDX 4 14 5 15 7 16 9 17 6 18 10 19 89 20 11 21 12 22 13 23 14 24
REMARK SMILES IDX 15 25 24 26 25 27 26 28 27 29 28 31 29 32 30 33 88 34 31 35
REMARK SMILES IDX 87 36 32 37 33 38 34 39 81 40 35 41 86 42 80 43 82 44 36 45
REMARK SMILES IDX 85 46 79 47 78 48 37 50 67 51 48 52 66 53 49 54 52 55 65 56
REMARK SMILES IDX 83 57 50 58 51 59 64 61 84 62 53 63 38 64 39 65 47 66 40 67
REMARK SMILES IDX 46 68 41 69 42 70 43 71 44 72 45 73 68 74 69 75 77 76 70 77
REMARK SMILES IDX 76 78 71 79 72 80 73 81 74 82 75 83 54 84 55 85 63 86 56 87
REMARK SMILES IDX 62 88 57 89 58 90 59 91 60 92 61 93
REMARK H PARENT 19 8 26 30 82 49 52 60
REMARK Flexibility Score: inf
ROOT
ATOM      1  C   UNL A   1      40.531  22.467  27.701  1.00  0.00     0.002 C 
ENDROOT
BRANCH   1   2
ATOM      2  C   UNL A   1      39.796  21.935  26.463  1.00  0.00     0.002 C 
BRANCH   2   3
ATOM      3  C   UNL A   1      38.534  22.710  26.079  1.00  0.00     0.021 C 
BRANCH   3   4
ATOM      4  C   UNL A   1      37.552  21.896  25.243  1.00  0.00     0.116 C 
BRANCH   4   5
ATOM      5  N   UNL A   1      36.352  21.560  25.991  1.00  0.00    -0.352 N 
ATOM      6  C   UNL A   1      35.064  21.976  26.039  1.00  0.00     0.251 C 
ATOM      7  O   UNL A   1      34.337  21.362  26.829  1.00  0.00    -0.270 OA
ATOM      8  H   UNL A   1      36.521  20.836  26.636  1.00  0.00     0.163 HD
BRANCH   6   9
ATOM      9  C   UNL A   1      34.493  23.094  25.230  1.00  0.00     0.067 C 
ATOM     10  C   UNL A   1      32.585  28.828  22.719  1.00  0.00     0.046 C 
ATOM     11  C   UNL A   1      33.052  27.659  23.547  1.00  0.00    -0.026 A 
ATOM     12  C   UNL A   1      33.396  27.795  24.908  1.00  0.00     0.045 A 
ATOM     13  C   UNL A   1      33.188  26.387  22.945  1.00  0.00    -0.004 A 
ATOM     14  Cl  UNL A   1      33.299  29.312  25.739  1.00  0.00    -0.084 Cl
ATOM     15  C   UNL A   1      33.855  26.704  25.656  1.00  0.00     0.032 A 
ATOM     16  C   UNL A   1      33.640  25.303  23.720  1.00  0.00     0.131 A 
ATOM     17  C   UNL A   1      32.865  26.123  21.492  1.00  0.00     0.049 C 
ATOM     18  C   UNL A   1      33.982  25.451  25.064  1.00  0.00     0.019 A 
ATOM     19  O   UNL A   1      33.781  24.113  23.066  1.00  0.00    -0.475 OA
ATOM     20  C   UNL A   1      34.518  24.312  25.802  1.00  0.00     0.025 C 
ATOM     21  C   UNL A   1      33.891  22.916  23.868  1.00  0.00     0.314 C 
BRANCH  21  22
ATOM     22  C   UNL A   1      32.523  22.210  23.911  1.00  0.00     0.429 C 
ATOM     23  F   UNL A   1      31.744  22.620  22.880  1.00  0.00    -0.167 F 
ATOM     24  F   UNL A   1      32.628  20.865  23.801  1.00  0.00    -0.167 F 
ATOM     25  F   UNL A   1      31.850  22.459  25.057  1.00  0.00    -0.167 F 
ENDBRANCH  21  22
ENDBRANCH   6   9
ENDBRANCH   4   5
ENDBRANCH   3   4
ENDBRANCH   2   3
ENDBRANCH   1   2
BRANCH   1  26
ATOM     26  C   UNL A   1      42.061  22.414  27.627  1.00  0.00     0.021 C 
BRANCH  26  27
ATOM     27  C   UNL A   1      42.738  23.778  27.545  1.00  0.00     0.116 C 
BRANCH  27  28
ATOM     28  N   UNL A   1      42.373  24.485  26.330  1.00  0.00    -0.352 N 
ATOM     29  C   UNL A   1      41.672  25.652  26.184  1.00  0.00     0.251 C 
ATOM     30  H   UNL A   1      42.672  24.065  25.491  1.00  0.00     0.163 HD
ATOM     31  O   UNL A   1      41.252  25.981  25.074  1.00  0.00    -0.269 OA
BRANCH  29  32
ATOM     32  C   UNL A   1      41.420  26.509  27.358  1.00  0.00     0.039 A 
ATOM     33  C   UNL A   1      40.359  26.194  28.212  1.00  0.00     0.014 A 
ATOM     34  C   UNL A   1      42.215  27.633  27.602  1.00  0.00     0.014 A 
ATOM     35  C   UNL A   1      40.125  26.983  29.340  1.00  0.00     0.010 A 
ATOM     36  C   UNL A   1      42.019  28.381  28.758  1.00  0.00     0.010 A 
ATOM     37  C   UNL A   1      40.968  28.067  29.633  1.00  0.00    -0.014 A 
BRANCH  37  38
ATOM     38  C   UNL A   1      40.768  28.896  30.846  1.00  0.00     0.031 A 
ATOM     39  C   UNL A   1      39.709  29.963  30.858  1.00  0.00     0.074 A 
ATOM     40  C   UNL A   1      41.578  28.727  31.908  1.00  0.00     0.049 A 
ATOM     41  N   UNL A   1      39.444  30.851  31.779  1.00  0.00    -0.248 NA
ATOM     42  C   UNL A   1      38.846  30.056  29.667  1.00  0.00     0.031 C 
ATOM     43  C   UNL A   1      42.645  27.728  32.010  1.00  0.00     0.029 A 
ATOM     44  N   UNL A   1      41.634  29.396  33.105  1.00  0.00    -0.354 N 
ATOM     45  C   UNL A   1      38.392  31.610  31.282  1.00  0.00     0.074 A 
ATOM     46  C   UNL A   1      38.100  31.112  29.956  1.00  0.00     0.031 C 
ATOM     47  C   UNL A   1      43.231  27.833  33.213  1.00  0.00     0.029 A 
ATOM     48  C   UNL A   1      42.618  28.935  33.948  1.00  0.00     0.049 A 
ATOM     49  H   UNL A   1      41.026  30.134  33.338  1.00  0.00     0.167 HD
ATOM     50  C   UNL A   1      37.719  32.619  31.884  1.00  0.00     0.031 A 
ATOM     51  C   UNL A   1      42.991  29.360  35.170  1.00  0.00     0.031 A 
ATOM     52  C   UNL A   1      38.018  33.112  33.203  1.00  0.00     0.049 A 
ATOM     53  C   UNL A   1      42.258  30.514  35.797  1.00  0.00     0.074 A 
ATOM     54  C   UNL A   1      37.383  34.118  33.909  1.00  0.00     0.029 A 
ATOM     55  N   UNL A   1      39.034  32.632  34.016  1.00  0.00    -0.354 N 
ATOM     56  N   UNL A   1      41.257  31.212  35.317  1.00  0.00    -0.248 NA
ATOM     57  C   UNL A   1      42.701  30.931  37.134  1.00  0.00     0.031 C 
ATOM     58  C   UNL A   1      38.047  34.282  35.128  1.00  0.00     0.029 A 
ATOM     59  C   UNL A   1      39.055  33.334  35.209  1.00  0.00     0.049 A 
ATOM     60  H   UNL A   1      39.649  31.901  33.780  1.00  0.00     0.167 HD
ATOM     61  C   UNL A   1      40.929  32.133  36.307  1.00  0.00     0.074 A 
ATOM     62  C   UNL A   1      41.832  31.893  37.414  1.00  0.00     0.031 C 
ATOM     63  C   UNL A   1      39.966  33.088  36.300  1.00  0.00     0.031 A 
BRANCH  50  64
ATOM     64  C   UNL A   1      36.592  33.261  31.118  1.00  0.00    -0.014 A 
ATOM     65  C   UNL A   1      35.274  33.232  31.610  1.00  0.00     0.010 A 
ATOM     66  C   UNL A   1      36.858  33.949  29.921  1.00  0.00     0.010 A 
ATOM     67  C   UNL A   1      34.239  33.852  30.905  1.00  0.00     0.020 A 
ATOM     68  C   UNL A   1      35.831  34.597  29.226  1.00  0.00     0.020 A 
ATOM     69  C   UNL A   1      34.525  34.533  29.717  1.00  0.00     0.054 A 
BRANCH  69  70
ATOM     70  S   UNL A   1      33.168  35.360  28.844  1.00  0.00     0.124 S 
ATOM     71  O   UNL A   1      33.886  36.329  28.021  1.00  0.00    -0.237 OA
ATOM     72  O   UNL A   1      32.541  34.260  28.116  1.00  0.00    -0.237 OA
ATOM     73  O   UNL A   1      32.361  35.934  29.918  1.00  0.00    -0.744 OA
ENDBRANCH  69  70
ENDBRANCH  50  64
BRANCH  51  74
ATOM     74  C   UNL A   1      44.099  28.672  35.887  1.00  0.00    -0.014 A 
ATOM     75  C   UNL A   1      45.421  29.130  35.755  1.00  0.00     0.010 A 
ATOM     76  C   UNL A   1      43.836  27.577  36.730  1.00  0.00     0.010 A 
ATOM     77  C   UNL A   1      46.462  28.501  36.445  1.00  0.00     0.020 A 
ATOM     78  C   UNL A   1      44.869  26.963  37.443  1.00  0.00     0.020 A 
ATOM     79  C   UNL A   1      46.178  27.425  37.290  1.00  0.00     0.054 A 
BRANCH  79  80
ATOM     80  S   UNL A   1      47.537  26.668  38.223  1.00  0.00     0.124 S 
ATOM     81  O   UNL A   1      48.268  27.837  38.699  1.00  0.00    -0.237 OA
ATOM     82  O   UNL A   1      46.827  25.904  39.245  1.00  0.00    -0.237 OA
ATOM     83  O   UNL A   1      48.232  25.860  37.222  1.00  0.00    -0.744 OA
ENDBRANCH  79  80
ENDBRANCH  51  74
BRANCH  63  84
ATOM     84  C   UNL A   1      39.813  33.924  37.543  1.00  0.00    -0.014 A 
ATOM     85  C   UNL A   1      39.087  33.458  38.653  1.00  0.00     0.010 A 
ATOM     86  C   UNL A   1      40.447  35.179  37.615  1.00  0.00     0.010 A 
ATOM     87  C   UNL A   1      38.964  34.250  39.798  1.00  0.00     0.020 A 
ATOM     88  C   UNL A   1      40.351  35.959  38.769  1.00  0.00     0.020 A 
ATOM     89  C   UNL A   1      39.596  35.497  39.848  1.00  0.00     0.054 A 
BRANCH  89  90
ATOM     90  S   UNL A   1      39.439  36.492  41.355  1.00  0.00     0.124 S 
ATOM     91  O   UNL A   1      38.368  35.799  42.067  1.00  0.00    -0.237 OA
ATOM     92  O   UNL A   1      40.768  36.379  41.952  1.00  0.00    -0.237 OA
ATOM     93  O   UNL A   1      39.097  37.823  40.859  1.00  0.00    -0.744 OA
ENDBRANCH  89  90
ENDBRANCH  63  84
ENDBRANCH  37  38
ENDBRANCH  29  32
ENDBRANCH  27  28
ENDBRANCH  26  27
ENDBRANCH   1  26
TORSDOF 17
ENDMDL
