MODEL 1
REMARK VINA RESULT:     -11.0      0.000      0.000
REMARK SMILES O=C(NCCCCCCNC(=O)[C@H](Oc1cccc([N+](=O)[O-])c1)c1ccccc1)c1ccc(-c2c3nc(c(-c4ccc(S(=O)(=O)[O-])cc4)c4ccc([nH]4)c(-c4ccc(S(=O)(=O)[O-])cc4)c4nc(c(-c5ccc(S(=O)(=O)[O-])cc5)c5ccc2[nH]5)C=C4)C=C3)cc1
REMARK SMILES IDX 6 1 5 2 4 3 3 4 1 5 2 6 30 8 31 9 89 10 32 11 88 12 33 13
REMARK SMILES IDX 34 14 35 15 82 16 36 17 87 18 81 19 83 20 37 21 86 22 80 23
REMARK SMILES IDX 79 24 38 26 68 27 49 28 67 29 50 30 53 31 66 32 84 33 51 34
REMARK SMILES IDX 52 35 65 37 85 38 54 39 39 40 40 41 48 42 41 43 47 44 42 45
REMARK SMILES IDX 43 46 44 47 45 48 46 49 69 50 70 51 78 52 71 53 77 54 72 55
REMARK SMILES IDX 73 56 74 57 75 58 76 59 55 60 56 61 64 62 57 63 63 64 58 65
REMARK SMILES IDX 59 66 60 67 61 68 62 69 7 70 8 71 9 72 10 73 11 74 12 76
REMARK SMILES IDX 13 77 24 78 25 79 29 80 26 81 28 82 27 83 14 84 15 85 16 86
REMARK SMILES IDX 23 87 17 88 19 89 18 90 20 91 21 92 22 93
REMARK H PARENT 3 7 83 25 53 36 10 75
REMARK Flexibility Score: inf
ROOT
ATOM      1  C   UNL A   1      32.091  26.909  25.150  1.00  0.00     0.002 C 
ENDROOT
BRANCH   1   2
ATOM      2  C   UNL A   1      32.642  27.284  26.532  1.00  0.00     0.021 C 
BRANCH   2   3
ATOM      3  C   UNL A   1      33.923  28.118  26.521  1.00  0.00     0.116 C 
BRANCH   3   4
ATOM      4  N   UNL A   1      33.688  29.490  26.933  1.00  0.00    -0.352 N 
ATOM      5  O   UNL A   1      33.969  31.356  28.158  1.00  0.00    -0.269 OA
ATOM      6  C   UNL A   1      34.451  30.314  27.725  1.00  0.00     0.251 C 
ATOM      7  H   UNL A   1      32.855  29.891  26.593  1.00  0.00     0.163 HD
BRANCH   6   8
ATOM      8  C   UNL A   1      35.842  29.943  28.073  1.00  0.00     0.039 A 
ATOM      9  C   UNL A   1      36.892  30.165  27.179  1.00  0.00     0.014 A 
ATOM     10  C   UNL A   1      36.107  29.421  29.342  1.00  0.00     0.014 A 
ATOM     11  C   UNL A   1      38.184  29.753  27.505  1.00  0.00     0.010 A 
ATOM     12  C   UNL A   1      37.416  29.076  29.697  1.00  0.00     0.010 A 
ATOM     13  C   UNL A   1      38.463  29.216  28.772  1.00  0.00    -0.014 A 
BRANCH  13  14
ATOM     14  C   UNL A   1      39.860  28.864  29.138  1.00  0.00     0.031 A 
ATOM     15  C   UNL A   1      40.740  29.841  29.870  1.00  0.00     0.074 A 
ATOM     16  C   UNL A   1      40.337  27.648  28.805  1.00  0.00     0.049 A 
ATOM     17  N   UNL A   1      41.982  29.698  30.259  1.00  0.00    -0.248 NA
ATOM     18  C   UNL A   1      40.155  31.149  30.205  1.00  0.00     0.031 C 
ATOM     19  C   UNL A   1      39.585  26.614  28.091  1.00  0.00     0.029 A 
ATOM     20  N   UNL A   1      41.563  27.073  29.028  1.00  0.00    -0.354 N 
ATOM     21  C   UNL A   1      42.335  30.898  30.865  1.00  0.00     0.074 A 
ATOM     22  C   UNL A   1      41.181  31.769  30.771  1.00  0.00     0.031 C 
ATOM     23  C   UNL A   1      40.353  25.521  27.963  1.00  0.00     0.029 A 
ATOM     24  C   UNL A   1      41.668  25.795  28.531  1.00  0.00     0.049 A 
ATOM     25  H   UNL A   1      42.297  27.530  29.498  1.00  0.00     0.167 HD
ATOM     26  C   UNL A   1      43.508  31.242  31.451  1.00  0.00     0.031 A 
ATOM     27  C   UNL A   1      42.710  24.941  28.513  1.00  0.00     0.031 A 
ATOM     28  C   UNL A   1      44.657  30.376  31.533  1.00  0.00     0.049 A 
ATOM     29  C   UNL A   1      44.011  25.359  29.131  1.00  0.00     0.074 A 
ATOM     30  C   UNL A   1      45.881  30.624  32.131  1.00  0.00     0.029 A 
ATOM     31  N   UNL A   1      44.730  29.100  30.994  1.00  0.00    -0.354 N 
ATOM     32  N   UNL A   1      44.311  26.486  29.733  1.00  0.00    -0.248 NA
ATOM     33  C   UNL A   1      45.115  24.391  29.074  1.00  0.00     0.031 C 
ATOM     34  C   UNL A   1      46.711  29.522  31.905  1.00  0.00     0.029 A 
ATOM     35  C   UNL A   1      45.986  28.560  31.222  1.00  0.00     0.049 A 
ATOM     36  H   UNL A   1      43.998  28.646  30.518  1.00  0.00     0.167 HD
ATOM     37  C   UNL A   1      45.632  26.354  30.146  1.00  0.00     0.074 A 
ATOM     38  C   UNL A   1      46.067  25.033  29.738  1.00  0.00     0.031 C 
ATOM     39  C   UNL A   1      46.411  27.246  30.806  1.00  0.00     0.031 A 
BRANCH  26  40
ATOM     40  C   UNL A   1      43.621  32.632  32.024  1.00  0.00    -0.014 A 
ATOM     41  C   UNL A   1      43.236  32.908  33.349  1.00  0.00     0.010 A 
ATOM     42  C   UNL A   1      44.153  33.670  31.238  1.00  0.00     0.010 A 
ATOM     43  C   UNL A   1      43.337  34.206  33.860  1.00  0.00     0.020 A 
ATOM     44  C   UNL A   1      44.282  34.964  31.754  1.00  0.00     0.020 A 
ATOM     45  C   UNL A   1      43.853  35.227  33.056  1.00  0.00     0.054 A 
BRANCH  45  46
ATOM     46  S   UNL A   1      43.971  36.901  33.745  1.00  0.00     0.124 S 
ATOM     47  O   UNL A   1      43.120  36.798  34.928  1.00  0.00    -0.237 OA
ATOM     48  O   UNL A   1      45.401  37.038  34.012  1.00  0.00    -0.237 OA
ATOM     49  O   UNL A   1      43.454  37.755  32.678  1.00  0.00    -0.744 OA
ENDBRANCH  45  46
ENDBRANCH  26  40
BRANCH  27  50
ATOM     50  C   UNL A   1      42.553  23.607  27.872  1.00  0.00    -0.014 A 
ATOM     51  C   UNL A   1      42.980  23.392  26.551  1.00  0.00     0.010 A 
ATOM     52  C   UNL A   1      42.008  22.532  28.600  1.00  0.00     0.010 A 
ATOM     53  C   UNL A   1      42.860  22.127  25.966  1.00  0.00     0.020 A 
ATOM     54  C   UNL A   1      41.914  21.260  28.029  1.00  0.00     0.020 A 
ATOM     55  C   UNL A   1      42.333  21.068  26.713  1.00  0.00     0.054 A 
BRANCH  55  56
ATOM     56  S   UNL A   1      42.251  19.421  25.956  1.00  0.00     0.124 S 
ATOM     57  O   UNL A   1      43.122  19.578  24.795  1.00  0.00    -0.237 OA
ATOM     58  O   UNL A   1      42.760  18.560  27.019  1.00  0.00    -0.237 OA
ATOM     59  O   UNL A   1      40.831  19.254  25.655  1.00  0.00    -0.744 OA
ENDBRANCH  55  56
ENDBRANCH  27  50
BRANCH  39  60
ATOM     60  C   UNL A   1      47.808  26.813  31.162  1.00  0.00    -0.014 A 
ATOM     61  C   UNL A   1      48.069  26.069  32.326  1.00  0.00     0.010 A 
ATOM     62  C   UNL A   1      48.869  27.115  30.288  1.00  0.00     0.010 A 
ATOM     63  C   UNL A   1      49.372  25.659  32.624  1.00  0.00     0.020 A 
ATOM     64  C   UNL A   1      50.168  26.684  30.569  1.00  0.00     0.020 A 
ATOM     65  C   UNL A   1      50.413  25.970  31.743  1.00  0.00     0.054 A 
BRANCH  65  66
ATOM     66  S   UNL A   1      52.086  25.386  32.129  1.00  0.00     0.124 S 
ATOM     67  O   UNL A   1      52.405  26.149  33.332  1.00  0.00    -0.237 OA
ATOM     68  O   UNL A   1      51.889  23.952  32.326  1.00  0.00    -0.237 OA
ATOM     69  O   UNL A   1      52.861  25.744  30.941  1.00  0.00    -0.744 OA
ENDBRANCH  65  66
ENDBRANCH  39  60
ENDBRANCH  13  14
ENDBRANCH   6   8
ENDBRANCH   3   4
ENDBRANCH   2   3
ENDBRANCH   1   2
BRANCH   1  70
ATOM     70  C   UNL A   1      30.566  26.823  25.036  1.00  0.00     0.002 C 
BRANCH  70  71
ATOM     71  C   UNL A   1      30.051  26.149  23.762  1.00  0.00     0.021 C 
BRANCH  71  72
ATOM     72  C   UNL A   1      30.605  24.745  23.491  1.00  0.00     0.116 C 
BRANCH  72  73
ATOM     73  N   UNL A   1      31.411  24.768  22.284  1.00  0.00    -0.353 N 
ATOM     74  C   UNL A   1      32.719  24.368  22.147  1.00  0.00     0.265 C 
ATOM     75  H   UNL A   1      30.972  25.108  21.473  1.00  0.00     0.163 HD
ATOM     76  O   UNL A   1      33.420  25.084  21.424  1.00  0.00    -0.270 OA
BRANCH  74  77
ATOM     77  C   UNL A   1      33.257  23.064  22.836  1.00  0.00     0.292 C 
BRANCH  77  78
ATOM     78  C   UNL A   1      34.517  23.350  23.678  1.00  0.00     0.002 A 
ATOM     79  C   UNL A   1      35.720  22.683  23.378  1.00  0.00     0.008 A 
ATOM     80  C   UNL A   1      34.484  24.138  24.843  1.00  0.00     0.008 A 
ATOM     81  C   UNL A   1      36.843  22.817  24.203  1.00  0.00     0.000 A 
ATOM     82  C   UNL A   1      35.607  24.281  25.661  1.00  0.00     0.000 A 
ATOM     83  C   UNL A   1      36.787  23.617  25.343  1.00  0.00     0.000 A 
ENDBRANCH  77  78
BRANCH  77  84
ATOM     84  O   UNL A   1      32.374  22.483  23.800  1.00  0.00    -0.476 OA
BRANCH  84  85
ATOM     85  C   UNL A   1      32.572  21.225  24.273  1.00  0.00     0.127 A 
ATOM     86  C   UNL A   1      32.743  20.859  25.603  1.00  0.00     0.047 A 
ATOM     87  C   UNL A   1      32.571  20.230  23.293  1.00  0.00     0.132 A 
ATOM     88  C   UNL A   1      33.072  19.541  25.948  1.00  0.00     0.011 A 
ATOM     89  C   UNL A   1      32.846  18.903  23.646  1.00  0.00     0.273 A 
ATOM     90  C   UNL A   1      33.144  18.558  24.967  1.00  0.00     0.086 A 
BRANCH  89  91
ATOM     91  N   UNL A   1      32.805  17.862  22.620  1.00  0.00     0.062 N 
ATOM     92  O   UNL A   1      33.541  16.878  22.772  1.00  0.00    -0.258 OA
ATOM     93  O   UNL A   1      32.028  18.025  21.668  1.00  0.00    -0.258 OA
ENDBRANCH  89  91
ENDBRANCH  84  85
ENDBRANCH  77  84
ENDBRANCH  74  77
ENDBRANCH  72  73
ENDBRANCH  71  72
ENDBRANCH  70  71
ENDBRANCH   1  70
TORSDOF 20
ENDMDL
MODEL 2
REMARK VINA RESULT:     -10.7      2.552      4.167
REMARK SMILES O=C(NCCCCCCNC(=O)[C@H](Oc1cccc([N+](=O)[O-])c1)c1ccccc1)c1ccc(-c2c3nc(c(-c4ccc(S(=O)(=O)[O-])cc4)c4ccc([nH]4)c(-c4ccc(S(=O)(=O)[O-])cc4)c4nc(c(-c5ccc(S(=O)(=O)[O-])cc5)c5ccc2[nH]5)C=C4)C=C3)cc1
REMARK SMILES IDX 6 1 5 2 4 3 3 4 1 5 2 6 30 8 31 9 89 10 32 11 88 12 33 13
REMARK SMILES IDX 34 14 35 15 82 16 36 17 87 18 81 19 83 20 37 21 86 22 80 23
REMARK SMILES IDX 79 24 38 26 68 27 49 28 67 29 50 30 53 31 66 32 84 33 51 34
REMARK SMILES IDX 52 35 65 37 85 38 54 39 39 40 40 41 48 42 41 43 47 44 42 45
REMARK SMILES IDX 43 46 44 47 45 48 46 49 69 50 70 51 78 52 71 53 77 54 72 55
REMARK SMILES IDX 73 56 74 57 75 58 76 59 55 60 56 61 64 62 57 63 63 64 58 65
REMARK SMILES IDX 59 66 60 67 61 68 62 69 7 70 8 71 9 72 10 73 11 74 12 76
REMARK SMILES IDX 13 77 24 78 25 79 29 80 26 81 28 82 27 83 14 84 15 85 16 86
REMARK SMILES IDX 23 87 17 88 19 89 18 90 20 91 21 92 22 93
REMARK H PARENT 3 7 83 25 53 36 10 75
REMARK Flexibility Score: inf
ROOT
ATOM      1  C   UNL A   1      32.986  26.981  25.881  1.00  0.00     0.002 C 
ENDROOT
BRANCH   1   2
ATOM      2  C   UNL A   1      33.441  28.034  26.901  1.00  0.00     0.021 C 
BRANCH   2   3
ATOM      3  C   UNL A   1      34.400  29.095  26.361  1.00  0.00     0.116 C 
BRANCH   3   4
ATOM      4  N   UNL A   1      34.037  30.433  26.794  1.00  0.00    -0.352 N 
ATOM      5  O   UNL A   1      33.936  32.198  28.185  1.00  0.00    -0.269 OA
ATOM      6  C   UNL A   1      34.536  31.189  27.827  1.00  0.00     0.251 C 
ATOM      7  H   UNL A   1      33.325  30.863  26.266  1.00  0.00     0.163 HD
BRANCH   6   8
ATOM      8  C   UNL A   1      35.781  30.786  28.520  1.00  0.00     0.039 A 
ATOM      9  C   UNL A   1      35.792  29.714  29.416  1.00  0.00     0.014 A 
ATOM     10  C   UNL A   1      36.971  31.454  28.219  1.00  0.00     0.014 A 
ATOM     11  C   UNL A   1      36.963  29.391  30.101  1.00  0.00     0.010 A 
ATOM     12  C   UNL A   1      38.161  31.081  28.852  1.00  0.00     0.010 A 
ATOM     13  C   UNL A   1      38.164  30.062  29.818  1.00  0.00    -0.014 A 
BRANCH  13  14
ATOM     14  C   UNL A   1      39.423  29.647  30.490  1.00  0.00     0.031 A 
ATOM     15  C   UNL A   1      39.891  30.327  31.749  1.00  0.00     0.074 A 
ATOM     16  C   UNL A   1      40.150  28.644  29.959  1.00  0.00     0.049 A 
ATOM     17  N   UNL A   1      40.966  30.094  32.459  1.00  0.00    -0.248 NA
ATOM     18  C   UNL A   1      39.048  31.411  32.277  1.00  0.00     0.031 C 
ATOM     19  C   UNL A   1      39.806  27.908  28.739  1.00  0.00     0.029 A 
ATOM     20  N   UNL A   1      41.323  28.066  30.376  1.00  0.00    -0.354 N 
ATOM     21  C   UNL A   1      40.942  31.011  33.504  1.00  0.00     0.074 A 
ATOM     22  C   UNL A   1      39.755  31.821  33.321  1.00  0.00     0.031 C 
ATOM     23  C   UNL A   1      40.727  26.957  28.526  1.00  0.00     0.029 A 
ATOM     24  C   UNL A   1      41.757  27.052  29.554  1.00  0.00     0.049 A 
ATOM     25  H   UNL A   1      41.807  28.350  31.184  1.00  0.00     0.167 HD
ATOM     26  C   UNL A   1      41.822  31.161  34.524  1.00  0.00     0.031 A 
ATOM     27  C   UNL A   1      42.869  26.294  29.605  1.00  0.00     0.031 A 
ATOM     28  C   UNL A   1      43.007  30.359  34.696  1.00  0.00     0.049 A 
ATOM     29  C   UNL A   1      43.849  26.506  30.721  1.00  0.00     0.074 A 
ATOM     30  C   UNL A   1      43.945  30.417  35.712  1.00  0.00     0.029 A 
ATOM     31  N   UNL A   1      43.424  29.361  33.827  1.00  0.00    -0.354 N 
ATOM     32  N   UNL A   1      43.787  27.354  31.720  1.00  0.00    -0.248 NA
ATOM     33  C   UNL A   1      45.048  25.657  30.721  1.00  0.00     0.031 C 
ATOM     34  C   UNL A   1      44.956  29.493  35.429  1.00  0.00     0.029 A 
ATOM     35  C   UNL A   1      44.618  28.815  34.270  1.00  0.00     0.049 A 
ATOM     36  H   UNL A   1      42.942  29.083  33.015  1.00  0.00     0.167 HD
ATOM     37  C   UNL A   1      44.928  27.125  32.481  1.00  0.00     0.074 A 
ATOM     38  C   UNL A   1      45.653  26.050  31.834  1.00  0.00     0.031 C 
ATOM     39  C   UNL A   1      45.334  27.748  33.614  1.00  0.00     0.031 A 
BRANCH  26  40
ATOM     40  C   UNL A   1      41.554  32.259  35.521  1.00  0.00    -0.014 A 
ATOM     41  C   UNL A   1      40.770  32.029  36.667  1.00  0.00     0.010 A 
ATOM     42  C   UNL A   1      42.124  33.531  35.329  1.00  0.00     0.010 A 
ATOM     43  C   UNL A   1      40.523  33.063  37.575  1.00  0.00     0.020 A 
ATOM     44  C   UNL A   1      41.902  34.561  36.250  1.00  0.00     0.020 A 
ATOM     45  C   UNL A   1      41.085  34.325  37.356  1.00  0.00     0.054 A 
BRANCH  45  46
ATOM     46  S   UNL A   1      40.746  35.647  38.551  1.00  0.00     0.124 S 
ATOM     47  O   UNL A   1      41.473  35.179  39.729  1.00  0.00    -0.237 OA
ATOM     48  O   UNL A   1      41.308  36.825  37.896  1.00  0.00    -0.237 OA
ATOM     49  O   UNL A   1      39.290  35.640  38.675  1.00  0.00    -0.744 OA
ENDBRANCH  45  46
ENDBRANCH  26  40
BRANCH  27  50
ATOM     50  C   UNL A   1      43.107  25.271  28.552  1.00  0.00    -0.014 A 
ATOM     51  C   UNL A   1      43.885  25.574  27.421  1.00  0.00     0.010 A 
ATOM     52  C   UNL A   1      42.587  23.971  28.697  1.00  0.00     0.010 A 
ATOM     53  C   UNL A   1      44.133  24.598  26.451  1.00  0.00     0.020 A 
ATOM     54  C   UNL A   1      42.857  22.984  27.745  1.00  0.00     0.020 A 
ATOM     55  C   UNL A   1      43.621  23.307  26.623  1.00  0.00     0.054 A 
BRANCH  55  56
ATOM     56  S   UNL A   1      44.014  22.039  25.386  1.00  0.00     0.124 S 
ATOM     57  O   UNL A   1      43.285  20.882  25.897  1.00  0.00    -0.237 OA
ATOM     58  O   UNL A   1      43.491  22.627  24.156  1.00  0.00    -0.237 OA
ATOM     59  O   UNL A   1      45.471  21.941  25.450  1.00  0.00    -0.744 OA
ENDBRANCH  55  56
ENDBRANCH  27  50
BRANCH  39  60
ATOM     60  C   UNL A   1      46.608  27.261  34.252  1.00  0.00    -0.014 A 
ATOM     61  C   UNL A   1      47.850  27.842  33.943  1.00  0.00     0.010 A 
ATOM     62  C   UNL A   1      46.551  26.238  35.217  1.00  0.00     0.010 A 
ATOM     63  C   UNL A   1      49.017  27.388  34.565  1.00  0.00     0.020 A 
ATOM     64  C   UNL A   1      47.711  25.800  35.861  1.00  0.00     0.020 A 
ATOM     65  C   UNL A   1      48.939  26.370  35.521  1.00  0.00     0.054 A 
BRANCH  65  66
ATOM     66  S   UNL A   1      50.460  25.831  36.348  1.00  0.00     0.124 S 
ATOM     67  O   UNL A   1      51.295  25.429  35.219  1.00  0.00    -0.237 OA
ATOM     68  O   UNL A   1      50.890  27.039  37.050  1.00  0.00    -0.237 OA
ATOM     69  O   UNL A   1      50.016  24.740  37.214  1.00  0.00    -0.744 OA
ENDBRANCH  65  66
ENDBRANCH  39  60
ENDBRANCH  13  14
ENDBRANCH   6   8
ENDBRANCH   3   4
ENDBRANCH   2   3
ENDBRANCH   1   2
BRANCH   1  70
ATOM     70  C   UNL A   1      34.052  25.980  25.428  1.00  0.00     0.002 C 
BRANCH  70  71
ATOM     71  C   UNL A   1      33.973  24.606  26.097  1.00  0.00     0.021 C 
BRANCH  71  72
ATOM     72  C   UNL A   1      35.005  23.579  25.615  1.00  0.00     0.116 C 
BRANCH  72  73
ATOM     73  N   UNL A   1      34.740  22.297  26.240  1.00  0.00    -0.353 N 
ATOM     74  C   UNL A   1      33.800  21.365  25.867  1.00  0.00     0.265 C 
ATOM     75  H   UNL A   1      35.294  22.069  27.019  1.00  0.00     0.163 HD
ATOM     76  O   UNL A   1      33.207  20.807  26.797  1.00  0.00    -0.270 OA
BRANCH  74  77
ATOM     77  C   UNL A   1      33.542  21.016  24.358  1.00  0.00     0.292 C 
BRANCH  77  78
ATOM     78  C   UNL A   1      33.544  19.493  24.123  1.00  0.00     0.002 A 
ATOM     79  C   UNL A   1      34.650  18.727  24.537  1.00  0.00     0.008 A 
ATOM     80  C   UNL A   1      32.551  18.844  23.367  1.00  0.00     0.008 A 
ATOM     81  C   UNL A   1      34.744  17.367  24.219  1.00  0.00     0.000 A 
ATOM     82  C   UNL A   1      32.639  17.484  23.058  1.00  0.00     0.000 A 
ATOM     83  C   UNL A   1      33.738  16.746  23.482  1.00  0.00     0.000 A 
ENDBRANCH  77  78
BRANCH  77  84
ATOM     84  O   UNL A   1      32.254  21.397  23.864  1.00  0.00    -0.476 OA
BRANCH  84  85
ATOM     85  C   UNL A   1      31.923  22.704  23.689  1.00  0.00     0.127 A 
ATOM     86  C   UNL A   1      30.972  23.418  24.409  1.00  0.00     0.047 A 
ATOM     87  C   UNL A   1      32.653  23.360  22.697  1.00  0.00     0.132 A 
ATOM     88  C   UNL A   1      30.629  24.727  24.043  1.00  0.00     0.011 A 
ATOM     89  C   UNL A   1      32.347  24.687  22.368  1.00  0.00     0.273 A 
ATOM     90  C   UNL A   1      31.303  25.363  23.006  1.00  0.00     0.086 A 
BRANCH  89  91
ATOM     91  N   UNL A   1      33.141  25.378  21.354  1.00  0.00     0.062 N 
ATOM     92  O   UNL A   1      33.087  24.951  20.193  1.00  0.00    -0.258 OA
ATOM     93  O   UNL A   1      33.811  26.355  21.718  1.00  0.00    -0.258 OA
ENDBRANCH  89  91
ENDBRANCH  84  85
ENDBRANCH  77  84
ENDBRANCH  74  77
ENDBRANCH  72  73
ENDBRANCH  71  72
ENDBRANCH  70  71
ENDBRANCH   1  70
TORSDOF 20
ENDMDL
MODEL 3
REMARK VINA RESULT:     -10.6      3.019      3.966
REMARK SMILES O=C(NCCCCCCNC(=O)[C@H](Oc1cccc([N+](=O)[O-])c1)c1ccccc1)c1ccc(-c2c3nc(c(-c4ccc(S(=O)(=O)[O-])cc4)c4ccc([nH]4)c(-c4ccc(S(=O)(=O)[O-])cc4)c4nc(c(-c5ccc(S(=O)(=O)[O-])cc5)c5ccc2[nH]5)C=C4)C=C3)cc1
REMARK SMILES IDX 6 1 5 2 4 3 3 4 1 5 2 6 30 8 31 9 89 10 32 11 88 12 33 13
REMARK SMILES IDX 34 14 35 15 82 16 36 17 87 18 81 19 83 20 37 21 86 22 80 23
REMARK SMILES IDX 79 24 38 26 68 27 49 28 67 29 50 30 53 31 66 32 84 33 51 34
REMARK SMILES IDX 52 35 65 37 85 38 54 39 39 40 40 41 48 42 41 43 47 44 42 45
REMARK SMILES IDX 43 46 44 47 45 48 46 49 69 50 70 51 78 52 71 53 77 54 72 55
REMARK SMILES IDX 73 56 74 57 75 58 76 59 55 60 56 61 64 62 57 63 63 64 58 65
REMARK SMILES IDX 59 66 60 67 61 68 62 69 7 70 8 71 9 72 10 73 11 74 12 76
REMARK SMILES IDX 13 77 24 78 25 79 29 80 26 81 28 82 27 83 14 84 15 85 16 86
REMARK SMILES IDX 23 87 17 88 19 89 18 90 20 91 21 92 22 93
REMARK H PARENT 3 7 83 25 53 36 10 75
REMARK Flexibility Score: inf
ROOT
ATOM      1  C   UNL A   1      33.026  29.082  26.589  1.00  0.00     0.002 C 
ENDROOT
BRANCH   1   2
ATOM      2  C   UNL A   1      34.425  28.578  26.970  1.00  0.00     0.021 C 
BRANCH   2   3
ATOM      3  C   UNL A   1      35.417  29.660  27.393  1.00  0.00     0.116 C 
BRANCH   3   4
ATOM      4  N   UNL A   1      35.313  29.977  28.806  1.00  0.00    -0.352 N 
ATOM      5  O   UNL A   1      35.876  29.919  30.983  1.00  0.00    -0.269 OA
ATOM      6  C   UNL A   1      36.234  29.818  29.814  1.00  0.00     0.251 C 
ATOM      7  H   UNL A   1      34.452  30.366  29.085  1.00  0.00     0.163 HD
BRANCH   6   8
ATOM      8  C   UNL A   1      37.647  29.509  29.498  1.00  0.00     0.039 A 
ATOM      9  C   UNL A   1      38.530  29.078  30.490  1.00  0.00     0.014 A 
ATOM     10  C   UNL A   1      38.078  29.595  28.171  1.00  0.00     0.014 A 
ATOM     11  C   UNL A   1      39.871  28.852  30.179  1.00  0.00     0.010 A 
ATOM     12  C   UNL A   1      39.406  29.294  27.847  1.00  0.00     0.010 A 
ATOM     13  C   UNL A   1      40.321  28.944  28.852  1.00  0.00    -0.014 A 
BRANCH  13  14
ATOM     14  C   UNL A   1      41.732  28.612  28.522  1.00  0.00     0.031 A 
ATOM     15  C   UNL A   1      42.804  29.669  28.549  1.00  0.00     0.074 A 
ATOM     16  C   UNL A   1      42.047  27.343  28.195  1.00  0.00     0.049 A 
ATOM     17  N   UNL A   1      44.081  29.551  28.282  1.00  0.00    -0.248 NA
ATOM     18  C   UNL A   1      42.392  31.032  28.916  1.00  0.00     0.031 C 
ATOM     19  C   UNL A   1      41.098  26.230  28.128  1.00  0.00     0.029 A 
ATOM     20  N   UNL A   1      43.251  26.773  27.865  1.00  0.00    -0.354 N 
ATOM     21  C   UNL A   1      44.622  30.824  28.430  1.00  0.00     0.074 A 
ATOM     22  C   UNL A   1      43.528  31.704  28.786  1.00  0.00     0.031 C 
ATOM     23  C   UNL A   1      41.759  25.106  27.812  1.00  0.00     0.029 A 
ATOM     24  C   UNL A   1      43.165  25.428  27.594  1.00  0.00     0.049 A 
ATOM     25  H   UNL A   1      44.095  27.279  27.825  1.00  0.00     0.167 HD
ATOM     26  C   UNL A   1      45.910  31.222  28.287  1.00  0.00     0.031 A 
ATOM     27  C   UNL A   1      44.105  24.549  27.195  1.00  0.00     0.031 A 
ATOM     28  C   UNL A   1      46.993  30.345  27.922  1.00  0.00     0.049 A 
ATOM     29  C   UNL A   1      45.516  25.022  27.004  1.00  0.00     0.074 A 
ATOM     30  C   UNL A   1      48.336  30.649  27.779  1.00  0.00     0.029 A 
ATOM     31  N   UNL A   1      46.858  28.995  27.630  1.00  0.00    -0.354 N 
ATOM     32  N   UNL A   1      46.012  26.222  27.186  1.00  0.00    -0.248 NA
ATOM     33  C   UNL A   1      46.496  24.022  26.559  1.00  0.00     0.031 C 
ATOM     34  C   UNL A   1      49.004  29.497  27.349  1.00  0.00     0.029 A 
ATOM     35  C   UNL A   1      48.089  28.460  27.284  1.00  0.00     0.049 A 
ATOM     36  H   UNL A   1      46.013  28.492  27.664  1.00  0.00     0.167 HD
ATOM     37  C   UNL A   1      47.369  26.118  26.899  1.00  0.00     0.074 A 
ATOM     38  C   UNL A   1      47.616  24.734  26.546  1.00  0.00     0.031 C 
ATOM     39  C   UNL A   1      48.322  27.081  26.928  1.00  0.00     0.031 A 
BRANCH  26  40
ATOM     40  C   UNL A   1      46.215  32.683  28.495  1.00  0.00    -0.014 A 
ATOM     41  C   UNL A   1      46.577  33.180  29.762  1.00  0.00     0.010 A 
ATOM     42  C   UNL A   1      46.176  33.568  27.402  1.00  0.00     0.010 A 
ATOM     43  C   UNL A   1      46.846  34.540  29.938  1.00  0.00     0.020 A 
ATOM     44  C   UNL A   1      46.472  34.925  27.569  1.00  0.00     0.020 A 
ATOM     45  C   UNL A   1      46.784  35.406  28.842  1.00  0.00     0.054 A 
BRANCH  45  46
ATOM     46  S   UNL A   1      47.138  37.166  29.102  1.00  0.00     0.124 S 
ATOM     47  O   UNL A   1      46.032  37.568  29.968  1.00  0.00    -0.237 OA
ATOM     48  O   UNL A   1      48.453  37.139  29.737  1.00  0.00    -0.237 OA
ATOM     49  O   UNL A   1      47.110  37.729  27.754  1.00  0.00    -0.744 OA
ENDBRANCH  45  46
ENDBRANCH  26  40
BRANCH  27  50
ATOM     50  C   UNL A   1      43.724  23.133  26.942  1.00  0.00    -0.014 A 
ATOM     51  C   UNL A   1      43.010  22.400  27.905  1.00  0.00     0.010 A 
ATOM     52  C   UNL A   1      44.042  22.524  25.713  1.00  0.00     0.010 A 
ATOM     53  C   UNL A   1      42.626  21.080  27.647  1.00  0.00     0.020 A 
ATOM     54  C   UNL A   1      43.634  21.215  25.441  1.00  0.00     0.020 A 
ATOM     55  C   UNL A   1      42.937  20.499  26.414  1.00  0.00     0.054 A 
BRANCH  55  56
ATOM     56  S   UNL A   1      42.368  18.809  26.076  1.00  0.00     0.124 S 
ATOM     57  O   UNL A   1      40.964  19.024  25.738  1.00  0.00    -0.237 OA
ATOM     58  O   UNL A   1      43.231  18.401  24.972  1.00  0.00    -0.237 OA
ATOM     59  O   UNL A   1      42.609  18.111  27.337  1.00  0.00    -0.744 OA
ENDBRANCH  55  56
ENDBRANCH  27  50
BRANCH  39  60
ATOM     60  C   UNL A   1      49.733  26.668  26.602  1.00  0.00    -0.014 A 
ATOM     61  C   UNL A   1      50.624  26.252  27.607  1.00  0.00     0.010 A 
ATOM     62  C   UNL A   1      50.155  26.650  25.260  1.00  0.00     0.010 A 
ATOM     63  C   UNL A   1      51.922  25.852  27.278  1.00  0.00     0.020 A 
ATOM     64  C   UNL A   1      51.443  26.224  24.925  1.00  0.00     0.020 A 
ATOM     65  C   UNL A   1      52.323  25.841  25.938  1.00  0.00     0.054 A 
BRANCH  65  66
ATOM     66  S   UNL A   1      53.997  25.273  25.532  1.00  0.00     0.124 S 
ATOM     67  O   UNL A   1      54.556  25.005  26.854  1.00  0.00    -0.237 OA
ATOM     68  O   UNL A   1      53.745  24.095  24.704  1.00  0.00    -0.237 OA
ATOM     69  O   UNL A   1      54.586  26.408  24.825  1.00  0.00    -0.744 OA
ENDBRANCH  65  66
ENDBRANCH  39  60
ENDBRANCH  13  14
ENDBRANCH   6   8
ENDBRANCH   3   4
ENDBRANCH   2   3
ENDBRANCH   1   2
BRANCH   1  70
ATOM     70  C   UNL A   1      32.895  29.715  25.200  1.00  0.00     0.002 C 
BRANCH  70  71
ATOM     71  C   UNL A   1      32.407  28.768  24.102  1.00  0.00     0.021 C 
BRANCH  71  72
ATOM     72  C   UNL A   1      33.387  28.543  22.944  1.00  0.00     0.116 C 
BRANCH  72  73
ATOM     73  N   UNL A   1      32.826  27.577  22.017  1.00  0.00    -0.353 N 
ATOM     74  C   UNL A   1      33.284  26.308  21.756  1.00  0.00     0.265 C 
ATOM     75  H   UNL A   1      32.027  27.863  21.520  1.00  0.00     0.163 HD
ATOM     76  O   UNL A   1      33.245  25.962  20.571  1.00  0.00    -0.270 OA
BRANCH  74  77
ATOM     77  C   UNL A   1      33.782  25.360  22.905  1.00  0.00     0.292 C 
BRANCH  77  78
ATOM     78  C   UNL A   1      32.715  25.201  24.007  1.00  0.00     0.002 A 
ATOM     79  C   UNL A   1      33.063  25.432  25.351  1.00  0.00     0.008 A 
ATOM     80  C   UNL A   1      31.434  24.679  23.748  1.00  0.00     0.008 A 
ATOM     81  C   UNL A   1      32.158  25.166  26.385  1.00  0.00     0.000 A 
ATOM     82  C   UNL A   1      30.527  24.424  24.779  1.00  0.00     0.000 A 
ATOM     83  C   UNL A   1      30.891  24.665  26.099  1.00  0.00     0.000 A 
ENDBRANCH  77  78
BRANCH  77  84
ATOM     84  O   UNL A   1      34.015  24.005  22.510  1.00  0.00    -0.476 OA
BRANCH  84  85
ATOM     85  C   UNL A   1      34.780  23.172  23.262  1.00  0.00     0.127 A 
ATOM     86  C   UNL A   1      36.140  23.307  23.521  1.00  0.00     0.047 A 
ATOM     87  C   UNL A   1      34.086  22.103  23.834  1.00  0.00     0.132 A 
ATOM     88  C   UNL A   1      36.843  22.305  24.204  1.00  0.00     0.011 A 
ATOM     89  C   UNL A   1      34.781  21.131  24.564  1.00  0.00     0.273 A 
ATOM     90  C   UNL A   1      36.169  21.200  24.714  1.00  0.00     0.086 A 
BRANCH  89  91
ATOM     91  N   UNL A   1      34.041  20.036  25.190  1.00  0.00     0.062 N 
ATOM     92  O   UNL A   1      33.256  20.324  26.104  1.00  0.00    -0.258 OA
ATOM     93  O   UNL A   1      34.239  18.891  24.761  1.00  0.00    -0.258 OA
ENDBRANCH  89  91
ENDBRANCH  84  85
ENDBRANCH  77  84
ENDBRANCH  74  77
ENDBRANCH  72  73
ENDBRANCH  71  72
ENDBRANCH  70  71
ENDBRANCH   1  70
TORSDOF 20
ENDMDL
