MODEL 1
REMARK VINA RESULT:     -10.4      0.000      0.000
REMARK SMILES O=C(CCc1cccnc1)Nc1ccsc1C(=O)NCCCCCCNC(=O)c1ccc(-c2c3nc(c(-c4ccc(S(=O)(=O)[O-])cc4)c4ccc([nH]4)c(-c4ccc(S(=O)(=O)[O-])cc4)c4nc(c(-c5ccc(S(=O)(=O)[O-])cc5)c5ccc2[nH]5)C=C4)C=C3)cc1
REMARK SMILES IDX 22 1 21 2 20 3 19 4 17 5 18 6 16 8 12 9 13 10 14 11 15 12
REMARK SMILES IDX 11 13 1 14 2 15 3 17 4 18 5 19 6 20 10 21 7 22 9 23 8 24
REMARK SMILES IDX 23 25 24 26 25 27 26 28 27 29 28 31 29 32 30 33 88 34 31 35
REMARK SMILES IDX 87 36 32 37 33 38 34 39 81 40 35 41 86 42 80 43 82 44 36 45
REMARK SMILES IDX 85 46 79 47 78 48 37 50 67 51 48 52 66 53 49 54 52 55 65 56
REMARK SMILES IDX 83 57 50 58 51 59 64 61 84 62 53 63 38 64 39 65 47 66 40 67
REMARK SMILES IDX 46 68 41 69 42 70 43 71 44 72 45 73 68 74 69 75 77 76 70 77
REMARK SMILES IDX 76 78 71 79 72 80 73 81 74 82 75 83 54 84 55 85 63 86 56 87
REMARK SMILES IDX 62 88 57 89 58 90 59 91 60 92 61 93
REMARK H PARENT 19 7 11 16 26 30 82 49 52 60
REMARK Flexibility Score: inf
ROOT
ATOM      1  C   UNL A   1      36.893  21.823  24.683  1.00  0.00     0.002 C 
ENDROOT
BRANCH   1   2
ATOM      2  C   UNL A   1      36.286  22.910  25.607  1.00  0.00     0.021 C 
BRANCH   2   3
ATOM      3  C   UNL A   1      35.924  24.367  25.279  1.00  0.00     0.116 C 
BRANCH   3   4
ATOM      4  N   UNL A   1      34.772  24.989  25.895  1.00  0.00    -0.351 N 
ATOM      5  C   UNL A   1      33.540  25.332  25.333  1.00  0.00     0.263 C 
ATOM      6  O   UNL A   1      32.750  25.873  26.113  1.00  0.00    -0.268 OA
ATOM      7  H   UNL A   1      34.871  25.200  26.851  1.00  0.00     0.163 HD
BRANCH   5   8
ATOM      8  C   UNL A   1      33.219  25.109  23.915  1.00  0.00     0.115 A 
ATOM      9  C   UNL A   1      33.124  23.971  23.123  1.00  0.00     0.065 A 
ATOM     10  C   UNL A   1      32.887  24.272  21.745  1.00  0.00     0.038 A 
ATOM     11  C   UNL A   1      32.647  25.609  21.537  1.00  0.00     0.068 A 
ATOM     12  S   UNL A   1      32.823  26.510  22.975  1.00  0.00    -0.137 S 
BRANCH   9  13
ATOM     13  N   UNL A   1      33.160  22.688  23.635  1.00  0.00    -0.325 N 
ATOM     14  O   UNL A   1      31.074  22.631  24.610  1.00  0.00    -0.275 OA
ATOM     15  C   UNL A   1      32.165  22.109  24.389  1.00  0.00     0.224 C 
ATOM     16  H   UNL A   1      33.959  22.144  23.445  1.00  0.00     0.169 HD
BRANCH  15  17
ATOM     17  C   UNL A   1      32.489  20.734  24.966  1.00  0.00     0.105 C 
BRANCH  17  18
ATOM     18  C   UNL A   1      33.476  19.856  24.193  1.00  0.00     0.047 C 
BRANCH  18  19
ATOM     19  C   UNL A   1      33.535  18.395  24.583  1.00  0.00    -0.029 A 
ATOM     20  C   UNL A   1      34.628  17.585  24.252  1.00  0.00     0.007 A 
ATOM     21  C   UNL A   1      32.530  17.790  25.320  1.00  0.00     0.114 A 
ATOM     22  C   UNL A   1      34.714  16.267  24.681  1.00  0.00     0.020 A 
ATOM     23  N   UNL A   1      32.583  16.512  25.760  1.00  0.00    -0.264 NA
ATOM     24  C   UNL A   1      33.670  15.779  25.433  1.00  0.00     0.111 A 
ENDBRANCH  18  19
ENDBRANCH  17  18
ENDBRANCH  15  17
ENDBRANCH   9  13
ENDBRANCH   5   8
ENDBRANCH   3   4
ENDBRANCH   2   3
ENDBRANCH   1   2
BRANCH   1  25
ATOM     25  C   UNL A   1      37.035  20.309  24.909  1.00  0.00     0.002 C 
BRANCH  25  26
ATOM     26  C   UNL A   1      38.394  19.600  24.985  1.00  0.00     0.021 C 
BRANCH  26  27
ATOM     27  C   UNL A   1      39.489  20.166  25.884  1.00  0.00     0.116 C 
BRANCH  27  28
ATOM     28  N   UNL A   1      40.563  19.217  26.117  1.00  0.00    -0.352 N 
ATOM     29  C   UNL A   1      41.917  19.430  26.248  1.00  0.00     0.251 C 
ATOM     30  H   UNL A   1      40.279  18.278  26.194  1.00  0.00     0.163 HD
ATOM     31  O   UNL A   1      42.676  18.461  26.203  1.00  0.00    -0.269 OA
BRANCH  29  32
ATOM     32  C   UNL A   1      42.484  20.791  26.446  1.00  0.00     0.039 A 
ATOM     33  C   UNL A   1      42.562  21.313  27.745  1.00  0.00     0.014 A 
ATOM     34  C   UNL A   1      42.849  21.597  25.364  1.00  0.00     0.014 A 
ATOM     35  C   UNL A   1      43.023  22.620  27.957  1.00  0.00     0.010 A 
ATOM     36  C   UNL A   1      43.367  22.878  25.581  1.00  0.00     0.010 A 
ATOM     37  C   UNL A   1      43.438  23.414  26.877  1.00  0.00    -0.014 A 
BRANCH  37  38
ATOM     38  C   UNL A   1      43.895  24.820  27.070  1.00  0.00     0.031 A 
ATOM     39  C   UNL A   1      45.348  25.174  26.859  1.00  0.00     0.074 A 
ATOM     40  C   UNL A   1      43.029  25.765  27.486  1.00  0.00     0.049 A 
ATOM     41  N   UNL A   1      45.959  26.315  27.055  1.00  0.00    -0.248 NA
ATOM     42  C   UNL A   1      46.234  24.094  26.397  1.00  0.00     0.031 C 
ATOM     43  C   UNL A   1      41.606  25.550  27.756  1.00  0.00     0.029 A 
ATOM     44  N   UNL A   1      43.220  27.097  27.762  1.00  0.00    -0.354 N 
ATOM     45  C   UNL A   1      47.301  26.083  26.768  1.00  0.00     0.074 A 
ATOM     46  C   UNL A   1      47.422  24.681  26.433  1.00  0.00     0.031 C 
ATOM     47  C   UNL A   1      41.049  26.713  28.135  1.00  0.00     0.029 A 
ATOM     48  C   UNL A   1      42.078  27.748  28.171  1.00  0.00     0.049 A 
ATOM     49  H   UNL A   1      44.093  27.546  27.676  1.00  0.00     0.167 HD
ATOM     50  C   UNL A   1      48.337  26.956  26.764  1.00  0.00     0.031 A 
ATOM     51  C   UNL A   1      41.882  29.030  28.536  1.00  0.00     0.031 A 
ATOM     52  C   UNL A   1      48.210  28.356  27.070  1.00  0.00     0.049 A 
ATOM     53  C   UNL A   1      43.042  29.987  28.509  1.00  0.00     0.074 A 
ATOM     54  C   UNL A   1      49.186  29.338  27.039  1.00  0.00     0.029 A 
ATOM     55  N   UNL A   1      47.030  28.977  27.455  1.00  0.00    -0.354 N 
ATOM     56  N   UNL A   1      44.293  29.756  28.188  1.00  0.00    -0.248 NA
ATOM     57  C   UNL A   1      42.763  31.382  28.881  1.00  0.00     0.031 C 
ATOM     58  C   UNL A   1      48.604  30.545  27.444  1.00  0.00     0.029 A 
ATOM     59  C   UNL A   1      47.256  30.324  27.677  1.00  0.00     0.049 A 
ATOM     60  H   UNL A   1      46.162  28.525  27.555  1.00  0.00     0.167 HD
ATOM     61  C   UNL A   1      44.944  30.981  28.291  1.00  0.00     0.074 A 
ATOM     62  C   UNL A   1      43.946  31.952  28.693  1.00  0.00     0.031 C 
ATOM     63  C   UNL A   1      46.250  31.276  28.075  1.00  0.00     0.031 A 
BRANCH  50  64
ATOM     64  C   UNL A   1      49.703  26.417  26.418  1.00  0.00    -0.014 A 
ATOM     65  C   UNL A   1      50.200  26.486  25.104  1.00  0.00     0.010 A 
ATOM     66  C   UNL A   1      50.511  25.856  27.424  1.00  0.00     0.010 A 
ATOM     67  C   UNL A   1      51.456  25.956  24.791  1.00  0.00     0.020 A 
ATOM     68  C   UNL A   1      51.781  25.350  27.121  1.00  0.00     0.020 A 
ATOM     69  C   UNL A   1      52.235  25.385  25.801  1.00  0.00     0.054 A 
BRANCH  69  70
ATOM     70  S   UNL A   1      53.862  24.708  25.371  1.00  0.00     0.124 S 
ATOM     71  O   UNL A   1      53.525  23.333  24.997  1.00  0.00    -0.237 OA
ATOM     72  O   UNL A   1      54.285  25.568  24.264  1.00  0.00    -0.237 OA
ATOM     73  O   UNL A   1      54.634  24.849  26.594  1.00  0.00    -0.744 OA
ENDBRANCH  69  70
ENDBRANCH  50  64
BRANCH  51  74
ATOM     74  C   UNL A   1      40.522  29.490  28.932  1.00  0.00    -0.014 A 
ATOM     75  C   UNL A   1      39.498  29.592  27.973  1.00  0.00     0.010 A 
ATOM     76  C   UNL A   1      40.236  29.813  30.271  1.00  0.00     0.010 A 
ATOM     77  C   UNL A   1      38.219  30.021  28.341  1.00  0.00     0.020 A 
ATOM     78  C   UNL A   1      38.950  30.217  30.649  1.00  0.00     0.020 A 
ATOM     79  C   UNL A   1      37.953  30.328  29.679  1.00  0.00     0.054 A 
BRANCH  79  80
ATOM     80  S   UNL A   1      36.271  30.827  30.145  1.00  0.00     0.124 S 
ATOM     81  O   UNL A   1      36.476  32.196  30.604  1.00  0.00    -0.237 OA
ATOM     82  O   UNL A   1      35.540  30.683  28.888  1.00  0.00    -0.237 OA
ATOM     83  O   UNL A   1      35.905  29.864  31.181  1.00  0.00    -0.744 OA
ENDBRANCH  79  80
ENDBRANCH  51  74
BRANCH  63  84
ATOM     84  C   UNL A   1      46.670  32.712  28.233  1.00  0.00    -0.014 A 
ATOM     85  C   UNL A   1      47.069  33.221  29.481  1.00  0.00     0.010 A 
ATOM     86  C   UNL A   1      46.725  33.546  27.101  1.00  0.00     0.010 A 
ATOM     87  C   UNL A   1      47.488  34.549  29.600  1.00  0.00     0.020 A 
ATOM     88  C   UNL A   1      47.168  34.867  27.211  1.00  0.00     0.020 A 
ATOM     89  C   UNL A   1      47.535  35.363  28.464  1.00  0.00     0.054 A 
BRANCH  89  90
ATOM     90  S   UNL A   1      48.128  37.069  28.636  1.00  0.00     0.124 S 
ATOM     91  O   UNL A   1      48.125  37.247  30.086  1.00  0.00    -0.237 OA
ATOM     92  O   UNL A   1      49.449  37.013  28.014  1.00  0.00    -0.237 OA
ATOM     93  O   UNL A   1      47.136  37.855  27.908  1.00  0.00    -0.744 OA
ENDBRANCH  89  90
ENDBRANCH  63  84
ENDBRANCH  37  38
ENDBRANCH  29  32
ENDBRANCH  27  28
ENDBRANCH  26  27
ENDBRANCH  25  26
ENDBRANCH   1  25
TORSDOF 20
ENDMDL
MODEL 2
REMARK VINA RESULT:     -10.4      0.971      8.180
REMARK SMILES O=C(CCc1cccnc1)Nc1ccsc1C(=O)NCCCCCCNC(=O)c1ccc(-c2c3nc(c(-c4ccc(S(=O)(=O)[O-])cc4)c4ccc([nH]4)c(-c4ccc(S(=O)(=O)[O-])cc4)c4nc(c(-c5ccc(S(=O)(=O)[O-])cc5)c5ccc2[nH]5)C=C4)C=C3)cc1
REMARK SMILES IDX 22 1 21 2 20 3 19 4 17 5 18 6 16 8 12 9 13 10 14 11 15 12
REMARK SMILES IDX 11 13 1 14 2 15 3 17 4 18 5 19 6 20 10 21 7 22 9 23 8 24
REMARK SMILES IDX 23 25 24 26 25 27 26 28 27 29 28 31 29 32 30 33 88 34 31 35
REMARK SMILES IDX 87 36 32 37 33 38 34 39 81 40 35 41 86 42 80 43 82 44 36 45
REMARK SMILES IDX 85 46 79 47 78 48 37 50 67 51 48 52 66 53 49 54 52 55 65 56
REMARK SMILES IDX 83 57 50 58 51 59 64 61 84 62 53 63 38 64 39 65 47 66 40 67
REMARK SMILES IDX 46 68 41 69 42 70 43 71 44 72 45 73 68 74 69 75 77 76 70 77
REMARK SMILES IDX 76 78 71 79 72 80 73 81 74 82 75 83 54 84 55 85 63 86 56 87
REMARK SMILES IDX 62 88 57 89 58 90 59 91 60 92 61 93
REMARK H PARENT 19 7 11 16 26 30 82 49 52 60
REMARK Flexibility Score: inf
ROOT
ATOM      1  C   UNL A   1      36.987  22.332  24.252  1.00  0.00     0.002 C 
ENDROOT
BRANCH   1   2
ATOM      2  C   UNL A   1      36.568  23.666  24.922  1.00  0.00     0.021 C 
BRANCH   2   3
ATOM      3  C   UNL A   1      35.239  24.430  24.809  1.00  0.00     0.116 C 
BRANCH   3   4
ATOM      4  N   UNL A   1      34.547  24.503  23.541  1.00  0.00    -0.351 N 
ATOM      5  C   UNL A   1      33.196  24.743  23.279  1.00  0.00     0.263 C 
ATOM      6  O   UNL A   1      32.892  24.728  22.082  1.00  0.00    -0.268 OA
ATOM      7  H   UNL A   1      35.111  24.365  22.747  1.00  0.00     0.163 HD
BRANCH   5   8
ATOM      8  C   UNL A   1      32.201  24.955  24.341  1.00  0.00     0.115 A 
ATOM      9  C   UNL A   1      31.299  24.119  24.987  1.00  0.00     0.065 A 
ATOM     10  C   UNL A   1      30.442  24.821  25.893  1.00  0.00     0.038 A 
ATOM     11  C   UNL A   1      30.807  26.137  26.041  1.00  0.00     0.068 A 
ATOM     12  S   UNL A   1      32.099  26.552  25.006  1.00  0.00    -0.137 S 
BRANCH   9  13
ATOM     13  N   UNL A   1      31.300  22.745  24.838  1.00  0.00    -0.325 N 
ATOM     14  O   UNL A   1      33.164  22.248  26.096  1.00  0.00    -0.275 OA
ATOM     15  C   UNL A   1      32.252  21.894  25.351  1.00  0.00     0.224 C 
ATOM     16  H   UNL A   1      30.561  22.342  24.325  1.00  0.00     0.169 HD
BRANCH  15  17
ATOM     17  C   UNL A   1      32.124  20.432  24.936  1.00  0.00     0.105 C 
BRANCH  17  18
ATOM     18  C   UNL A   1      33.377  19.736  24.400  1.00  0.00     0.047 C 
BRANCH  18  19
ATOM     19  C   UNL A   1      33.506  18.255  24.685  1.00  0.00    -0.029 A 
ATOM     20  C   UNL A   1      34.720  17.574  24.528  1.00  0.00     0.007 A 
ATOM     21  C   UNL A   1      32.441  17.501  25.151  1.00  0.00     0.114 A 
ATOM     22  C   UNL A   1      34.852  16.235  24.868  1.00  0.00     0.020 A 
ATOM     23  N   UNL A   1      32.535  16.197  25.497  1.00  0.00    -0.264 NA
ATOM     24  C   UNL A   1      33.734  15.592  25.349  1.00  0.00     0.111 A 
ENDBRANCH  18  19
ENDBRANCH  17  18
ENDBRANCH  15  17
ENDBRANCH   9  13
ENDBRANCH   5   8
ENDBRANCH   3   4
ENDBRANCH   2   3
ENDBRANCH   1   2
BRANCH   1  25
ATOM     25  C   UNL A   1      36.781  20.885  24.730  1.00  0.00     0.002 C 
BRANCH  25  26
ATOM     26  C   UNL A   1      37.944  19.924  25.009  1.00  0.00     0.021 C 
BRANCH  26  27
ATOM     27  C   UNL A   1      39.170  20.426  25.765  1.00  0.00     0.116 C 
BRANCH  27  28
ATOM     28  N   UNL A   1      40.156  19.382  25.981  1.00  0.00    -0.352 N 
ATOM     29  C   UNL A   1      41.522  19.474  26.131  1.00  0.00     0.251 C 
ATOM     30  H   UNL A   1      39.792  18.469  26.027  1.00  0.00     0.163 HD
ATOM     31  O   UNL A   1      42.196  18.445  26.066  1.00  0.00    -0.269 OA
BRANCH  29  32
ATOM     32  C   UNL A   1      42.201  20.775  26.375  1.00  0.00     0.039 A 
ATOM     33  C   UNL A   1      42.338  21.236  27.692  1.00  0.00     0.014 A 
ATOM     34  C   UNL A   1      42.618  21.592  25.320  1.00  0.00     0.014 A 
ATOM     35  C   UNL A   1      42.907  22.491  27.948  1.00  0.00     0.010 A 
ATOM     36  C   UNL A   1      43.241  22.816  25.579  1.00  0.00     0.010 A 
ATOM     37  C   UNL A   1      43.372  23.292  26.894  1.00  0.00    -0.014 A 
BRANCH  37  38
ATOM     38  C   UNL A   1      43.945  24.647  27.135  1.00  0.00     0.031 A 
ATOM     39  C   UNL A   1      43.037  25.787  27.529  1.00  0.00     0.074 A 
ATOM     40  C   UNL A   1      45.260  24.872  26.949  1.00  0.00     0.049 A 
ATOM     41  N   UNL A   1      43.324  27.053  27.702  1.00  0.00    -0.248 NA
ATOM     42  C   UNL A   1      41.614  25.467  27.723  1.00  0.00     0.031 C 
ATOM     43  C   UNL A   1      46.242  23.866  26.539  1.00  0.00     0.029 A 
ATOM     44  N   UNL A   1      45.999  26.023  27.072  1.00  0.00    -0.354 N 
ATOM     45  C   UNL A   1      42.117  27.681  27.996  1.00  0.00     0.074 A 
ATOM     46  C   UNL A   1      41.089  26.666  27.929  1.00  0.00     0.031 C 
ATOM     47  C   UNL A   1      47.456  24.438  26.469  1.00  0.00     0.029 A 
ATOM     48  C   UNL A   1      47.337  25.857  26.791  1.00  0.00     0.049 A 
ATOM     49  H   UNL A   1      45.609  26.888  27.337  1.00  0.00     0.167 HD
ATOM     50  C   UNL A   1      41.884  28.978  28.312  1.00  0.00     0.031 A 
ATOM     51  C   UNL A   1      48.351  26.745  26.791  1.00  0.00     0.031 A 
ATOM     52  C   UNL A   1      42.912  29.980  28.406  1.00  0.00     0.049 A 
ATOM     53  C   UNL A   1      48.073  28.176  27.161  1.00  0.00     0.074 A 
ATOM     54  C   UNL A   1      42.790  31.309  28.774  1.00  0.00     0.029 A 
ATOM     55  N   UNL A   1      44.256  29.762  28.138  1.00  0.00    -0.354 N 
ATOM     56  N   UNL A   1      46.932  28.737  27.483  1.00  0.00    -0.248 NA
ATOM     57  C   UNL A   1      49.222  29.093  27.180  1.00  0.00     0.031 C 
ATOM     58  C   UNL A   1      44.055  31.904  28.690  1.00  0.00     0.029 A 
ATOM     59  C   UNL A   1      44.971  30.932  28.319  1.00  0.00     0.049 A 
ATOM     60  H   UNL A   1      44.643  28.900  27.860  1.00  0.00     0.167 HD
ATOM     61  C   UNL A   1      47.229  30.065  27.770  1.00  0.00     0.074 A 
ATOM     62  C   UNL A   1      48.660  30.220  27.596  1.00  0.00     0.031 C 
ATOM     63  C   UNL A   1      46.395  31.067  28.144  1.00  0.00     0.031 A 
BRANCH  50  64
ATOM     64  C   UNL A   1      40.457  29.385  28.577  1.00  0.00    -0.014 A 
ATOM     65  C   UNL A   1      39.471  29.277  27.578  1.00  0.00     0.010 A 
ATOM     66  C   UNL A   1      40.087  29.859  29.850  1.00  0.00     0.010 A 
ATOM     67  C   UNL A   1      38.158  29.686  27.829  1.00  0.00     0.020 A 
ATOM     68  C   UNL A   1      38.766  30.242  30.114  1.00  0.00     0.020 A 
ATOM     69  C   UNL A   1      37.816  30.172  29.094  1.00  0.00     0.054 A 
BRANCH  69  70
ATOM     70  S   UNL A   1      36.105  30.693  29.396  1.00  0.00     0.124 S 
ATOM     71  O   UNL A   1      36.086  32.026  28.791  1.00  0.00    -0.237 OA
ATOM     72  O   UNL A   1      35.329  29.676  28.682  1.00  0.00    -0.237 OA
ATOM     73  O   UNL A   1      35.980  30.664  30.843  1.00  0.00    -0.744 OA
ENDBRANCH  69  70
ENDBRANCH  50  64
BRANCH  51  74
ATOM     74  C   UNL A   1      49.731  26.296  26.456  1.00  0.00    -0.014 A 
ATOM     75  C   UNL A   1      50.179  26.310  25.123  1.00  0.00     0.010 A 
ATOM     76  C   UNL A   1      50.611  25.870  27.467  1.00  0.00     0.010 A 
ATOM     77  C   UNL A   1      51.475  25.893  24.804  1.00  0.00     0.020 A 
ATOM     78  C   UNL A   1      51.918  25.477  27.156  1.00  0.00     0.020 A 
ATOM     79  C   UNL A   1      52.338  25.481  25.824  1.00  0.00     0.054 A 
BRANCH  79  80
ATOM     80  S   UNL A   1      54.034  24.999  25.396  1.00  0.00     0.124 S 
ATOM     81  O   UNL A   1      54.367  25.958  24.348  1.00  0.00    -0.237 OA
ATOM     82  O   UNL A   1      54.741  25.174  26.662  1.00  0.00    -0.237 OA
ATOM     83  O   UNL A   1      53.893  23.612  24.958  1.00  0.00    -0.744 OA
ENDBRANCH  79  80
ENDBRANCH  51  74
BRANCH  63  84
ATOM     84  C   UNL A   1      47.009  32.411  28.424  1.00  0.00    -0.014 A 
ATOM     85  C   UNL A   1      47.168  33.366  27.404  1.00  0.00     0.010 A 
ATOM     86  C   UNL A   1      47.376  32.744  29.741  1.00  0.00     0.010 A 
ATOM     87  C   UNL A   1      47.710  34.622  27.693  1.00  0.00     0.020 A 
ATOM     88  C   UNL A   1      47.894  34.008  30.038  1.00  0.00     0.020 A 
ATOM     89  C   UNL A   1      48.070  34.934  29.007  1.00  0.00     0.054 A 
BRANCH  89  90
ATOM     90  S   UNL A   1      48.726  36.587  29.365  1.00  0.00     0.124 S 
ATOM     91  O   UNL A   1      47.818  37.444  28.607  1.00  0.00    -0.237 OA
ATOM     92  O   UNL A   1      48.606  36.673  30.818  1.00  0.00    -0.237 OA
ATOM     93  O   UNL A   1      50.097  36.531  28.861  1.00  0.00    -0.744 OA
ENDBRANCH  89  90
ENDBRANCH  63  84
ENDBRANCH  37  38
ENDBRANCH  29  32
ENDBRANCH  27  28
ENDBRANCH  26  27
ENDBRANCH  25  26
ENDBRANCH   1  25
TORSDOF 20
ENDMDL
MODEL 3
REMARK VINA RESULT:     -10.2      6.334     11.460
REMARK SMILES O=C(CCc1cccnc1)Nc1ccsc1C(=O)NCCCCCCNC(=O)c1ccc(-c2c3nc(c(-c4ccc(S(=O)(=O)[O-])cc4)c4ccc([nH]4)c(-c4ccc(S(=O)(=O)[O-])cc4)c4nc(c(-c5ccc(S(=O)(=O)[O-])cc5)c5ccc2[nH]5)C=C4)C=C3)cc1
REMARK SMILES IDX 22 1 21 2 20 3 19 4 17 5 18 6 16 8 12 9 13 10 14 11 15 12
REMARK SMILES IDX 11 13 1 14 2 15 3 17 4 18 5 19 6 20 10 21 7 22 9 23 8 24
REMARK SMILES IDX 23 25 24 26 25 27 26 28 27 29 28 31 29 32 30 33 88 34 31 35
REMARK SMILES IDX 87 36 32 37 33 38 34 39 81 40 35 41 86 42 80 43 82 44 36 45
REMARK SMILES IDX 85 46 79 47 78 48 37 50 67 51 48 52 66 53 49 54 52 55 65 56
REMARK SMILES IDX 83 57 50 58 51 59 64 61 84 62 53 63 38 64 39 65 47 66 40 67
REMARK SMILES IDX 46 68 41 69 42 70 43 71 44 72 45 73 68 74 69 75 77 76 70 77
REMARK SMILES IDX 76 78 71 79 72 80 73 81 74 82 75 83 54 84 55 85 63 86 56 87
REMARK SMILES IDX 62 88 57 89 58 90 59 91 60 92 61 93
REMARK H PARENT 19 7 11 16 26 30 82 49 52 60
REMARK Flexibility Score: inf
ROOT
ATOM      1  C   UNL A   1      36.842  23.536  25.825  1.00  0.00     0.002 C 
ENDROOT
BRANCH   1   2
ATOM      2  C   UNL A   1      35.571  23.904  25.017  1.00  0.00     0.021 C 
BRANCH   2   3
ATOM      3  C   UNL A   1      34.530  24.999  25.296  1.00  0.00     0.116 C 
BRANCH   3   4
ATOM      4  N   UNL A   1      33.389  24.722  26.141  1.00  0.00    -0.351 N 
ATOM      5  C   UNL A   1      32.381  23.768  25.988  1.00  0.00     0.263 C 
ATOM      6  O   UNL A   1      31.518  23.782  26.872  1.00  0.00    -0.268 OA
ATOM      7  H   UNL A   1      33.313  25.290  26.941  1.00  0.00     0.163 HD
BRANCH   5   8
ATOM      8  C   UNL A   1      32.321  22.845  24.844  1.00  0.00     0.115 A 
ATOM      9  C   UNL A   1      31.887  22.975  23.531  1.00  0.00     0.065 A 
ATOM     10  C   UNL A   1      31.923  21.742  22.808  1.00  0.00     0.038 A 
ATOM     11  C   UNL A   1      32.527  20.736  23.524  1.00  0.00     0.068 A 
ATOM     12  S   UNL A   1      32.941  21.246  25.099  1.00  0.00    -0.137 S 
BRANCH   9  13
ATOM     13  N   UNL A   1      31.551  24.190  22.962  1.00  0.00    -0.325 N 
ATOM     14  O   UNL A   1      33.524  24.627  21.856  1.00  0.00    -0.275 OA
ATOM     15  C   UNL A   1      32.395  24.970  22.205  1.00  0.00     0.224 C 
ATOM     16  H   UNL A   1      30.636  24.523  23.109  1.00  0.00     0.169 HD
BRANCH  15  17
ATOM     17  C   UNL A   1      31.850  26.337  21.805  1.00  0.00     0.105 C 
BRANCH  17  18
ATOM     18  C   UNL A   1      31.485  27.310  22.928  1.00  0.00     0.047 C 
BRANCH  18  19
ATOM     19  C   UNL A   1      30.275  28.190  22.698  1.00  0.00    -0.029 A 
ATOM     20  C   UNL A   1      29.000  27.830  23.153  1.00  0.00     0.007 A 
ATOM     21  C   UNL A   1      30.368  29.416  22.059  1.00  0.00     0.114 A 
ATOM     22  C   UNL A   1      27.910  28.678  23.011  1.00  0.00     0.020 A 
ATOM     23  N   UNL A   1      29.330  30.269  21.908  1.00  0.00    -0.264 NA
ATOM     24  C   UNL A   1      28.126  29.885  22.385  1.00  0.00     0.111 A 
ENDBRANCH  18  19
ENDBRANCH  17  18
ENDBRANCH  15  17
ENDBRANCH   9  13
ENDBRANCH   5   8
ENDBRANCH   3   4
ENDBRANCH   2   3
ENDBRANCH   1   2
BRANCH   1  25
ATOM     25  C   UNL A   1      37.877  22.426  25.578  1.00  0.00     0.002 C 
BRANCH  25  26
ATOM     26  C   UNL A   1      39.140  22.256  26.432  1.00  0.00     0.021 C 
BRANCH  26  27
ATOM     27  C   UNL A   1      39.810  23.485  27.038  1.00  0.00     0.116 C 
BRANCH  27  28
ATOM     28  N   UNL A   1      40.563  24.248  26.059  1.00  0.00    -0.352 N 
ATOM     29  C   UNL A   1      40.981  25.560  26.092  1.00  0.00     0.251 C 
ATOM     30  H   UNL A   1      40.814  23.750  25.247  1.00  0.00     0.163 HD
ATOM     31  O   UNL A   1      41.401  26.074  25.054  1.00  0.00    -0.269 OA
BRANCH  29  32
ATOM     32  C   UNL A   1      40.945  26.366  27.341  1.00  0.00     0.039 A 
ATOM     33  C   UNL A   1      39.946  26.107  28.290  1.00  0.00     0.014 A 
ATOM     34  C   UNL A   1      41.819  27.437  27.547  1.00  0.00     0.014 A 
ATOM     35  C   UNL A   1      39.841  26.898  29.443  1.00  0.00     0.010 A 
ATOM     36  C   UNL A   1      41.753  28.186  28.726  1.00  0.00     0.010 A 
ATOM     37  C   UNL A   1      40.749  27.941  29.676  1.00  0.00    -0.014 A 
BRANCH  37  38
ATOM     38  C   UNL A   1      40.636  28.823  30.873  1.00  0.00     0.031 A 
ATOM     39  C   UNL A   1      39.587  29.909  30.911  1.00  0.00     0.074 A 
ATOM     40  C   UNL A   1      41.501  28.692  31.898  1.00  0.00     0.049 A 
ATOM     41  N   UNL A   1      39.380  30.830  31.818  1.00  0.00    -0.248 NA
ATOM     42  C   UNL A   1      38.672  29.988  29.761  1.00  0.00     0.031 C 
ATOM     43  C   UNL A   1      42.580  27.705  31.976  1.00  0.00     0.029 A 
ATOM     44  N   UNL A   1      41.615  29.398  33.071  1.00  0.00    -0.354 N 
ATOM     45  C   UNL A   1      38.334  31.611  31.337  1.00  0.00     0.074 A 
ATOM     46  C   UNL A   1      37.982  31.086  30.036  1.00  0.00     0.031 C 
ATOM     47  C   UNL A   1      43.230  27.853  33.143  1.00  0.00     0.029 A 
ATOM     48  C   UNL A   1      42.641  28.966  33.881  1.00  0.00     0.049 A 
ATOM     49  H   UNL A   1      41.019  30.145  33.311  1.00  0.00     0.167 HD
ATOM     50  C   UNL A   1      37.707  32.658  31.927  1.00  0.00     0.031 A 
ATOM     51  C   UNL A   1      43.060  29.415  35.081  1.00  0.00     0.031 A 
ATOM     52  C   UNL A   1      38.039  33.160  33.234  1.00  0.00     0.049 A 
ATOM     53  C   UNL A   1      42.341  30.567  35.727  1.00  0.00     0.074 A 
ATOM     54  C   UNL A   1      37.429  34.178  33.947  1.00  0.00     0.029 A 
ATOM     55  N   UNL A   1      39.068  32.676  34.029  1.00  0.00    -0.354 N 
ATOM     56  N   UNL A   1      41.322  31.260  35.274  1.00  0.00    -0.248 NA
ATOM     57  C   UNL A   1      42.818  30.991  37.050  1.00  0.00     0.031 C 
ATOM     58  C   UNL A   1      38.115  34.335  35.157  1.00  0.00     0.029 A 
ATOM     59  C   UNL A   1      39.119  33.382  35.218  1.00  0.00     0.049 A 
ATOM     60  H   UNL A   1      39.672  31.939  33.783  1.00  0.00     0.167 HD
ATOM     61  C   UNL A   1      41.019  32.182  36.269  1.00  0.00     0.074 A 
ATOM     62  C   UNL A   1      41.953  31.951  37.353  1.00  0.00     0.031 C 
ATOM     63  C   UNL A   1      40.055  33.136  36.287  1.00  0.00     0.031 A 
BRANCH  50  64
ATOM     64  C   UNL A   1      36.597  33.330  31.159  1.00  0.00    -0.014 A 
ATOM     65  C   UNL A   1      36.847  33.973  29.933  1.00  0.00     0.010 A 
ATOM     66  C   UNL A   1      35.281  33.297  31.655  1.00  0.00     0.010 A 
ATOM     67  C   UNL A   1      35.814  34.617  29.246  1.00  0.00     0.020 A 
ATOM     68  C   UNL A   1      34.238  33.916  30.955  1.00  0.00     0.020 A 
ATOM     69  C   UNL A   1      34.517  34.591  29.765  1.00  0.00     0.054 A 
BRANCH  69  70
ATOM     70  S   UNL A   1      33.193  35.431  28.854  1.00  0.00     0.124 S 
ATOM     71  O   UNL A   1      32.426  36.045  29.939  1.00  0.00    -0.237 OA
ATOM     72  O   UNL A   1      33.933  36.370  28.006  1.00  0.00    -0.237 OA
ATOM     73  O   UNL A   1      32.519  34.356  28.145  1.00  0.00    -0.744 OA
ENDBRANCH  69  70
ENDBRANCH  50  64
BRANCH  51  74
ATOM     74  C   UNL A   1      44.206  28.751  35.763  1.00  0.00    -0.014 A 
ATOM     75  C   UNL A   1      45.522  29.197  35.539  1.00  0.00     0.010 A 
ATOM     76  C   UNL A   1      43.990  27.683  36.652  1.00  0.00     0.010 A 
ATOM     77  C   UNL A   1      46.600  28.578  36.181  1.00  0.00     0.020 A 
ATOM     78  C   UNL A   1      45.064  27.079  37.316  1.00  0.00     0.020 A 
ATOM     79  C   UNL A   1      46.363  27.525  37.067  1.00  0.00     0.054 A 
BRANCH  79  80
ATOM     80  S   UNL A   1      47.772  26.775  37.933  1.00  0.00     0.124 S 
ATOM     81  O   UNL A   1      48.073  25.627  37.084  1.00  0.00    -0.237 OA
ATOM     82  O   UNL A   1      48.760  27.851  37.917  1.00  0.00    -0.237 OA
ATOM     83  O   UNL A   1      47.230  26.457  39.252  1.00  0.00    -0.744 OA
ENDBRANCH  79  80
ENDBRANCH  51  74
BRANCH  63  84
ATOM     84  C   UNL A   1      39.936  33.979  37.527  1.00  0.00    -0.014 A 
ATOM     85  C   UNL A   1      40.809  35.056  37.761  1.00  0.00     0.010 A 
ATOM     86  C   UNL A   1      38.896  33.725  38.440  1.00  0.00     0.010 A 
ATOM     87  C   UNL A   1      40.660  35.848  38.904  1.00  0.00     0.020 A 
ATOM     88  C   UNL A   1      38.729  34.530  39.570  1.00  0.00     0.020 A 
ATOM     89  C   UNL A   1      39.622  35.579  39.800  1.00  0.00     0.054 A 
BRANCH  89  90
ATOM     90  S   UNL A   1      39.421  36.651  41.250  1.00  0.00     0.124 S 
ATOM     91  O   UNL A   1      38.646  35.801  42.151  1.00  0.00    -0.237 OA
ATOM     92  O   UNL A   1      40.800  36.903  41.657  1.00  0.00    -0.237 OA
ATOM     93  O   UNL A   1      38.709  37.814  40.725  1.00  0.00    -0.744 OA
ENDBRANCH  89  90
ENDBRANCH  63  84
ENDBRANCH  37  38
ENDBRANCH  29  32
ENDBRANCH  27  28
ENDBRANCH  26  27
ENDBRANCH  25  26
ENDBRANCH   1  25
TORSDOF 20
ENDMDL
