MODEL 1
REMARK VINA RESULT:     -13.2      0.000      0.000
REMARK SMILES Cc1ccc(C(=O)NCCCCCCNC(=O)c2ccc(-c3c4nc(c(-c5ccc(S(=O)(=O)[O-])cc5)c5ccc([nH]5)c(-c5ccc(S(=O)(=O)[O-])cc5)c5nc(c(-c6ccc(S(=O)(=O)[O-])cc6)c6ccc3[nH]6)C=C5)C=C4)cc2)cc1NC(=O)c1ccc(Br)o1
REMARK SMILES IDX 12 1 11 2 10 3 9 4 8 5 6 6 7 7 5 9 1 10 2 11 3 12 79 13 4 14
REMARK SMILES IDX 78 15 80 16 81 17 82 19 83 20 84 21 88 22 85 23 86 24 87 25
REMARK SMILES IDX 13 26 14 27 15 28 16 29 17 31 18 32 19 33 77 34 20 35 76 36
REMARK SMILES IDX 21 37 22 38 23 39 70 40 24 41 75 42 69 43 71 44 25 45 74 46
REMARK SMILES IDX 68 47 67 48 26 50 56 51 37 52 55 53 38 54 41 55 54 56 72 57
REMARK SMILES IDX 39 58 40 59 53 61 73 62 42 63 27 64 28 65 36 66 29 67 35 68
REMARK SMILES IDX 30 69 31 70 32 71 33 72 34 73 57 74 58 75 66 76 59 77 65 78
REMARK SMILES IDX 60 79 61 80 62 81 63 82 64 83 43 84 44 85 52 86 45 87 51 88
REMARK SMILES IDX 46 89 47 90 48 91 49 92 50 93
REMARK H PARENT 8 8 80 18 15 30 71 49 41 60
REMARK Flexibility Score: inf
ROOT
ATOM      1  C   UNL A   1      34.021  27.847  25.928  1.00  0.00     0.002 C 
ENDROOT
BRANCH   1   2
ATOM      2  C   UNL A   1      33.736  27.597  24.440  1.00  0.00     0.002 C 
BRANCH   2   3
ATOM      3  C   UNL A   1      32.928  28.634  23.636  1.00  0.00     0.021 C 
BRANCH   3   4
ATOM      4  C   UNL A   1      31.754  29.347  24.323  1.00  0.00     0.116 C 
BRANCH   4   5
ATOM      5  N   UNL A   1      30.468  28.937  23.785  1.00  0.00    -0.352 N 
ATOM      6  C   UNL A   1      29.738  27.781  23.709  1.00  0.00     0.251 C 
ATOM      7  O   UNL A   1      28.587  27.941  23.278  1.00  0.00    -0.269 OA
ATOM      8  H   UNL A   1      29.995  29.692  23.366  1.00  0.00     0.163 HD
BRANCH   6   9
ATOM      9  C   UNL A   1      30.145  26.379  24.089  1.00  0.00     0.041 A 
ATOM     10  C   UNL A   1      30.962  22.498  25.898  1.00  0.00     0.046 C 
ATOM     11  C   UNL A   1      30.740  23.813  25.186  1.00  0.00    -0.027 A 
ATOM     12  C   UNL A   1      30.528  24.917  26.017  1.00  0.00     0.006 A 
ATOM     13  C   UNL A   1      30.730  23.999  23.783  1.00  0.00     0.045 A 
ATOM     14  C   UNL A   1      30.259  26.171  25.477  1.00  0.00     0.014 A 
ATOM     15  C   UNL A   1      30.368  25.268  23.255  1.00  0.00     0.040 A 
BRANCH  13  16
ATOM     16  N   UNL A   1      31.128  22.885  23.012  1.00  0.00    -0.319 N 
ATOM     17  C   UNL A   1      32.288  22.210  22.750  1.00  0.00     0.291 C 
ATOM     18  H   UNL A   1      30.364  22.486  22.535  1.00  0.00     0.170 HD
ATOM     19  O   UNL A   1      32.187  21.187  22.069  1.00  0.00    -0.265 OA
BRANCH  17  20
ATOM     20  C   UNL A   1      33.540  22.672  23.244  1.00  0.00     0.193 A 
ATOM     21  C   UNL A   1      34.184  23.890  23.175  1.00  0.00     0.057 A 
ATOM     22  O   UNL A   1      34.254  21.803  24.006  1.00  0.00    -0.444 OA
ATOM     23  C   UNL A   1      35.356  23.754  23.958  1.00  0.00     0.059 A 
ATOM     24  C   UNL A   1      35.355  22.462  24.430  1.00  0.00     0.170 A 
ATOM     25  Br  UNL A   1      36.663  21.659  25.468  1.00  0.00    -0.008 Br
ENDBRANCH  17  20
ENDBRANCH  13  16
ENDBRANCH   6   9
ENDBRANCH   4   5
ENDBRANCH   3   4
ENDBRANCH   2   3
ENDBRANCH   1   2
BRANCH   1  26
ATOM     26  C   UNL A   1      34.189  29.283  26.433  1.00  0.00     0.021 C 
BRANCH  26  27
ATOM     27  C   UNL A   1      34.416  29.455  27.939  1.00  0.00     0.116 C 
BRANCH  27  28
ATOM     28  N   UNL A   1      35.100  30.721  28.238  1.00  0.00    -0.352 N 
ATOM     29  C   UNL A   1      36.436  30.958  28.531  1.00  0.00     0.251 C 
ATOM     30  H   UNL A   1      34.525  31.520  28.229  1.00  0.00     0.163 HD
ATOM     31  O   UNL A   1      36.870  32.049  28.802  1.00  0.00    -0.269 OA
BRANCH  29  32
ATOM     32  C   UNL A   1      37.332  29.791  28.465  1.00  0.00     0.039 A 
ATOM     33  C   UNL A   1      37.491  29.006  29.611  1.00  0.00     0.014 A 
ATOM     34  C   UNL A   1      38.163  29.652  27.362  1.00  0.00     0.014 A 
ATOM     35  C   UNL A   1      38.625  28.209  29.731  1.00  0.00     0.010 A 
ATOM     36  C   UNL A   1      39.300  28.885  27.501  1.00  0.00     0.010 A 
ATOM     37  C   UNL A   1      39.571  28.234  28.708  1.00  0.00    -0.014 A 
BRANCH  37  38
ATOM     38  C   UNL A   1      40.919  27.698  28.842  1.00  0.00     0.031 A 
ATOM     39  C   UNL A   1      41.195  26.304  28.430  1.00  0.00     0.074 A 
ATOM     40  C   UNL A   1      41.929  28.481  29.286  1.00  0.00     0.049 A 
ATOM     41  N   UNL A   1      42.125  25.571  28.944  1.00  0.00    -0.248 NA
ATOM     42  C   UNL A   1      40.414  25.610  27.408  1.00  0.00     0.031 C 
ATOM     43  C   UNL A   1      43.357  28.162  29.271  1.00  0.00     0.029 A 
ATOM     44  N   UNL A   1      41.906  29.690  29.972  1.00  0.00    -0.354 N 
ATOM     45  C   UNL A   1      42.268  24.470  28.133  1.00  0.00     0.074 A 
ATOM     46  C   UNL A   1      41.126  24.491  27.248  1.00  0.00     0.031 C 
ATOM     47  C   UNL A   1      43.980  28.936  30.176  1.00  0.00     0.029 A 
ATOM     48  C   UNL A   1      42.950  29.657  30.900  1.00  0.00     0.049 A 
ATOM     49  H   UNL A   1      41.273  30.430  29.831  1.00  0.00     0.167 HD
ATOM     50  C   UNL A   1      43.417  23.740  28.171  1.00  0.00     0.031 A 
ATOM     51  C   UNL A   1      42.783  29.613  32.257  1.00  0.00     0.031 A 
ATOM     52  C   UNL A   1      44.366  24.262  29.149  1.00  0.00     0.049 A 
ATOM     53  C   UNL A   1      43.422  28.389  32.902  1.00  0.00     0.074 A 
ATOM     54  C   UNL A   1      45.494  25.059  29.031  1.00  0.00     0.029 A 
ATOM     55  N   UNL A   1      44.038  24.243  30.499  1.00  0.00    -0.354 N 
ATOM     56  N   UNL A   1      43.790  27.322  32.247  1.00  0.00    -0.248 NA
ATOM     57  C   UNL A   1      43.670  28.258  34.336  1.00  0.00     0.031 C 
ATOM     58  C   UNL A   1      45.814  25.563  30.319  1.00  0.00     0.029 A 
ATOM     59  C   UNL A   1      44.896  25.054  31.220  1.00  0.00     0.049 A 
ATOM     60  H   UNL A   1      43.297  23.726  30.889  1.00  0.00     0.167 HD
ATOM     61  C   UNL A   1      44.310  26.389  33.110  1.00  0.00     0.074 A 
ATOM     62  C   UNL A   1      44.223  27.032  34.408  1.00  0.00     0.031 C 
ATOM     63  C   UNL A   1      44.760  25.173  32.668  1.00  0.00     0.031 A 
BRANCH  50  64
ATOM     64  C   UNL A   1      43.772  22.767  27.074  1.00  0.00    -0.014 A 
ATOM     65  C   UNL A   1      42.917  21.681  26.799  1.00  0.00     0.010 A 
ATOM     66  C   UNL A   1      44.960  22.839  26.321  1.00  0.00     0.010 A 
ATOM     67  C   UNL A   1      43.273  20.666  25.902  1.00  0.00     0.020 A 
ATOM     68  C   UNL A   1      45.348  21.810  25.448  1.00  0.00     0.020 A 
ATOM     69  C   UNL A   1      44.503  20.722  25.251  1.00  0.00     0.054 A 
BRANCH  69  70
ATOM     70  S   UNL A   1      44.980  19.352  24.164  1.00  0.00     0.124 S 
ATOM     71  O   UNL A   1      44.306  18.210  24.780  1.00  0.00    -0.237 OA
ATOM     72  O   UNL A   1      44.445  19.778  22.875  1.00  0.00    -0.237 OA
ATOM     73  O   UNL A   1      46.438  19.327  24.257  1.00  0.00    -0.744 OA
ENDBRANCH  69  70
ENDBRANCH  50  64
BRANCH  51  74
ATOM     74  C   UNL A   1      41.562  30.305  32.755  1.00  0.00    -0.014 A 
ATOM     75  C   UNL A   1      40.409  29.522  32.972  1.00  0.00     0.010 A 
ATOM     76  C   UNL A   1      41.642  31.570  33.362  1.00  0.00     0.010 A 
ATOM     77  C   UNL A   1      39.437  29.918  33.894  1.00  0.00     0.020 A 
ATOM     78  C   UNL A   1      40.661  31.975  34.282  1.00  0.00     0.020 A 
ATOM     79  C   UNL A   1      39.593  31.123  34.579  1.00  0.00     0.054 A 
BRANCH  79  80
ATOM     80  S   UNL A   1      38.489  31.455  35.988  1.00  0.00     0.124 S 
ATOM     81  O   UNL A   1      38.302  30.125  36.555  1.00  0.00    -0.237 OA
ATOM     82  O   UNL A   1      39.286  32.375  36.800  1.00  0.00    -0.237 OA
ATOM     83  O   UNL A   1      37.311  32.048  35.363  1.00  0.00    -0.744 OA
ENDBRANCH  79  80
ENDBRANCH  51  74
BRANCH  63  84
ATOM     84  C   UNL A   1      45.199  23.983  33.506  1.00  0.00    -0.014 A 
ATOM     85  C   UNL A   1      46.460  23.826  34.096  1.00  0.00     0.010 A 
ATOM     86  C   UNL A   1      44.241  22.974  33.804  1.00  0.00     0.010 A 
ATOM     87  C   UNL A   1      46.764  22.712  34.898  1.00  0.00     0.020 A 
ATOM     88  C   UNL A   1      44.516  21.886  34.637  1.00  0.00     0.020 A 
ATOM     89  C   UNL A   1      45.790  21.750  35.165  1.00  0.00     0.054 A 
BRANCH  89  90
ATOM     90  S   UNL A   1      46.181  20.361  36.257  1.00  0.00     0.124 S 
ATOM     91  O   UNL A   1      47.628  20.246  36.092  1.00  0.00    -0.237 OA
ATOM     92  O   UNL A   1      45.736  20.842  37.563  1.00  0.00    -0.237 OA
ATOM     93  O   UNL A   1      45.398  19.256  35.708  1.00  0.00    -0.744 OA
ENDBRANCH  89  90
ENDBRANCH  63  84
ENDBRANCH  37  38
ENDBRANCH  29  32
ENDBRANCH  27  28
ENDBRANCH  26  27
ENDBRANCH   1  26
TORSDOF 18
ENDMDL
MODEL 2
REMARK VINA RESULT:     -12.6      2.451      3.370
REMARK SMILES Cc1ccc(C(=O)NCCCCCCNC(=O)c2ccc(-c3c4nc(c(-c5ccc(S(=O)(=O)[O-])cc5)c5ccc([nH]5)c(-c5ccc(S(=O)(=O)[O-])cc5)c5nc(c(-c6ccc(S(=O)(=O)[O-])cc6)c6ccc3[nH]6)C=C5)C=C4)cc2)cc1NC(=O)c1ccc(Br)o1
REMARK SMILES IDX 12 1 11 2 10 3 9 4 8 5 6 6 7 7 5 9 1 10 2 11 3 12 79 13 4 14
REMARK SMILES IDX 78 15 80 16 81 17 82 19 83 20 84 21 88 22 85 23 86 24 87 25
REMARK SMILES IDX 13 26 14 27 15 28 16 29 17 31 18 32 19 33 77 34 20 35 76 36
REMARK SMILES IDX 21 37 22 38 23 39 70 40 24 41 75 42 69 43 71 44 25 45 74 46
REMARK SMILES IDX 68 47 67 48 26 50 56 51 37 52 55 53 38 54 41 55 54 56 72 57
REMARK SMILES IDX 39 58 40 59 53 61 73 62 42 63 27 64 28 65 36 66 29 67 35 68
REMARK SMILES IDX 30 69 31 70 32 71 33 72 34 73 57 74 58 75 66 76 59 77 65 78
REMARK SMILES IDX 60 79 61 80 62 81 63 82 64 83 43 84 44 85 52 86 45 87 51 88
REMARK SMILES IDX 46 89 47 90 48 91 49 92 50 93
REMARK H PARENT 8 8 80 18 15 30 71 49 41 60
REMARK Flexibility Score: inf
ROOT
ATOM      1  C   UNL A   1      34.039  28.464  25.077  1.00  0.00     0.002 C 
ENDROOT
BRANCH   1   2
ATOM      2  C   UNL A   1      33.872  28.464  23.550  1.00  0.00     0.002 C 
BRANCH   2   3
ATOM      3  C   UNL A   1      32.538  28.923  22.930  1.00  0.00     0.021 C 
BRANCH   3   4
ATOM      4  C   UNL A   1      31.535  27.856  22.469  1.00  0.00     0.116 C 
BRANCH   4   5
ATOM      5  N   UNL A   1      32.156  26.831  21.647  1.00  0.00    -0.352 N 
ATOM      6  C   UNL A   1      32.734  25.605  21.843  1.00  0.00     0.251 C 
ATOM      7  O   UNL A   1      33.002  25.002  20.795  1.00  0.00    -0.269 OA
ATOM      8  H   UNL A   1      32.162  27.086  20.695  1.00  0.00     0.163 HD
BRANCH   6   9
ATOM      9  C   UNL A   1      33.061  24.911  23.142  1.00  0.00     0.041 A 
ATOM     10  C   UNL A   1      33.231  23.062  27.086  1.00  0.00     0.046 C 
ATOM     11  C   UNL A   1      33.280  23.687  25.710  1.00  0.00    -0.027 A 
ATOM     12  C   UNL A   1      32.317  24.669  25.463  1.00  0.00     0.006 A 
ATOM     13  C   UNL A   1      34.200  23.356  24.687  1.00  0.00     0.045 A 
ATOM     14  C   UNL A   1      32.228  25.279  24.215  1.00  0.00     0.014 A 
ATOM     15  C   UNL A   1      34.036  23.928  23.396  1.00  0.00     0.040 A 
BRANCH  13  16
ATOM     16  N   UNL A   1      35.252  22.492  25.062  1.00  0.00    -0.319 N 
ATOM     17  C   UNL A   1      35.487  21.144  25.072  1.00  0.00     0.291 C 
ATOM     18  H   UNL A   1      36.024  22.995  25.410  1.00  0.00     0.170 HD
ATOM     19  O   UNL A   1      36.620  20.787  25.403  1.00  0.00    -0.265 OA
BRANCH  17  20
ATOM     20  C   UNL A   1      34.471  20.214  24.717  1.00  0.00     0.193 A 
ATOM     21  C   UNL A   1      33.140  20.359  24.383  1.00  0.00     0.057 A 
ATOM     22  O   UNL A   1      34.848  18.914  24.597  1.00  0.00    -0.444 OA
ATOM     23  C   UNL A   1      32.687  19.067  24.023  1.00  0.00     0.059 A 
ATOM     24  C   UNL A   1      33.763  18.224  24.182  1.00  0.00     0.170 A 
ATOM     25  Br  UNL A   1      33.782  16.390  23.925  1.00  0.00    -0.008 Br
ENDBRANCH  17  20
ENDBRANCH  13  16
ENDBRANCH   6   9
ENDBRANCH   4   5
ENDBRANCH   3   4
ENDBRANCH   2   3
ENDBRANCH   1   2
BRANCH   1  26
ATOM     26  C   UNL A   1      32.882  28.939  25.961  1.00  0.00     0.021 C 
BRANCH  26  27
ATOM     27  C   UNL A   1      33.213  29.202  27.435  1.00  0.00     0.116 C 
BRANCH  27  28
ATOM     28  N   UNL A   1      33.556  30.612  27.664  1.00  0.00    -0.352 N 
ATOM     29  C   UNL A   1      34.747  31.174  28.100  1.00  0.00     0.251 C 
ATOM     30  H   UNL A   1      32.832  31.254  27.480  1.00  0.00     0.163 HD
ATOM     31  O   UNL A   1      34.890  32.356  28.290  1.00  0.00    -0.269 OA
BRANCH  29  32
ATOM     32  C   UNL A   1      35.870  30.243  28.297  1.00  0.00     0.039 A 
ATOM     33  C   UNL A   1      36.018  29.631  29.546  1.00  0.00     0.014 A 
ATOM     34  C   UNL A   1      36.868  30.191  27.334  1.00  0.00     0.014 A 
ATOM     35  C   UNL A   1      37.265  29.131  29.908  1.00  0.00     0.010 A 
ATOM     36  C   UNL A   1      38.108  29.722  27.712  1.00  0.00     0.010 A 
ATOM     37  C   UNL A   1      38.327  29.272  29.017  1.00  0.00    -0.014 A 
BRANCH  37  38
ATOM     38  C   UNL A   1      39.722  29.074  29.386  1.00  0.00     0.031 A 
ATOM     39  C   UNL A   1      40.419  27.835  28.976  1.00  0.00     0.074 A 
ATOM     40  C   UNL A   1      40.401  30.038  30.052  1.00  0.00     0.049 A 
ATOM     41  N   UNL A   1      41.401  27.310  29.628  1.00  0.00    -0.248 NA
ATOM     42  C   UNL A   1      40.037  27.066  27.792  1.00  0.00     0.031 C 
ATOM     43  C   UNL A   1      41.842  30.083  30.300  1.00  0.00     0.029 A 
ATOM     44  N   UNL A   1      39.945  31.136  30.772  1.00  0.00    -0.354 N 
ATOM     45  C   UNL A   1      41.965  26.357  28.814  1.00  0.00     0.074 A 
ATOM     46  C   UNL A   1      41.031  26.176  27.726  1.00  0.00     0.031 C 
ATOM     47  C   UNL A   1      42.074  30.901  31.341  1.00  0.00     0.029 A 
ATOM     48  C   UNL A   1      40.780  31.276  31.882  1.00  0.00     0.049 A 
ATOM     49  H   UNL A   1      39.176  31.707  30.542  1.00  0.00     0.167 HD
ATOM     50  C   UNL A   1      43.238  25.932  29.041  1.00  0.00     0.031 A 
ATOM     51  C   UNL A   1      40.394  31.069  33.177  1.00  0.00     0.031 A 
ATOM     52  C   UNL A   1      43.832  26.579  30.207  1.00  0.00     0.049 A 
ATOM     53  C   UNL A   1      41.204  29.986  33.881  1.00  0.00     0.074 A 
ATOM     54  C   UNL A   1      44.717  27.637  30.345  1.00  0.00     0.029 A 
ATOM     55  N   UNL A   1      43.287  26.357  31.465  1.00  0.00    -0.354 N 
ATOM     56  N   UNL A   1      41.945  29.107  33.264  1.00  0.00    -0.248 NA
ATOM     57  C   UNL A   1      41.221  29.790  35.328  1.00  0.00     0.031 C 
ATOM     58  C   UNL A   1      44.663  28.084  31.690  1.00  0.00     0.029 A 
ATOM     59  C   UNL A   1      43.765  27.285  32.373  1.00  0.00     0.049 A 
ATOM     60  H   UNL A   1      42.649  25.640  31.681  1.00  0.00     0.167 HD
ATOM     61  C   UNL A   1      42.529  28.256  34.170  1.00  0.00     0.074 A 
ATOM     62  C   UNL A   1      42.050  28.736  35.453  1.00  0.00     0.031 C 
ATOM     63  C   UNL A   1      43.349  27.234  33.771  1.00  0.00     0.031 A 
BRANCH  50  64
ATOM     64  C   UNL A   1      44.021  25.180  27.993  1.00  0.00    -0.014 A 
ATOM     65  C   UNL A   1      44.687  25.888  26.974  1.00  0.00     0.010 A 
ATOM     66  C   UNL A   1      44.088  23.774  27.929  1.00  0.00     0.010 A 
ATOM     67  C   UNL A   1      45.295  25.238  25.894  1.00  0.00     0.020 A 
ATOM     68  C   UNL A   1      44.659  23.108  26.833  1.00  0.00     0.020 A 
ATOM     69  C   UNL A   1      45.252  23.848  25.814  1.00  0.00     0.054 A 
BRANCH  69  70
ATOM     70  S   UNL A   1      45.968  23.033  24.362  1.00  0.00     0.124 S 
ATOM     71  O   UNL A   1      46.971  24.001  23.918  1.00  0.00    -0.237 OA
ATOM     72  O   UNL A   1      46.495  21.796  24.927  1.00  0.00    -0.237 OA
ATOM     73  O   UNL A   1      44.830  22.872  23.459  1.00  0.00    -0.744 OA
ENDBRANCH  69  70
ENDBRANCH  50  64
BRANCH  51  74
ATOM     74  C   UNL A   1      38.967  31.390  33.459  1.00  0.00    -0.014 A 
ATOM     75  C   UNL A   1      38.651  32.723  33.797  1.00  0.00     0.010 A 
ATOM     76  C   UNL A   1      37.934  30.540  33.028  1.00  0.00     0.010 A 
ATOM     77  C   UNL A   1      37.374  33.239  33.560  1.00  0.00     0.020 A 
ATOM     78  C   UNL A   1      36.647  31.054  32.799  1.00  0.00     0.020 A 
ATOM     79  C   UNL A   1      36.391  32.412  33.018  1.00  0.00     0.054 A 
BRANCH  79  80
ATOM     80  S   UNL A   1      34.851  33.185  32.430  1.00  0.00     0.124 S 
ATOM     81  O   UNL A   1      34.086  33.325  33.663  1.00  0.00    -0.237 OA
ATOM     82  O   UNL A   1      35.333  34.437  31.848  1.00  0.00    -0.237 OA
ATOM     83  O   UNL A   1      34.333  32.217  31.469  1.00  0.00    -0.744 OA
ENDBRANCH  79  80
ENDBRANCH  51  74
BRANCH  63  84
ATOM     84  C   UNL A   1      43.926  26.117  34.626  1.00  0.00    -0.014 A 
ATOM     85  C   UNL A   1      43.319  24.875  34.858  1.00  0.00     0.010 A 
ATOM     86  C   UNL A   1      45.226  26.288  35.176  1.00  0.00     0.010 A 
ATOM     87  C   UNL A   1      43.948  23.880  35.625  1.00  0.00     0.020 A 
ATOM     88  C   UNL A   1      45.882  25.289  35.902  1.00  0.00     0.020 A 
ATOM     89  C   UNL A   1      45.227  24.092  36.141  1.00  0.00     0.054 A 
BRANCH  89  90
ATOM     90  S   UNL A   1      46.047  22.771  37.067  1.00  0.00     0.124 S 
ATOM     91  O   UNL A   1      45.562  23.007  38.424  1.00  0.00    -0.237 OA
ATOM     92  O   UNL A   1      45.539  21.562  36.422  1.00  0.00    -0.237 OA
ATOM     93  O   UNL A   1      47.469  23.030  36.855  1.00  0.00    -0.744 OA
ENDBRANCH  89  90
ENDBRANCH  63  84
ENDBRANCH  37  38
ENDBRANCH  29  32
ENDBRANCH  27  28
ENDBRANCH  26  27
ENDBRANCH   1  26
TORSDOF 18
ENDMDL
MODEL 3
REMARK VINA RESULT:     -12.6      4.951     11.399
REMARK SMILES Cc1ccc(C(=O)NCCCCCCNC(=O)c2ccc(-c3c4nc(c(-c5ccc(S(=O)(=O)[O-])cc5)c5ccc([nH]5)c(-c5ccc(S(=O)(=O)[O-])cc5)c5nc(c(-c6ccc(S(=O)(=O)[O-])cc6)c6ccc3[nH]6)C=C5)C=C4)cc2)cc1NC(=O)c1ccc(Br)o1
REMARK SMILES IDX 12 1 11 2 10 3 9 4 8 5 6 6 7 7 5 9 1 10 2 11 3 12 79 13 4 14
REMARK SMILES IDX 78 15 80 16 81 17 82 19 83 20 84 21 88 22 85 23 86 24 87 25
REMARK SMILES IDX 13 26 14 27 15 28 16 29 17 31 18 32 19 33 77 34 20 35 76 36
REMARK SMILES IDX 21 37 22 38 23 39 70 40 24 41 75 42 69 43 71 44 25 45 74 46
REMARK SMILES IDX 68 47 67 48 26 50 56 51 37 52 55 53 38 54 41 55 54 56 72 57
REMARK SMILES IDX 39 58 40 59 53 61 73 62 42 63 27 64 28 65 36 66 29 67 35 68
REMARK SMILES IDX 30 69 31 70 32 71 33 72 34 73 57 74 58 75 66 76 59 77 65 78
REMARK SMILES IDX 60 79 61 80 62 81 63 82 64 83 43 84 44 85 52 86 45 87 51 88
REMARK SMILES IDX 46 89 47 90 48 91 49 92 50 93
REMARK H PARENT 8 8 80 18 15 30 71 49 41 60
REMARK Flexibility Score: inf
ROOT
ATOM      1  C   UNL A   1      35.962  22.357  25.226  1.00  0.00     0.002 C 
ENDROOT
BRANCH   1   2
ATOM      2  C   UNL A   1      35.148  21.105  25.584  1.00  0.00     0.002 C 
BRANCH   2   3
ATOM      3  C   UNL A   1      33.893  20.753  24.762  1.00  0.00     0.021 C 
BRANCH   3   4
ATOM      4  C   UNL A   1      32.546  20.635  25.489  1.00  0.00     0.116 C 
BRANCH   4   5
ATOM      5  N   UNL A   1      32.346  21.699  26.459  1.00  0.00    -0.352 N 
ATOM      6  C   UNL A   1      32.069  23.040  26.430  1.00  0.00     0.251 C 
ATOM      7  O   UNL A   1      31.830  23.528  27.543  1.00  0.00    -0.269 OA
ATOM      8  H   UNL A   1      32.431  21.367  27.382  1.00  0.00     0.163 HD
BRANCH   6   9
ATOM      9  C   UNL A   1      32.004  23.967  25.241  1.00  0.00     0.041 A 
ATOM     10  C   UNL A   1      31.027  26.450  21.793  1.00  0.00     0.046 C 
ATOM     11  C   UNL A   1      31.471  25.613  22.972  1.00  0.00    -0.027 A 
ATOM     12  C   UNL A   1      30.656  24.518  23.272  1.00  0.00     0.006 A 
ATOM     13  C   UNL A   1      32.615  25.854  23.770  1.00  0.00     0.045 A 
ATOM     14  C   UNL A   1      30.932  23.705  24.367  1.00  0.00     0.014 A 
ATOM     15  C   UNL A   1      32.829  25.064  24.932  1.00  0.00     0.040 A 
BRANCH  13  16
ATOM     16  N   UNL A   1      33.487  26.862  23.305  1.00  0.00    -0.319 N 
ATOM     17  C   UNL A   1      33.986  28.049  23.768  1.00  0.00     0.291 C 
ATOM     18  H   UNL A   1      33.829  26.656  22.404  1.00  0.00     0.170 HD
ATOM     19  O   UNL A   1      34.832  28.603  23.061  1.00  0.00    -0.265 OA
BRANCH  17  20
ATOM     20  C   UNL A   1      33.545  28.605  25.002  1.00  0.00     0.193 A 
ATOM     21  C   UNL A   1      33.830  28.309  26.319  1.00  0.00     0.057 A 
ATOM     22  O   UNL A   1      32.738  29.695  24.926  1.00  0.00    -0.444 OA
ATOM     23  C   UNL A   1      33.163  29.292  27.090  1.00  0.00     0.059 A 
ATOM     24  C   UNL A   1      32.505  30.103  26.193  1.00  0.00     0.170 A 
ATOM     25  Br  UNL A   1      31.405  31.538  26.596  1.00  0.00    -0.008 Br
ENDBRANCH  17  20
ENDBRANCH  13  16
ENDBRANCH   6   9
ENDBRANCH   4   5
ENDBRANCH   3   4
ENDBRANCH   2   3
ENDBRANCH   1   2
BRANCH   1  26
ATOM     26  C   UNL A   1      37.485  22.335  25.385  1.00  0.00     0.021 C 
BRANCH  26  27
ATOM     27  C   UNL A   1      38.120  23.566  26.044  1.00  0.00     0.116 C 
BRANCH  27  28
ATOM     28  N   UNL A   1      39.453  23.259  26.582  1.00  0.00    -0.352 N 
ATOM     29  C   UNL A   1      40.325  24.065  27.299  1.00  0.00     0.251 C 
ATOM     30  H   UNL A   1      39.775  22.345  26.406  1.00  0.00     0.163 HD
ATOM     31  O   UNL A   1      41.420  23.704  27.652  1.00  0.00    -0.269 OA
BRANCH  29  32
ATOM     32  C   UNL A   1      39.829  25.407  27.649  1.00  0.00     0.039 A 
ATOM     33  C   UNL A   1      40.170  26.480  26.821  1.00  0.00     0.014 A 
ATOM     34  C   UNL A   1      39.257  25.599  28.899  1.00  0.00     0.014 A 
ATOM     35  C   UNL A   1      40.120  27.772  27.336  1.00  0.00     0.010 A 
ATOM     36  C   UNL A   1      39.240  26.879  29.412  1.00  0.00     0.010 A 
ATOM     37  C   UNL A   1      39.747  27.947  28.666  1.00  0.00    -0.014 A 
BRANCH  37  38
ATOM     38  C   UNL A   1      39.945  29.188  29.404  1.00  0.00     0.031 A 
ATOM     39  C   UNL A   1      38.896  30.231  29.376  1.00  0.00     0.074 A 
ATOM     40  C   UNL A   1      41.055  29.370  30.157  1.00  0.00     0.049 A 
ATOM     41  N   UNL A   1      39.129  31.492  29.517  1.00  0.00    -0.248 NA
ATOM     42  C   UNL A   1      37.482  29.927  29.159  1.00  0.00     0.031 C 
ATOM     43  C   UNL A   1      41.297  30.450  31.114  1.00  0.00     0.029 A 
ATOM     44  N   UNL A   1      42.275  28.706  30.150  1.00  0.00    -0.354 N 
ATOM     45  C   UNL A   1      37.917  32.108  29.722  1.00  0.00     0.074 A 
ATOM     46  C   UNL A   1      36.919  31.115  29.400  1.00  0.00     0.031 C 
ATOM     47  C   UNL A   1      42.622  30.562  31.310  1.00  0.00     0.029 A 
ATOM     48  C   UNL A   1      43.267  29.663  30.371  1.00  0.00     0.049 A 
ATOM     49  H   UNL A   1      42.415  27.740  30.015  1.00  0.00     0.167 HD
ATOM     50  C   UNL A   1      37.867  33.338  30.303  1.00  0.00     0.031 A 
ATOM     51  C   UNL A   1      44.194  30.051  29.443  1.00  0.00     0.031 A 
ATOM     52  C   UNL A   1      39.197  33.853  30.612  1.00  0.00     0.049 A 
ATOM     53  C   UNL A   1      44.142  31.541  29.126  1.00  0.00     0.074 A 
ATOM     54  C   UNL A   1      39.935  33.907  31.784  1.00  0.00     0.029 A 
ATOM     55  N   UNL A   1      40.084  34.124  29.577  1.00  0.00    -0.354 N 
ATOM     56  N   UNL A   1      43.135  32.318  29.418  1.00  0.00    -0.248 NA
ATOM     57  C   UNL A   1      45.204  32.265  28.431  1.00  0.00     0.031 C 
ATOM     58  C   UNL A   1      41.288  34.162  31.442  1.00  0.00     0.029 A 
ATOM     59  C   UNL A   1      41.367  34.287  30.067  1.00  0.00     0.049 A 
ATOM     60  H   UNL A   1      39.835  34.189  28.627  1.00  0.00     0.167 HD
ATOM     61  C   UNL A   1      43.380  33.598  28.985  1.00  0.00     0.074 A 
ATOM     62  C   UNL A   1      44.698  33.513  28.382  1.00  0.00     0.031 C 
ATOM     63  C   UNL A   1      42.469  34.605  29.164  1.00  0.00     0.031 A 
BRANCH  50  64
ATOM     64  C   UNL A   1      36.584  33.892  30.874  1.00  0.00    -0.014 A 
ATOM     65  C   UNL A   1      35.426  33.940  30.075  1.00  0.00     0.010 A 
ATOM     66  C   UNL A   1      36.477  34.430  32.172  1.00  0.00     0.010 A 
ATOM     67  C   UNL A   1      34.257  34.583  30.502  1.00  0.00     0.020 A 
ATOM     68  C   UNL A   1      35.326  35.111  32.599  1.00  0.00     0.020 A 
ATOM     69  C   UNL A   1      34.223  35.192  31.753  1.00  0.00     0.054 A 
BRANCH  69  70
ATOM     70  S   UNL A   1      32.730  36.093  32.246  1.00  0.00     0.124 S 
ATOM     71  O   UNL A   1      33.178  36.824  33.431  1.00  0.00    -0.237 OA
ATOM     72  O   UNL A   1      32.457  36.911  31.069  1.00  0.00    -0.237 OA
ATOM     73  O   UNL A   1      31.757  35.035  32.510  1.00  0.00    -0.744 OA
ENDBRANCH  69  70
ENDBRANCH  50  64
BRANCH  51  74
ATOM     74  C   UNL A   1      44.596  28.984  28.484  1.00  0.00    -0.014 A 
ATOM     75  C   UNL A   1      44.128  29.088  27.157  1.00  0.00     0.010 A 
ATOM     76  C   UNL A   1      45.693  28.147  28.749  1.00  0.00     0.010 A 
ATOM     77  C   UNL A   1      44.831  28.500  26.102  1.00  0.00     0.020 A 
ATOM     78  C   UNL A   1      46.395  27.547  27.691  1.00  0.00     0.020 A 
ATOM     79  C   UNL A   1      45.989  27.771  26.372  1.00  0.00     0.054 A 
BRANCH  79  80
ATOM     80  S   UNL A   1      47.045  27.293  24.968  1.00  0.00     0.124 S 
ATOM     81  O   UNL A   1      46.910  25.842  24.959  1.00  0.00    -0.237 OA
ATOM     82  O   UNL A   1      46.410  27.987  23.848  1.00  0.00    -0.237 OA
ATOM     83  O   UNL A   1      48.359  27.804  25.345  1.00  0.00    -0.744 OA
ENDBRANCH  79  80
ENDBRANCH  51  74
BRANCH  63  84
ATOM     84  C   UNL A   1      42.517  36.015  28.597  1.00  0.00    -0.014 A 
ATOM     85  C   UNL A   1      41.976  36.415  27.368  1.00  0.00     0.010 A 
ATOM     86  C   UNL A   1      43.075  37.048  29.399  1.00  0.00     0.010 A 
ATOM     87  C   UNL A   1      42.024  37.755  26.945  1.00  0.00     0.020 A 
ATOM     88  C   UNL A   1      43.089  38.390  29.009  1.00  0.00     0.020 A 
ATOM     89  C   UNL A   1      42.579  38.735  27.768  1.00  0.00     0.054 A 
BRANCH  89  90
ATOM     90  S   UNL A   1      42.568  40.463  27.233  1.00  0.00     0.124 S 
ATOM     91  O   UNL A   1      42.916  40.344  25.820  1.00  0.00    -0.237 OA
ATOM     92  O   UNL A   1      41.193  40.877  27.506  1.00  0.00    -0.237 OA
ATOM     93  O   UNL A   1      43.579  41.094  28.077  1.00  0.00    -0.744 OA
ENDBRANCH  89  90
ENDBRANCH  63  84
ENDBRANCH  37  38
ENDBRANCH  29  32
ENDBRANCH  27  28
ENDBRANCH  26  27
ENDBRANCH   1  26
TORSDOF 18
ENDMDL
