MODEL 1
REMARK VINA RESULT:     -11.6      0.000      0.000
REMARK SMILES COc1ccc(C(=O)Nc2cccc(C(=O)NCCCCCCNC(=O)c3ccc(-c4c5nc(c(-c6ccc(S(=O)(=O)[O-])cc6)c6ccc([nH]6)c(-c6ccc(S(=O)(=O)[O-])cc6)c6nc(c(-c7ccc(S(=O)(=O)[O-])cc7)c7ccc4[nH]7)C=C6)C=C5)cc3)c2)cc1
REMARK SMILES IDX 20 1 19 2 18 3 17 4 15 5 16 6 14 8 10 9 11 10 87 11 12 12
REMARK SMILES IDX 13 13 9 14 7 15 8 16 6 18 3 19 4 20 89 21 5 22 88 23 2 24
REMARK SMILES IDX 1 25 21 26 22 27 23 28 24 29 25 30 26 32 27 33 28 34 86 35
REMARK SMILES IDX 29 36 85 37 30 38 31 39 32 40 79 41 33 42 84 43 78 44 80 45
REMARK SMILES IDX 34 46 83 47 77 48 76 49 35 51 65 52 46 53 64 54 47 55 50 56
REMARK SMILES IDX 63 57 81 58 48 59 49 60 62 62 82 63 51 64 36 65 37 66 45 67
REMARK SMILES IDX 38 68 44 69 39 70 40 71 41 72 42 73 43 74 66 75 67 76 75 77
REMARK SMILES IDX 68 78 74 79 69 80 70 81 71 82 72 83 73 84 52 85 53 86 61 87
REMARK SMILES IDX 54 88 60 89 55 90 56 91 57 92 58 93 59 94
REMARK H PARENT 17 7 9 17 24 31 80 50 50 61
REMARK Flexibility Score: inf
ROOT
ATOM      1  C   UNL A   1      38.391  22.252  26.066  1.00  0.00     0.002 C 
ENDROOT
BRANCH   1   2
ATOM      2  C   UNL A   1      37.750  21.672  24.800  1.00  0.00     0.021 C 
BRANCH   2   3
ATOM      3  C   UNL A   1      36.653  20.652  25.111  1.00  0.00     0.116 C 
BRANCH   3   4
ATOM      4  N   UNL A   1      35.736  21.179  26.104  1.00  0.00    -0.352 N 
ATOM      5  C   UNL A   1      34.477  21.715  26.037  1.00  0.00     0.251 C 
ATOM      6  O   UNL A   1      33.972  22.083  27.101  1.00  0.00    -0.269 OA
ATOM      7  H   UNL A   1      36.095  21.146  27.020  1.00  0.00     0.163 HD
BRANCH   5   8
ATOM      8  C   UNL A   1      33.665  21.816  24.788  1.00  0.00     0.041 A 
ATOM      9  C   UNL A   1      33.028  22.808  22.667  1.00  0.00     0.042 A 
ATOM     10  C   UNL A   1      32.163  21.749  22.401  1.00  0.00     0.026 A 
ATOM     11  C   UNL A   1      33.681  22.893  23.902  1.00  0.00     0.040 A 
ATOM     12  C   UNL A   1      32.077  20.696  23.307  1.00  0.00     0.003 A 
ATOM     13  C   UNL A   1      32.845  20.717  24.475  1.00  0.00     0.014 A 
BRANCH   9  14
ATOM     14  N   UNL A   1      33.284  23.727  21.642  1.00  0.00    -0.322 N 
ATOM     15  C   UNL A   1      32.854  25.038  21.518  1.00  0.00     0.255 C 
ATOM     16  O   UNL A   1      32.948  25.592  20.424  1.00  0.00    -0.269 OA
ATOM     17  H   UNL A   1      33.848  23.395  20.907  1.00  0.00     0.170 HD
BRANCH  15  18
ATOM     18  C   UNL A   1      32.385  25.839  22.696  1.00  0.00     0.040 A 
ATOM     19  C   UNL A   1      31.597  27.383  24.929  1.00  0.00     0.118 A 
ATOM     20  C   UNL A   1      32.937  27.327  24.538  1.00  0.00     0.047 A 
ATOM     21  C   UNL A   1      30.657  26.627  24.232  1.00  0.00     0.047 A 
ATOM     22  C   UNL A   1      33.331  26.565  23.429  1.00  0.00     0.017 A 
ATOM     23  C   UNL A   1      31.058  25.832  23.148  1.00  0.00     0.017 A 
BRANCH  19  24
ATOM     24  O   UNL A   1      31.338  28.198  25.995  1.00  0.00    -0.497 OA
ATOM     25  C   UNL A   1      32.012  29.450  26.033  1.00  0.00     0.278 C 
ENDBRANCH  19  24
ENDBRANCH  15  18
ENDBRANCH   9  14
ENDBRANCH   5   8
ENDBRANCH   3   4
ENDBRANCH   2   3
ENDBRANCH   1   2
BRANCH   1  26
ATOM     26  C   UNL A   1      39.859  21.858  26.273  1.00  0.00     0.002 C 
BRANCH  26  27
ATOM     27  C   UNL A   1      40.448  22.237  27.636  1.00  0.00     0.021 C 
BRANCH  27  28
ATOM     28  C   UNL A   1      41.555  23.287  27.577  1.00  0.00     0.116 C 
BRANCH  28  29
ATOM     29  N   UNL A   1      41.478  24.079  26.359  1.00  0.00    -0.352 N 
ATOM     30  C   UNL A   1      41.131  25.395  26.195  1.00  0.00     0.251 C 
ATOM     31  H   UNL A   1      41.710  23.599  25.531  1.00  0.00     0.163 HD
ATOM     32  O   UNL A   1      40.896  25.830  25.073  1.00  0.00    -0.269 OA
BRANCH  30  33
ATOM     33  C   UNL A   1      41.031  26.285  27.372  1.00  0.00     0.039 A 
ATOM     34  C   UNL A   1      42.028  27.241  27.582  1.00  0.00     0.014 A 
ATOM     35  C   UNL A   1      39.975  26.159  28.280  1.00  0.00     0.014 A 
ATOM     36  C   UNL A   1      41.939  28.105  28.676  1.00  0.00     0.010 A 
ATOM     37  C   UNL A   1      39.856  27.062  29.334  1.00  0.00     0.010 A 
ATOM     38  C   UNL A   1      40.838  28.040  29.546  1.00  0.00    -0.014 A 
BRANCH  38  39
ATOM     39  C   UNL A   1      40.694  28.997  30.673  1.00  0.00     0.031 A 
ATOM     40  C   UNL A   1      41.541  28.848  31.909  1.00  0.00     0.074 A 
ATOM     41  C   UNL A   1      39.751  29.957  30.609  1.00  0.00     0.049 A 
ATOM     42  N   UNL A   1      41.518  29.553  33.011  1.00  0.00    -0.248 NA
ATOM     43  C   UNL A   1      42.524  27.751  31.920  1.00  0.00     0.031 C 
ATOM     44  C   UNL A   1      38.830  30.169  29.489  1.00  0.00     0.029 A 
ATOM     45  N   UNL A   1      39.399  30.929  31.513  1.00  0.00    -0.354 N 
ATOM     46  C   UNL A   1      42.460  28.973  33.853  1.00  0.00     0.074 A 
ATOM     47  C   UNL A   1      43.016  27.839  33.148  1.00  0.00     0.031 C 
ATOM     48  C   UNL A   1      38.028  31.209  29.768  1.00  0.00     0.029 A 
ATOM     49  C   UNL A   1      38.352  31.719  31.097  1.00  0.00     0.049 A 
ATOM     50  H   UNL A   1      39.854  31.051  32.378  1.00  0.00     0.167 HD
ATOM     51  C   UNL A   1      42.835  29.358  35.096  1.00  0.00     0.031 A 
ATOM     52  C   UNL A   1      37.715  32.730  31.718  1.00  0.00     0.031 A 
ATOM     53  C   UNL A   1      42.301  30.506  35.781  1.00  0.00     0.049 A 
ATOM     54  C   UNL A   1      38.174  33.154  33.087  1.00  0.00     0.074 A 
ATOM     55  C   UNL A   1      42.683  31.028  37.005  1.00  0.00     0.029 A 
ATOM     56  N   UNL A   1      41.271  31.304  35.308  1.00  0.00    -0.354 N 
ATOM     57  N   UNL A   1      39.134  32.651  33.825  1.00  0.00    -0.248 NA
ATOM     58  C   UNL A   1      37.473  34.291  33.700  1.00  0.00     0.031 C 
ATOM     59  C   UNL A   1      41.849  32.113  37.295  1.00  0.00     0.029 A 
ATOM     60  C   UNL A   1      40.986  32.298  36.228  1.00  0.00     0.049 A 
ATOM     61  H   UNL A   1      40.811  31.182  34.446  1.00  0.00     0.167 HD
ATOM     62  C   UNL A   1      39.167  33.426  34.980  1.00  0.00     0.074 A 
ATOM     63  C   UNL A   1      38.146  34.442  34.831  1.00  0.00     0.031 C 
ATOM     64  C   UNL A   1      39.970  33.306  36.065  1.00  0.00     0.031 A 
BRANCH  51  65
ATOM     65  C   UNL A   1      43.877  28.538  35.808  1.00  0.00    -0.014 A 
ATOM     66  C   UNL A   1      45.245  28.843  35.697  1.00  0.00     0.010 A 
ATOM     67  C   UNL A   1      43.475  27.501  36.671  1.00  0.00     0.010 A 
ATOM     68  C   UNL A   1      46.193  28.114  36.421  1.00  0.00     0.020 A 
ATOM     69  C   UNL A   1      44.417  26.786  37.415  1.00  0.00     0.020 A 
ATOM     70  C   UNL A   1      45.773  27.093  37.277  1.00  0.00     0.054 A 
BRANCH  70  71
ATOM     71  S   UNL A   1      47.020  26.205  38.252  1.00  0.00     0.124 S 
ATOM     72  O   UNL A   1      48.044  25.927  37.248  1.00  0.00    -0.237 OA
ATOM     73  O   UNL A   1      47.388  27.187  39.270  1.00  0.00    -0.237 OA
ATOM     74  O   UNL A   1      46.304  25.035  38.751  1.00  0.00    -0.744 OA
ENDBRANCH  70  71
ENDBRANCH  51  65
BRANCH  52  75
ATOM     75  C   UNL A   1      36.569  33.412  31.055  1.00  0.00    -0.014 A 
ATOM     76  C   UNL A   1      36.619  33.738  29.689  1.00  0.00     0.010 A 
ATOM     77  C   UNL A   1      35.423  33.750  31.798  1.00  0.00     0.010 A 
ATOM     78  C   UNL A   1      35.560  34.422  29.085  1.00  0.00     0.020 A 
ATOM     79  C   UNL A   1      34.349  34.408  31.190  1.00  0.00     0.020 A 
ATOM     80  C   UNL A   1      34.433  34.756  29.841  1.00  0.00     0.054 A 
BRANCH  80  81
ATOM     81  S   UNL A   1      33.059  35.623  29.033  1.00  0.00     0.124 S 
ATOM     82  O   UNL A   1      32.218  35.982  30.170  1.00  0.00    -0.237 OA
ATOM     83  O   UNL A   1      33.732  36.734  28.367  1.00  0.00    -0.237 OA
ATOM     84  O   UNL A   1      32.502  34.613  28.135  1.00  0.00    -0.744 OA
ENDBRANCH  80  81
ENDBRANCH  52  75
BRANCH  64  85
ATOM     85  C   UNL A   1      39.802  34.317  37.166  1.00  0.00    -0.014 A 
ATOM     86  C   UNL A   1      38.914  34.092  38.233  1.00  0.00     0.010 A 
ATOM     87  C   UNL A   1      40.585  35.486  37.159  1.00  0.00     0.010 A 
ATOM     88  C   UNL A   1      38.787  35.034  39.256  1.00  0.00     0.020 A 
ATOM     89  C   UNL A   1      40.482  36.417  38.195  1.00  0.00     0.020 A 
ATOM     90  C   UNL A   1      39.572  36.192  39.230  1.00  0.00     0.054 A 
BRANCH  90  91
ATOM     91  S   UNL A   1      39.420  37.382  40.591  1.00  0.00     0.124 S 
ATOM     92  O   UNL A   1      38.320  38.226  40.134  1.00  0.00    -0.237 OA
ATOM     93  O   UNL A   1      39.122  36.525  41.736  1.00  0.00    -0.237 OA
ATOM     94  O   UNL A   1      40.729  38.031  40.631  1.00  0.00    -0.744 OA
ENDBRANCH  90  91
ENDBRANCH  64  85
ENDBRANCH  38  39
ENDBRANCH  30  33
ENDBRANCH  28  29
ENDBRANCH  27  28
ENDBRANCH  26  27
ENDBRANCH   1  26
TORSDOF 19
ENDMDL
MODEL 2
REMARK VINA RESULT:     -11.6      4.909      6.670
REMARK SMILES COc1ccc(C(=O)Nc2cccc(C(=O)NCCCCCCNC(=O)c3ccc(-c4c5nc(c(-c6ccc(S(=O)(=O)[O-])cc6)c6ccc([nH]6)c(-c6ccc(S(=O)(=O)[O-])cc6)c6nc(c(-c7ccc(S(=O)(=O)[O-])cc7)c7ccc4[nH]7)C=C6)C=C5)cc3)c2)cc1
REMARK SMILES IDX 20 1 19 2 18 3 17 4 15 5 16 6 14 8 10 9 11 10 87 11 12 12
REMARK SMILES IDX 13 13 9 14 7 15 8 16 6 18 3 19 4 20 89 21 5 22 88 23 2 24
REMARK SMILES IDX 1 25 21 26 22 27 23 28 24 29 25 30 26 32 27 33 28 34 86 35
REMARK SMILES IDX 29 36 85 37 30 38 31 39 32 40 79 41 33 42 84 43 78 44 80 45
REMARK SMILES IDX 34 46 83 47 77 48 76 49 35 51 65 52 46 53 64 54 47 55 50 56
REMARK SMILES IDX 63 57 81 58 48 59 49 60 62 62 82 63 51 64 36 65 37 66 45 67
REMARK SMILES IDX 38 68 44 69 39 70 40 71 41 72 42 73 43 74 66 75 67 76 75 77
REMARK SMILES IDX 68 78 74 79 69 80 70 81 71 82 72 83 73 84 52 85 53 86 61 87
REMARK SMILES IDX 54 88 60 89 55 90 56 91 57 92 58 93 59 94
REMARK H PARENT 17 7 9 17 24 31 80 50 50 61
REMARK Flexibility Score: inf
ROOT
ATOM      1  C   UNL A   1      35.302  22.236  23.276  1.00  0.00     0.002 C 
ENDROOT
BRANCH   1   2
ATOM      2  C   UNL A   1      34.122  23.214  23.310  1.00  0.00     0.021 C 
BRANCH   2   3
ATOM      3  C   UNL A   1      33.039  22.864  22.287  1.00  0.00     0.116 C 
BRANCH   3   4
ATOM      4  N   UNL A   1      33.035  23.829  21.203  1.00  0.00    -0.352 N 
ATOM      5  C   UNL A   1      32.847  25.184  21.146  1.00  0.00     0.251 C 
ATOM      6  O   UNL A   1      32.902  25.706  20.029  1.00  0.00    -0.269 OA
ATOM      7  H   UNL A   1      33.202  23.422  20.323  1.00  0.00     0.163 HD
BRANCH   5   8
ATOM      8  C   UNL A   1      32.651  26.064  22.337  1.00  0.00     0.041 A 
ATOM      9  C   UNL A   1      31.505  26.807  24.341  1.00  0.00     0.042 A 
ATOM     10  C   UNL A   1      32.537  27.696  24.634  1.00  0.00     0.026 A 
ATOM     11  C   UNL A   1      31.514  26.086  23.142  1.00  0.00     0.040 A 
ATOM     12  C   UNL A   1      33.652  27.742  23.803  1.00  0.00     0.003 A 
ATOM     13  C   UNL A   1      33.720  26.910  22.681  1.00  0.00     0.014 A 
BRANCH   9  14
ATOM     14  N   UNL A   1      30.516  26.600  25.311  1.00  0.00    -0.322 N 
ATOM     15  C   UNL A   1      30.187  25.436  25.986  1.00  0.00     0.255 C 
ATOM     16  O   UNL A   1      29.117  25.383  26.590  1.00  0.00    -0.269 OA
ATOM     17  H   UNL A   1      29.980  27.391  25.545  1.00  0.00     0.170 HD
BRANCH  15  18
ATOM     18  C   UNL A   1      31.139  24.283  26.099  1.00  0.00     0.040 A 
ATOM     19  C   UNL A   1      32.870  22.052  26.256  1.00  0.00     0.118 A 
ATOM     20  C   UNL A   1      31.629  21.950  25.621  1.00  0.00     0.047 A 
ATOM     21  C   UNL A   1      33.224  23.259  26.856  1.00  0.00     0.047 A 
ATOM     22  C   UNL A   1      30.770  23.054  25.538  1.00  0.00     0.017 A 
ATOM     23  C   UNL A   1      32.347  24.353  26.809  1.00  0.00     0.017 A 
BRANCH  19  24
ATOM     24  O   UNL A   1      33.631  20.918  26.227  1.00  0.00    -0.497 OA
ATOM     25  C   UNL A   1      33.166  19.845  25.418  1.00  0.00     0.278 C 
ENDBRANCH  19  24
ENDBRANCH  15  18
ENDBRANCH   9  14
ENDBRANCH   5   8
ENDBRANCH   3   4
ENDBRANCH   2   3
ENDBRANCH   1   2
BRANCH   1  26
ATOM     26  C   UNL A   1      36.648  22.849  23.687  1.00  0.00     0.002 C 
BRANCH  26  27
ATOM     27  C   UNL A   1      36.578  23.862  24.834  1.00  0.00     0.021 C 
BRANCH  27  28
ATOM     28  C   UNL A   1      36.823  23.268  26.219  1.00  0.00     0.116 C 
BRANCH  28  29
ATOM     29  N   UNL A   1      37.904  22.294  26.200  1.00  0.00    -0.352 N 
ATOM     30  C   UNL A   1      39.255  22.488  26.326  1.00  0.00     0.251 C 
ATOM     31  H   UNL A   1      37.623  21.358  26.081  1.00  0.00     0.163 HD
ATOM     32  O   UNL A   1      40.031  21.578  26.054  1.00  0.00    -0.269 OA
BRANCH  30  33
ATOM     33  C   UNL A   1      39.775  23.796  26.780  1.00  0.00     0.039 A 
ATOM     34  C   UNL A   1      40.046  23.979  28.139  1.00  0.00     0.014 A 
ATOM     35  C   UNL A   1      39.967  24.845  25.877  1.00  0.00     0.014 A 
ATOM     36  C   UNL A   1      40.559  25.200  28.584  1.00  0.00     0.010 A 
ATOM     37  C   UNL A   1      40.536  26.040  26.313  1.00  0.00     0.010 A 
ATOM     38  C   UNL A   1      40.833  26.232  27.671  1.00  0.00    -0.014 A 
BRANCH  38  39
ATOM     39  C   UNL A   1      41.441  27.510  28.119  1.00  0.00     0.031 A 
ATOM     40  C   UNL A   1      42.937  27.683  28.115  1.00  0.00     0.074 A 
ATOM     41  C   UNL A   1      40.647  28.490  28.595  1.00  0.00     0.049 A 
ATOM     42  N   UNL A   1      43.648  28.704  28.519  1.00  0.00    -0.248 NA
ATOM     43  C   UNL A   1      43.741  26.554  27.615  1.00  0.00     0.031 C 
ATOM     44  C   UNL A   1      39.188  28.421  28.703  1.00  0.00     0.029 A 
ATOM     45  N   UNL A   1      40.956  29.732  29.092  1.00  0.00    -0.354 N 
ATOM     46  C   UNL A   1      44.976  28.334  28.348  1.00  0.00     0.074 A 
ATOM     47  C   UNL A   1      44.976  26.983  27.832  1.00  0.00     0.031 C 
ATOM     48  C   UNL A   1      38.729  29.572  29.222  1.00  0.00     0.029 A 
ATOM     49  C   UNL A   1      39.860  30.446  29.514  1.00  0.00     0.049 A 
ATOM     50  H   UNL A   1      41.877  30.079  29.141  1.00  0.00     0.167 HD
ATOM     51  C   UNL A   1      46.095  29.059  28.588  1.00  0.00     0.031 A 
ATOM     52  C   UNL A   1      39.773  31.663  30.085  1.00  0.00     0.031 A 
ATOM     53  C   UNL A   1      46.089  30.415  29.072  1.00  0.00     0.049 A 
ATOM     54  C   UNL A   1      41.031  32.457  30.313  1.00  0.00     0.074 A 
ATOM     55  C   UNL A   1      47.168  31.262  29.260  1.00  0.00     0.029 A 
ATOM     56  N   UNL A   1      44.956  31.118  29.449  1.00  0.00    -0.354 N 
ATOM     57  N   UNL A   1      42.272  32.125  30.052  1.00  0.00    -0.248 NA
ATOM     58  C   UNL A   1      40.874  33.797  30.898  1.00  0.00     0.031 C 
ATOM     59  C   UNL A   1      46.691  32.461  29.798  1.00  0.00     0.029 A 
ATOM     60  C   UNL A   1      45.312  32.379  29.894  1.00  0.00     0.049 A 
ATOM     61  H   UNL A   1      44.035  30.772  29.406  1.00  0.00     0.167 HD
ATOM     62  C   UNL A   1      43.042  33.223  30.420  1.00  0.00     0.074 A 
ATOM     63  C   UNL A   1      42.125  34.236  30.900  1.00  0.00     0.031 C 
ATOM     64  C   UNL A   1      44.388  33.379  30.365  1.00  0.00     0.031 A 
BRANCH  51  65
ATOM     65  C   UNL A   1      47.429  28.411  28.332  1.00  0.00    -0.014 A 
ATOM     66  C   UNL A   1      48.066  27.639  29.321  1.00  0.00     0.010 A 
ATOM     67  C   UNL A   1      48.012  28.502  27.055  1.00  0.00     0.010 A 
ATOM     68  C   UNL A   1      49.270  26.986  29.042  1.00  0.00     0.020 A 
ATOM     69  C   UNL A   1      49.203  27.831  26.764  1.00  0.00     0.020 A 
ATOM     70  C   UNL A   1      49.829  27.084  27.765  1.00  0.00     0.054 A 
BRANCH  70  71
ATOM     71  S   UNL A   1      51.359  26.175  27.413  1.00  0.00     0.124 S 
ATOM     72  O   UNL A   1      52.128  26.396  28.635  1.00  0.00    -0.237 OA
ATOM     73  O   UNL A   1      50.881  24.809  27.210  1.00  0.00    -0.237 OA
ATOM     74  O   UNL A   1      51.887  26.830  26.218  1.00  0.00    -0.744 OA
ENDBRANCH  70  71
ENDBRANCH  51  65
BRANCH  52  75
ATOM     75  C   UNL A   1      38.447  32.208  30.489  1.00  0.00    -0.014 A 
ATOM     76  C   UNL A   1      37.705  33.018  29.612  1.00  0.00     0.010 A 
ATOM     77  C   UNL A   1      37.926  31.927  31.765  1.00  0.00     0.010 A 
ATOM     78  C   UNL A   1      36.484  33.566  30.015  1.00  0.00     0.020 A 
ATOM     79  C   UNL A   1      36.691  32.449  32.162  1.00  0.00     0.020 A 
ATOM     80  C   UNL A   1      35.987  33.281  31.290  1.00  0.00     0.054 A 
BRANCH  80  81
ATOM     81  S   UNL A   1      34.389  33.982  31.786  1.00  0.00     0.124 S 
ATOM     82  O   UNL A   1      33.835  32.916  32.614  1.00  0.00    -0.237 OA
ATOM     83  O   UNL A   1      34.781  35.197  32.496  1.00  0.00    -0.237 OA
ATOM     84  O   UNL A   1      33.706  34.207  30.514  1.00  0.00    -0.744 OA
ENDBRANCH  80  81
ENDBRANCH  52  75
BRANCH  64  85
ATOM     85  C   UNL A   1      44.950  34.703  30.805  1.00  0.00    -0.014 A 
ATOM     86  C   UNL A   1      45.134  35.757  29.891  1.00  0.00     0.010 A 
ATOM     87  C   UNL A   1      45.249  34.911  32.164  1.00  0.00     0.010 A 
ATOM     88  C   UNL A   1      45.639  36.985  30.324  1.00  0.00     0.020 A 
ATOM     89  C   UNL A   1      45.728  36.147  32.605  1.00  0.00     0.020 A 
ATOM     90  C   UNL A   1      45.934  37.172  31.679  1.00  0.00     0.054 A 
BRANCH  90  91
ATOM     91  S   UNL A   1      46.550  38.789  32.224  1.00  0.00     0.124 S 
ATOM     92  O   UNL A   1      46.272  39.627  31.062  1.00  0.00    -0.237 OA
ATOM     93  O   UNL A   1      45.737  39.062  33.406  1.00  0.00    -0.237 OA
ATOM     94  O   UNL A   1      47.966  38.546  32.493  1.00  0.00    -0.744 OA
ENDBRANCH  90  91
ENDBRANCH  64  85
ENDBRANCH  38  39
ENDBRANCH  30  33
ENDBRANCH  28  29
ENDBRANCH  27  28
ENDBRANCH  26  27
ENDBRANCH   1  26
TORSDOF 19
ENDMDL
MODEL 3
REMARK VINA RESULT:     -11.3      3.313      4.285
REMARK SMILES COc1ccc(C(=O)Nc2cccc(C(=O)NCCCCCCNC(=O)c3ccc(-c4c5nc(c(-c6ccc(S(=O)(=O)[O-])cc6)c6ccc([nH]6)c(-c6ccc(S(=O)(=O)[O-])cc6)c6nc(c(-c7ccc(S(=O)(=O)[O-])cc7)c7ccc4[nH]7)C=C6)C=C5)cc3)c2)cc1
REMARK SMILES IDX 20 1 19 2 18 3 17 4 15 5 16 6 14 8 10 9 11 10 87 11 12 12
REMARK SMILES IDX 13 13 9 14 7 15 8 16 6 18 3 19 4 20 89 21 5 22 88 23 2 24
REMARK SMILES IDX 1 25 21 26 22 27 23 28 24 29 25 30 26 32 27 33 28 34 86 35
REMARK SMILES IDX 29 36 85 37 30 38 31 39 32 40 79 41 33 42 84 43 78 44 80 45
REMARK SMILES IDX 34 46 83 47 77 48 76 49 35 51 65 52 46 53 64 54 47 55 50 56
REMARK SMILES IDX 63 57 81 58 48 59 49 60 62 62 82 63 51 64 36 65 37 66 45 67
REMARK SMILES IDX 38 68 44 69 39 70 40 71 41 72 42 73 43 74 66 75 67 76 75 77
REMARK SMILES IDX 68 78 74 79 69 80 70 81 71 82 72 83 73 84 52 85 53 86 61 87
REMARK SMILES IDX 54 88 60 89 55 90 56 91 57 92 58 93 59 94
REMARK H PARENT 17 7 9 17 24 31 80 50 50 61
REMARK Flexibility Score: inf
ROOT
ATOM      1  C   UNL A   1      34.706  22.256  26.846  1.00  0.00     0.002 C 
ENDROOT
BRANCH   1   2
ATOM      2  C   UNL A   1      33.395  21.530  27.168  1.00  0.00     0.021 C 
BRANCH   2   3
ATOM      3  C   UNL A   1      32.329  21.737  26.090  1.00  0.00     0.116 C 
BRANCH   3   4
ATOM      4  N   UNL A   1      31.339  22.699  26.535  1.00  0.00    -0.352 N 
ATOM      5  C   UNL A   1      30.822  23.844  25.990  1.00  0.00     0.251 C 
ATOM      6  O   UNL A   1      29.976  24.445  26.657  1.00  0.00    -0.269 OA
ATOM      7  H   UNL A   1      30.958  22.484  27.417  1.00  0.00     0.163 HD
BRANCH   5   8
ATOM      8  C   UNL A   1      31.162  24.364  24.631  1.00  0.00     0.041 A 
ATOM      9  C   UNL A   1      31.066  25.972  22.818  1.00  0.00     0.042 A 
ATOM     10  C   UNL A   1      32.053  25.282  22.117  1.00  0.00     0.026 A 
ATOM     11  C   UNL A   1      30.548  25.449  24.008  1.00  0.00     0.040 A 
ATOM     12  C   UNL A   1      32.631  24.152  22.690  1.00  0.00     0.003 A 
ATOM     13  C   UNL A   1      32.209  23.717  23.950  1.00  0.00     0.014 A 
BRANCH   9  14
ATOM     14  N   UNL A   1      30.675  27.230  22.342  1.00  0.00    -0.322 N 
ATOM     15  C   UNL A   1      30.805  28.469  22.947  1.00  0.00     0.255 C 
ATOM     16  O   UNL A   1      30.157  29.416  22.503  1.00  0.00    -0.269 OA
ATOM     17  H   UNL A   1      30.249  27.234  21.455  1.00  0.00     0.170 HD
BRANCH  15  18
ATOM     18  C   UNL A   1      31.791  28.721  24.048  1.00  0.00     0.040 A 
ATOM     19  C   UNL A   1      33.576  29.238  26.179  1.00  0.00     0.118 A 
ATOM     20  C   UNL A   1      32.252  29.681  26.234  1.00  0.00     0.047 A 
ATOM     21  C   UNL A   1      34.021  28.578  25.036  1.00  0.00     0.047 A 
ATOM     22  C   UNL A   1      31.364  29.424  25.180  1.00  0.00     0.017 A 
ATOM     23  C   UNL A   1      33.143  28.356  23.965  1.00  0.00     0.017 A 
BRANCH  19  24
ATOM     24  O   UNL A   1      34.326  29.512  27.288  1.00  0.00    -0.497 OA
ATOM     25  C   UNL A   1      34.457  30.879  27.659  1.00  0.00     0.278 C 
ENDBRANCH  19  24
ENDBRANCH  15  18
ENDBRANCH   9  14
ENDBRANCH   5   8
ENDBRANCH   3   4
ENDBRANCH   2   3
ENDBRANCH   1   2
BRANCH   1  26
ATOM     26  C   UNL A   1      35.230  22.023  25.423  1.00  0.00     0.002 C 
BRANCH  26  27
ATOM     27  C   UNL A   1      35.699  23.283  24.687  1.00  0.00     0.021 C 
BRANCH  27  28
ATOM     28  C   UNL A   1      36.978  23.902  25.244  1.00  0.00     0.116 C 
BRANCH  28  29
ATOM     29  N   UNL A   1      37.975  22.888  25.551  1.00  0.00    -0.352 N 
ATOM     30  C   UNL A   1      39.200  23.022  26.152  1.00  0.00     0.251 C 
ATOM     31  H   UNL A   1      37.733  21.969  25.290  1.00  0.00     0.163 HD
ATOM     32  O   UNL A   1      40.002  22.095  26.119  1.00  0.00    -0.269 OA
BRANCH  30  33
ATOM     33  C   UNL A   1      39.555  24.287  26.831  1.00  0.00     0.039 A 
ATOM     34  C   UNL A   1      39.108  24.501  28.137  1.00  0.00     0.014 A 
ATOM     35  C   UNL A   1      40.301  25.270  26.173  1.00  0.00     0.014 A 
ATOM     36  C   UNL A   1      39.453  25.680  28.803  1.00  0.00     0.010 A 
ATOM     37  C   UNL A   1      40.695  26.417  26.859  1.00  0.00     0.010 A 
ATOM     38  C   UNL A   1      40.271  26.636  28.178  1.00  0.00    -0.014 A 
BRANCH  38  39
ATOM     39  C   UNL A   1      40.702  27.862  28.897  1.00  0.00     0.031 A 
ATOM     40  C   UNL A   1      42.044  27.912  29.578  1.00  0.00     0.074 A 
ATOM     41  C   UNL A   1      39.853  28.904  28.994  1.00  0.00     0.049 A 
ATOM     42  N   UNL A   1      42.566  28.873  30.295  1.00  0.00    -0.248 NA
ATOM     43  C   UNL A   1      42.901  26.720  29.459  1.00  0.00     0.031 C 
ATOM     44  C   UNL A   1      38.504  28.956  28.425  1.00  0.00     0.029 A 
ATOM     45  N   UNL A   1      39.993  30.119  29.619  1.00  0.00    -0.354 N 
ATOM     46  C   UNL A   1      43.796  28.396  30.733  1.00  0.00     0.074 A 
ATOM     47  C   UNL A   1      43.930  27.047  30.228  1.00  0.00     0.031 C 
ATOM     48  C   UNL A   1      37.947  30.141  28.718  1.00  0.00     0.029 A 
ATOM     49  C   UNL A   1      38.881  30.922  29.521  1.00  0.00     0.049 A 
ATOM     50  H   UNL A   1      40.814  30.390  30.091  1.00  0.00     0.167 HD
ATOM     51  C   UNL A   1      44.732  29.028  31.479  1.00  0.00     0.031 A 
ATOM     52  C   UNL A   1      38.635  32.145  30.031  1.00  0.00     0.031 A 
ATOM     53  C   UNL A   1      44.608  30.382  31.954  1.00  0.00     0.049 A 
ATOM     54  C   UNL A   1      39.706  32.834  30.831  1.00  0.00     0.074 A 
ATOM     55  C   UNL A   1      45.542  31.139  32.639  1.00  0.00     0.029 A 
ATOM     56  N   UNL A   1      43.483  31.177  31.798  1.00  0.00    -0.354 N 
ATOM     57  N   UNL A   1      40.902  32.401  31.152  1.00  0.00    -0.248 NA
ATOM     58  C   UNL A   1      39.401  34.184  31.326  1.00  0.00     0.031 C 
ATOM     59  C   UNL A   1      44.963  32.375  32.942  1.00  0.00     0.029 A 
ATOM     60  C   UNL A   1      43.690  32.406  32.399  1.00  0.00     0.049 A 
ATOM     61  H   UNL A   1      42.660  30.906  31.330  1.00  0.00     0.167 HD
ATOM     62  C   UNL A   1      41.499  33.434  31.865  1.00  0.00     0.074 A 
ATOM     63  C   UNL A   1      40.542  34.520  31.911  1.00  0.00     0.031 C 
ATOM     64  C   UNL A   1      42.730  33.480  32.432  1.00  0.00     0.031 A 
BRANCH  51  65
ATOM     65  C   UNL A   1      45.985  28.272  31.835  1.00  0.00    -0.014 A 
ATOM     66  C   UNL A   1      46.064  27.507  33.012  1.00  0.00     0.010 A 
ATOM     67  C   UNL A   1      47.066  28.256  30.934  1.00  0.00     0.010 A 
ATOM     68  C   UNL A   1      47.209  26.755  33.291  1.00  0.00     0.020 A 
ATOM     69  C   UNL A   1      48.202  27.487  31.197  1.00  0.00     0.020 A 
ATOM     70  C   UNL A   1      48.269  26.748  32.380  1.00  0.00     0.054 A 
BRANCH  70  71
ATOM     71  S   UNL A   1      49.717  25.713  32.738  1.00  0.00     0.124 S 
ATOM     72  O   UNL A   1      49.101  24.531  33.335  1.00  0.00    -0.237 OA
ATOM     73  O   UNL A   1      50.304  25.516  31.414  1.00  0.00    -0.237 OA
ATOM     74  O   UNL A   1      50.511  26.530  33.652  1.00  0.00    -0.744 OA
ENDBRANCH  70  71
ENDBRANCH  51  65
BRANCH  52  75
ATOM     75  C   UNL A   1      37.315  32.797  29.807  1.00  0.00    -0.014 A 
ATOM     76  C   UNL A   1      37.096  33.608  28.680  1.00  0.00     0.010 A 
ATOM     77  C   UNL A   1      36.272  32.618  30.733  1.00  0.00     0.010 A 
ATOM     78  C   UNL A   1      35.871  34.257  28.502  1.00  0.00     0.020 A 
ATOM     79  C   UNL A   1      35.035  33.241  30.543  1.00  0.00     0.020 A 
ATOM     80  C   UNL A   1      34.849  34.072  29.437  1.00  0.00     0.054 A 
BRANCH  80  81
ATOM     81  S   UNL A   1      33.258  34.904  29.175  1.00  0.00     0.124 S 
ATOM     82  O   UNL A   1      32.689  34.899  30.519  1.00  0.00    -0.237 OA
ATOM     83  O   UNL A   1      33.662  36.210  28.664  1.00  0.00    -0.237 OA
ATOM     84  O   UNL A   1      32.581  34.046  28.204  1.00  0.00    -0.744 OA
ENDBRANCH  80  81
ENDBRANCH  52  75
BRANCH  64  85
ATOM     85  C   UNL A   1      43.127  34.754  33.124  1.00  0.00    -0.014 A 
ATOM     86  C   UNL A   1      42.870  34.952  34.493  1.00  0.00     0.010 A 
ATOM     87  C   UNL A   1      43.815  35.748  32.404  1.00  0.00     0.010 A 
ATOM     88  C   UNL A   1      43.265  36.135  35.122  1.00  0.00     0.020 A 
ATOM     89  C   UNL A   1      44.236  36.921  33.036  1.00  0.00     0.020 A 
ATOM     90  C   UNL A   1      43.945  37.113  34.388  1.00  0.00     0.054 A 
BRANCH  90  91
ATOM     91  S   UNL A   1      44.484  38.624  35.236  1.00  0.00     0.124 S 
ATOM     92  O   UNL A   1      45.913  38.644  34.940  1.00  0.00    -0.237 OA
ATOM     93  O   UNL A   1      43.691  39.661  34.580  1.00  0.00    -0.237 OA
ATOM     94  O   UNL A   1      44.140  38.378  36.634  1.00  0.00    -0.744 OA
ENDBRANCH  90  91
ENDBRANCH  64  85
ENDBRANCH  38  39
ENDBRANCH  30  33
ENDBRANCH  28  29
ENDBRANCH  27  28
ENDBRANCH  26  27
ENDBRANCH   1  26
TORSDOF 19
ENDMDL
