MODEL 1
REMARK VINA RESULT:     -10.0      0.000      0.000
REMARK SMILES Cc1cc(C)n(C)c(=O)c1C(=O)N1CCC2(CC1)C[NH2+][C@@H](C(=O)NCCCCCCNC(=O)c1ccc(-c3c4nc(c(-c5ccc(S(=O)(=O)[O-])cc5)c5ccc([nH]5)c(-c5ccc(S(=O)(=O)[O-])cc5)c5nc(c(-c6ccc(S(=O)(=O)[O-])cc6)c6ccc3[nH]6)C=C5)C=C4)cc1)C2
REMARK SMILES IDX 28 1 27 2 26 3 25 4 24 5 22 6 23 7 21 9 11 10 12 11 13 12
REMARK SMILES IDX 14 13 18 14 15 15 17 16 16 17 19 18 94 19 20 20 10 23 1 24
REMARK SMILES IDX 2 25 3 26 4 27 8 28 5 29 6 30 9 31 7 32 29 33 30 34 31 35
REMARK SMILES IDX 32 36 33 38 34 39 35 40 93 41 36 42 92 43 37 44 38 45 39 46
REMARK SMILES IDX 86 47 40 48 91 49 85 50 87 51 41 52 90 53 84 54 83 55 42 57
REMARK SMILES IDX 72 58 53 59 71 60 54 61 57 62 70 63 88 64 55 65 56 66 69 68
REMARK SMILES IDX 89 69 58 70 43 71 44 72 52 73 45 74 51 75 46 76 47 77 48 78
REMARK SMILES IDX 49 79 50 80 73 81 74 82 82 83 75 84 81 85 76 86 77 87 78 88
REMARK SMILES IDX 79 89 80 90 59 91 60 92 68 93 61 94 67 95 62 96 63 97 64 98
REMARK SMILES IDX 65 99 66 100
REMARK H PARENT 24 8 20 21 20 22 31 37 87 56 57 67
REMARK Flexibility Score: inf
ROOT
ATOM      1  C   UNL A   1      36.692  32.955  30.508  1.00  0.00     0.002 C 
ENDROOT
BRANCH   1   2
ATOM      2  C   UNL A   1      37.035  32.322  31.861  1.00  0.00     0.002 C 
BRANCH   2   3
ATOM      3  C   UNL A   1      37.873  33.203  32.790  1.00  0.00     0.021 C 
BRANCH   3   4
ATOM      4  C   UNL A   1      39.042  32.473  33.446  1.00  0.00     0.116 C 
BRANCH   4   5
ATOM      5  N   UNL A   1      38.620  31.784  34.651  1.00  0.00    -0.351 N 
ATOM      6  C   UNL A   1      39.135  30.670  35.244  1.00  0.00     0.278 C 
ATOM      7  O   UNL A   1      38.589  30.256  36.270  1.00  0.00    -0.268 OA
ATOM      8  H   UNL A   1      37.845  32.181  35.110  1.00  0.00     0.163 HD
BRANCH   6   9
ATOM      9  C   UNL A   1      40.345  29.933  34.657  1.00  0.00     0.273 C 
ATOM     10  C   UNL A   1      45.025  25.624  36.009  1.00  0.00     0.259 C 
ATOM     11  O   UNL A   1      46.163  26.079  35.849  1.00  0.00    -0.269 OA
ATOM     12  N   UNL A   1      43.940  26.472  36.196  1.00  0.00    -0.338 N 
ATOM     13  C   UNL A   1      44.140  27.888  35.926  1.00  0.00     0.120 C 
ATOM     14  C   UNL A   1      42.580  26.139  36.607  1.00  0.00     0.120 C 
ATOM     15  C   UNL A   1      43.337  28.238  34.685  1.00  0.00     0.034 C 
ATOM     16  C   UNL A   1      41.521  26.648  35.607  1.00  0.00     0.034 C 
ATOM     17  C   UNL A   1      41.824  28.007  34.895  1.00  0.00     0.029 C 
ATOM     18  C   UNL A   1      41.124  28.071  33.512  1.00  0.00     0.268 C 
ATOM     19  C   UNL A   1      41.212  29.199  35.676  1.00  0.00     0.088 C 
ATOM     20  N   UNL A   1      39.936  28.887  33.705  1.00  0.00    -0.336 N 
ATOM     21  H   UNL A   1      39.175  28.328  34.092  1.00  0.00     0.346 HD
ATOM     22  H   UNL A   1      39.592  29.279  32.828  1.00  0.00     0.346 HD
BRANCH  10  23
ATOM     23  C   UNL A   1      44.859  24.145  35.864  1.00  0.00     0.108 A 
ATOM     24  C   UNL A   1      44.359  24.245  33.359  1.00  0.00     0.045 C 
ATOM     25  C   UNL A   1      44.623  23.563  34.667  1.00  0.00    -0.031 A 
ATOM     26  C   UNL A   1      44.784  22.131  34.508  1.00  0.00     0.026 A 
ATOM     27  C   UNL A   1      45.421  21.390  35.426  1.00  0.00     0.018 A 
ATOM     28  C   UNL A   1      45.375  23.275  36.982  1.00  0.00     0.263 A 
ATOM     29  C   UNL A   1      45.736  19.954  35.104  1.00  0.00     0.064 C 
ATOM     30  N   UNL A   1      45.775  21.970  36.641  1.00  0.00    -0.315 N 
ATOM     31  O   UNL A   1      45.459  23.721  38.127  1.00  0.00    -0.268 OA
ATOM     32  C   UNL A   1      46.554  21.225  37.619  1.00  0.00     0.153 C 
ENDBRANCH  10  23
ENDBRANCH   6   9
ENDBRANCH   4   5
ENDBRANCH   3   4
ENDBRANCH   2   3
ENDBRANCH   1   2
BRANCH   1  33
ATOM     33  C   UNL A   1      35.223  32.843  30.094  1.00  0.00     0.021 C 
BRANCH  33  34
ATOM     34  C   UNL A   1      34.990  32.865  28.588  1.00  0.00     0.116 C 
BRANCH  34  35
ATOM     35  N   UNL A   1      34.146  31.763  28.154  1.00  0.00    -0.352 N 
ATOM     36  C   UNL A   1      34.498  30.473  27.847  1.00  0.00     0.251 C 
ATOM     37  H   UNL A   1      33.187  31.971  28.070  1.00  0.00     0.163 HD
ATOM     38  O   UNL A   1      33.697  29.730  27.288  1.00  0.00    -0.269 OA
BRANCH  36  39
ATOM     39  C   UNL A   1      35.856  29.993  28.178  1.00  0.00     0.039 A 
ATOM     40  C   UNL A   1      36.869  30.116  27.225  1.00  0.00     0.014 A 
ATOM     41  C   UNL A   1      36.124  29.425  29.427  1.00  0.00     0.014 A 
ATOM     42  C   UNL A   1      38.166  29.713  27.546  1.00  0.00     0.010 A 
ATOM     43  C   UNL A   1      37.431  29.090  29.769  1.00  0.00     0.010 A 
ATOM     44  C   UNL A   1      38.462  29.219  28.828  1.00  0.00    -0.014 A 
BRANCH  44  45
ATOM     45  C   UNL A   1      39.842  28.806  29.180  1.00  0.00     0.031 A 
ATOM     46  C   UNL A   1      40.733  29.742  29.951  1.00  0.00     0.074 A 
ATOM     47  C   UNL A   1      40.300  27.599  28.794  1.00  0.00     0.049 A 
ATOM     48  N   UNL A   1      41.957  29.552  30.370  1.00  0.00    -0.248 NA
ATOM     49  C   UNL A   1      40.186  31.070  30.277  1.00  0.00     0.031 C 
ATOM     50  C   UNL A   1      39.545  26.618  28.009  1.00  0.00     0.029 A 
ATOM     51  N   UNL A   1      41.506  26.985  29.017  1.00  0.00    -0.354 N 
ATOM     52  C   UNL A   1      42.324  30.731  31.008  1.00  0.00     0.074 A 
ATOM     53  C   UNL A   1      41.219  31.653  30.866  1.00  0.00     0.031 C 
ATOM     54  C   UNL A   1      40.290  25.511  27.854  1.00  0.00     0.029 A 
ATOM     55  C   UNL A   1      41.583  25.713  28.500  1.00  0.00     0.049 A 
ATOM     56  H   UNL A   1      42.248  27.416  29.501  1.00  0.00     0.167 HD
ATOM     57  C   UNL A   1      43.465  31.012  31.680  1.00  0.00     0.031 A 
ATOM     58  C   UNL A   1      42.580  24.807  28.551  1.00  0.00     0.031 A 
ATOM     59  C   UNL A   1      44.555  30.089  31.835  1.00  0.00     0.049 A 
ATOM     60  C   UNL A   1      43.849  25.152  29.278  1.00  0.00     0.074 A 
ATOM     61  C   UNL A   1      45.730  30.259  32.545  1.00  0.00     0.029 A 
ATOM     62  N   UNL A   1      44.605  28.823  31.271  1.00  0.00    -0.354 N 
ATOM     63  N   UNL A   1      44.149  26.247  29.935  1.00  0.00    -0.248 NA
ATOM     64  C   UNL A   1      44.915  24.140  29.275  1.00  0.00     0.031 C 
ATOM     65  C   UNL A   1      46.513  29.113  32.371  1.00  0.00     0.029 A 
ATOM     66  C   UNL A   1      45.805  28.212  31.591  1.00  0.00     0.049 A 
ATOM     67  H   UNL A   1      43.893  28.419  30.726  1.00  0.00     0.167 HD
ATOM     68  C   UNL A   1      45.433  26.052  30.431  1.00  0.00     0.074 A 
ATOM     69  C   UNL A   1      45.846  24.726  30.017  1.00  0.00     0.031 C 
ATOM     70  C   UNL A   1      46.202  26.896  31.160  1.00  0.00     0.031 A 
BRANCH  57  71
ATOM     71  C   UNL A   1      43.582  32.371  32.314  1.00  0.00    -0.014 A 
ATOM     72  C   UNL A   1      43.109  32.598  33.620  1.00  0.00     0.010 A 
ATOM     73  C   UNL A   1      44.209  33.421  31.619  1.00  0.00     0.010 A 
ATOM     74  C   UNL A   1      43.229  33.859  34.206  1.00  0.00     0.020 A 
ATOM     75  C   UNL A   1      44.354  34.678  32.214  1.00  0.00     0.020 A 
ATOM     76  C   UNL A   1      43.850  34.892  33.499  1.00  0.00     0.054 A 
BRANCH  76  77
ATOM     77  S   UNL A   1      44.018  36.511  34.300  1.00  0.00     0.124 S 
ATOM     78  O   UNL A   1      42.741  37.142  33.971  1.00  0.00    -0.237 OA
ATOM     79  O   UNL A   1      44.198  36.154  35.705  1.00  0.00    -0.237 OA
ATOM     80  O   UNL A   1      45.188  37.099  33.653  1.00  0.00    -0.744 OA
ENDBRANCH  76  77
ENDBRANCH  57  71
BRANCH  58  81
ATOM     81  C   UNL A   1      42.404  23.476  27.911  1.00  0.00    -0.014 A 
ATOM     82  C   UNL A   1      42.839  23.258  26.591  1.00  0.00     0.010 A 
ATOM     83  C   UNL A   1      41.819  22.413  28.621  1.00  0.00     0.010 A 
ATOM     84  C   UNL A   1      42.686  22.005  25.992  1.00  0.00     0.020 A 
ATOM     85  C   UNL A   1      41.684  21.151  28.033  1.00  0.00     0.020 A 
ATOM     86  C   UNL A   1      42.112  20.958  26.719  1.00  0.00     0.054 A 
BRANCH  86  87
ATOM     87  S   UNL A   1      41.977  19.325  25.940  1.00  0.00     0.124 S 
ATOM     88  O   UNL A   1      42.462  18.442  26.997  1.00  0.00    -0.237 OA
ATOM     89  O   UNL A   1      40.550  19.235  25.643  1.00  0.00    -0.237 OA
ATOM     90  O   UNL A   1      42.844  19.433  24.768  1.00  0.00    -0.744 OA
ENDBRANCH  86  87
ENDBRANCH  58  81
BRANCH  70  91
ATOM     91  C   UNL A   1      47.576  26.428  31.551  1.00  0.00    -0.014 A 
ATOM     92  C   UNL A   1      47.773  25.708  32.742  1.00  0.00     0.010 A 
ATOM     93  C   UNL A   1      48.660  26.621  30.676  1.00  0.00     0.010 A 
ATOM     94  C   UNL A   1      49.034  25.195  33.056  1.00  0.00     0.020 A 
ATOM     95  C   UNL A   1      49.916  26.089  30.974  1.00  0.00     0.020 A 
ATOM     96  C   UNL A   1      50.096  25.383  32.166  1.00  0.00     0.054 A 
BRANCH  96  97
ATOM     97  S   UNL A   1      51.701  24.635  32.562  1.00  0.00     0.124 S 
ATOM     98  O   UNL A   1      51.881  25.023  33.958  1.00  0.00    -0.237 OA
ATOM     99  O   UNL A   1      51.457  23.214  32.330  1.00  0.00    -0.237 OA
ATOM    100  O   UNL A   1      52.620  25.266  31.616  1.00  0.00    -0.744 OA
ENDBRANCH  96  97
ENDBRANCH  70  91
ENDBRANCH  44  45
ENDBRANCH  36  39
ENDBRANCH  34  35
ENDBRANCH  33  34
ENDBRANCH   1  33
TORSDOF 17
ENDMDL
MODEL 2
REMARK VINA RESULT:      -9.3      5.234     13.336
REMARK SMILES Cc1cc(C)n(C)c(=O)c1C(=O)N1CCC2(CC1)C[NH2+][C@@H](C(=O)NCCCCCCNC(=O)c1ccc(-c3c4nc(c(-c5ccc(S(=O)(=O)[O-])cc5)c5ccc([nH]5)c(-c5ccc(S(=O)(=O)[O-])cc5)c5nc(c(-c6ccc(S(=O)(=O)[O-])cc6)c6ccc3[nH]6)C=C5)C=C4)cc1)C2
REMARK SMILES IDX 28 1 27 2 26 3 25 4 24 5 22 6 23 7 21 9 11 10 12 11 13 12
REMARK SMILES IDX 14 13 18 14 15 15 17 16 16 17 19 18 94 19 20 20 10 23 1 24
REMARK SMILES IDX 2 25 3 26 4 27 8 28 5 29 6 30 9 31 7 32 29 33 30 34 31 35
REMARK SMILES IDX 32 36 33 38 34 39 35 40 93 41 36 42 92 43 37 44 38 45 39 46
REMARK SMILES IDX 86 47 40 48 91 49 85 50 87 51 41 52 90 53 84 54 83 55 42 57
REMARK SMILES IDX 72 58 53 59 71 60 54 61 57 62 70 63 88 64 55 65 56 66 69 68
REMARK SMILES IDX 89 69 58 70 43 71 44 72 52 73 45 74 51 75 46 76 47 77 48 78
REMARK SMILES IDX 49 79 50 80 73 81 74 82 82 83 75 84 81 85 76 86 77 87 78 88
REMARK SMILES IDX 79 89 80 90 59 91 60 92 68 93 61 94 67 95 62 96 63 97 64 98
REMARK SMILES IDX 65 99 66 100
REMARK H PARENT 24 8 20 21 20 22 31 37 87 56 57 67
REMARK Flexibility Score: inf
ROOT
ATOM      1  C   UNL A   1      37.160  22.191  25.668  1.00  0.00     0.002 C 
ENDROOT
BRANCH   1   2
ATOM      2  C   UNL A   1      38.290  21.198  25.373  1.00  0.00     0.002 C 
BRANCH   2   3
ATOM      3  C   UNL A   1      37.829  19.773  25.058  1.00  0.00     0.021 C 
BRANCH   3   4
ATOM      4  C   UNL A   1      36.373  19.678  24.609  1.00  0.00     0.116 C 
BRANCH   4   5
ATOM      5  N   UNL A   1      35.877  18.320  24.727  1.00  0.00    -0.351 N 
ATOM      6  C   UNL A   1      34.595  17.867  24.835  1.00  0.00     0.278 C 
ATOM      7  O   UNL A   1      34.419  16.650  24.940  1.00  0.00    -0.268 OA
ATOM      8  H   UNL A   1      36.569  17.620  24.728  1.00  0.00     0.163 HD
BRANCH   6   9
ATOM      9  C   UNL A   1      33.400  18.828  24.844  1.00  0.00     0.273 C 
ATOM     10  C   UNL A   1      31.629  24.987  25.949  1.00  0.00     0.259 C 
ATOM     11  O   UNL A   1      30.771  25.093  26.833  1.00  0.00    -0.269 OA
ATOM     12  N   UNL A   1      32.432  23.856  25.870  1.00  0.00    -0.338 N 
ATOM     13  C   UNL A   1      32.050  22.704  26.674  1.00  0.00     0.120 C 
ATOM     14  C   UNL A   1      33.620  23.634  25.053  1.00  0.00     0.120 C 
ATOM     15  C   UNL A   1      31.586  21.614  25.723  1.00  0.00     0.034 C 
ATOM     16  C   UNL A   1      33.500  22.378  24.165  1.00  0.00     0.034 C 
ATOM     17  C   UNL A   1      32.712  21.168  24.765  1.00  0.00     0.029 C 
ATOM     18  C   UNL A   1      32.082  20.309  23.637  1.00  0.00     0.268 C 
ATOM     19  C   UNL A   1      33.665  20.183  25.493  1.00  0.00     0.088 C 
ATOM     20  N   UNL A   1      32.956  19.158  23.479  1.00  0.00    -0.336 N 
ATOM     21  H   UNL A   1      33.755  19.391  22.889  1.00  0.00     0.346 HD
ATOM     22  H   UNL A   1      32.482  18.374  23.030  1.00  0.00     0.346 HD
BRANCH  10  23
ATOM     23  C   UNL A   1      31.669  26.062  24.911  1.00  0.00     0.108 A 
ATOM     24  C   UNL A   1      30.491  24.661  23.127  1.00  0.00     0.045 C 
ATOM     25  C   UNL A   1      31.105  25.905  23.693  1.00  0.00    -0.031 A 
ATOM     26  C   UNL A   1      30.882  27.055  22.839  1.00  0.00     0.026 A 
ATOM     27  C   UNL A   1      30.961  28.307  23.312  1.00  0.00     0.018 A 
ATOM     28  C   UNL A   1      31.968  27.466  25.375  1.00  0.00     0.263 A 
ATOM     29  C   UNL A   1      30.516  29.443  22.430  1.00  0.00     0.064 C 
ATOM     30  N   UNL A   1      31.445  28.517  24.600  1.00  0.00    -0.315 N 
ATOM     31  O   UNL A   1      32.619  27.654  26.404  1.00  0.00    -0.268 OA
ATOM     32  C   UNL A   1      31.451  29.852  25.182  1.00  0.00     0.153 C 
ENDBRANCH  10  23
ENDBRANCH   6   9
ENDBRANCH   4   5
ENDBRANCH   3   4
ENDBRANCH   2   3
ENDBRANCH   1   2
BRANCH   1  33
ATOM     33  C   UNL A   1      37.538  23.665  25.508  1.00  0.00     0.021 C 
BRANCH  33  34
ATOM     34  C   UNL A   1      38.494  24.190  26.573  1.00  0.00     0.116 C 
BRANCH  34  35
ATOM     35  N   UNL A   1      39.879  24.128  26.135  1.00  0.00    -0.352 N 
ATOM     36  C   UNL A   1      40.919  24.972  26.434  1.00  0.00     0.251 C 
ATOM     37  H   UNL A   1      40.103  23.375  25.541  1.00  0.00     0.163 HD
ATOM     38  O   UNL A   1      41.972  24.902  25.807  1.00  0.00    -0.269 OA
BRANCH  36  39
ATOM     39  C   UNL A   1      40.753  25.978  27.504  1.00  0.00     0.039 A 
ATOM     40  C   UNL A   1      39.776  25.773  28.480  1.00  0.00     0.014 A 
ATOM     41  C   UNL A   1      41.563  27.116  27.541  1.00  0.00     0.014 A 
ATOM     42  C   UNL A   1      39.646  26.689  29.524  1.00  0.00     0.010 A 
ATOM     43  C   UNL A   1      41.479  27.991  28.621  1.00  0.00     0.010 A 
ATOM     44  C   UNL A   1      40.511  27.793  29.616  1.00  0.00    -0.014 A 
BRANCH  44  45
ATOM     45  C   UNL A   1      40.389  28.760  30.733  1.00  0.00     0.031 A 
ATOM     46  C   UNL A   1      41.318  28.667  31.913  1.00  0.00     0.074 A 
ATOM     47  C   UNL A   1      39.435  29.711  30.695  1.00  0.00     0.049 A 
ATOM     48  N   UNL A   1      41.381  29.434  32.970  1.00  0.00    -0.248 NA
ATOM     49  C   UNL A   1      42.290  27.561  31.915  1.00  0.00     0.031 C 
ATOM     50  C   UNL A   1      38.449  29.879  29.624  1.00  0.00     0.029 A 
ATOM     51  N   UNL A   1      39.141  30.721  31.575  1.00  0.00    -0.354 N 
ATOM     52  C   UNL A   1      42.395  28.904  33.759  1.00  0.00     0.074 A 
ATOM     53  C   UNL A   1      42.877  27.715  33.091  1.00  0.00     0.031 C 
ATOM     54  C   UNL A   1      37.690  30.955  29.890  1.00  0.00     0.029 A 
ATOM     55  C   UNL A   1      38.113  31.534  31.161  1.00  0.00     0.049 A 
ATOM     56  H   UNL A   1      39.623  30.853  32.425  1.00  0.00     0.167 HD
ATOM     57  C   UNL A   1      42.904  29.380  34.920  1.00  0.00     0.031 A 
ATOM     58  C   UNL A   1      37.577  32.630  31.735  1.00  0.00     0.031 A 
ATOM     59  C   UNL A   1      42.436  30.571  35.574  1.00  0.00     0.049 A 
ATOM     60  C   UNL A   1      38.139  33.123  33.040  1.00  0.00     0.074 A 
ATOM     61  C   UNL A   1      42.922  31.166  36.725  1.00  0.00     0.029 A 
ATOM     62  N   UNL A   1      41.373  31.346  35.138  1.00  0.00    -0.354 N 
ATOM     63  N   UNL A   1      39.145  32.648  33.734  1.00  0.00    -0.248 NA
ATOM     64  C   UNL A   1      37.496  34.302  33.637  1.00  0.00     0.031 C 
ATOM     65  C   UNL A   1      42.122  32.277  37.011  1.00  0.00     0.029 A 
ATOM     66  C   UNL A   1      41.167  32.399  36.013  1.00  0.00     0.049 A 
ATOM     67  H   UNL A   1      40.844  31.175  34.326  1.00  0.00     0.167 HD
ATOM     68  C   UNL A   1      39.262  33.475  34.846  1.00  0.00     0.074 A 
ATOM     69  C   UNL A   1      38.239  34.493  34.721  1.00  0.00     0.031 C 
ATOM     70  C   UNL A   1      40.136  33.396  35.878  1.00  0.00     0.031 A 
BRANCH  57  71
ATOM     71  C   UNL A   1      44.039  28.618  35.547  1.00  0.00    -0.014 A 
ATOM     72  C   UNL A   1      45.374  28.922  35.222  1.00  0.00     0.010 A 
ATOM     73  C   UNL A   1      43.775  27.619  36.501  1.00  0.00     0.010 A 
ATOM     74  C   UNL A   1      46.424  28.218  35.815  1.00  0.00     0.020 A 
ATOM     75  C   UNL A   1      44.825  26.930  37.115  1.00  0.00     0.020 A 
ATOM     76  C   UNL A   1      46.143  27.225  36.757  1.00  0.00     0.054 A 
BRANCH  76  77
ATOM     77  S   UNL A   1      47.530  26.348  37.530  1.00  0.00     0.124 S 
ATOM     78  O   UNL A   1      47.116  24.953  37.393  1.00  0.00    -0.237 OA
ATOM     79  O   UNL A   1      48.663  26.751  36.702  1.00  0.00    -0.237 OA
ATOM     80  O   UNL A   1      47.546  26.861  38.898  1.00  0.00    -0.744 OA
ENDBRANCH  76  77
ENDBRANCH  57  71
BRANCH  58  81
ATOM     81  C   UNL A   1      36.459  33.346  31.065  1.00  0.00    -0.014 A 
ATOM     82  C   UNL A   1      35.231  33.525  31.726  1.00  0.00     0.010 A 
ATOM     83  C   UNL A   1      36.621  33.871  29.770  1.00  0.00     0.010 A 
ATOM     84  C   UNL A   1      34.184  34.209  31.103  1.00  0.00     0.020 A 
ATOM     85  C   UNL A   1      35.583  34.576  29.152  1.00  0.00     0.020 A 
ATOM     86  C   UNL A   1      34.368  34.733  29.820  1.00  0.00     0.054 A 
BRANCH  86  87
ATOM     87  S   UNL A   1      33.013  35.667  29.055  1.00  0.00     0.124 S 
ATOM     88  O   UNL A   1      32.406  34.665  28.185  1.00  0.00    -0.237 OA
ATOM     89  O   UNL A   1      32.217  36.070  30.211  1.00  0.00    -0.237 OA
ATOM     90  O   UNL A   1      33.698  36.760  28.368  1.00  0.00    -0.744 OA
ENDBRANCH  86  87
ENDBRANCH  58  81
BRANCH  70  91
ATOM     91  C   UNL A   1      40.024  34.425  36.968  1.00  0.00    -0.014 A 
ATOM     92  C   UNL A   1      40.752  35.625  36.894  1.00  0.00     0.010 A 
ATOM     93  C   UNL A   1      39.113  34.236  38.022  1.00  0.00     0.010 A 
ATOM     94  C   UNL A   1      40.575  36.617  37.861  1.00  0.00     0.020 A 
ATOM     95  C   UNL A   1      38.916  35.236  38.977  1.00  0.00     0.020 A 
ATOM     96  C   UNL A   1      39.652  36.419  38.893  1.00  0.00     0.054 A 
BRANCH  96  97
ATOM     97  S   UNL A   1      39.386  37.759  40.086  1.00  0.00     0.124 S 
ATOM     98  O   UNL A   1      40.612  38.539  39.947  1.00  0.00    -0.237 OA
ATOM     99  O   UNL A   1      38.173  38.398  39.583  1.00  0.00    -0.237 OA
ATOM    100  O   UNL A   1      39.232  37.061  41.361  1.00  0.00    -0.744 OA
ENDBRANCH  96  97
ENDBRANCH  70  91
ENDBRANCH  44  45
ENDBRANCH  36  39
ENDBRANCH  34  35
ENDBRANCH  33  34
ENDBRANCH   1  33
TORSDOF 17
ENDMDL
MODEL 3
REMARK VINA RESULT:      -9.2      1.002      7.908
REMARK SMILES Cc1cc(C)n(C)c(=O)c1C(=O)N1CCC2(CC1)C[NH2+][C@@H](C(=O)NCCCCCCNC(=O)c1ccc(-c3c4nc(c(-c5ccc(S(=O)(=O)[O-])cc5)c5ccc([nH]5)c(-c5ccc(S(=O)(=O)[O-])cc5)c5nc(c(-c6ccc(S(=O)(=O)[O-])cc6)c6ccc3[nH]6)C=C5)C=C4)cc1)C2
REMARK SMILES IDX 28 1 27 2 26 3 25 4 24 5 22 6 23 7 21 9 11 10 12 11 13 12
REMARK SMILES IDX 14 13 18 14 15 15 17 16 16 17 19 18 94 19 20 20 10 23 1 24
REMARK SMILES IDX 2 25 3 26 4 27 8 28 5 29 6 30 9 31 7 32 29 33 30 34 31 35
REMARK SMILES IDX 32 36 33 38 34 39 35 40 93 41 36 42 92 43 37 44 38 45 39 46
REMARK SMILES IDX 86 47 40 48 91 49 85 50 87 51 41 52 90 53 84 54 83 55 42 57
REMARK SMILES IDX 72 58 53 59 71 60 54 61 57 62 70 63 88 64 55 65 56 66 69 68
REMARK SMILES IDX 89 69 58 70 43 71 44 72 52 73 45 74 51 75 46 76 47 77 48 78
REMARK SMILES IDX 49 79 50 80 73 81 74 82 82 83 75 84 81 85 76 86 77 87 78 88
REMARK SMILES IDX 79 89 80 90 59 91 60 92 68 93 61 94 67 95 62 96 63 97 64 98
REMARK SMILES IDX 65 99 66 100
REMARK H PARENT 24 8 20 21 20 22 31 37 87 56 57 67
REMARK Flexibility Score: inf
ROOT
ATOM      1  C   UNL A   1      36.145  32.745  30.475  1.00  0.00     0.002 C 
ENDROOT
BRANCH   1   2
ATOM      2  C   UNL A   1      36.674  33.909  31.320  1.00  0.00     0.002 C 
BRANCH   2   3
ATOM      3  C   UNL A   1      37.136  33.525  32.728  1.00  0.00     0.021 C 
BRANCH   3   4
ATOM      4  C   UNL A   1      37.788  32.148  32.812  1.00  0.00     0.116 C 
BRANCH   4   5
ATOM      5  N   UNL A   1      37.758  31.636  34.168  1.00  0.00    -0.351 N 
ATOM      6  C   UNL A   1      38.572  30.726  34.775  1.00  0.00     0.278 C 
ATOM      7  O   UNL A   1      38.337  30.433  35.951  1.00  0.00    -0.268 OA
ATOM      8  H   UNL A   1      37.042  32.001  34.738  1.00  0.00     0.163 HD
BRANCH   6   9
ATOM      9  C   UNL A   1      39.738  30.066  34.029  1.00  0.00     0.273 C 
ATOM     10  C   UNL A   1      45.161  26.564  34.816  1.00  0.00     0.259 C 
ATOM     11  O   UNL A   1      46.168  27.125  34.371  1.00  0.00    -0.269 OA
ATOM     12  N   UNL A   1      44.023  27.295  35.136  1.00  0.00    -0.338 N 
ATOM     13  C   UNL A   1      43.961  28.674  34.679  1.00  0.00     0.120 C 
ATOM     14  C   UNL A   1      42.831  26.861  35.858  1.00  0.00     0.120 C 
ATOM     15  C   UNL A   1      42.889  28.756  33.605  1.00  0.00     0.034 C 
ATOM     16  C   UNL A   1      41.536  27.102  35.056  1.00  0.00     0.034 C 
ATOM     17  C   UNL A   1      41.495  28.379  34.154  1.00  0.00     0.029 C 
ATOM     18  C   UNL A   1      40.538  28.171  32.952  1.00  0.00     0.268 C 
ATOM     19  C   UNL A   1      40.883  29.584  34.914  1.00  0.00     0.088 C 
ATOM     20  N   UNL A   1      39.306  28.860  33.303  1.00  0.00    -0.336 N 
ATOM     21  H   UNL A   1      38.723  28.271  33.900  1.00  0.00     0.346 HD
ATOM     22  H   UNL A   1      38.744  29.086  32.482  1.00  0.00     0.346 HD
BRANCH  10  23
ATOM     23  C   UNL A   1      45.184  25.070  34.869  1.00  0.00     0.108 A 
ATOM     24  C   UNL A   1      44.377  24.772  32.462  1.00  0.00     0.045 C 
ATOM     25  C   UNL A   1      44.888  24.308  33.792  1.00  0.00    -0.031 A 
ATOM     26  C   UNL A   1      45.225  22.899  33.782  1.00  0.00     0.026 A 
ATOM     27  C   UNL A   1      46.064  22.370  34.683  1.00  0.00     0.018 A 
ATOM     28  C   UNL A   1      45.947  24.426  36.000  1.00  0.00     0.263 A 
ATOM     29  C   UNL A   1      46.532  20.952  34.492  1.00  0.00     0.064 C 
ATOM     30  N   UNL A   1      46.478  23.146  35.762  1.00  0.00    -0.315 N 
ATOM     31  O   UNL A   1      46.106  25.029  37.063  1.00  0.00    -0.268 OA
ATOM     32  C   UNL A   1      47.465  22.639  36.705  1.00  0.00     0.153 C 
ENDBRANCH  10  23
ENDBRANCH   6   9
ENDBRANCH   4   5
ENDBRANCH   3   4
ENDBRANCH   2   3
ENDBRANCH   1   2
BRANCH   1  33
ATOM     33  C   UNL A   1      34.806  33.006  29.781  1.00  0.00     0.021 C 
BRANCH  33  34
ATOM     34  C   UNL A   1      34.775  32.619  28.307  1.00  0.00     0.116 C 
BRANCH  34  35
ATOM     35  N   UNL A   1      33.995  31.412  28.080  1.00  0.00    -0.352 N 
ATOM     36  C   UNL A   1      34.427  30.119  27.931  1.00  0.00     0.251 C 
ATOM     37  H   UNL A   1      33.020  31.542  28.027  1.00  0.00     0.163 HD
ATOM     38  O   UNL A   1      33.657  29.252  27.529  1.00  0.00    -0.269 OA
BRANCH  36  39
ATOM     39  C   UNL A   1      35.832  29.782  28.241  1.00  0.00     0.039 A 
ATOM     40  C   UNL A   1      36.801  29.940  27.248  1.00  0.00     0.014 A 
ATOM     41  C   UNL A   1      36.188  29.315  29.510  1.00  0.00     0.014 A 
ATOM     42  C   UNL A   1      38.138  29.674  27.545  1.00  0.00     0.010 A 
ATOM     43  C   UNL A   1      37.530  29.119  29.824  1.00  0.00     0.010 A 
ATOM     44  C   UNL A   1      38.516  29.284  28.842  1.00  0.00    -0.014 A 
BRANCH  44  45
ATOM     45  C   UNL A   1      39.938  29.018  29.168  1.00  0.00     0.031 A 
ATOM     46  C   UNL A   1      40.551  27.686  28.828  1.00  0.00     0.074 A 
ATOM     47  C   UNL A   1      40.673  29.966  29.783  1.00  0.00     0.049 A 
ATOM     48  N   UNL A   1      41.779  27.277  29.012  1.00  0.00    -0.248 NA
ATOM     49  C   UNL A   1      39.667  26.678  28.220  1.00  0.00     0.031 C 
ATOM     50  C   UNL A   1      40.182  31.282  30.198  1.00  0.00     0.029 A 
ATOM     51  N   UNL A   1      41.993  29.973  30.157  1.00  0.00    -0.354 N 
ATOM     52  C   UNL A   1      41.814  25.969  28.544  1.00  0.00     0.074 A 
ATOM     53  C   UNL A   1      40.472  25.631  28.126  1.00  0.00     0.031 C 
ATOM     54  C   UNL A   1      41.197  31.983  30.730  1.00  0.00     0.029 A 
ATOM     55  C   UNL A   1      42.401  31.158  30.721  1.00  0.00     0.049 A 
ATOM     56  H   UNL A   1      42.592  29.200  30.034  1.00  0.00     0.167 HD
ATOM     57  C   UNL A   1      42.874  25.133  28.439  1.00  0.00     0.031 A 
ATOM     58  C   UNL A   1      43.613  31.542  31.172  1.00  0.00     0.031 A 
ATOM     59  C   UNL A   1      44.211  25.477  28.839  1.00  0.00     0.049 A 
ATOM     60  C   UNL A   1      44.769  30.586  31.072  1.00  0.00     0.074 A 
ATOM     61  C   UNL A   1      45.363  24.719  28.723  1.00  0.00     0.029 A 
ATOM     62  N   UNL A   1      44.575  26.675  29.433  1.00  0.00    -0.354 N 
ATOM     63  N   UNL A   1      44.796  29.378  30.561  1.00  0.00    -0.248 NA
ATOM     64  C   UNL A   1      46.059  31.044  31.608  1.00  0.00     0.031 C 
ATOM     65  C   UNL A   1      46.417  25.442  29.290  1.00  0.00     0.029 A 
ATOM     66  C   UNL A   1      45.929  26.667  29.719  1.00  0.00     0.049 A 
ATOM     67  H   UNL A   1      43.962  27.421  29.623  1.00  0.00     0.167 HD
ATOM     68  C   UNL A   1      46.106  28.936  30.704  1.00  0.00     0.074 A 
ATOM     69  C   UNL A   1      46.847  30.012  31.330  1.00  0.00     0.031 C 
ATOM     70  C   UNL A   1      46.646  27.744  30.353  1.00  0.00     0.031 A 
BRANCH  57  71
ATOM     71  C   UNL A   1      42.629  23.770  27.853  1.00  0.00    -0.014 A 
ATOM     72  C   UNL A   1      42.839  23.530  26.482  1.00  0.00     0.010 A 
ATOM     73  C   UNL A   1      42.230  22.707  28.682  1.00  0.00     0.010 A 
ATOM     74  C   UNL A   1      42.620  22.260  25.945  1.00  0.00     0.020 A 
ATOM     75  C   UNL A   1      42.035  21.428  28.152  1.00  0.00     0.020 A 
ATOM     76  C   UNL A   1      42.219  21.217  26.783  1.00  0.00     0.054 A 
BRANCH  76  77
ATOM     77  S   UNL A   1      41.971  19.572  26.061  1.00  0.00     0.124 S 
ATOM     78  O   UNL A   1      42.328  18.697  27.176  1.00  0.00    -0.237 OA
ATOM     79  O   UNL A   1      40.554  19.590  25.706  1.00  0.00    -0.237 OA
ATOM     80  O   UNL A   1      42.894  19.547  24.929  1.00  0.00    -0.744 OA
ENDBRANCH  76  77
ENDBRANCH  57  71
BRANCH  58  81
ATOM     81  C   UNL A   1      43.795  32.906  31.736  1.00  0.00    -0.014 A 
ATOM     82  C   UNL A   1      43.652  33.128  33.118  1.00  0.00     0.010 A 
ATOM     83  C   UNL A   1      44.132  33.986  30.901  1.00  0.00     0.010 A 
ATOM     84  C   UNL A   1      43.835  34.407  33.652  1.00  0.00     0.020 A 
ATOM     85  C   UNL A   1      44.338  35.262  31.435  1.00  0.00     0.020 A 
ATOM     86  C   UNL A   1      44.181  35.465  32.807  1.00  0.00     0.054 A 
BRANCH  86  87
ATOM     87  S   UNL A   1      44.471  37.103  33.531  1.00  0.00     0.124 S 
ATOM     88  O   UNL A   1      43.140  37.462  34.015  1.00  0.00    -0.237 OA
ATOM     89  O   UNL A   1      45.464  36.820  34.563  1.00  0.00    -0.237 OA
ATOM     90  O   UNL A   1      44.961  37.893  32.404  1.00  0.00    -0.744 OA
ENDBRANCH  86  87
ENDBRANCH  58  81
BRANCH  70  91
ATOM     91  C   UNL A   1      48.104  27.525  30.644  1.00  0.00    -0.014 A 
ATOM     92  C   UNL A   1      48.508  26.899  31.836  1.00  0.00     0.010 A 
ATOM     93  C   UNL A   1      49.072  27.856  29.678  1.00  0.00     0.010 A 
ATOM     94  C   UNL A   1      49.857  26.614  32.061  1.00  0.00     0.020 A 
ATOM     95  C   UNL A   1      50.418  27.551  29.889  1.00  0.00     0.020 A 
ATOM     96  C   UNL A   1      50.803  26.935  31.082  1.00  0.00     0.054 A 
BRANCH  96  97
ATOM     97  S   UNL A   1      52.535  26.479  31.368  1.00  0.00     0.124 S 
ATOM     98  O   UNL A   1      52.983  27.535  32.270  1.00  0.00    -0.237 OA
ATOM     99  O   UNL A   1      52.421  25.149  31.963  1.00  0.00    -0.237 OA
ATOM    100  O   UNL A   1      53.126  26.508  30.032  1.00  0.00    -0.744 OA
ENDBRANCH  96  97
ENDBRANCH  70  91
ENDBRANCH  44  45
ENDBRANCH  36  39
ENDBRANCH  34  35
ENDBRANCH  33  34
ENDBRANCH   1  33
TORSDOF 17
ENDMDL
