MODEL 1
REMARK VINA RESULT:     -11.9      0.000      0.000
REMARK SMILES O=C(NCCCCCCNC(=O)c1ccc(-c2c3nc(c(-c4ccc(S(=O)(=O)[O-])cc4)c4ccc([nH]4)c(-c4ccc(S(=O)(=O)[O-])cc4)c4nc(c(-c5ccc(S(=O)(=O)[O-])cc5)c5ccc2[nH]5)C=C4)C=C3)cc1)C1=Cc2cc(Cl)cc(-c3ccccc3)c2O[C@@H]1C(F)(F)F
REMARK SMILES IDX 7 1 6 2 5 3 4 4 3 5 1 6 2 7 73 9 74 10 89 11 75 12 88 13
REMARK SMILES IDX 76 14 87 15 77 16 80 17 78 18 79 19 90 20 91 21 92 22 93 23
REMARK SMILES IDX 81 24 82 25 86 26 83 27 85 28 84 29 8 30 9 31 10 32 11 33
REMARK SMILES IDX 12 35 13 36 14 37 72 38 15 39 71 40 16 41 17 42 18 43 65 44
REMARK SMILES IDX 19 45 70 46 64 47 66 48 20 49 69 50 63 51 62 52 21 54 51 55
REMARK SMILES IDX 32 56 50 57 33 58 36 59 49 60 67 61 34 62 35 63 48 65 68 66
REMARK SMILES IDX 37 67 22 68 23 69 31 70 24 71 30 72 25 73 26 74 27 75 28 76
REMARK SMILES IDX 29 77 52 78 53 79 61 80 54 81 60 82 55 83 56 84 57 85 58 86
REMARK SMILES IDX 59 87 38 88 39 89 47 90 40 91 46 92 41 93 42 94 43 95 44 96
REMARK SMILES IDX 45 97
REMARK H PARENT 3 8 10 34 66 53 36 64
REMARK Flexibility Score: inf
ROOT
ATOM      1  C   UNL A   1      33.668  28.899  24.508  1.00  0.00     0.002 C 
ENDROOT
BRANCH   1   2
ATOM      2  C   UNL A   1      33.137  28.379  23.169  1.00  0.00     0.002 C 
BRANCH   2   3
ATOM      3  C   UNL A   1      31.619  28.246  23.030  1.00  0.00     0.021 C 
BRANCH   3   4
ATOM      4  C   UNL A   1      31.105  27.119  22.137  1.00  0.00     0.116 C 
BRANCH   4   5
ATOM      5  N   UNL A   1      32.123  26.211  21.638  1.00  0.00    -0.352 N 
ATOM      6  O   UNL A   1      33.310  24.318  21.446  1.00  0.00    -0.270 OA
ATOM      7  C   UNL A   1      32.500  24.978  22.096  1.00  0.00     0.251 C 
ATOM      8  H   UNL A   1      32.617  26.531  20.848  1.00  0.00     0.163 HD
BRANCH   7   9
ATOM      9  C   UNL A   1      31.908  24.353  23.319  1.00  0.00     0.067 C 
ATOM     10  C   UNL A   1      31.426  23.098  23.328  1.00  0.00     0.025 C 
ATOM     11  C   UNL A   1      32.546  24.870  24.588  1.00  0.00     0.314 C 
ATOM     12  C   UNL A   1      32.331  22.161  24.044  1.00  0.00     0.019 A 
ATOM     13  O   UNL A   1      33.621  23.991  25.010  1.00  0.00    -0.475 OA
ATOM     14  C   UNL A   1      32.196  20.797  23.771  1.00  0.00     0.032 A 
ATOM     15  C   UNL A   1      33.468  22.650  24.725  1.00  0.00     0.135 A 
ATOM     16  C   UNL A   1      33.230  19.933  24.104  1.00  0.00     0.042 A 
ATOM     17  C   UNL A   1      34.546  21.789  25.003  1.00  0.00     0.026 A 
ATOM     18  Cl  UNL A   1      33.141  18.282  23.628  1.00  0.00    -0.084 Cl
ATOM     19  C   UNL A   1      34.393  20.419  24.701  1.00  0.00     0.033 A 
BRANCH  11  20
ATOM     20  C   UNL A   1      31.510  25.120  25.700  1.00  0.00     0.429 C 
ATOM     21  F   UNL A   1      30.461  24.268  25.605  1.00  0.00    -0.167 F 
ATOM     22  F   UNL A   1      32.054  24.934  26.929  1.00  0.00    -0.167 F 
ATOM     23  F   UNL A   1      31.009  26.378  25.681  1.00  0.00    -0.167 F 
ENDBRANCH  11  20
BRANCH  17  24
ATOM     24  C   UNL A   1      35.884  22.283  25.385  1.00  0.00    -0.015 A 
ATOM     25  C   UNL A   1      36.979  21.400  25.323  1.00  0.00     0.009 A 
ATOM     26  C   UNL A   1      36.133  23.590  25.811  1.00  0.00     0.009 A 
ATOM     27  C   UNL A   1      38.268  21.784  25.687  1.00  0.00     0.001 A 
ATOM     28  C   UNL A   1      37.426  23.984  26.183  1.00  0.00     0.001 A 
ATOM     29  C   UNL A   1      38.490  23.081  26.125  1.00  0.00     0.000 A 
ENDBRANCH  17  24
ENDBRANCH   7   9
ENDBRANCH   4   5
ENDBRANCH   3   4
ENDBRANCH   2   3
ENDBRANCH   1   2
BRANCH   1  30
ATOM     30  C   UNL A   1      34.039  27.849  25.560  1.00  0.00     0.021 C 
BRANCH  30  31
ATOM     31  C   UNL A   1      33.547  28.106  26.978  1.00  0.00     0.116 C 
BRANCH  31  32
ATOM     32  N   UNL A   1      33.404  29.525  27.254  1.00  0.00    -0.352 N 
ATOM     33  C   UNL A   1      34.239  30.405  27.901  1.00  0.00     0.251 C 
ATOM     34  H   UNL A   1      32.566  29.924  26.923  1.00  0.00     0.163 HD
ATOM     35  O   UNL A   1      33.806  31.512  28.208  1.00  0.00    -0.269 OA
BRANCH  33  36
ATOM     36  C   UNL A   1      35.640  30.044  28.239  1.00  0.00     0.039 A 
ATOM     37  C   UNL A   1      36.614  30.125  27.238  1.00  0.00     0.014 A 
ATOM     38  C   UNL A   1      35.996  29.561  29.500  1.00  0.00     0.014 A 
ATOM     39  C   UNL A   1      37.940  29.767  27.512  1.00  0.00     0.010 A 
ATOM     40  C   UNL A   1      37.332  29.290  29.800  1.00  0.00     0.010 A 
ATOM     41  C   UNL A   1      38.316  29.371  28.804  1.00  0.00    -0.014 A 
BRANCH  41  42
ATOM     42  C   UNL A   1      39.721  29.002  29.129  1.00  0.00     0.031 A 
ATOM     43  C   UNL A   1      40.633  30.005  29.791  1.00  0.00     0.074 A 
ATOM     44  C   UNL A   1      40.197  27.790  28.776  1.00  0.00     0.049 A 
ATOM     45  N   UNL A   1      41.904  29.899  30.084  1.00  0.00    -0.248 NA
ATOM     46  C   UNL A   1      40.047  31.310  30.143  1.00  0.00     0.031 C 
ATOM     47  C   UNL A   1      39.430  26.741  28.100  1.00  0.00     0.029 A 
ATOM     48  N   UNL A   1      41.444  27.238  28.932  1.00  0.00    -0.354 N 
ATOM     49  C   UNL A   1      42.274  31.128  30.620  1.00  0.00     0.074 A 
ATOM     50  C   UNL A   1      41.105  31.978  30.577  1.00  0.00     0.031 C 
ATOM     51  C   UNL A   1      40.212  25.662  27.929  1.00  0.00     0.029 A 
ATOM     52  C   UNL A   1      41.547  25.956  28.441  1.00  0.00     0.049 A 
ATOM     53  H   UNL A   1      42.194  27.713  29.357  1.00  0.00     0.167 HD
ATOM     54  C   UNL A   1      43.474  31.510  31.122  1.00  0.00     0.031 A 
ATOM     55  C   UNL A   1      42.598  25.114  28.403  1.00  0.00     0.031 A 
ATOM     56  C   UNL A   1      44.624  30.650  31.200  1.00  0.00     0.049 A 
ATOM     57  C   UNL A   1      43.917  25.560  28.973  1.00  0.00     0.074 A 
ATOM     58  C   UNL A   1      45.861  30.918  31.761  1.00  0.00     0.029 A 
ATOM     59  N   UNL A   1      44.680  29.356  30.705  1.00  0.00    -0.354 N 
ATOM     60  N   UNL A   1      44.226  26.704  29.538  1.00  0.00    -0.248 NA
ATOM     61  C   UNL A   1      45.027  24.598  28.910  1.00  0.00     0.031 C 
ATOM     62  C   UNL A   1      46.681  29.803  31.561  1.00  0.00     0.029 A 
ATOM     63  C   UNL A   1      45.937  28.822  30.926  1.00  0.00     0.049 A 
ATOM     64  H   UNL A   1      43.937  28.888  30.262  1.00  0.00     0.167 HD
ATOM     65  C   UNL A   1      45.556  26.585  29.926  1.00  0.00     0.074 A 
ATOM     66  C   UNL A   1      45.989  25.257  29.542  1.00  0.00     0.031 C 
ATOM     67  C   UNL A   1      46.349  27.495  30.545  1.00  0.00     0.031 A 
BRANCH  54  68
ATOM     68  C   UNL A   1      43.608  32.924  31.625  1.00  0.00    -0.014 A 
ATOM     69  C   UNL A   1      44.005  33.969  30.771  1.00  0.00     0.010 A 
ATOM     70  C   UNL A   1      43.278  33.222  32.960  1.00  0.00     0.010 A 
ATOM     71  C   UNL A   1      44.106  35.277  31.252  1.00  0.00     0.020 A 
ATOM     72  C   UNL A   1      43.349  34.534  33.438  1.00  0.00     0.020 A 
ATOM     73  C   UNL A   1      43.778  35.551  32.583  1.00  0.00     0.054 A 
BRANCH  73  74
ATOM     74  S   UNL A   1      43.884  37.265  33.170  1.00  0.00     0.124 S 
ATOM     75  O   UNL A   1      43.809  38.016  31.920  1.00  0.00    -0.237 OA
ATOM     76  O   UNL A   1      42.717  37.379  34.041  1.00  0.00    -0.237 OA
ATOM     77  O   UNL A   1      45.175  37.319  33.853  1.00  0.00    -0.744 OA
ENDBRANCH  73  74
ENDBRANCH  54  68
BRANCH  55  78
ATOM     78  C   UNL A   1      42.446  23.752  27.820  1.00  0.00    -0.014 A 
ATOM     79  C   UNL A   1      42.192  22.648  28.654  1.00  0.00     0.010 A 
ATOM     80  C   UNL A   1      42.558  23.548  26.433  1.00  0.00     0.010 A 
ATOM     81  C   UNL A   1      42.082  21.362  28.115  1.00  0.00     0.020 A 
ATOM     82  C   UNL A   1      42.419  22.268  25.888  1.00  0.00     0.020 A 
ATOM     83  C   UNL A   1      42.197  21.181  26.735  1.00  0.00     0.054 A 
BRANCH  83  84
ATOM     84  S   UNL A   1      42.017  19.509  26.053  1.00  0.00     0.124 S 
ATOM     85  O   UNL A   1      42.868  19.571  24.869  1.00  0.00    -0.237 OA
ATOM     86  O   UNL A   1      42.508  18.668  27.142  1.00  0.00    -0.237 OA
ATOM     87  O   UNL A   1      40.584  19.400  25.791  1.00  0.00    -0.744 OA
ENDBRANCH  83  84
ENDBRANCH  55  78
BRANCH  67  88
ATOM     88  C   UNL A   1      47.753  27.073  30.887  1.00  0.00    -0.014 A 
ATOM     89  C   UNL A   1      48.013  26.217  31.971  1.00  0.00     0.010 A 
ATOM     90  C   UNL A   1      48.819  27.496  30.073  1.00  0.00     0.010 A 
ATOM     91  C   UNL A   1      49.322  25.817  32.254  1.00  0.00     0.020 A 
ATOM     92  C   UNL A   1      50.125  27.076  30.337  1.00  0.00     0.020 A 
ATOM     93  C   UNL A   1      50.369  26.250  31.435  1.00  0.00     0.054 A 
BRANCH  93  94
ATOM     94  S   UNL A   1      52.053  25.680  31.795  1.00  0.00     0.124 S 
ATOM     95  O   UNL A   1      52.470  26.607  32.843  1.00  0.00    -0.237 OA
ATOM     96  O   UNL A   1      51.840  24.299  32.225  1.00  0.00    -0.237 OA
ATOM     97  O   UNL A   1      52.750  25.827  30.519  1.00  0.00    -0.744 OA
ENDBRANCH  93  94
ENDBRANCH  67  88
ENDBRANCH  41  42
ENDBRANCH  33  36
ENDBRANCH  31  32
ENDBRANCH  30  31
ENDBRANCH   1  30
TORSDOF 18
ENDMDL
MODEL 2
REMARK VINA RESULT:     -11.8      1.442      2.671
REMARK SMILES O=C(NCCCCCCNC(=O)c1ccc(-c2c3nc(c(-c4ccc(S(=O)(=O)[O-])cc4)c4ccc([nH]4)c(-c4ccc(S(=O)(=O)[O-])cc4)c4nc(c(-c5ccc(S(=O)(=O)[O-])cc5)c5ccc2[nH]5)C=C4)C=C3)cc1)C1=Cc2cc(Cl)cc(-c3ccccc3)c2O[C@@H]1C(F)(F)F
REMARK SMILES IDX 7 1 6 2 5 3 4 4 3 5 1 6 2 7 73 9 74 10 89 11 75 12 88 13
REMARK SMILES IDX 76 14 87 15 77 16 80 17 78 18 79 19 90 20 91 21 92 22 93 23
REMARK SMILES IDX 81 24 82 25 86 26 83 27 85 28 84 29 8 30 9 31 10 32 11 33
REMARK SMILES IDX 12 35 13 36 14 37 72 38 15 39 71 40 16 41 17 42 18 43 65 44
REMARK SMILES IDX 19 45 70 46 64 47 66 48 20 49 69 50 63 51 62 52 21 54 51 55
REMARK SMILES IDX 32 56 50 57 33 58 36 59 49 60 67 61 34 62 35 63 48 65 68 66
REMARK SMILES IDX 37 67 22 68 23 69 31 70 24 71 30 72 25 73 26 74 27 75 28 76
REMARK SMILES IDX 29 77 52 78 53 79 61 80 54 81 60 82 55 83 56 84 57 85 58 86
REMARK SMILES IDX 59 87 38 88 39 89 47 90 40 91 46 92 41 93 42 94 43 95 44 96
REMARK SMILES IDX 45 97
REMARK H PARENT 3 8 10 34 66 53 36 64
REMARK Flexibility Score: inf
ROOT
ATOM      1  C   UNL A   1      31.929  28.892  24.532  1.00  0.00     0.002 C 
ENDROOT
BRANCH   1   2
ATOM      2  C   UNL A   1      30.963  27.866  23.930  1.00  0.00     0.002 C 
BRANCH   2   3
ATOM      3  C   UNL A   1      30.540  26.702  24.829  1.00  0.00     0.021 C 
BRANCH   3   4
ATOM      4  C   UNL A   1      31.039  26.729  26.272  1.00  0.00     0.116 C 
BRANCH   4   5
ATOM      5  N   UNL A   1      31.287  25.427  26.867  1.00  0.00    -0.352 N 
ATOM      6  O   UNL A   1      32.311  23.465  27.229  1.00  0.00    -0.270 OA
ATOM      7  C   UNL A   1      32.178  24.453  26.507  1.00  0.00     0.251 C 
ATOM      8  H   UNL A   1      30.727  25.212  27.649  1.00  0.00     0.163 HD
BRANCH   7   9
ATOM      9  C   UNL A   1      33.069  24.572  25.312  1.00  0.00     0.067 C 
ATOM     10  C   UNL A   1      34.386  24.820  25.413  1.00  0.00     0.025 C 
ATOM     11  C   UNL A   1      32.603  23.700  24.168  1.00  0.00     0.314 C 
ATOM     12  C   UNL A   1      35.202  23.611  25.127  1.00  0.00     0.019 A 
ATOM     13  O   UNL A   1      33.289  22.421  24.193  1.00  0.00    -0.475 OA
ATOM     14  C   UNL A   1      36.516  23.590  25.602  1.00  0.00     0.032 A 
ATOM     15  C   UNL A   1      34.583  22.425  24.671  1.00  0.00     0.135 A 
ATOM     16  C   UNL A   1      37.184  22.377  25.699  1.00  0.00     0.042 A 
ATOM     17  C   UNL A   1      35.231  21.187  24.831  1.00  0.00     0.026 A 
ATOM     18  Cl  UNL A   1      38.740  22.323  26.431  1.00  0.00    -0.084 Cl
ATOM     19  C   UNL A   1      36.551  21.191  25.331  1.00  0.00     0.033 A 
BRANCH  11  20
ATOM     20  C   UNL A   1      32.722  24.412  22.807  1.00  0.00     0.429 C 
ATOM     21  F   UNL A   1      33.365  25.599  22.921  1.00  0.00    -0.167 F 
ATOM     22  F   UNL A   1      33.432  23.667  21.923  1.00  0.00    -0.167 F 
ATOM     23  F   UNL A   1      31.520  24.659  22.235  1.00  0.00    -0.167 F 
ENDBRANCH  11  20
BRANCH  17  24
ATOM     24  C   UNL A   1      34.527  19.895  24.709  1.00  0.00    -0.015 A 
ATOM     25  C   UNL A   1      35.284  18.711  24.623  1.00  0.00     0.009 A 
ATOM     26  C   UNL A   1      33.136  19.774  24.671  1.00  0.00     0.009 A 
ATOM     27  C   UNL A   1      34.694  17.457  24.485  1.00  0.00     0.001 A 
ATOM     28  C   UNL A   1      32.534  18.516  24.528  1.00  0.00     0.001 A 
ATOM     29  C   UNL A   1      33.312  17.361  24.431  1.00  0.00     0.000 A 
ENDBRANCH  17  24
ENDBRANCH   7   9
ENDBRANCH   4   5
ENDBRANCH   3   4
ENDBRANCH   2   3
ENDBRANCH   1   2
BRANCH   1  30
ATOM     30  C   UNL A   1      33.411  28.507  24.567  1.00  0.00     0.021 C 
BRANCH  30  31
ATOM     31  C   UNL A   1      34.080  28.507  25.935  1.00  0.00     0.116 C 
BRANCH  31  32
ATOM     32  N   UNL A   1      33.807  29.730  26.672  1.00  0.00    -0.352 N 
ATOM     33  C   UNL A   1      34.526  30.365  27.657  1.00  0.00     0.251 C 
ATOM     34  H   UNL A   1      32.966  30.177  26.425  1.00  0.00     0.163 HD
ATOM     35  O   UNL A   1      33.987  31.270  28.289  1.00  0.00    -0.269 OA
BRANCH  33  36
ATOM     36  C   UNL A   1      35.924  29.977  27.975  1.00  0.00     0.039 A 
ATOM     37  C   UNL A   1      36.219  29.531  29.269  1.00  0.00     0.014 A 
ATOM     38  C   UNL A   1      36.959  30.111  27.047  1.00  0.00     0.014 A 
ATOM     39  C   UNL A   1      37.530  29.182  29.613  1.00  0.00     0.010 A 
ATOM     40  C   UNL A   1      38.248  29.678  27.362  1.00  0.00     0.010 A 
ATOM     41  C   UNL A   1      38.553  29.228  28.654  1.00  0.00    -0.014 A 
BRANCH  41  42
ATOM     42  C   UNL A   1      39.952  28.846  28.988  1.00  0.00     0.031 A 
ATOM     43  C   UNL A   1      40.876  29.848  29.634  1.00  0.00     0.074 A 
ATOM     44  C   UNL A   1      40.413  27.622  28.656  1.00  0.00     0.049 A 
ATOM     45  N   UNL A   1      42.146  29.731  29.931  1.00  0.00    -0.248 NA
ATOM     46  C   UNL A   1      40.307  31.166  29.964  1.00  0.00     0.031 C 
ATOM     47  C   UNL A   1      39.634  26.572  27.995  1.00  0.00     0.029 A 
ATOM     48  N   UNL A   1      41.653  27.056  28.823  1.00  0.00    -0.354 N 
ATOM     49  C   UNL A   1      42.531  30.963  30.448  1.00  0.00     0.074 A 
ATOM     50  C   UNL A   1      41.373  31.827  30.388  1.00  0.00     0.031 C 
ATOM     51  C   UNL A   1      40.402  25.481  27.844  1.00  0.00     0.029 A 
ATOM     52  C   UNL A   1      41.740  25.765  28.354  1.00  0.00     0.049 A 
ATOM     53  H   UNL A   1      42.408  27.529  29.241  1.00  0.00     0.167 HD
ATOM     54  C   UNL A   1      43.735  31.338  30.945  1.00  0.00     0.031 A 
ATOM     55  C   UNL A   1      42.779  24.909  28.331  1.00  0.00     0.031 A 
ATOM     56  C   UNL A   1      44.874  30.464  31.039  1.00  0.00     0.049 A 
ATOM     57  C   UNL A   1      44.103  25.348  28.896  1.00  0.00     0.074 A 
ATOM     58  C   UNL A   1      46.113  30.725  31.598  1.00  0.00     0.029 A 
ATOM     59  N   UNL A   1      44.913  29.162  30.566  1.00  0.00    -0.354 N 
ATOM     60  N   UNL A   1      44.426  26.496  29.443  1.00  0.00    -0.248 NA
ATOM     61  C   UNL A   1      45.200  24.370  28.852  1.00  0.00     0.031 C 
ATOM     62  C   UNL A   1      46.918  29.597  31.418  1.00  0.00     0.029 A 
ATOM     63  C   UNL A   1      46.163  28.614  30.799  1.00  0.00     0.049 A 
ATOM     64  H   UNL A   1      44.165  28.696  30.130  1.00  0.00     0.167 HD
ATOM     65  C   UNL A   1      45.754  26.367  29.834  1.00  0.00     0.074 A 
ATOM     66  C   UNL A   1      46.170  25.027  29.474  1.00  0.00     0.031 C 
ATOM     67  C   UNL A   1      46.558  27.276  30.440  1.00  0.00     0.031 A 
BRANCH  54  68
ATOM     68  C   UNL A   1      43.887  32.758  31.425  1.00  0.00    -0.014 A 
ATOM     69  C   UNL A   1      43.614  33.112  32.758  1.00  0.00     0.010 A 
ATOM     70  C   UNL A   1      44.365  33.743  30.541  1.00  0.00     0.010 A 
ATOM     71  C   UNL A   1      43.780  34.431  33.189  1.00  0.00     0.020 A 
ATOM     72  C   UNL A   1      44.561  35.058  30.975  1.00  0.00     0.020 A 
ATOM     73  C   UNL A   1      44.251  35.396  32.294  1.00  0.00     0.054 A 
BRANCH  73  74
ATOM     74  S   UNL A   1      44.491  37.093  32.891  1.00  0.00     0.124 S 
ATOM     75  O   UNL A   1      45.693  36.957  33.709  1.00  0.00    -0.237 OA
ATOM     76  O   UNL A   1      44.658  37.849  31.652  1.00  0.00    -0.237 OA
ATOM     77  O   UNL A   1      43.263  37.378  33.630  1.00  0.00    -0.744 OA
ENDBRANCH  73  74
ENDBRANCH  54  68
BRANCH  55  78
ATOM     78  C   UNL A   1      42.610  23.540  27.771  1.00  0.00    -0.014 A 
ATOM     79  C   UNL A   1      42.916  23.282  26.422  1.00  0.00     0.010 A 
ATOM     80  C   UNL A   1      42.139  22.489  28.577  1.00  0.00     0.010 A 
ATOM     81  C   UNL A   1      42.727  22.005  25.884  1.00  0.00     0.020 A 
ATOM     82  C   UNL A   1      41.976  21.203  28.050  1.00  0.00     0.020 A 
ATOM     83  C   UNL A   1      42.258  20.974  26.702  1.00  0.00     0.054 A 
BRANCH  83  84
ATOM     84  S   UNL A   1      42.052  19.317  25.991  1.00  0.00     0.124 S 
ATOM     85  O   UNL A   1      42.884  19.395  24.794  1.00  0.00    -0.237 OA
ATOM     86  O   UNL A   1      42.555  18.452  27.055  1.00  0.00    -0.237 OA
ATOM     87  O   UNL A   1      40.614  19.225  25.751  1.00  0.00    -0.744 OA
ENDBRANCH  83  84
ENDBRANCH  55  78
BRANCH  67  88
ATOM     88  C   UNL A   1      47.955  26.842  30.791  1.00  0.00    -0.014 A 
ATOM     89  C   UNL A   1      49.030  27.060  29.911  1.00  0.00     0.010 A 
ATOM     90  C   UNL A   1      48.203  26.258  32.047  1.00  0.00     0.010 A 
ATOM     91  C   UNL A   1      50.324  26.672  30.270  1.00  0.00     0.020 A 
ATOM     92  C   UNL A   1      49.499  25.895  32.419  1.00  0.00     0.020 A 
ATOM     93  C   UNL A   1      50.550  26.092  31.521  1.00  0.00     0.054 A 
BRANCH  93  94
ATOM     94  S   UNL A   1      52.245  25.640  31.982  1.00  0.00     0.124 S 
ATOM     95  O   UNL A   1      52.488  26.506  33.132  1.00  0.00    -0.237 OA
ATOM     96  O   UNL A   1      52.127  24.214  32.281  1.00  0.00    -0.237 OA
ATOM     97  O   UNL A   1      53.025  25.956  30.787  1.00  0.00    -0.744 OA
ENDBRANCH  93  94
ENDBRANCH  67  88
ENDBRANCH  41  42
ENDBRANCH  33  36
ENDBRANCH  31  32
ENDBRANCH  30  31
ENDBRANCH   1  30
TORSDOF 18
ENDMDL
MODEL 3
REMARK VINA RESULT:     -11.8      2.904      9.144
REMARK SMILES O=C(NCCCCCCNC(=O)c1ccc(-c2c3nc(c(-c4ccc(S(=O)(=O)[O-])cc4)c4ccc([nH]4)c(-c4ccc(S(=O)(=O)[O-])cc4)c4nc(c(-c5ccc(S(=O)(=O)[O-])cc5)c5ccc2[nH]5)C=C4)C=C3)cc1)C1=Cc2cc(Cl)cc(-c3ccccc3)c2O[C@@H]1C(F)(F)F
REMARK SMILES IDX 7 1 6 2 5 3 4 4 3 5 1 6 2 7 73 9 74 10 89 11 75 12 88 13
REMARK SMILES IDX 76 14 87 15 77 16 80 17 78 18 79 19 90 20 91 21 92 22 93 23
REMARK SMILES IDX 81 24 82 25 86 26 83 27 85 28 84 29 8 30 9 31 10 32 11 33
REMARK SMILES IDX 12 35 13 36 14 37 72 38 15 39 71 40 16 41 17 42 18 43 65 44
REMARK SMILES IDX 19 45 70 46 64 47 66 48 20 49 69 50 63 51 62 52 21 54 51 55
REMARK SMILES IDX 32 56 50 57 33 58 36 59 49 60 67 61 34 62 35 63 48 65 68 66
REMARK SMILES IDX 37 67 22 68 23 69 31 70 24 71 30 72 25 73 26 74 27 75 28 76
REMARK SMILES IDX 29 77 52 78 53 79 61 80 54 81 60 82 55 83 56 84 57 85 58 86
REMARK SMILES IDX 59 87 38 88 39 89 47 90 40 91 46 92 41 93 42 94 43 95 44 96
REMARK SMILES IDX 45 97
REMARK H PARENT 3 8 10 34 66 53 36 64
REMARK Flexibility Score: inf
ROOT
ATOM      1  C   UNL A   1      35.010  22.331  26.500  1.00  0.00     0.002 C 
ENDROOT
BRANCH   1   2
ATOM      2  C   UNL A   1      33.531  22.093  26.822  1.00  0.00     0.002 C 
BRANCH   2   3
ATOM      3  C   UNL A   1      32.751  21.188  25.866  1.00  0.00     0.021 C 
BRANCH   3   4
ATOM      4  C   UNL A   1      31.414  21.717  25.353  1.00  0.00     0.116 C 
BRANCH   4   5
ATOM      5  N   UNL A   1      30.852  22.821  26.112  1.00  0.00    -0.352 N 
ATOM      6  O   UNL A   1      30.043  24.874  26.511  1.00  0.00    -0.270 OA
ATOM      7  C   UNL A   1      30.653  24.124  25.748  1.00  0.00     0.251 C 
ATOM      8  H   UNL A   1      30.572  22.596  27.030  1.00  0.00     0.163 HD
BRANCH   7   9
ATOM      9  C   UNL A   1      31.070  24.667  24.420  1.00  0.00     0.067 C 
ATOM     10  C   UNL A   1      30.231  25.348  23.620  1.00  0.00     0.025 C 
ATOM     11  C   UNL A   1      32.532  25.055  24.398  1.00  0.00     0.314 C 
ATOM     12  C   UNL A   1      30.530  26.804  23.613  1.00  0.00     0.019 A 
ATOM     13  O   UNL A   1      32.686  26.466  24.700  1.00  0.00    -0.475 OA
ATOM     14  C   UNL A   1      29.515  27.670  23.196  1.00  0.00     0.032 A 
ATOM     15  C   UNL A   1      31.670  27.300  24.284  1.00  0.00     0.135 A 
ATOM     16  C   UNL A   1      29.598  29.017  23.520  1.00  0.00     0.042 A 
ATOM     17  C   UNL A   1      31.724  28.652  24.673  1.00  0.00     0.026 A 
ATOM     18  Cl  UNL A   1      28.279  30.059  23.152  1.00  0.00    -0.084 Cl
ATOM     19  C   UNL A   1      30.678  29.502  24.257  1.00  0.00     0.033 A 
BRANCH  11  20
ATOM     20  C   UNL A   1      33.222  24.649  23.083  1.00  0.00     0.429 C 
ATOM     21  F   UNL A   1      34.304  25.425  22.828  1.00  0.00    -0.167 F 
ATOM     22  F   UNL A   1      33.664  23.368  23.133  1.00  0.00    -0.167 F 
ATOM     23  F   UNL A   1      32.403  24.738  22.008  1.00  0.00    -0.167 F 
ENDBRANCH  11  20
BRANCH  17  24
ATOM     24  C   UNL A   1      32.695  29.160  25.663  1.00  0.00    -0.015 A 
ATOM     25  C   UNL A   1      32.381  30.323  26.391  1.00  0.00     0.009 A 
ATOM     26  C   UNL A   1      33.924  28.548  25.924  1.00  0.00     0.009 A 
ATOM     27  C   UNL A   1      33.252  30.875  27.326  1.00  0.00     0.001 A 
ATOM     28  C   UNL A   1      34.809  29.100  26.861  1.00  0.00     0.001 A 
ATOM     29  C   UNL A   1      34.475  30.263  27.557  1.00  0.00     0.000 A 
ENDBRANCH  17  24
ENDBRANCH   7   9
ENDBRANCH   4   5
ENDBRANCH   3   4
ENDBRANCH   2   3
ENDBRANCH   1   2
BRANCH   1  30
ATOM     30  C   UNL A   1      35.398  23.737  26.032  1.00  0.00     0.021 C 
BRANCH  30  31
ATOM     31  C   UNL A   1      36.584  23.833  25.083  1.00  0.00     0.116 C 
BRANCH  31  32
ATOM     32  N   UNL A   1      37.576  22.805  25.348  1.00  0.00    -0.352 N 
ATOM     33  C   UNL A   1      38.812  22.879  25.948  1.00  0.00     0.251 C 
ATOM     34  H   UNL A   1      37.321  21.902  25.048  1.00  0.00     0.163 HD
ATOM     35  O   UNL A   1      39.567  21.915  25.863  1.00  0.00    -0.269 OA
BRANCH  33  36
ATOM     36  C   UNL A   1      39.250  24.095  26.681  1.00  0.00     0.039 A 
ATOM     37  C   UNL A   1      40.048  25.030  26.013  1.00  0.00     0.014 A 
ATOM     38  C   UNL A   1      38.947  24.295  28.029  1.00  0.00     0.014 A 
ATOM     39  C   UNL A   1      40.503  26.175  26.680  1.00  0.00     0.010 A 
ATOM     40  C   UNL A   1      39.323  25.478  28.668  1.00  0.00     0.010 A 
ATOM     41  C   UNL A   1      40.122  26.422  28.007  1.00  0.00    -0.014 A 
BRANCH  41  42
ATOM     42  C   UNL A   1      40.575  27.639  28.735  1.00  0.00     0.031 A 
ATOM     43  C   UNL A   1      41.950  27.681  29.354  1.00  0.00     0.074 A 
ATOM     44  C   UNL A   1      39.733  28.680  28.893  1.00  0.00     0.049 A 
ATOM     45  N   UNL A   1      42.497  28.616  30.088  1.00  0.00    -0.248 NA
ATOM     46  C   UNL A   1      42.813  26.506  29.146  1.00  0.00     0.031 C 
ATOM     47  C   UNL A   1      38.364  28.753  28.375  1.00  0.00     0.029 A 
ATOM     48  N   UNL A   1      39.903  29.879  29.542  1.00  0.00    -0.354 N 
ATOM     49  C   UNL A   1      43.747  28.130  30.455  1.00  0.00     0.074 A 
ATOM     50  C   UNL A   1      43.864  26.801  29.896  1.00  0.00     0.031 C 
ATOM     51  C   UNL A   1      37.832  29.943  28.697  1.00  0.00     0.029 A 
ATOM     52  C   UNL A   1      38.801  30.701  29.482  1.00  0.00     0.049 A 
ATOM     53  H   UNL A   1      40.734  30.126  30.006  1.00  0.00     0.167 HD
ATOM     54  C   UNL A   1      44.720  28.739  31.175  1.00  0.00     0.031 A 
ATOM     55  C   UNL A   1      38.591  31.925  30.004  1.00  0.00     0.031 A 
ATOM     56  C   UNL A   1      44.616  30.077  31.697  1.00  0.00     0.049 A 
ATOM     57  C   UNL A   1      39.690  32.583  30.794  1.00  0.00     0.074 A 
ATOM     58  C   UNL A   1      45.574  30.811  32.372  1.00  0.00     0.029 A 
ATOM     59  N   UNL A   1      43.489  30.878  31.600  1.00  0.00    -0.354 N 
ATOM     60  N   UNL A   1      40.891  32.132  31.070  1.00  0.00    -0.248 NA
ATOM     61  C   UNL A   1      39.409  33.922  31.334  1.00  0.00     0.031 C 
ATOM     62  C   UNL A   1      45.010  32.041  32.728  1.00  0.00     0.029 A 
ATOM     63  C   UNL A   1      43.721  32.092  32.224  1.00  0.00     0.049 A 
ATOM     64  H   UNL A   1      42.650  30.623  31.154  1.00  0.00     0.167 HD
ATOM     65  C   UNL A   1      41.518  33.144  31.789  1.00  0.00     0.074 A 
ATOM     66  C   UNL A   1      40.570  34.234  31.894  1.00  0.00     0.031 C 
ATOM     67  C   UNL A   1      42.768  33.169  32.313  1.00  0.00     0.031 A 
BRANCH  54  68
ATOM     68  C   UNL A   1      45.984  27.967  31.448  1.00  0.00    -0.014 A 
ATOM     69  C   UNL A   1      46.115  27.161  32.593  1.00  0.00     0.010 A 
ATOM     70  C   UNL A   1      47.036  28.003  30.515  1.00  0.00     0.010 A 
ATOM     71  C   UNL A   1      47.288  26.436  32.819  1.00  0.00     0.020 A 
ATOM     72  C   UNL A   1      48.201  27.256  30.722  1.00  0.00     0.020 A 
ATOM     73  C   UNL A   1      48.324  26.490  31.882  1.00  0.00     0.054 A 
BRANCH  73  74
ATOM     74  S   UNL A   1      49.822  25.511  32.184  1.00  0.00     0.124 S 
ATOM     75  O   UNL A   1      50.726  26.510  32.747  1.00  0.00    -0.237 OA
ATOM     76  O   UNL A   1      49.355  24.490  33.118  1.00  0.00    -0.237 OA
ATOM     77  O   UNL A   1      50.188  25.017  30.858  1.00  0.00    -0.744 OA
ENDBRANCH  73  74
ENDBRANCH  54  68
BRANCH  55  78
ATOM     78  C   UNL A   1      37.295  32.623  29.782  1.00  0.00    -0.014 A 
ATOM     79  C   UNL A   1      37.152  33.534  28.719  1.00  0.00     0.010 A 
ATOM     80  C   UNL A   1      36.199  32.387  30.631  1.00  0.00     0.010 A 
ATOM     81  C   UNL A   1      35.946  34.217  28.527  1.00  0.00     0.020 A 
ATOM     82  C   UNL A   1      34.983  33.046  30.424  1.00  0.00     0.020 A 
ATOM     83  C   UNL A   1      34.869  33.968  29.382  1.00  0.00     0.054 A 
BRANCH  83  84
ATOM     84  S   UNL A   1      33.304  34.840  29.094  1.00  0.00     0.124 S 
ATOM     85  O   UNL A   1      32.745  34.911  30.440  1.00  0.00    -0.237 OA
ATOM     86  O   UNL A   1      33.749  36.109  28.525  1.00  0.00    -0.237 OA
ATOM     87  O   UNL A   1      32.593  33.965  28.165  1.00  0.00    -0.744 OA
ENDBRANCH  83  84
ENDBRANCH  55  78
BRANCH  67  88
ATOM     88  C   UNL A   1      43.202  34.429  33.013  1.00  0.00    -0.014 A 
ATOM     89  C   UNL A   1      43.742  35.512  32.297  1.00  0.00     0.010 A 
ATOM     90  C   UNL A   1      43.010  34.550  34.401  1.00  0.00     0.010 A 
ATOM     91  C   UNL A   1      44.114  36.682  32.964  1.00  0.00     0.020 A 
ATOM     92  C   UNL A   1      43.355  35.729  35.066  1.00  0.00     0.020 A 
ATOM     93  C   UNL A   1      43.918  36.783  34.344  1.00  0.00     0.054 A 
BRANCH  93  94
ATOM     94  S   UNL A   1      44.365  38.330  35.180  1.00  0.00     0.124 S 
ATOM     95  O   UNL A   1      45.815  38.357  35.012  1.00  0.00    -0.237 OA
ATOM     96  O   UNL A   1      43.624  39.332  34.417  1.00  0.00    -0.237 OA
ATOM     97  O   UNL A   1      43.898  38.131  36.550  1.00  0.00    -0.744 OA
ENDBRANCH  93  94
ENDBRANCH  67  88
ENDBRANCH  41  42
ENDBRANCH  33  36
ENDBRANCH  31  32
ENDBRANCH  30  31
ENDBRANCH   1  30
TORSDOF 18
ENDMDL
