MODEL 1
REMARK VINA RESULT:     -11.2      0.000      0.000
REMARK SMILES O=C(C[C@H](Cc1ccc(Cl)cc1)C(=O)Nc1cc(Cl)ccc1Cl)NCCCCCCNC(=O)c1ccc(-c2c3nc(c(-c4ccc(S(=O)(=O)[O-])cc4)c4ccc([nH]4)c(-c4ccc(S(=O)(=O)[O-])cc4)c4nc(c(-c5ccc(S(=O)(=O)[O-])cc5)c5ccc2[nH]5)C=C4)C=C3)cc1
REMARK SMILES IDX 27 1 26 2 25 3 24 4 1 5 2 6 3 8 4 9 13 10 14 11 15 12 16 14
REMARK SMILES IDX 17 15 22 16 18 17 21 18 23 19 19 20 20 21 5 22 6 23 7 24
REMARK SMILES IDX 12 25 8 26 11 27 9 28 10 29 28 30 29 31 30 32 31 33 32 34
REMARK SMILES IDX 33 36 34 37 35 38 93 39 36 40 92 41 37 42 38 43 39 44 86 45
REMARK SMILES IDX 40 46 91 47 85 48 87 49 41 50 90 51 84 52 83 53 42 55 72 56
REMARK SMILES IDX 53 57 71 58 54 59 57 60 70 61 88 62 55 63 56 64 69 66 89 67
REMARK SMILES IDX 58 68 43 69 44 70 52 71 45 72 51 73 46 74 47 75 48 76 49 77
REMARK SMILES IDX 50 78 73 79 74 80 82 81 75 82 81 83 76 84 77 85 78 86 79 87
REMARK SMILES IDX 80 88 59 89 60 90 68 91 61 92 67 93 62 94 63 95 64 96 65 97
REMARK SMILES IDX 66 98
REMARK H PARENT 24 7 15 13 31 35 87 54 57 65
REMARK Flexibility Score: inf
ROOT
ATOM      1  C   UNL A   1      35.923  33.178  28.160  1.00  0.00     0.002 C 
ENDROOT
BRANCH   1   2
ATOM      2  C   UNL A   1      35.029  32.045  28.682  1.00  0.00     0.021 C 
BRANCH   2   3
ATOM      3  C   UNL A   1      33.983  31.577  27.670  1.00  0.00     0.116 C 
BRANCH   3   4
ATOM      4  N   UNL A   1      34.430  30.383  26.979  1.00  0.00    -0.356 N 
ATOM      5  O   UNL A   1      32.344  29.881  26.206  1.00  0.00    -0.275 OA
ATOM      6  C   UNL A   1      33.535  29.598  26.310  1.00  0.00     0.220 C 
ATOM      7  H   UNL A   1      35.383  30.139  26.993  1.00  0.00     0.163 HD
BRANCH   6   8
ATOM      8  C   UNL A   1      34.068  28.284  25.802  1.00  0.00     0.113 C 
BRANCH   8   9
ATOM      9  C   UNL A   1      33.161  27.374  24.943  1.00  0.00     0.092 C 
BRANCH   9  10
ATOM     10  C   UNL A   1      33.318  27.959  23.444  1.00  0.00     0.228 C 
ATOM     11  O   UNL A   1      34.394  28.475  23.120  1.00  0.00    -0.274 OA
ATOM     12  N   UNL A   1      32.367  27.737  22.434  1.00  0.00    -0.324 N 
ATOM     13  H   UNL A   1      32.697  27.561  21.523  1.00  0.00     0.169 HD
BRANCH  12  14
ATOM     14  C   UNL A   1      30.976  27.752  22.639  1.00  0.00     0.061 A 
ATOM     15  C   UNL A   1      30.345  29.357  22.502  1.00  0.00     0.048 A 
ATOM     16  C   UNL A   1      29.882  26.502  23.171  1.00  0.00     0.064 A 
ATOM     17  C   UNL A   1      28.467  29.839  23.054  1.00  0.00     0.043 A 
ATOM     18  C   UNL A   1      28.173  26.818  23.644  1.00  0.00     0.024 A 
ATOM     19  Cl  UNL A   1      30.500  24.907  23.396  1.00  0.00    -0.082 Cl
ATOM     20  Cl  UNL A   1      27.458  31.325  23.145  1.00  0.00    -0.084 Cl
ATOM     21  C   UNL A   1      27.433  28.447  23.606  1.00  0.00     0.022 A 
ENDBRANCH  12  14
ENDBRANCH   9  10
BRANCH   9  22
ATOM     22  C   UNL A   1      32.971  25.788  25.337  1.00  0.00     0.049 C 
BRANCH  22  23
ATOM     23  C   UNL A   1      34.220  24.698  25.178  1.00  0.00    -0.047 A 
ATOM     24  C   UNL A   1      34.194  24.382  23.464  1.00  0.00     0.005 A 
ATOM     25  C   UNL A   1      34.103  23.391  26.420  1.00  0.00     0.005 A 
ATOM     26  C   UNL A   1      33.665  22.779  22.915  1.00  0.00     0.021 A 
ATOM     27  C   UNL A   1      33.661  21.712  26.011  1.00  0.00     0.021 A 
ATOM     28  C   UNL A   1      33.348  21.302  24.266  1.00  0.00     0.041 A 
ATOM     29  Cl  UNL A   1      32.795  19.570  24.291  1.00  0.00    -0.084 Cl
ENDBRANCH  22  23
ENDBRANCH   9  22
ENDBRANCH   8   9
ENDBRANCH   6   8
ENDBRANCH   3   4
ENDBRANCH   2   3
ENDBRANCH   1   2
BRANCH   1  30
ATOM     30  C   UNL A   1      36.902  33.742  29.194  1.00  0.00     0.002 C 
BRANCH  30  31
ATOM     31  C   UNL A   1      36.319  33.894  30.600  1.00  0.00     0.021 C 
BRANCH  31  32
ATOM     32  C   UNL A   1      37.058  33.100  31.670  1.00  0.00     0.116 C 
BRANCH  32  33
ATOM     33  N   UNL A   1      36.457  31.793  31.887  1.00  0.00    -0.352 N 
ATOM     34  C   UNL A   1      36.890  30.558  31.475  1.00  0.00     0.251 C 
ATOM     35  H   UNL A   1      35.618  31.795  32.403  1.00  0.00     0.163 HD
ATOM     36  O   UNL A   1      36.143  29.586  31.553  1.00  0.00    -0.269 OA
BRANCH  34  37
ATOM     37  C   UNL A   1      38.249  30.411  30.913  1.00  0.00     0.039 A 
ATOM     38  C   UNL A   1      39.325  30.241  31.786  1.00  0.00     0.014 A 
ATOM     39  C   UNL A   1      38.455  30.417  29.531  1.00  0.00     0.014 A 
ATOM     40  C   UNL A   1      40.598  29.998  31.268  1.00  0.00     0.010 A 
ATOM     41  C   UNL A   1      39.706  30.091  29.018  1.00  0.00     0.010 A 
ATOM     42  C   UNL A   1      40.789  29.869  29.881  1.00  0.00    -0.014 A 
BRANCH  42  43
ATOM     43  C   UNL A   1      42.103  29.455  29.327  1.00  0.00     0.031 A 
ATOM     44  C   UNL A   1      43.215  30.453  29.157  1.00  0.00     0.074 A 
ATOM     45  C   UNL A   1      42.273  28.182  28.916  1.00  0.00     0.049 A 
ATOM     46  N   UNL A   1      44.408  30.277  28.648  1.00  0.00    -0.248 NA
ATOM     47  C   UNL A   1      42.943  31.831  29.594  1.00  0.00     0.031 C 
ATOM     48  C   UNL A   1      41.256  27.131  28.987  1.00  0.00     0.029 A 
ATOM     49  N   UNL A   1      43.356  27.558  28.349  1.00  0.00    -0.354 N 
ATOM     50  C   UNL A   1      45.029  31.519  28.702  1.00  0.00     0.074 A 
ATOM     51  C   UNL A   1      44.057  32.451  29.233  1.00  0.00     0.031 C 
ATOM     52  C   UNL A   1      41.771  25.988  28.508  1.00  0.00     0.029 A 
ATOM     53  C   UNL A   1      43.130  26.237  28.041  1.00  0.00     0.049 A 
ATOM     54  H   UNL A   1      44.212  28.012  28.180  1.00  0.00     0.167 HD
ATOM     55  C   UNL A   1      46.298  31.849  28.359  1.00  0.00     0.031 A 
ATOM     56  C   UNL A   1      43.914  25.329  27.427  1.00  0.00     0.031 A 
ATOM     57  C   UNL A   1      47.248  30.921  27.802  1.00  0.00     0.049 A 
ATOM     58  C   UNL A   1      45.299  25.728  27.002  1.00  0.00     0.074 A 
ATOM     59  C   UNL A   1      48.568  31.146  27.452  1.00  0.00     0.029 A 
ATOM     60  N   UNL A   1      46.977  29.594  27.494  1.00  0.00    -0.354 N 
ATOM     61  N   UNL A   1      45.897  26.888  27.133  1.00  0.00    -0.248 NA
ATOM     62  C   UNL A   1      46.118  24.695  26.355  1.00  0.00     0.031 C 
ATOM     63  C   UNL A   1      49.069  29.982  26.861  1.00  0.00     0.029 A 
ATOM     64  C   UNL A   1      48.091  29.002  26.920  1.00  0.00     0.049 A 
ATOM     65  H   UNL A   1      46.119  29.140  27.660  1.00  0.00     0.167 HD
ATOM     66  C   UNL A   1      47.170  26.721  26.600  1.00  0.00     0.074 A 
ATOM     67  C   UNL A   1      47.262  25.339  26.169  1.00  0.00     0.031 C 
ATOM     68  C   UNL A   1      48.169  27.629  26.478  1.00  0.00     0.031 A 
BRANCH  55  69
ATOM     69  C   UNL A   1      46.716  33.287  28.554  1.00  0.00    -0.014 A 
ATOM     70  C   UNL A   1      47.280  33.726  29.766  1.00  0.00     0.010 A 
ATOM     71  C   UNL A   1      46.552  34.212  27.506  1.00  0.00     0.010 A 
ATOM     72  C   UNL A   1      47.610  35.072  29.950  1.00  0.00     0.020 A 
ATOM     73  C   UNL A   1      46.919  35.551  27.672  1.00  0.00     0.020 A 
ATOM     74  C   UNL A   1      47.422  35.977  28.902  1.00  0.00     0.054 A 
BRANCH  74  75
ATOM     75  S   UNL A   1      47.848  37.718  29.176  1.00  0.00     0.124 S 
ATOM     76  O   UNL A   1      46.536  38.360  29.137  1.00  0.00    -0.237 OA
ATOM     77  O   UNL A   1      48.492  37.685  30.487  1.00  0.00    -0.237 OA
ATOM     78  O   UNL A   1      48.732  38.042  28.058  1.00  0.00    -0.744 OA
ENDBRANCH  74  75
ENDBRANCH  55  69
BRANCH  56  79
ATOM     79  C   UNL A   1      43.383  23.962  27.164  1.00  0.00    -0.014 A 
ATOM     80  C   UNL A   1      43.444  22.959  28.145  1.00  0.00     0.010 A 
ATOM     81  C   UNL A   1      42.764  23.676  25.932  1.00  0.00     0.010 A 
ATOM     82  C   UNL A   1      42.897  21.695  27.900  1.00  0.00     0.020 A 
ATOM     83  C   UNL A   1      42.185  22.427  25.696  1.00  0.00     0.020 A 
ATOM     84  C   UNL A   1      42.259  21.443  26.681  1.00  0.00     0.054 A 
BRANCH  84  85
ATOM     85  S   UNL A   1      41.480  19.825  26.420  1.00  0.00     0.124 S 
ATOM     86  O   UNL A   1      41.674  19.180  27.714  1.00  0.00    -0.237 OA
ATOM     87  O   UNL A   1      40.103  20.192  26.095  1.00  0.00    -0.237 OA
ATOM     88  O   UNL A   1      42.241  19.252  25.313  1.00  0.00    -0.744 OA
ENDBRANCH  84  85
ENDBRANCH  56  79
BRANCH  68  89
ATOM     89  C   UNL A   1      49.466  27.160  25.868  1.00  0.00    -0.014 A 
ATOM     90  C   UNL A   1      49.741  27.345  24.501  1.00  0.00     0.010 A 
ATOM     91  C   UNL A   1      50.453  26.581  26.689  1.00  0.00     0.010 A 
ATOM     92  C   UNL A   1      50.965  26.938  23.963  1.00  0.00     0.020 A 
ATOM     93  C   UNL A   1      51.691  26.206  26.163  1.00  0.00     0.020 A 
ATOM     94  C   UNL A   1      51.935  26.378  24.799  1.00  0.00     0.054 A 
BRANCH  94  95
ATOM     95  S   UNL A   1      53.536  25.915  24.085  1.00  0.00     0.124 S 
ATOM     96  O   UNL A   1      54.419  26.951  24.614  1.00  0.00    -0.237 OA
ATOM     97  O   UNL A   1      53.748  24.574  24.624  1.00  0.00    -0.237 OA
ATOM     98  O   UNL A   1      53.305  25.972  22.643  1.00  0.00    -0.744 OA
ENDBRANCH  94  95
ENDBRANCH  68  89
ENDBRANCH  42  43
ENDBRANCH  34  37
ENDBRANCH  32  33
ENDBRANCH  31  32
ENDBRANCH  30  31
ENDBRANCH   1  30
TORSDOF 21
ENDMDL
MODEL 2
REMARK VINA RESULT:     -10.9      5.255      8.854
REMARK SMILES O=C(C[C@H](Cc1ccc(Cl)cc1)C(=O)Nc1cc(Cl)ccc1Cl)NCCCCCCNC(=O)c1ccc(-c2c3nc(c(-c4ccc(S(=O)(=O)[O-])cc4)c4ccc([nH]4)c(-c4ccc(S(=O)(=O)[O-])cc4)c4nc(c(-c5ccc(S(=O)(=O)[O-])cc5)c5ccc2[nH]5)C=C4)C=C3)cc1
REMARK SMILES IDX 27 1 26 2 25 3 24 4 1 5 2 6 3 8 4 9 13 10 14 11 15 12 16 14
REMARK SMILES IDX 17 15 22 16 18 17 21 18 23 19 19 20 20 21 5 22 6 23 7 24
REMARK SMILES IDX 12 25 8 26 11 27 9 28 10 29 28 30 29 31 30 32 31 33 32 34
REMARK SMILES IDX 33 36 34 37 35 38 93 39 36 40 92 41 37 42 38 43 39 44 86 45
REMARK SMILES IDX 40 46 91 47 85 48 87 49 41 50 90 51 84 52 83 53 42 55 72 56
REMARK SMILES IDX 53 57 71 58 54 59 57 60 70 61 88 62 55 63 56 64 69 66 89 67
REMARK SMILES IDX 58 68 43 69 44 70 52 71 45 72 51 73 46 74 47 75 48 76 49 77
REMARK SMILES IDX 50 78 73 79 74 80 82 81 75 82 81 83 76 84 77 85 78 86 79 87
REMARK SMILES IDX 80 88 59 89 60 90 68 91 61 92 67 93 62 94 63 95 64 96 65 97
REMARK SMILES IDX 66 98
REMARK H PARENT 24 7 15 13 31 35 87 54 57 65
REMARK Flexibility Score: inf
ROOT
ATOM      1  C   UNL A   1      37.718  32.411  31.920  1.00  0.00     0.002 C 
ENDROOT
BRANCH   1   2
ATOM      2  C   UNL A   1      36.738  31.955  33.009  1.00  0.00     0.021 C 
BRANCH   2   3
ATOM      3  C   UNL A   1      37.404  31.711  34.365  1.00  0.00     0.116 C 
BRANCH   3   4
ATOM      4  N   UNL A   1      38.737  31.167  34.196  1.00  0.00    -0.356 N 
ATOM      5  O   UNL A   1      38.742  30.169  36.246  1.00  0.00    -0.275 OA
ATOM      6  C   UNL A   1      39.320  30.444  35.197  1.00  0.00     0.220 C 
ATOM      7  H   UNL A   1      39.224  31.320  33.354  1.00  0.00     0.163 HD
BRANCH   6   8
ATOM      8  C   UNL A   1      40.772  30.101  34.998  1.00  0.00     0.113 C 
BRANCH   8   9
ATOM      9  C   UNL A   1      41.218  28.622  35.034  1.00  0.00     0.092 C 
BRANCH   9  10
ATOM     10  C   UNL A   1      41.341  28.207  33.477  1.00  0.00     0.228 C 
ATOM     11  O   UNL A   1      40.319  27.864  32.873  1.00  0.00    -0.274 OA
ATOM     12  N   UNL A   1      42.512  28.402  32.725  1.00  0.00    -0.324 N 
ATOM     13  H   UNL A   1      42.415  28.705  31.793  1.00  0.00     0.169 HD
BRANCH  12  14
ATOM     14  C   UNL A   1      43.813  28.193  33.216  1.00  0.00     0.061 A 
ATOM     15  C   UNL A   1      44.327  26.564  32.939  1.00  0.00     0.048 A 
ATOM     16  C   UNL A   1      44.853  29.210  34.179  1.00  0.00     0.064 A 
ATOM     17  C   UNL A   1      45.983  25.786  33.787  1.00  0.00     0.043 A 
ATOM     18  C   UNL A   1      46.376  28.626  34.944  1.00  0.00     0.024 A 
ATOM     19  Cl  UNL A   1      44.330  30.813  34.542  1.00  0.00    -0.082 Cl
ATOM     20  Cl  UNL A   1      46.820  24.196  33.830  1.00  0.00    -0.084 Cl
ATOM     21  C   UNL A   1      46.971  26.947  34.781  1.00  0.00     0.022 A 
ENDBRANCH  12  14
ENDBRANCH   9  10
BRANCH   9  22
ATOM     22  C   UNL A   1      42.187  28.080  36.250  1.00  0.00     0.049 C 
BRANCH  22  23
ATOM     23  C   UNL A   1      41.902  26.622  37.003  1.00  0.00    -0.047 A 
ATOM     24  C   UNL A   1      43.444  26.308  37.752  1.00  0.00     0.005 A 
ATOM     25  C   UNL A   1      41.100  25.457  35.879  1.00  0.00     0.005 A 
ATOM     26  C   UNL A   1      44.432  24.978  37.112  1.00  0.00     0.021 A 
ATOM     27  C   UNL A   1      41.938  24.030  35.214  1.00  0.00     0.021 A 
ATOM     28  C   UNL A   1      43.660  23.726  35.719  1.00  0.00     0.041 A 
ATOM     29  Cl  UNL A   1      44.185  22.294  34.729  1.00  0.00    -0.084 Cl
ENDBRANCH  22  23
ENDBRANCH   9  22
ENDBRANCH   8   9
ENDBRANCH   6   8
ENDBRANCH   3   4
ENDBRANCH   2   3
ENDBRANCH   1   2
BRANCH   1  30
ATOM     30  C   UNL A   1      37.083  33.250  30.807  1.00  0.00     0.002 C 
BRANCH  30  31
ATOM     31  C   UNL A   1      35.626  32.899  30.502  1.00  0.00     0.021 C 
BRANCH  31  32
ATOM     32  C   UNL A   1      35.246  33.039  29.033  1.00  0.00     0.116 C 
BRANCH  32  33
ATOM     33  N   UNL A   1      34.306  32.009  28.617  1.00  0.00    -0.352 N 
ATOM     34  C   UNL A   1      34.549  30.718  28.221  1.00  0.00     0.251 C 
ATOM     35  H   UNL A   1      33.358  32.278  28.619  1.00  0.00     0.163 HD
ATOM     36  O   UNL A   1      33.659  30.060  27.689  1.00  0.00    -0.269 OA
BRANCH  34  37
ATOM     37  C   UNL A   1      35.894  30.137  28.415  1.00  0.00     0.039 A 
ATOM     38  C   UNL A   1      36.797  30.155  27.350  1.00  0.00     0.014 A 
ATOM     39  C   UNL A   1      36.269  29.600  29.649  1.00  0.00     0.014 A 
ATOM     40  C   UNL A   1      38.102  29.704  27.549  1.00  0.00     0.010 A 
ATOM     41  C   UNL A   1      37.592  29.231  29.869  1.00  0.00     0.010 A 
ATOM     42  C   UNL A   1      38.525  29.287  28.823  1.00  0.00    -0.014 A 
BRANCH  42  43
ATOM     43  C   UNL A   1      39.949  28.957  29.084  1.00  0.00     0.031 A 
ATOM     44  C   UNL A   1      40.897  30.000  29.608  1.00  0.00     0.074 A 
ATOM     45  C   UNL A   1      40.404  27.723  28.787  1.00  0.00     0.049 A 
ATOM     46  N   UNL A   1      42.180  29.900  29.848  1.00  0.00    -0.248 NA
ATOM     47  C   UNL A   1      40.336  31.333  29.874  1.00  0.00     0.031 C 
ATOM     48  C   UNL A   1      39.593  26.636  28.232  1.00  0.00     0.029 A 
ATOM     49  N   UNL A   1      41.658  27.176  28.899  1.00  0.00    -0.354 N 
ATOM     50  C   UNL A   1      42.581  31.154  30.292  1.00  0.00     0.074 A 
ATOM     51  C   UNL A   1      41.418  32.013  30.225  1.00  0.00     0.031 C 
ATOM     52  C   UNL A   1      40.363  25.549  28.078  1.00  0.00     0.029 A 
ATOM     53  C   UNL A   1      41.731  25.874  28.463  1.00  0.00     0.049 A 
ATOM     54  H   UNL A   1      42.431  27.669  29.258  1.00  0.00     0.167 HD
ATOM     55  C   UNL A   1      43.800  31.549  30.732  1.00  0.00     0.031 A 
ATOM     56  C   UNL A   1      42.783  25.039  28.358  1.00  0.00     0.031 A 
ATOM     57  C   UNL A   1      44.959  30.694  30.766  1.00  0.00     0.049 A 
ATOM     58  C   UNL A   1      44.140  25.511  28.798  1.00  0.00     0.074 A 
ATOM     59  C   UNL A   1      46.231  30.987  31.225  1.00  0.00     0.029 A 
ATOM     60  N   UNL A   1      44.995  29.385  30.305  1.00  0.00    -0.354 N 
ATOM     61  N   UNL A   1      44.483  26.678  29.290  1.00  0.00    -0.248 NA
ATOM     62  C   UNL A   1      45.247  24.555  28.679  1.00  0.00     0.031 C 
ATOM     63  C   UNL A   1      47.054  29.885  30.969  1.00  0.00     0.029 A 
ATOM     64  C   UNL A   1      46.276  28.872  30.430  1.00  0.00     0.049 A 
ATOM     65  H   UNL A   1      44.223  28.893  29.942  1.00  0.00     0.167 HD
ATOM     66  C   UNL A   1      45.845  26.591  29.555  1.00  0.00     0.074 A 
ATOM     67  C   UNL A   1      46.254  25.248  29.193  1.00  0.00     0.031 C 
ATOM     68  C   UNL A   1      46.679  27.538  30.052  1.00  0.00     0.031 A 
BRANCH  55  69
ATOM     69  C   UNL A   1      43.940  32.982  31.188  1.00  0.00    -0.014 A 
ATOM     70  C   UNL A   1      43.561  33.378  32.483  1.00  0.00     0.010 A 
ATOM     71  C   UNL A   1      44.471  33.947  30.310  1.00  0.00     0.010 A 
ATOM     72  C   UNL A   1      43.645  34.719  32.870  1.00  0.00     0.020 A 
ATOM     73  C   UNL A   1      44.596  35.282  30.707  1.00  0.00     0.020 A 
ATOM     74  C   UNL A   1      44.158  35.663  31.976  1.00  0.00     0.054 A 
BRANCH  74  75
ATOM     75  S   UNL A   1      44.243  37.396  32.504  1.00  0.00     0.124 S 
ATOM     76  O   UNL A   1      43.801  38.099  31.302  1.00  0.00    -0.237 OA
ATOM     77  O   UNL A   1      43.315  37.432  33.630  1.00  0.00    -0.237 OA
ATOM     78  O   UNL A   1      45.650  37.586  32.851  1.00  0.00    -0.744 OA
ENDBRANCH  74  75
ENDBRANCH  55  69
BRANCH  56  79
ATOM     79  C   UNL A   1      42.581  23.678  27.786  1.00  0.00    -0.014 A 
ATOM     80  C   UNL A   1      42.800  23.424  26.421  1.00  0.00     0.010 A 
ATOM     81  C   UNL A   1      42.211  22.611  28.628  1.00  0.00     0.010 A 
ATOM     82  C   UNL A   1      42.652  22.131  25.910  1.00  0.00     0.020 A 
ATOM     83  C   UNL A   1      42.098  21.312  28.129  1.00  0.00     0.020 A 
ATOM     84  C   UNL A   1      42.315  21.081  26.770  1.00  0.00     0.054 A 
BRANCH  84  85
ATOM     85  S   UNL A   1      42.217  19.398  26.101  1.00  0.00     0.124 S 
ATOM     86  O   UNL A   1      40.804  19.289  25.754  1.00  0.00    -0.237 OA
ATOM     87  O   UNL A   1      43.145  19.457  24.972  1.00  0.00    -0.237 OA
ATOM     88  O   UNL A   1      42.656  18.559  27.214  1.00  0.00    -0.744 OA
ENDBRANCH  84  85
ENDBRANCH  56  79
BRANCH  68  89
ATOM     89  C   UNL A   1      48.125  27.156  30.254  1.00  0.00    -0.014 A 
ATOM     90  C   UNL A   1      49.111  27.499  29.312  1.00  0.00     0.010 A 
ATOM     91  C   UNL A   1      48.511  26.498  31.437  1.00  0.00     0.010 A 
ATOM     92  C   UNL A   1      50.451  27.170  29.538  1.00  0.00     0.020 A 
ATOM     93  C   UNL A   1      49.853  26.200  31.683  1.00  0.00     0.020 A 
ATOM     94  C   UNL A   1      50.814  26.528  30.725  1.00  0.00     0.054 A 
BRANCH  94  95
ATOM     95  S   UNL A   1      52.567  26.168  31.018  1.00  0.00     0.124 S 
ATOM     96  O   UNL A   1      53.094  26.088  29.659  1.00  0.00    -0.237 OA
ATOM     97  O   UNL A   1      53.003  27.325  31.795  1.00  0.00    -0.237 OA
ATOM     98  O   UNL A   1      52.546  24.904  31.751  1.00  0.00    -0.744 OA
ENDBRANCH  94  95
ENDBRANCH  68  89
ENDBRANCH  42  43
ENDBRANCH  34  37
ENDBRANCH  32  33
ENDBRANCH  31  32
ENDBRANCH  30  31
ENDBRANCH   1  30
TORSDOF 21
ENDMDL
MODEL 3
REMARK VINA RESULT:     -10.8      6.009     11.460
REMARK SMILES O=C(C[C@H](Cc1ccc(Cl)cc1)C(=O)Nc1cc(Cl)ccc1Cl)NCCCCCCNC(=O)c1ccc(-c2c3nc(c(-c4ccc(S(=O)(=O)[O-])cc4)c4ccc([nH]4)c(-c4ccc(S(=O)(=O)[O-])cc4)c4nc(c(-c5ccc(S(=O)(=O)[O-])cc5)c5ccc2[nH]5)C=C4)C=C3)cc1
REMARK SMILES IDX 27 1 26 2 25 3 24 4 1 5 2 6 3 8 4 9 13 10 14 11 15 12 16 14
REMARK SMILES IDX 17 15 22 16 18 17 21 18 23 19 19 20 20 21 5 22 6 23 7 24
REMARK SMILES IDX 12 25 8 26 11 27 9 28 10 29 28 30 29 31 30 32 31 33 32 34
REMARK SMILES IDX 33 36 34 37 35 38 93 39 36 40 92 41 37 42 38 43 39 44 86 45
REMARK SMILES IDX 40 46 91 47 85 48 87 49 41 50 90 51 84 52 83 53 42 55 72 56
REMARK SMILES IDX 53 57 71 58 54 59 57 60 70 61 88 62 55 63 56 64 69 66 89 67
REMARK SMILES IDX 58 68 43 69 44 70 52 71 45 72 51 73 46 74 47 75 48 76 49 77
REMARK SMILES IDX 50 78 73 79 74 80 82 81 75 82 81 83 76 84 77 85 78 86 79 87
REMARK SMILES IDX 80 88 59 89 60 90 68 91 61 92 67 93 62 94 63 95 64 96 65 97
REMARK SMILES IDX 66 98
REMARK H PARENT 24 7 15 13 31 35 87 54 57 65
REMARK Flexibility Score: inf
ROOT
ATOM      1  C   UNL A   1      39.062  23.076  27.051  1.00  0.00     0.002 C 
ENDROOT
BRANCH   1   2
ATOM      2  C   UNL A   1      38.059  23.851  26.186  1.00  0.00     0.021 C 
BRANCH   2   3
ATOM      3  C   UNL A   1      37.348  22.980  25.149  1.00  0.00     0.116 C 
BRANCH   3   4
ATOM      4  N   UNL A   1      36.528  23.790  24.269  1.00  0.00    -0.356 N 
ATOM      5  O   UNL A   1      34.811  23.924  25.763  1.00  0.00    -0.275 OA
ATOM      6  C   UNL A   1      35.278  24.179  24.655  1.00  0.00     0.220 C 
ATOM      7  H   UNL A   1      36.877  24.060  23.388  1.00  0.00     0.163 HD
BRANCH   6   8
ATOM      8  C   UNL A   1      34.440  24.840  23.593  1.00  0.00     0.113 C 
BRANCH   8   9
ATOM      9  C   UNL A   1      33.238  24.081  22.987  1.00  0.00     0.092 C 
BRANCH   9  10
ATOM     10  C   UNL A   1      32.499  25.182  22.063  1.00  0.00     0.228 C 
ATOM     11  O   UNL A   1      32.819  25.267  20.871  1.00  0.00    -0.274 OA
ATOM     12  N   UNL A   1      31.378  25.912  22.493  1.00  0.00    -0.324 N 
ATOM     13  H   UNL A   1      30.658  26.075  21.842  1.00  0.00     0.169 HD
BRANCH  12  14
ATOM     14  C   UNL A   1      31.219  26.426  23.792  1.00  0.00     0.061 A 
ATOM     15  C   UNL A   1      31.543  28.125  23.833  1.00  0.00     0.048 A 
ATOM     16  C   UNL A   1      30.950  25.622  25.318  1.00  0.00     0.064 A 
ATOM     17  C   UNL A   1      31.747  29.152  25.556  1.00  0.00     0.043 A 
ATOM     18  C   UNL A   1      31.063  26.458  26.910  1.00  0.00     0.024 A 
ATOM     19  Cl  UNL A   1      30.705  23.915  25.318  1.00  0.00    -0.082 Cl
ATOM     20  Cl  UNL A   1      32.134  30.838  26.049  1.00  0.00    -0.084 Cl
ATOM     21  C   UNL A   1      31.457  28.195  27.076  1.00  0.00     0.022 A 
ENDBRANCH  12  14
ENDBRANCH   9  10
BRANCH   9  22
ATOM     22  C   UNL A   1      33.361  22.475  22.650  1.00  0.00     0.049 C 
BRANCH  22  23
ATOM     23  C   UNL A   1      32.214  21.388  23.176  1.00  0.00    -0.047 A 
ATOM     24  C   UNL A   1      32.760  21.059  24.799  1.00  0.00     0.005 A 
ATOM     25  C   UNL A   1      31.940  20.089  21.950  1.00  0.00     0.005 A 
ATOM     26  C   UNL A   1      33.422  19.450  25.152  1.00  0.00     0.021 A 
ATOM     27  C   UNL A   1      32.478  18.406  22.195  1.00  0.00     0.021 A 
ATOM     28  C   UNL A   1      33.306  17.983  23.760  1.00  0.00     0.041 A 
ATOM     29  Cl  UNL A   1      33.816  16.249  23.557  1.00  0.00    -0.084 Cl
ENDBRANCH  22  23
ENDBRANCH   9  22
ENDBRANCH   8   9
ENDBRANCH   6   8
ENDBRANCH   3   4
ENDBRANCH   2   3
ENDBRANCH   1   2
BRANCH   1  30
ATOM     30  C   UNL A   1      39.694  21.864  26.359  1.00  0.00     0.002 C 
BRANCH  30  31
ATOM     31  C   UNL A   1      41.214  21.775  26.504  1.00  0.00     0.021 C 
BRANCH  31  32
ATOM     32  C   UNL A   1      41.874  23.075  26.949  1.00  0.00     0.116 C 
BRANCH  32  33
ATOM     33  N   UNL A   1      42.036  24.006  25.843  1.00  0.00    -0.352 N 
ATOM     34  C   UNL A   1      41.933  25.374  25.836  1.00  0.00     0.251 C 
ATOM     35  H   UNL A   1      42.250  23.595  24.974  1.00  0.00     0.163 HD
ATOM     36  O   UNL A   1      41.878  25.982  24.771  1.00  0.00    -0.269 OA
BRANCH  34  37
ATOM     37  C   UNL A   1      41.862  26.107  27.118  1.00  0.00     0.039 A 
ATOM     38  C   UNL A   1      42.850  27.047  27.413  1.00  0.00     0.014 A 
ATOM     39  C   UNL A   1      40.810  25.883  28.011  1.00  0.00     0.014 A 
ATOM     40  C   UNL A   1      42.740  27.819  28.571  1.00  0.00     0.010 A 
ATOM     41  C   UNL A   1      40.657  26.710  29.119  1.00  0.00     0.010 A 
ATOM     42  C   UNL A   1      41.615  27.693  29.406  1.00  0.00    -0.014 A 
BRANCH  42  43
ATOM     43  C   UNL A   1      41.408  28.616  30.551  1.00  0.00     0.031 A 
ATOM     44  C   UNL A   1      42.241  28.496  31.796  1.00  0.00     0.074 A 
ATOM     45  C   UNL A   1      40.417  29.528  30.490  1.00  0.00     0.049 A 
ATOM     46  N   UNL A   1      42.165  29.184  32.906  1.00  0.00    -0.248 NA
ATOM     47  C   UNL A   1      43.279  27.453  31.803  1.00  0.00     0.031 C 
ATOM     48  C   UNL A   1      39.510  29.714  29.354  1.00  0.00     0.029 A 
ATOM     49  N   UNL A   1      39.998  30.462  31.404  1.00  0.00    -0.354 N 
ATOM     50  C   UNL A   1      43.142  28.659  33.744  1.00  0.00     0.074 A 
ATOM     51  C   UNL A   1      43.751  27.554  33.036  1.00  0.00     0.031 C 
ATOM     52  C   UNL A   1      38.662  30.716  29.629  1.00  0.00     0.029 A 
ATOM     53  C   UNL A   1      38.921  31.204  30.978  1.00  0.00     0.049 A 
ATOM     54  H   UNL A   1      40.428  30.591  32.280  1.00  0.00     0.167 HD
ATOM     55  C   UNL A   1      43.510  29.072  34.982  1.00  0.00     0.031 A 
ATOM     56  C   UNL A   1      38.202  32.154  31.608  1.00  0.00     0.031 A 
ATOM     57  C   UNL A   1      42.877  30.154  35.691  1.00  0.00     0.049 A 
ATOM     58  C   UNL A   1      38.589  32.560  33.002  1.00  0.00     0.074 A 
ATOM     59  C   UNL A   1      43.195  30.672  36.933  1.00  0.00     0.029 A 
ATOM     60  N   UNL A   1      41.782  30.873  35.230  1.00  0.00    -0.354 N 
ATOM     61  N   UNL A   1      39.567  32.106  33.748  1.00  0.00    -0.248 NA
ATOM     62  C   UNL A   1      37.783  33.613  33.634  1.00  0.00     0.031 C 
ATOM     63  C   UNL A   1      42.247  31.648  37.258  1.00  0.00     0.029 A 
ATOM     64  C   UNL A   1      41.387  31.800  36.182  1.00  0.00     0.049 A 
ATOM     65  H   UNL A   1      41.348  30.744  34.355  1.00  0.00     0.167 HD
ATOM     66  C   UNL A   1      39.505  32.829  34.935  1.00  0.00     0.074 A 
ATOM     67  C   UNL A   1      38.410  33.767  34.793  1.00  0.00     0.031 C 
ATOM     68  C   UNL A   1      40.284  32.722  36.039  1.00  0.00     0.031 A 
BRANCH  55  69
ATOM     69  C   UNL A   1      44.637  28.325  35.653  1.00  0.00    -0.014 A 
ATOM     70  C   UNL A   1      45.972  28.753  35.535  1.00  0.00     0.010 A 
ATOM     71  C   UNL A   1      44.357  27.181  36.425  1.00  0.00     0.010 A 
ATOM     72  C   UNL A   1      47.009  28.019  36.117  1.00  0.00     0.020 A 
ATOM     73  C   UNL A   1      45.388  26.466  37.044  1.00  0.00     0.020 A 
ATOM     74  C   UNL A   1      46.710  26.876  36.864  1.00  0.00     0.054 A 
BRANCH  74  75
ATOM     75  S   UNL A   1      48.078  25.938  37.595  1.00  0.00     0.124 S 
ATOM     76  O   UNL A   1      48.896  25.634  36.424  1.00  0.00    -0.237 OA
ATOM     77  O   UNL A   1      48.656  26.897  38.533  1.00  0.00    -0.237 OA
ATOM     78  O   UNL A   1      47.422  24.786  38.210  1.00  0.00    -0.744 OA
ENDBRANCH  74  75
ENDBRANCH  55  69
BRANCH  56  79
ATOM     79  C   UNL A   1      37.028  32.760  30.918  1.00  0.00    -0.014 A 
ATOM     80  C   UNL A   1      35.716  32.436  31.300  1.00  0.00     0.010 A 
ATOM     81  C   UNL A   1      37.228  33.709  29.898  1.00  0.00     0.010 A 
ATOM     82  C   UNL A   1      34.626  33.050  30.674  1.00  0.00     0.020 A 
ATOM     83  C   UNL A   1      36.144  34.351  29.296  1.00  0.00     0.020 A 
ATOM     84  C   UNL A   1      34.848  34.013  29.686  1.00  0.00     0.054 A 
BRANCH  84  85
ATOM     85  S   UNL A   1      33.421  34.860  28.952  1.00  0.00     0.124 S 
ATOM     86  O   UNL A   1      32.985  33.904  27.940  1.00  0.00    -0.237 OA
ATOM     87  O   UNL A   1      32.530  35.020  30.099  1.00  0.00    -0.237 OA
ATOM     88  O   UNL A   1      33.988  36.104  28.436  1.00  0.00    -0.744 OA
ENDBRANCH  84  85
ENDBRANCH  56  79
BRANCH  68  89
ATOM     89  C   UNL A   1      39.997  33.657  37.187  1.00  0.00    -0.014 A 
ATOM     90  C   UNL A   1      40.543  34.953  37.230  1.00  0.00     0.010 A 
ATOM     91  C   UNL A   1      39.114  33.256  38.208  1.00  0.00     0.010 A 
ATOM     92  C   UNL A   1      40.233  35.818  38.283  1.00  0.00     0.020 A 
ATOM     93  C   UNL A   1      38.773  34.130  39.242  1.00  0.00     0.020 A 
ATOM     94  C   UNL A   1      39.344  35.403  39.279  1.00  0.00     0.054 A 
BRANCH  94  95
ATOM     95  S   UNL A   1      38.913  36.568  40.600  1.00  0.00     0.124 S 
ATOM     96  O   UNL A   1      40.187  36.729  41.294  1.00  0.00    -0.237 OA
ATOM     97  O   UNL A   1      38.452  37.736  39.854  1.00  0.00    -0.237 OA
ATOM     98  O   UNL A   1      37.876  35.869  41.357  1.00  0.00    -0.744 OA
ENDBRANCH  94  95
ENDBRANCH  68  89
ENDBRANCH  42  43
ENDBRANCH  34  37
ENDBRANCH  32  33
ENDBRANCH  31  32
ENDBRANCH  30  31
ENDBRANCH   1  30
TORSDOF 21
ENDMDL
