MODEL 1
REMARK VINA RESULT:     -11.5      0.000      0.000
REMARK SMILES Cc1c(CCC(=O)N[C@@H](C)C(=O)NCCCCCCNC(=O)c2ccc(-c3c4nc(c(-c5ccc(S(=O)(=O)[O-])cc5)c5ccc([nH]5)c(-c5ccc(S(=O)(=O)[O-])cc5)c5nc(c(-c6ccc(S(=O)(=O)[O-])cc6)c6ccc3[nH]6)C=C5)C=C4)cc2)c(=O)oc2cc3oc4c(c3cc12)CCCC4
REMARK SMILES IDX 16 1 15 2 14 3 13 4 11 5 12 6 9 8 10 9 8 10 6 11 7 12 5 14
REMARK SMILES IDX 4 15 3 16 1 17 2 18 94 19 83 20 86 21 93 22 84 23 85 24
REMARK SMILES IDX 87 25 92 26 88 27 91 28 89 29 90 30 95 31 98 32 96 33 97 34
REMARK SMILES IDX 17 35 18 36 19 37 20 38 21 39 22 41 23 42 24 43 82 44 25 45
REMARK SMILES IDX 81 46 26 47 27 48 28 49 75 50 29 51 80 52 74 53 76 54 30 55
REMARK SMILES IDX 79 56 73 57 72 58 31 60 61 61 42 62 60 63 43 64 46 65 59 66
REMARK SMILES IDX 77 67 44 68 45 69 58 71 78 72 47 73 32 74 33 75 41 76 34 77
REMARK SMILES IDX 40 78 35 79 36 80 37 81 38 82 39 83 62 84 63 85 71 86 64 87
REMARK SMILES IDX 70 88 65 89 66 90 67 91 68 92 69 93 48 94 49 95 57 96 50 97
REMARK SMILES IDX 56 98 51 99 52 100 53 101 54 102 55 103
REMARK H PARENT 13 7 8 13 20 40 76 59 46 70
REMARK Flexibility Score: inf
ROOT
ATOM      1  C   UNL A   1      33.614  28.204  26.409  1.00  0.00     0.002 C 
ENDROOT
BRANCH   1   2
ATOM      2  C   UNL A   1      34.089  28.803  25.083  1.00  0.00     0.021 C 
BRANCH   2   3
ATOM      3  C   UNL A   1      33.256  28.355  23.885  1.00  0.00     0.116 C 
BRANCH   3   4
ATOM      4  N   UNL A   1      31.999  29.088  23.837  1.00  0.00    -0.354 N 
ATOM      5  C   UNL A   1      30.690  28.748  23.700  1.00  0.00     0.242 C 
ATOM      6  O   UNL A   1      29.921  29.688  23.453  1.00  0.00    -0.273 OA
ATOM      7  H   UNL A   1      32.127  30.061  23.922  1.00  0.00     0.163 HD
BRANCH   5   8
ATOM      8  C   UNL A   1      30.107  27.324  23.903  1.00  0.00     0.168 C 
ATOM      9  C   UNL A   1      28.682  27.098  23.464  1.00  0.00     0.041 C 
BRANCH   8  10
ATOM     10  N   UNL A   1      30.163  26.885  25.301  1.00  0.00    -0.345 N 
ATOM     11  C   UNL A   1      30.589  25.649  25.710  1.00  0.00     0.220 C 
ATOM     12  O   UNL A   1      29.927  25.034  26.544  1.00  0.00    -0.275 OA
ATOM     13  H   UNL A   1      29.875  27.523  25.993  1.00  0.00     0.164 HD
BRANCH  11  14
ATOM     14  C   UNL A   1      31.923  25.123  25.202  1.00  0.00     0.105 C 
BRANCH  14  15
ATOM     15  C   UNL A   1      33.077  25.107  26.219  1.00  0.00     0.053 C 
BRANCH  15  16
ATOM     16  C   UNL A   1      33.892  23.837  26.157  1.00  0.00     0.042 A 
ATOM     17  C   UNL A   1      32.127  22.394  27.252  1.00  0.00     0.046 C 
ATOM     18  C   UNL A   1      33.407  22.630  26.491  1.00  0.00    -0.030 A 
ATOM     19  C   UNL A   1      34.110  21.494  25.904  1.00  0.00     0.022 A 
ATOM     20  C   UNL A   1      35.321  23.974  25.719  1.00  0.00     0.339 A 
ATOM     21  C   UNL A   1      35.464  21.583  25.586  1.00  0.00     0.142 A 
ATOM     22  C   UNL A   1      33.393  20.385  25.470  1.00  0.00     0.024 A 
ATOM     23  O   UNL A   1      35.801  25.074  25.460  1.00  0.00    -0.246 OA
ATOM     24  O   UNL A   1      36.107  22.825  25.715  1.00  0.00    -0.422 OA
ATOM     25  C   UNL A   1      36.208  20.506  25.077  1.00  0.00     0.095 A 
ATOM     26  C   UNL A   1      34.059  19.403  24.740  1.00  0.00     0.025 A 
ATOM     27  C   UNL A   1      35.445  19.398  24.724  1.00  0.00     0.138 A 
ATOM     28  C   UNL A   1      33.638  18.232  24.086  1.00  0.00     0.001 A 
ATOM     29  O   UNL A   1      35.873  18.127  24.434  1.00  0.00    -0.461 OA
ATOM     30  C   UNL A   1      34.728  17.405  24.254  1.00  0.00     0.108 A 
ATOM     31  C   UNL A   1      32.275  17.666  24.010  1.00  0.00     0.040 C 
ATOM     32  C   UNL A   1      34.535  16.070  24.907  1.00  0.00     0.076 C 
ATOM     33  C   UNL A   1      32.047  16.879  25.305  1.00  0.00     0.005 C 
ATOM     34  C   UNL A   1      33.360  16.295  25.925  1.00  0.00     0.008 C 
ENDBRANCH  15  16
ENDBRANCH  14  15
ENDBRANCH  11  14
ENDBRANCH   8  10
ENDBRANCH   5   8
ENDBRANCH   3   4
ENDBRANCH   2   3
ENDBRANCH   1   2
BRANCH   1  35
ATOM     35  C   UNL A   1      32.570  29.038  27.170  1.00  0.00     0.002 C 
BRANCH  35  36
ATOM     36  C   UNL A   1      32.803  30.551  27.163  1.00  0.00     0.021 C 
BRANCH  36  37
ATOM     37  C   UNL A   1      34.127  30.975  27.795  1.00  0.00     0.116 C 
BRANCH  37  38
ATOM     38  N   UNL A   1      34.361  32.400  27.699  1.00  0.00    -0.352 N 
ATOM     39  C   UNL A   1      35.389  33.139  28.244  1.00  0.00     0.251 C 
ATOM     40  H   UNL A   1      33.701  32.908  27.175  1.00  0.00     0.163 HD
ATOM     41  O   UNL A   1      35.385  34.352  28.177  1.00  0.00    -0.269 OA
BRANCH  39  42
ATOM     42  C   UNL A   1      36.478  32.423  28.943  1.00  0.00     0.039 A 
ATOM     43  C   UNL A   1      37.008  32.927  30.136  1.00  0.00     0.014 A 
ATOM     44  C   UNL A   1      36.963  31.237  28.391  1.00  0.00     0.014 A 
ATOM     45  C   UNL A   1      38.087  32.289  30.737  1.00  0.00     0.010 A 
ATOM     46  C   UNL A   1      38.018  30.577  29.018  1.00  0.00     0.010 A 
ATOM     47  C   UNL A   1      38.590  31.106  30.187  1.00  0.00    -0.014 A 
BRANCH  47  48
ATOM     48  C   UNL A   1      39.619  30.391  30.971  1.00  0.00     0.031 A 
ATOM     49  C   UNL A   1      39.949  29.055  30.400  1.00  0.00     0.074 A 
ATOM     50  C   UNL A   1      40.637  31.032  31.582  1.00  0.00     0.049 A 
ATOM     51  N   UNL A   1      40.668  28.923  29.324  1.00  0.00    -0.248 NA
ATOM     52  C   UNL A   1      39.273  27.835  30.830  1.00  0.00     0.031 C 
ATOM     53  C   UNL A   1      41.222  32.257  31.036  1.00  0.00     0.029 A 
ATOM     54  N   UNL A   1      41.534  30.616  32.545  1.00  0.00    -0.354 N 
ATOM     55  C   UNL A   1      40.514  27.620  28.899  1.00  0.00     0.074 A 
ATOM     56  C   UNL A   1      39.655  26.977  29.872  1.00  0.00     0.031 C 
ATOM     57  C   UNL A   1      42.464  32.389  31.532  1.00  0.00     0.029 A 
ATOM     58  C   UNL A   1      42.702  31.377  32.551  1.00  0.00     0.049 A 
ATOM     59  H   UNL A   1      41.368  29.865  33.159  1.00  0.00     0.167 HD
ATOM     60  C   UNL A   1      41.084  27.140  27.764  1.00  0.00     0.031 A 
ATOM     61  C   UNL A   1      43.935  30.949  32.939  1.00  0.00     0.031 A 
ATOM     62  C   UNL A   1      41.873  28.071  27.016  1.00  0.00     0.049 A 
ATOM     63  C   UNL A   1      44.384  30.275  31.664  1.00  0.00     0.074 A 
ATOM     64  C   UNL A   1      41.678  28.953  25.974  1.00  0.00     0.029 A 
ATOM     65  N   UNL A   1      43.171  28.299  27.413  1.00  0.00    -0.354 N 
ATOM     66  N   UNL A   1      44.783  30.856  30.563  1.00  0.00    -0.248 NA
ATOM     67  C   UNL A   1      43.976  28.877  31.505  1.00  0.00     0.031 C 
ATOM     68  C   UNL A   1      42.695  29.951  26.117  1.00  0.00     0.029 A 
ATOM     69  C   UNL A   1      43.401  29.649  27.281  1.00  0.00     0.049 A 
ATOM     70  H   UNL A   1      43.812  27.625  27.731  1.00  0.00     0.167 HD
ATOM     71  C   UNL A   1      44.357  30.015  29.532  1.00  0.00     0.074 A 
ATOM     72  C   UNL A   1      43.907  28.799  30.184  1.00  0.00     0.031 C 
ATOM     73  C   UNL A   1      44.188  30.411  28.235  1.00  0.00     0.031 A 
BRANCH  60  74
ATOM     74  C   UNL A   1      41.026  25.711  27.407  1.00  0.00    -0.014 A 
ATOM     75  C   UNL A   1      42.051  24.815  27.743  1.00  0.00     0.010 A 
ATOM     76  C   UNL A   1      39.862  25.235  26.780  1.00  0.00     0.010 A 
ATOM     77  C   UNL A   1      41.898  23.451  27.472  1.00  0.00     0.020 A 
ATOM     78  C   UNL A   1      39.705  23.878  26.513  1.00  0.00     0.020 A 
ATOM     79  C   UNL A   1      40.722  22.992  26.866  1.00  0.00     0.054 A 
BRANCH  79  80
ATOM     80  S   UNL A   1      40.514  21.214  26.584  1.00  0.00     0.124 S 
ATOM     81  O   UNL A   1      41.678  20.898  25.761  1.00  0.00    -0.237 OA
ATOM     82  O   UNL A   1      40.537  20.676  27.941  1.00  0.00    -0.237 OA
ATOM     83  O   UNL A   1      39.225  21.119  25.903  1.00  0.00    -0.744 OA
ENDBRANCH  79  80
ENDBRANCH  60  74
BRANCH  61  84
ATOM     84  C   UNL A   1      44.041  30.290  34.282  1.00  0.00    -0.014 A 
ATOM     85  C   UNL A   1      43.363  30.734  35.428  1.00  0.00     0.010 A 
ATOM     86  C   UNL A   1      44.879  29.161  34.417  1.00  0.00     0.010 A 
ATOM     87  C   UNL A   1      43.677  30.220  36.692  1.00  0.00     0.020 A 
ATOM     88  C   UNL A   1      45.176  28.619  35.672  1.00  0.00     0.020 A 
ATOM     89  C   UNL A   1      44.620  29.198  36.808  1.00  0.00     0.054 A 
BRANCH  89  90
ATOM     90  S   UNL A   1      45.157  28.682  38.460  1.00  0.00     0.124 S 
ATOM     91  O   UNL A   1      44.735  29.819  39.273  1.00  0.00    -0.237 OA
ATOM     92  O   UNL A   1      44.414  27.442  38.666  1.00  0.00    -0.237 OA
ATOM     93  O   UNL A   1      46.603  28.523  38.316  1.00  0.00    -0.744 OA
ENDBRANCH  89  90
ENDBRANCH  61  84
BRANCH  73  94
ATOM     94  C   UNL A   1      44.646  31.796  27.871  1.00  0.00    -0.014 A 
ATOM     95  C   UNL A   1      45.741  31.991  27.004  1.00  0.00     0.010 A 
ATOM     96  C   UNL A   1      44.067  32.920  28.482  1.00  0.00     0.010 A 
ATOM     97  C   UNL A   1      46.312  33.257  26.841  1.00  0.00     0.020 A 
ATOM     98  C   UNL A   1      44.618  34.194  28.304  1.00  0.00     0.020 A 
ATOM     99  C   UNL A   1      45.763  34.346  27.519  1.00  0.00     0.054 A 
BRANCH  99 100
ATOM    100  S   UNL A   1      46.596  35.952  27.399  1.00  0.00     0.124 S 
ATOM    101  O   UNL A   1      45.737  36.675  26.464  1.00  0.00    -0.237 OA
ATOM    102  O   UNL A   1      46.563  36.431  28.779  1.00  0.00    -0.237 OA
ATOM    103  O   UNL A   1      47.925  35.621  26.890  1.00  0.00    -0.744 OA
ENDBRANCH  99 100
ENDBRANCH  73  94
ENDBRANCH  47  48
ENDBRANCH  39  42
ENDBRANCH  37  38
ENDBRANCH  36  37
ENDBRANCH  35  36
ENDBRANCH   1  35
TORSDOF 20
ENDMDL
MODEL 2
REMARK VINA RESULT:     -11.5      3.021      7.302
REMARK SMILES Cc1c(CCC(=O)N[C@@H](C)C(=O)NCCCCCCNC(=O)c2ccc(-c3c4nc(c(-c5ccc(S(=O)(=O)[O-])cc5)c5ccc([nH]5)c(-c5ccc(S(=O)(=O)[O-])cc5)c5nc(c(-c6ccc(S(=O)(=O)[O-])cc6)c6ccc3[nH]6)C=C5)C=C4)cc2)c(=O)oc2cc3oc4c(c3cc12)CCCC4
REMARK SMILES IDX 16 1 15 2 14 3 13 4 11 5 12 6 9 8 10 9 8 10 6 11 7 12 5 14
REMARK SMILES IDX 4 15 3 16 1 17 2 18 94 19 83 20 86 21 93 22 84 23 85 24
REMARK SMILES IDX 87 25 92 26 88 27 91 28 89 29 90 30 95 31 98 32 96 33 97 34
REMARK SMILES IDX 17 35 18 36 19 37 20 38 21 39 22 41 23 42 24 43 82 44 25 45
REMARK SMILES IDX 81 46 26 47 27 48 28 49 75 50 29 51 80 52 74 53 76 54 30 55
REMARK SMILES IDX 79 56 73 57 72 58 31 60 61 61 42 62 60 63 43 64 46 65 59 66
REMARK SMILES IDX 77 67 44 68 45 69 58 71 78 72 47 73 32 74 33 75 41 76 34 77
REMARK SMILES IDX 40 78 35 79 36 80 37 81 38 82 39 83 62 84 63 85 71 86 64 87
REMARK SMILES IDX 70 88 65 89 66 90 67 91 68 92 69 93 48 94 49 95 57 96 50 97
REMARK SMILES IDX 56 98 51 99 52 100 53 101 54 102 55 103
REMARK H PARENT 13 7 8 13 20 40 76 59 46 70
REMARK Flexibility Score: inf
ROOT
ATOM      1  C   UNL A   1      34.481  28.627  26.228  1.00  0.00     0.002 C 
ENDROOT
BRANCH   1   2
ATOM      2  C   UNL A   1      33.280  29.040  25.374  1.00  0.00     0.021 C 
BRANCH   2   3
ATOM      3  C   UNL A   1      32.910  28.008  24.314  1.00  0.00     0.116 C 
BRANCH   3   4
ATOM      4  N   UNL A   1      31.470  27.799  24.286  1.00  0.00    -0.354 N 
ATOM      5  C   UNL A   1      30.654  26.712  24.242  1.00  0.00     0.242 C 
ATOM      6  O   UNL A   1      29.467  26.950  23.977  1.00  0.00    -0.273 OA
ATOM      7  H   UNL A   1      30.966  28.645  24.302  1.00  0.00     0.163 HD
BRANCH   5   8
ATOM      8  C   UNL A   1      31.081  25.256  24.566  1.00  0.00     0.168 C 
ATOM      9  C   UNL A   1      30.499  24.163  23.705  1.00  0.00     0.041 C 
BRANCH   8  10
ATOM     10  N   UNL A   1      30.775  24.873  25.949  1.00  0.00    -0.345 N 
ATOM     11  C   UNL A   1      31.195  23.713  26.543  1.00  0.00     0.220 C 
ATOM     12  O   UNL A   1      30.390  23.048  27.193  1.00  0.00    -0.275 OA
ATOM     13  H   UNL A   1      30.230  25.492  26.485  1.00  0.00     0.164 HD
BRANCH  11  14
ATOM     14  C   UNL A   1      32.669  23.340  26.474  1.00  0.00     0.105 C 
BRANCH  14  15
ATOM     15  C   UNL A   1      33.079  22.410  25.320  1.00  0.00     0.053 C 
BRANCH  15  16
ATOM     16  C   UNL A   1      34.578  22.276  25.183  1.00  0.00     0.042 A 
ATOM     17  C   UNL A   1      34.988  24.753  24.876  1.00  0.00     0.046 C 
ATOM     18  C   UNL A   1      35.412  23.328  25.125  1.00  0.00    -0.030 A 
ATOM     19  C   UNL A   1      36.792  23.048  25.508  1.00  0.00     0.022 A 
ATOM     20  C   UNL A   1      35.124  20.882  25.085  1.00  0.00     0.339 A 
ATOM     21  C   UNL A   1      37.336  21.777  25.327  1.00  0.00     0.142 A 
ATOM     22  C   UNL A   1      37.511  23.985  26.241  1.00  0.00     0.024 A 
ATOM     23  O   UNL A   1      34.376  19.909  25.083  1.00  0.00    -0.246 OA
ATOM     24  O   UNL A   1      36.496  20.738  24.896  1.00  0.00    -0.422 OA
ATOM     25  C   UNL A   1      38.674  21.464  25.619  1.00  0.00     0.095 A 
ATOM     26  C   UNL A   1      38.750  23.619  26.760  1.00  0.00     0.025 A 
ATOM     27  C   UNL A   1      39.363  22.467  26.292  1.00  0.00     0.138 A 
ATOM     28  C   UNL A   1      39.675  24.263  27.600  1.00  0.00     0.001 A 
ATOM     29  O   UNL A   1      40.715  22.577  26.504  1.00  0.00    -0.461 OA
ATOM     30  C   UNL A   1      40.876  23.784  27.121  1.00  0.00     0.108 A 
ATOM     31  C   UNL A   1      39.591  25.617  28.185  1.00  0.00     0.040 C 
ATOM     32  C   UNL A   1      41.921  24.758  26.671  1.00  0.00     0.076 C 
ATOM     33  C   UNL A   1      40.069  26.598  27.109  1.00  0.00     0.005 C 
ATOM     34  C   UNL A   1      41.108  25.981  26.113  1.00  0.00     0.008 C 
ENDBRANCH  15  16
ENDBRANCH  14  15
ENDBRANCH  11  14
ENDBRANCH   8  10
ENDBRANCH   5   8
ENDBRANCH   3   4
ENDBRANCH   2   3
ENDBRANCH   1   2
BRANCH   1  35
ATOM     35  C   UNL A   1      34.661  29.417  27.535  1.00  0.00     0.002 C 
BRANCH  35  36
ATOM     36  C   UNL A   1      34.208  30.878  27.489  1.00  0.00     0.021 C 
BRANCH  36  37
ATOM     37  C   UNL A   1      35.160  31.842  28.195  1.00  0.00     0.116 C 
BRANCH  37  38
ATOM     38  N   UNL A   1      34.506  32.617  29.228  1.00  0.00    -0.352 N 
ATOM     39  C   UNL A   1      34.839  32.723  30.561  1.00  0.00     0.251 C 
ATOM     40  H   UNL A   1      33.722  33.138  28.941  1.00  0.00     0.163 HD
ATOM     41  O   UNL A   1      34.119  33.320  31.335  1.00  0.00    -0.269 OA
BRANCH  39  42
ATOM     42  C   UNL A   1      36.076  32.062  31.034  1.00  0.00     0.039 A 
ATOM     43  C   UNL A   1      36.062  30.714  31.409  1.00  0.00     0.014 A 
ATOM     44  C   UNL A   1      37.253  32.808  31.095  1.00  0.00     0.014 A 
ATOM     45  C   UNL A   1      37.211  30.130  31.929  1.00  0.00     0.010 A 
ATOM     46  C   UNL A   1      38.414  32.208  31.579  1.00  0.00     0.010 A 
ATOM     47  C   UNL A   1      38.394  30.870  32.006  1.00  0.00    -0.014 A 
BRANCH  47  48
ATOM     48  C   UNL A   1      39.614  30.138  32.405  1.00  0.00     0.031 A 
ATOM     49  C   UNL A   1      40.810  30.544  31.616  1.00  0.00     0.074 A 
ATOM     50  C   UNL A   1      39.853  29.774  33.683  1.00  0.00     0.049 A 
ATOM     51  N   UNL A   1      41.418  31.677  31.817  1.00  0.00    -0.248 NA
ATOM     52  C   UNL A   1      41.213  29.849  30.398  1.00  0.00     0.031 C 
ATOM     53  C   UNL A   1      39.385  30.570  34.817  1.00  0.00     0.029 A 
ATOM     54  N   UNL A   1      40.764  28.892  34.228  1.00  0.00    -0.354 N 
ATOM     55  C   UNL A   1      42.252  31.879  30.739  1.00  0.00     0.074 A 
ATOM     56  C   UNL A   1      42.106  30.712  29.891  1.00  0.00     0.031 C 
ATOM     57  C   UNL A   1      40.147  30.274  35.884  1.00  0.00     0.029 A 
ATOM     58  C   UNL A   1      41.029  29.159  35.570  1.00  0.00     0.049 A 
ATOM     59  H   UNL A   1      41.182  28.156  33.725  1.00  0.00     0.167 HD
ATOM     60  C   UNL A   1      43.006  32.997  30.586  1.00  0.00     0.031 A 
ATOM     61  C   UNL A   1      42.189  28.884  36.229  1.00  0.00     0.031 A 
ATOM     62  C   UNL A   1      42.895  33.977  31.625  1.00  0.00     0.049 A 
ATOM     63  C   UNL A   1      43.000  30.095  35.830  1.00  0.00     0.074 A 
ATOM     64  C   UNL A   1      42.137  35.101  31.875  1.00  0.00     0.029 A 
ATOM     65  N   UNL A   1      43.627  33.799  32.776  1.00  0.00    -0.354 N 
ATOM     66  N   UNL A   1      42.873  31.314  36.285  1.00  0.00    -0.248 NA
ATOM     67  C   UNL A   1      43.724  29.987  34.561  1.00  0.00     0.031 C 
ATOM     68  C   UNL A   1      42.124  35.248  33.300  1.00  0.00     0.029 A 
ATOM     69  C   UNL A   1      42.819  34.159  33.828  1.00  0.00     0.049 A 
ATOM     70  H   UNL A   1      44.554  33.475  32.835  1.00  0.00     0.167 HD
ATOM     71  C   UNL A   1      43.193  32.140  35.206  1.00  0.00     0.074 A 
ATOM     72  C   UNL A   1      43.747  31.260  34.193  1.00  0.00     0.031 C 
ATOM     73  C   UNL A   1      42.806  33.447  35.094  1.00  0.00     0.031 A 
BRANCH  60  74
ATOM     74  C   UNL A   1      43.998  33.127  29.503  1.00  0.00    -0.014 A 
ATOM     75  C   UNL A   1      43.747  33.875  28.345  1.00  0.00     0.010 A 
ATOM     76  C   UNL A   1      45.260  32.538  29.692  1.00  0.00     0.010 A 
ATOM     77  C   UNL A   1      44.760  34.050  27.397  1.00  0.00     0.020 A 
ATOM     78  C   UNL A   1      46.273  32.714  28.753  1.00  0.00     0.020 A 
ATOM     79  C   UNL A   1      46.019  33.474  27.613  1.00  0.00     0.054 A 
BRANCH  79  80
ATOM     80  S   UNL A   1      47.339  33.768  26.406  1.00  0.00     0.124 S 
ATOM     81  O   UNL A   1      48.222  34.674  27.136  1.00  0.00    -0.237 OA
ATOM     82  O   UNL A   1      47.862  32.425  26.179  1.00  0.00    -0.237 OA
ATOM     83  O   UNL A   1      46.641  34.362  25.268  1.00  0.00    -0.744 OA
ENDBRANCH  79  80
ENDBRANCH  60  74
BRANCH  61  84
ATOM     84  C   UNL A   1      42.720  27.486  36.126  1.00  0.00    -0.014 A 
ATOM     85  C   UNL A   1      43.994  27.098  36.571  1.00  0.00     0.010 A 
ATOM     86  C   UNL A   1      41.905  26.494  35.538  1.00  0.00     0.010 A 
ATOM     87  C   UNL A   1      44.516  25.841  36.244  1.00  0.00     0.020 A 
ATOM     88  C   UNL A   1      42.406  25.223  35.234  1.00  0.00     0.020 A 
ATOM     89  C   UNL A   1      43.733  24.930  35.533  1.00  0.00     0.054 A 
BRANCH  89  90
ATOM     90  S   UNL A   1      44.489  23.391  34.948  1.00  0.00     0.124 S 
ATOM     91  O   UNL A   1      45.576  23.896  34.115  1.00  0.00    -0.237 OA
ATOM     92  O   UNL A   1      44.892  22.740  36.192  1.00  0.00    -0.237 OA
ATOM     93  O   UNL A   1      43.405  22.730  34.225  1.00  0.00    -0.744 OA
ENDBRANCH  89  90
ENDBRANCH  61  84
BRANCH  73  94
ATOM     94  C   UNL A   1      42.133  34.071  36.284  1.00  0.00    -0.014 A 
ATOM     95  C   UNL A   1      42.891  34.668  37.312  1.00  0.00     0.010 A 
ATOM     96  C   UNL A   1      40.742  33.966  36.451  1.00  0.00     0.010 A 
ATOM     97  C   UNL A   1      42.293  35.045  38.518  1.00  0.00     0.020 A 
ATOM     98  C   UNL A   1      40.134  34.363  37.646  1.00  0.00     0.020 A 
ATOM     99  C   UNL A   1      40.920  34.860  38.688  1.00  0.00     0.054 A 
BRANCH  99 100
ATOM    100  S   UNL A   1      40.188  35.231  40.305  1.00  0.00     0.124 S 
ATOM    101  O   UNL A   1      39.901  36.660  40.191  1.00  0.00    -0.237 OA
ATOM    102  O   UNL A   1      39.018  34.357  40.333  1.00  0.00    -0.237 OA
ATOM    103  O   UNL A   1      41.242  34.886  41.255  1.00  0.00    -0.744 OA
ENDBRANCH  99 100
ENDBRANCH  73  94
ENDBRANCH  47  48
ENDBRANCH  39  42
ENDBRANCH  37  38
ENDBRANCH  36  37
ENDBRANCH  35  36
ENDBRANCH   1  35
TORSDOF 20
ENDMDL
MODEL 3
REMARK VINA RESULT:     -11.3      3.534      8.541
REMARK SMILES Cc1c(CCC(=O)N[C@@H](C)C(=O)NCCCCCCNC(=O)c2ccc(-c3c4nc(c(-c5ccc(S(=O)(=O)[O-])cc5)c5ccc([nH]5)c(-c5ccc(S(=O)(=O)[O-])cc5)c5nc(c(-c6ccc(S(=O)(=O)[O-])cc6)c6ccc3[nH]6)C=C5)C=C4)cc2)c(=O)oc2cc3oc4c(c3cc12)CCCC4
REMARK SMILES IDX 16 1 15 2 14 3 13 4 11 5 12 6 9 8 10 9 8 10 6 11 7 12 5 14
REMARK SMILES IDX 4 15 3 16 1 17 2 18 94 19 83 20 86 21 93 22 84 23 85 24
REMARK SMILES IDX 87 25 92 26 88 27 91 28 89 29 90 30 95 31 98 32 96 33 97 34
REMARK SMILES IDX 17 35 18 36 19 37 20 38 21 39 22 41 23 42 24 43 82 44 25 45
REMARK SMILES IDX 81 46 26 47 27 48 28 49 75 50 29 51 80 52 74 53 76 54 30 55
REMARK SMILES IDX 79 56 73 57 72 58 31 60 61 61 42 62 60 63 43 64 46 65 59 66
REMARK SMILES IDX 77 67 44 68 45 69 58 71 78 72 47 73 32 74 33 75 41 76 34 77
REMARK SMILES IDX 40 78 35 79 36 80 37 81 38 82 39 83 62 84 63 85 71 86 64 87
REMARK SMILES IDX 70 88 65 89 66 90 67 91 68 92 69 93 48 94 49 95 57 96 50 97
REMARK SMILES IDX 56 98 51 99 52 100 53 101 54 102 55 103
REMARK H PARENT 13 7 8 13 20 40 76 59 46 70
REMARK Flexibility Score: inf
ROOT
ATOM      1  C   UNL A   1      36.972  30.390  28.000  1.00  0.00     0.002 C 
ENDROOT
BRANCH   1   2
ATOM      2  C   UNL A   1      35.606  29.740  28.233  1.00  0.00     0.021 C 
BRANCH   2   3
ATOM      3  C   UNL A   1      34.939  29.262  26.947  1.00  0.00     0.116 C 
BRANCH   3   4
ATOM      4  N   UNL A   1      33.632  29.884  26.790  1.00  0.00    -0.354 N 
ATOM      5  C   UNL A   1      32.611  29.770  25.899  1.00  0.00     0.242 C 
ATOM      6  O   UNL A   1      31.751  30.661  25.960  1.00  0.00    -0.273 OA
ATOM      7  H   UNL A   1      33.442  30.544  27.496  1.00  0.00     0.163 HD
BRANCH   5   8
ATOM      8  C   UNL A   1      32.419  28.598  24.900  1.00  0.00     0.168 C 
ATOM      9  C   UNL A   1      33.005  28.770  23.521  1.00  0.00     0.041 C 
BRANCH   8  10
ATOM     10  N   UNL A   1      31.006  28.264  24.688  1.00  0.00    -0.345 N 
ATOM     11  C   UNL A   1      30.564  27.186  23.967  1.00  0.00     0.220 C 
ATOM     12  O   UNL A   1      29.658  27.344  23.151  1.00  0.00    -0.275 OA
ATOM     13  H   UNL A   1      30.330  28.854  25.092  1.00  0.00     0.164 HD
BRANCH  11  14
ATOM     14  C   UNL A   1      31.131  25.809  24.277  1.00  0.00     0.105 C 
BRANCH  14  15
ATOM     15  C   UNL A   1      31.464  25.528  25.752  1.00  0.00     0.053 C 
BRANCH  15  16
ATOM     16  C   UNL A   1      32.449  24.396  25.922  1.00  0.00     0.042 A 
ATOM     17  C   UNL A   1      30.697  22.672  26.515  1.00  0.00     0.046 C 
ATOM     18  C   UNL A   1      32.082  23.119  26.124  1.00  0.00    -0.030 A 
ATOM     19  C   UNL A   1      33.080  22.120  25.758  1.00  0.00     0.022 A 
ATOM     20  C   UNL A   1      33.905  24.758  25.883  1.00  0.00     0.339 A 
ATOM     21  C   UNL A   1      34.441  22.420  25.815  1.00  0.00     0.142 A 
ATOM     22  C   UNL A   1      32.683  20.932  25.157  1.00  0.00     0.024 A 
ATOM     23  O   UNL A   1      34.264  25.924  25.753  1.00  0.00    -0.246 OA
ATOM     24  O   UNL A   1      34.829  23.739  26.101  1.00  0.00    -0.422 OA
ATOM     25  C   UNL A   1      35.448  21.482  25.533  1.00  0.00     0.095 A 
ATOM     26  C   UNL A   1      33.660  20.083  24.641  1.00  0.00     0.025 A 
ATOM     27  C   UNL A   1      34.984  20.286  24.999  1.00  0.00     0.138 A 
ATOM     28  C   UNL A   1      33.612  18.885  23.909  1.00  0.00     0.001 A 
ATOM     29  O   UNL A   1      35.662  19.102  24.845  1.00  0.00    -0.461 OA
ATOM     30  C   UNL A   1      34.730  18.224  24.371  1.00  0.00     0.108 A 
ATOM     31  C   UNL A   1      32.421  18.125  23.475  1.00  0.00     0.040 C 
ATOM     32  C   UNL A   1      34.575  16.855  24.960  1.00  0.00     0.076 C 
ATOM     33  C   UNL A   1      31.978  17.272  24.668  1.00  0.00     0.005 C 
ATOM     34  C   UNL A   1      33.151  16.869  25.623  1.00  0.00     0.008 C 
ENDBRANCH  15  16
ENDBRANCH  14  15
ENDBRANCH  11  14
ENDBRANCH   8  10
ENDBRANCH   5   8
ENDBRANCH   3   4
ENDBRANCH   2   3
ENDBRANCH   1   2
BRANCH   1  35
ATOM     35  C   UNL A   1      38.139  29.769  28.786  1.00  0.00     0.002 C 
BRANCH  35  36
ATOM     36  C   UNL A   1      38.598  28.391  28.304  1.00  0.00     0.021 C 
BRANCH  36  37
ATOM     37  C   UNL A   1      39.062  27.467  29.429  1.00  0.00     0.116 C 
BRANCH  37  38
ATOM     38  N   UNL A   1      40.326  26.825  29.138  1.00  0.00    -0.352 N 
ATOM     39  C   UNL A   1      41.589  27.375  29.144  1.00  0.00     0.251 C 
ATOM     40  H   UNL A   1      40.278  25.869  28.908  1.00  0.00     0.163 HD
ATOM     41  O   UNL A   1      42.547  26.735  28.759  1.00  0.00    -0.269 OA
BRANCH  39  42
ATOM     42  C   UNL A   1      41.746  28.775  29.596  1.00  0.00     0.039 A 
ATOM     43  C   UNL A   1      42.287  29.741  28.741  1.00  0.00     0.014 A 
ATOM     44  C   UNL A   1      41.344  29.111  30.889  1.00  0.00     0.014 A 
ATOM     45  C   UNL A   1      42.506  31.032  29.207  1.00  0.00     0.010 A 
ATOM     46  C   UNL A   1      41.526  30.417  31.340  1.00  0.00     0.010 A 
ATOM     47  C   UNL A   1      42.116  31.379  30.504  1.00  0.00    -0.014 A 
BRANCH  47  48
ATOM     48  C   UNL A   1      42.219  32.806  30.873  1.00  0.00     0.031 A 
ATOM     49  C   UNL A   1      40.887  33.446  31.062  1.00  0.00     0.074 A 
ATOM     50  C   UNL A   1      43.211  33.281  31.654  1.00  0.00     0.049 A 
ATOM     51  N   UNL A   1      40.156  33.221  32.114  1.00  0.00    -0.248 NA
ATOM     52  C   UNL A   1      40.193  34.136  29.979  1.00  0.00     0.031 C 
ATOM     53  C   UNL A   1      43.823  32.474  32.710  1.00  0.00     0.029 A 
ATOM     54  N   UNL A   1      43.640  34.569  31.908  1.00  0.00    -0.354 N 
ATOM     55  C   UNL A   1      38.893  33.694  31.831  1.00  0.00     0.074 A 
ATOM     56  C   UNL A   1      38.965  34.268  30.502  1.00  0.00     0.031 C 
ATOM     57  C   UNL A   1      44.386  33.304  33.604  1.00  0.00     0.029 A 
ATOM     58  C   UNL A   1      44.337  34.673  33.110  1.00  0.00     0.049 A 
ATOM     59  H   UNL A   1      43.471  35.329  31.306  1.00  0.00     0.167 HD
ATOM     60  C   UNL A   1      37.848  33.575  32.690  1.00  0.00     0.031 A 
ATOM     61  C   UNL A   1      44.413  35.780  33.899  1.00  0.00     0.031 A 
ATOM     62  C   UNL A   1      38.130  32.926  33.935  1.00  0.00     0.049 A 
ATOM     63  C   UNL A   1      43.118  35.636  34.665  1.00  0.00     0.074 A 
ATOM     64  C   UNL A   1      38.072  31.645  34.441  1.00  0.00     0.029 A 
ATOM     65  N   UNL A   1      38.706  33.663  34.943  1.00  0.00    -0.354 N 
ATOM     66  N   UNL A   1      42.864  34.798  35.634  1.00  0.00    -0.248 NA
ATOM     67  C   UNL A   1      41.932  36.206  34.022  1.00  0.00     0.031 C 
ATOM     68  C   UNL A   1      39.019  31.611  35.515  1.00  0.00     0.029 A 
ATOM     69  C   UNL A   1      39.644  32.858  35.546  1.00  0.00     0.049 A 
ATOM     70  H   UNL A   1      38.487  34.590  35.188  1.00  0.00     0.167 HD
ATOM     71  C   UNL A   1      41.512  34.479  35.495  1.00  0.00     0.074 A 
ATOM     72  C   UNL A   1      40.992  35.411  34.512  1.00  0.00     0.031 C 
ATOM     73  C   UNL A   1      40.928  33.355  36.011  1.00  0.00     0.031 A 
BRANCH  60  74
ATOM     74  C   UNL A   1      36.546  34.215  32.427  1.00  0.00    -0.014 A 
ATOM     75  C   UNL A   1      35.718  33.817  31.369  1.00  0.00     0.010 A 
ATOM     76  C   UNL A   1      36.103  35.200  33.326  1.00  0.00     0.010 A 
ATOM     77  C   UNL A   1      34.448  34.387  31.228  1.00  0.00     0.020 A 
ATOM     78  C   UNL A   1      34.839  35.766  33.192  1.00  0.00     0.020 A 
ATOM     79  C   UNL A   1      34.016  35.352  32.147  1.00  0.00     0.054 A 
BRANCH  79  80
ATOM     80  S   UNL A   1      32.342  36.029  31.987  1.00  0.00     0.124 S 
ATOM     81  O   UNL A   1      32.438  37.265  32.760  1.00  0.00    -0.237 OA
ATOM     82  O   UNL A   1      32.207  36.197  30.543  1.00  0.00    -0.237 OA
ATOM     83  O   UNL A   1      31.493  34.994  32.572  1.00  0.00    -0.744 OA
ENDBRANCH  79  80
ENDBRANCH  60  74
BRANCH  61  84
ATOM     84  C   UNL A   1      44.825  37.063  33.242  1.00  0.00    -0.014 A 
ATOM     85  C   UNL A   1      44.980  38.278  33.927  1.00  0.00     0.010 A 
ATOM     86  C   UNL A   1      45.061  37.064  31.849  1.00  0.00     0.010 A 
ATOM     87  C   UNL A   1      45.143  39.481  33.227  1.00  0.00     0.020 A 
ATOM     88  C   UNL A   1      45.256  38.256  31.143  1.00  0.00     0.020 A 
ATOM     89  C   UNL A   1      45.230  39.463  31.834  1.00  0.00     0.054 A 
BRANCH  89  90
ATOM     90  S   UNL A   1      45.241  41.037  30.936  1.00  0.00     0.124 S 
ATOM     91  O   UNL A   1      46.660  41.187  30.625  1.00  0.00    -0.237 OA
ATOM     92  O   UNL A   1      44.367  40.763  29.799  1.00  0.00    -0.237 OA
ATOM     93  O   UNL A   1      44.713  41.991  31.909  1.00  0.00    -0.744 OA
ENDBRANCH  89  90
ENDBRANCH  61  84
BRANCH  73  94
ATOM     94  C   UNL A   1      41.764  32.497  36.919  1.00  0.00    -0.014 A 
ATOM     95  C   UNL A   1      41.855  32.780  38.298  1.00  0.00     0.010 A 
ATOM     96  C   UNL A   1      42.564  31.471  36.391  1.00  0.00     0.010 A 
ATOM     97  C   UNL A   1      42.799  32.134  39.102  1.00  0.00     0.020 A 
ATOM     98  C   UNL A   1      43.494  30.804  37.195  1.00  0.00     0.020 A 
ATOM     99  C   UNL A   1      43.635  31.171  38.536  1.00  0.00     0.054 A 
BRANCH  99 100
ATOM    100  S   UNL A   1      44.939  30.442  39.563  1.00  0.00     0.124 S 
ATOM    101  O   UNL A   1      44.359  30.527  40.902  1.00  0.00    -0.237 OA
ATOM    102  O   UNL A   1      45.058  29.092  39.016  1.00  0.00    -0.237 OA
ATOM    103  O   UNL A   1      46.093  31.307  39.332  1.00  0.00    -0.744 OA
ENDBRANCH  99 100
ENDBRANCH  73  94
ENDBRANCH  47  48
ENDBRANCH  39  42
ENDBRANCH  37  38
ENDBRANCH  36  37
ENDBRANCH  35  36
ENDBRANCH   1  35
TORSDOF 20
ENDMDL
