MODEL 1
REMARK VINA RESULT:     -12.1      0.000      0.000
REMARK SMILES Cn1c(COc2ccc(C(=O)NCCCCCCNC(=O)c3ccc(-c4c5nc(c(-c6ccc(S(=O)(=O)[O-])cc6)c6ccc([nH]6)c(-c6ccc(S(=O)(=O)[O-])cc6)c6nc(c(-c7ccc(S(=O)(=O)[O-])cc7)c7ccc4[nH]7)C=C6)C=C5)cc3)cc2)nc2ccccc21
REMARK SMILES IDX 15 1 14 2 13 3 12 4 10 5 11 6 9 8 6 9 7 10 83 11 8 12 82 13
REMARK SMILES IDX 5 14 4 15 3 16 1 17 2 18 90 19 84 20 85 21 89 22 86 23 88 24
REMARK SMILES IDX 87 25 16 26 17 27 18 28 19 29 20 30 21 32 22 33 23 34 81 35
REMARK SMILES IDX 24 36 80 37 25 38 26 39 27 40 74 41 28 42 79 43 73 44 75 45
REMARK SMILES IDX 29 46 78 47 72 48 71 49 30 51 60 52 41 53 59 54 42 55 45 56
REMARK SMILES IDX 58 57 76 58 43 59 44 60 57 62 77 63 46 64 31 65 32 66 40 67
REMARK SMILES IDX 33 68 39 69 34 70 35 71 36 72 37 73 38 74 61 75 62 76 70 77
REMARK SMILES IDX 63 78 69 79 64 80 65 81 66 82 67 83 68 84 47 85 48 86 56 87
REMARK SMILES IDX 49 88 55 89 50 90 51 91 52 92 53 93 54 94
REMARK H PARENT 12 7 19 31 75 50 45 61
REMARK Flexibility Score: inf
ROOT
ATOM      1  C   UNL A   1      37.032  22.440  24.374  1.00  0.00     0.002 C 
ENDROOT
BRANCH   1   2
ATOM      2  C   UNL A   1      35.763  21.576  24.394  1.00  0.00     0.021 C 
BRANCH   2   3
ATOM      3  C   UNL A   1      35.234  21.308  25.805  1.00  0.00     0.116 C 
BRANCH   3   4
ATOM      4  N   UNL A   1      34.308  20.186  25.796  1.00  0.00    -0.352 N 
ATOM      5  C   UNL A   1      33.001  20.096  25.391  1.00  0.00     0.251 C 
ATOM      6  O   UNL A   1      32.446  18.998  25.421  1.00  0.00    -0.269 OA
ATOM      7  H   UNL A   1      34.686  19.346  26.140  1.00  0.00     0.163 HD
BRANCH   5   8
ATOM      8  C   UNL A   1      32.262  21.267  24.853  1.00  0.00     0.040 A 
ATOM      9  C   UNL A   1      31.059  23.534  23.747  1.00  0.00     0.120 A 
ATOM     10  C   UNL A   1      31.706  22.628  22.913  1.00  0.00     0.047 A 
ATOM     11  C   UNL A   1      30.906  23.251  25.103  1.00  0.00     0.047 A 
ATOM     12  C   UNL A   1      32.309  21.495  23.468  1.00  0.00     0.017 A 
ATOM     13  C   UNL A   1      31.502  22.120  25.656  1.00  0.00     0.017 A 
BRANCH   9  14
ATOM     14  O   UNL A   1      30.491  24.662  23.222  1.00  0.00    -0.486 OA
BRANCH  14  15
ATOM     15  C   UNL A   1      31.481  25.617  22.770  1.00  0.00     0.304 C 
BRANCH  15  16
ATOM     16  C   UNL A   1      31.777  26.622  23.845  1.00  0.00     0.147 A 
ATOM     17  C   UNL A   1      29.882  28.249  23.380  1.00  0.00     0.151 C 
ATOM     18  N   UNL A   1      31.083  27.798  24.042  1.00  0.00    -0.328 N 
ATOM     19  C   UNL A   1      31.773  28.557  24.963  1.00  0.00     0.068 A 
ATOM     20  N   UNL A   1      32.795  26.547  24.686  1.00  0.00    -0.229 NA
ATOM     21  C   UNL A   1      32.836  27.749  25.344  1.00  0.00     0.089 A 
ATOM     22  C   UNL A   1      31.581  29.845  25.478  1.00  0.00     0.028 A 
ATOM     23  C   UNL A   1      33.777  28.230  26.265  1.00  0.00     0.030 A 
ATOM     24  C   UNL A   1      32.533  30.313  26.392  1.00  0.00     0.002 A 
ATOM     25  C   UNL A   1      33.618  29.524  26.777  1.00  0.00     0.002 A 
ENDBRANCH  15  16
ENDBRANCH  14  15
ENDBRANCH   9  14
ENDBRANCH   5   8
ENDBRANCH   3   4
ENDBRANCH   2   3
ENDBRANCH   1   2
BRANCH   1  26
ATOM     26  C   UNL A   1      37.929  22.293  25.608  1.00  0.00     0.002 C 
BRANCH  26  27
ATOM     27  C   UNL A   1      38.235  23.601  26.344  1.00  0.00     0.021 C 
BRANCH  27  28
ATOM     28  C   UNL A   1      39.611  23.644  27.002  1.00  0.00     0.116 C 
BRANCH  28  29
ATOM     29  N   UNL A   1      40.624  24.154  26.091  1.00  0.00    -0.352 N 
ATOM     30  C   UNL A   1      41.174  25.410  26.017  1.00  0.00     0.251 C 
ATOM     31  H   UNL A   1      40.964  23.505  25.432  1.00  0.00     0.163 HD
ATOM     32  O   UNL A   1      41.832  25.736  25.037  1.00  0.00    -0.269 OA
BRANCH  30  33
ATOM     33  C   UNL A   1      40.956  26.368  27.121  1.00  0.00     0.039 A 
ATOM     34  C   UNL A   1      40.043  26.049  28.129  1.00  0.00     0.014 A 
ATOM     35  C   UNL A   1      41.645  27.586  27.155  1.00  0.00     0.014 A 
ATOM     36  C   UNL A   1      39.863  26.927  29.201  1.00  0.00     0.010 A 
ATOM     37  C   UNL A   1      41.519  28.422  28.259  1.00  0.00     0.010 A 
ATOM     38  C   UNL A   1      40.623  28.105  29.291  1.00  0.00    -0.014 A 
BRANCH  38  39
ATOM     39  C   UNL A   1      40.491  29.021  30.453  1.00  0.00     0.031 A 
ATOM     40  C   UNL A   1      41.384  28.851  31.654  1.00  0.00     0.074 A 
ATOM     41  C   UNL A   1      39.535  29.970  30.448  1.00  0.00     0.049 A 
ATOM     42  N   UNL A   1      41.380  29.514  32.782  1.00  0.00    -0.248 NA
ATOM     43  C   UNL A   1      42.397  27.786  31.587  1.00  0.00     0.031 C 
ATOM     44  C   UNL A   1      38.588  30.216  29.356  1.00  0.00     0.029 A 
ATOM     45  N   UNL A   1      39.196  30.906  31.393  1.00  0.00    -0.354 N 
ATOM     46  C   UNL A   1      42.381  28.942  33.558  1.00  0.00     0.074 A 
ATOM     47  C   UNL A   1      42.932  27.843  32.798  1.00  0.00     0.031 C 
ATOM     48  C   UNL A   1      37.802  31.255  29.679  1.00  0.00     0.029 A 
ATOM     49  C   UNL A   1      38.153  31.720  31.017  1.00  0.00     0.049 A 
ATOM     50  H   UNL A   1      39.658  30.987  32.259  1.00  0.00     0.167 HD
ATOM     51  C   UNL A   1      42.821  29.314  34.785  1.00  0.00     0.031 A 
ATOM     52  C   UNL A   1      37.543  32.723  31.678  1.00  0.00     0.031 A 
ATOM     53  C   UNL A   1      42.274  30.412  35.538  1.00  0.00     0.049 A 
ATOM     54  C   UNL A   1      38.024  33.091  33.056  1.00  0.00     0.074 A 
ATOM     55  C   UNL A   1      42.672  30.889  36.774  1.00  0.00     0.029 A 
ATOM     56  N   UNL A   1      41.214  31.204  35.126  1.00  0.00    -0.354 N 
ATOM     57  N   UNL A   1      39.007  32.570  33.752  1.00  0.00    -0.248 NA
ATOM     58  C   UNL A   1      37.322  34.189  33.733  1.00  0.00     0.031 C 
ATOM     59  C   UNL A   1      41.817  31.937  37.134  1.00  0.00     0.029 A 
ATOM     60  C   UNL A   1      40.929  32.154  36.092  1.00  0.00     0.049 A 
ATOM     61  H   UNL A   1      40.733  31.106  34.272  1.00  0.00     0.167 HD
ATOM     62  C   UNL A   1      39.062  33.301  34.934  1.00  0.00     0.074 A 
ATOM     63  C   UNL A   1      38.023  34.308  34.851  1.00  0.00     0.031 C 
ATOM     64  C   UNL A   1      39.896  33.154  35.992  1.00  0.00     0.031 A 
BRANCH  51  65
ATOM     65  C   UNL A   1      43.957  28.528  35.388  1.00  0.00    -0.014 A 
ATOM     66  C   UNL A   1      45.295  28.910  35.175  1.00  0.00     0.010 A 
ATOM     67  C   UNL A   1      43.685  27.424  36.217  1.00  0.00     0.010 A 
ATOM     68  C   UNL A   1      46.339  28.181  35.748  1.00  0.00     0.020 A 
ATOM     69  C   UNL A   1      44.727  26.710  36.817  1.00  0.00     0.020 A 
ATOM     70  C   UNL A   1      46.049  27.086  36.566  1.00  0.00     0.054 A 
BRANCH  70  71
ATOM     71  S   UNL A   1      47.427  26.180  37.323  1.00  0.00     0.124 S 
ATOM     72  O   UNL A   1      48.498  26.398  36.353  1.00  0.00    -0.237 OA
ATOM     73  O   UNL A   1      47.591  26.861  38.604  1.00  0.00    -0.237 OA
ATOM     74  O   UNL A   1      46.935  24.808  37.408  1.00  0.00    -0.744 OA
ENDBRANCH  70  71
ENDBRANCH  51  65
BRANCH  52  75
ATOM     75  C   UNL A   1      36.414  33.462  31.046  1.00  0.00    -0.014 A 
ATOM     76  C   UNL A   1      36.525  33.948  29.731  1.00  0.00     0.010 A 
ATOM     77  C   UNL A   1      35.225  33.694  31.761  1.00  0.00     0.010 A 
ATOM     78  C   UNL A   1      35.483  34.681  29.154  1.00  0.00     0.020 A 
ATOM     79  C   UNL A   1      34.168  34.397  31.176  1.00  0.00     0.020 A 
ATOM     80  C   UNL A   1      34.311  34.901  29.882  1.00  0.00     0.054 A 
BRANCH  80  81
ATOM     81  S   UNL A   1      32.959  35.828  29.105  1.00  0.00     0.124 S 
ATOM     82  O   UNL A   1      32.382  34.830  28.210  1.00  0.00    -0.237 OA
ATOM     83  O   UNL A   1      32.136  36.205  30.251  1.00  0.00    -0.237 OA
ATOM     84  O   UNL A   1      33.642  36.941  28.447  1.00  0.00    -0.744 OA
ENDBRANCH  80  81
ENDBRANCH  52  75
BRANCH  64  85
ATOM     85  C   UNL A   1      39.756  34.132  37.129  1.00  0.00    -0.014 A 
ATOM     86  C   UNL A   1      40.259  35.442  37.035  1.00  0.00     0.010 A 
ATOM     87  C   UNL A   1      39.060  33.746  38.290  1.00  0.00     0.010 A 
ATOM     88  C   UNL A   1      40.098  36.337  38.095  1.00  0.00     0.020 A 
ATOM     89  C   UNL A   1      38.870  34.649  39.339  1.00  0.00     0.020 A 
ATOM     90  C   UNL A   1      39.403  35.935  39.240  1.00  0.00     0.054 A 
BRANCH  90  91
ATOM     91  S   UNL A   1      39.169  37.131  40.583  1.00  0.00     0.124 S 
ATOM     92  O   UNL A   1      40.536  37.585  40.828  1.00  0.00    -0.237 OA
ATOM     93  O   UNL A   1      38.278  38.120  39.979  1.00  0.00    -0.237 OA
ATOM     94  O   UNL A   1      38.574  36.338  41.656  1.00  0.00    -0.744 OA
ENDBRANCH  90  91
ENDBRANCH  64  85
ENDBRANCH  38  39
ENDBRANCH  30  33
ENDBRANCH  28  29
ENDBRANCH  27  28
ENDBRANCH  26  27
ENDBRANCH   1  26
TORSDOF 19
ENDMDL
MODEL 2
REMARK VINA RESULT:     -11.9      5.933      8.043
REMARK SMILES Cn1c(COc2ccc(C(=O)NCCCCCCNC(=O)c3ccc(-c4c5nc(c(-c6ccc(S(=O)(=O)[O-])cc6)c6ccc([nH]6)c(-c6ccc(S(=O)(=O)[O-])cc6)c6nc(c(-c7ccc(S(=O)(=O)[O-])cc7)c7ccc4[nH]7)C=C6)C=C5)cc3)cc2)nc2ccccc21
REMARK SMILES IDX 15 1 14 2 13 3 12 4 10 5 11 6 9 8 6 9 7 10 83 11 8 12 82 13
REMARK SMILES IDX 5 14 4 15 3 16 1 17 2 18 90 19 84 20 85 21 89 22 86 23 88 24
REMARK SMILES IDX 87 25 16 26 17 27 18 28 19 29 20 30 21 32 22 33 23 34 81 35
REMARK SMILES IDX 24 36 80 37 25 38 26 39 27 40 74 41 28 42 79 43 73 44 75 45
REMARK SMILES IDX 29 46 78 47 72 48 71 49 30 51 60 52 41 53 59 54 42 55 45 56
REMARK SMILES IDX 58 57 76 58 43 59 44 60 57 62 77 63 46 64 31 65 32 66 40 67
REMARK SMILES IDX 33 68 39 69 34 70 35 71 36 72 37 73 38 74 61 75 62 76 70 77
REMARK SMILES IDX 63 78 69 79 64 80 65 81 66 82 67 83 68 84 47 85 48 86 56 87
REMARK SMILES IDX 49 88 55 89 50 90 51 91 52 92 53 93 54 94
REMARK H PARENT 12 7 19 31 75 50 45 61
REMARK Flexibility Score: inf
ROOT
ATOM      1  C   UNL A   1      35.894  20.877  25.130  1.00  0.00     0.002 C 
ENDROOT
BRANCH   1   2
ATOM      2  C   UNL A   1      35.469  21.905  26.187  1.00  0.00     0.021 C 
BRANCH   2   3
ATOM      3  C   UNL A   1      34.284  21.446  27.039  1.00  0.00     0.116 C 
BRANCH   3   4
ATOM      4  N   UNL A   1      33.549  20.389  26.362  1.00  0.00    -0.352 N 
ATOM      5  C   UNL A   1      32.565  20.440  25.409  1.00  0.00     0.251 C 
ATOM      6  O   UNL A   1      32.143  19.385  24.937  1.00  0.00    -0.269 OA
ATOM      7  H   UNL A   1      33.803  19.480  26.637  1.00  0.00     0.163 HD
BRANCH   5   8
ATOM      8  C   UNL A   1      32.047  21.729  24.882  1.00  0.00     0.040 A 
ATOM      9  C   UNL A   1      30.873  24.088  23.953  1.00  0.00     0.120 A 
ATOM     10  C   UNL A   1      30.699  23.715  25.282  1.00  0.00     0.047 A 
ATOM     11  C   UNL A   1      31.726  23.359  23.128  1.00  0.00     0.047 A 
ATOM     12  C   UNL A   1      31.285  22.533  25.745  1.00  0.00     0.017 A 
ATOM     13  C   UNL A   1      32.314  22.184  23.590  1.00  0.00     0.017 A 
BRANCH   9  14
ATOM     14  O   UNL A   1      30.281  25.227  23.478  1.00  0.00    -0.486 OA
BRANCH  14  15
ATOM     15  C   UNL A   1      31.214  26.076  22.768  1.00  0.00     0.304 C 
BRANCH  15  16
ATOM     16  C   UNL A   1      31.777  27.124  23.683  1.00  0.00     0.147 A 
ATOM     17  C   UNL A   1      33.958  25.971  24.289  1.00  0.00     0.151 C 
ATOM     18  N   UNL A   1      32.963  27.012  24.380  1.00  0.00    -0.328 N 
ATOM     19  C   UNL A   1      33.037  28.058  25.275  1.00  0.00     0.068 A 
ATOM     20  N   UNL A   1      31.165  28.252  24.004  1.00  0.00    -0.229 NA
ATOM     21  C   UNL A   1      31.900  28.812  25.016  1.00  0.00     0.089 A 
ATOM     22  C   UNL A   1      33.960  28.402  26.271  1.00  0.00     0.028 A 
ATOM     23  C   UNL A   1      31.637  29.955  25.783  1.00  0.00     0.030 A 
ATOM     24  C   UNL A   1      33.679  29.543  27.032  1.00  0.00     0.002 A 
ATOM     25  C   UNL A   1      32.534  30.306  26.799  1.00  0.00     0.002 A 
ENDBRANCH  15  16
ENDBRANCH  14  15
ENDBRANCH   9  14
ENDBRANCH   5   8
ENDBRANCH   3   4
ENDBRANCH   2   3
ENDBRANCH   1   2
BRANCH   1  26
ATOM     26  C   UNL A   1      37.338  21.022  24.636  1.00  0.00     0.002 C 
BRANCH  26  27
ATOM     27  C   UNL A   1      38.304  19.947  25.139  1.00  0.00     0.021 C 
BRANCH  27  28
ATOM     28  C   UNL A   1      39.488  20.489  25.936  1.00  0.00     0.116 C 
BRANCH  28  29
ATOM     29  N   UNL A   1      40.491  19.462  26.171  1.00  0.00    -0.352 N 
ATOM     30  C   UNL A   1      41.846  19.594  26.348  1.00  0.00     0.251 C 
ATOM     31  H   UNL A   1      40.148  18.539  26.208  1.00  0.00     0.163 HD
ATOM     32  O   UNL A   1      42.572  18.608  26.291  1.00  0.00    -0.269 OA
BRANCH  30  33
ATOM     33  C   UNL A   1      42.423  20.931  26.599  1.00  0.00     0.039 A 
ATOM     34  C   UNL A   1      42.786  21.730  25.511  1.00  0.00     0.014 A 
ATOM     35  C   UNL A   1      42.616  21.392  27.906  1.00  0.00     0.014 A 
ATOM     36  C   UNL A   1      43.291  23.013  25.735  1.00  0.00     0.010 A 
ATOM     37  C   UNL A   1      43.049  22.695  28.123  1.00  0.00     0.010 A 
ATOM     38  C   UNL A   1      43.396  23.518  27.042  1.00  0.00    -0.014 A 
BRANCH  38  39
ATOM     39  C   UNL A   1      43.873  24.902  27.297  1.00  0.00     0.031 A 
ATOM     40  C   UNL A   1      45.321  25.253  27.082  1.00  0.00     0.074 A 
ATOM     41  C   UNL A   1      43.014  25.825  27.772  1.00  0.00     0.049 A 
ATOM     42  N   UNL A   1      45.934  26.388  27.305  1.00  0.00    -0.248 NA
ATOM     43  C   UNL A   1      46.198  24.187  26.571  1.00  0.00     0.031 C 
ATOM     44  C   UNL A   1      41.592  25.599  28.049  1.00  0.00     0.029 A 
ATOM     45  N   UNL A   1      43.210  27.141  28.108  1.00  0.00    -0.354 N 
ATOM     46  C   UNL A   1      47.265  26.170  26.968  1.00  0.00     0.074 A 
ATOM     47  C   UNL A   1      47.383  24.781  26.584  1.00  0.00     0.031 C 
ATOM     48  C   UNL A   1      41.040  26.745  28.479  1.00  0.00     0.029 A 
ATOM     49  C   UNL A   1      42.073  27.773  28.555  1.00  0.00     0.049 A 
ATOM     50  H   UNL A   1      44.082  27.591  28.036  1.00  0.00     0.167 HD
ATOM     51  C   UNL A   1      48.294  27.052  26.956  1.00  0.00     0.031 A 
ATOM     52  C   UNL A   1      41.883  29.036  28.984  1.00  0.00     0.031 A 
ATOM     53  C   UNL A   1      48.172  28.435  27.336  1.00  0.00     0.049 A 
ATOM     54  C   UNL A   1      43.051  29.986  28.999  1.00  0.00     0.074 A 
ATOM     55  C   UNL A   1      49.147  29.417  27.327  1.00  0.00     0.029 A 
ATOM     56  N   UNL A   1      47.007  29.032  27.791  1.00  0.00    -0.354 N 
ATOM     57  N   UNL A   1      44.292  29.773  28.629  1.00  0.00    -0.248 NA
ATOM     58  C   UNL A   1      42.790  31.350  29.480  1.00  0.00     0.031 C 
ATOM     59  C   UNL A   1      48.583  30.596  27.827  1.00  0.00     0.029 A 
ATOM     60  C   UNL A   1      47.241  30.364  28.085  1.00  0.00     0.049 A 
ATOM     61  H   UNL A   1      46.140  28.576  27.890  1.00  0.00     0.167 HD
ATOM     62  C   UNL A   1      44.951  30.987  28.799  1.00  0.00     0.074 A 
ATOM     63  C   UNL A   1      43.967  31.930  29.292  1.00  0.00     0.031 C 
ATOM     64  C   UNL A   1      46.251  31.293  28.569  1.00  0.00     0.031 A 
BRANCH  51  65
ATOM     65  C   UNL A   1      49.642  26.547  26.513  1.00  0.00    -0.014 A 
ATOM     66  C   UNL A   1      50.501  25.891  27.415  1.00  0.00     0.010 A 
ATOM     67  C   UNL A   1      50.037  26.683  25.169  1.00  0.00     0.010 A 
ATOM     68  C   UNL A   1      51.744  25.415  26.990  1.00  0.00     0.020 A 
ATOM     69  C   UNL A   1      51.267  26.181  24.734  1.00  0.00     0.020 A 
ATOM     70  C   UNL A   1      52.119  25.563  25.652  1.00  0.00     0.054 A 
BRANCH  70  71
ATOM     71  S   UNL A   1      53.726  24.905  25.124  1.00  0.00     0.124 S 
ATOM     72  O   UNL A   1      53.460  23.469  25.073  1.00  0.00    -0.237 OA
ATOM     73  O   UNL A   1      53.927  25.553  23.831  1.00  0.00    -0.237 OA
ATOM     74  O   UNL A   1      54.639  25.331  26.181  1.00  0.00    -0.744 OA
ENDBRANCH  70  71
ENDBRANCH  51  65
BRANCH  52  75
ATOM     75  C   UNL A   1      40.534  29.485  29.427  1.00  0.00    -0.014 A 
ATOM     76  C   UNL A   1      39.563  29.868  28.485  1.00  0.00     0.010 A 
ATOM     77  C   UNL A   1      40.217  29.544  30.796  1.00  0.00     0.010 A 
ATOM     78  C   UNL A   1      38.312  30.332  28.903  1.00  0.00     0.020 A 
ATOM     79  C   UNL A   1      38.955  29.976  31.217  1.00  0.00     0.020 A 
ATOM     80  C   UNL A   1      38.017  30.384  30.267  1.00  0.00     0.054 A 
BRANCH  80  81
ATOM     81  S   UNL A   1      36.378  30.961  30.788  1.00  0.00     0.124 S 
ATOM     82  O   UNL A   1      35.646  30.975  29.525  1.00  0.00    -0.237 OA
ATOM     83  O   UNL A   1      35.972  29.936  31.745  1.00  0.00    -0.237 OA
ATOM     84  O   UNL A   1      36.647  32.274  31.371  1.00  0.00    -0.744 OA
ENDBRANCH  80  81
ENDBRANCH  52  75
BRANCH  64  85
ATOM     85  C   UNL A   1      46.680  32.718  28.799  1.00  0.00    -0.014 A 
ATOM     86  C   UNL A   1      47.197  33.135  30.039  1.00  0.00     0.010 A 
ATOM     87  C   UNL A   1      46.613  33.640  27.739  1.00  0.00     0.010 A 
ATOM     88  C   UNL A   1      47.608  34.458  30.222  1.00  0.00     0.020 A 
ATOM     89  C   UNL A   1      47.052  34.955  27.909  1.00  0.00     0.020 A 
ATOM     90  C   UNL A   1      47.534  35.360  29.156  1.00  0.00     0.054 A 
BRANCH  90  91
ATOM     91  S   UNL A   1      48.116  37.059  29.407  1.00  0.00     0.124 S 
ATOM     92  O   UNL A   1      49.263  36.859  30.290  1.00  0.00    -0.237 OA
ATOM     93  O   UNL A   1      48.437  37.491  28.049  1.00  0.00    -0.237 OA
ATOM     94  O   UNL A   1      46.972  37.732  30.015  1.00  0.00    -0.744 OA
ENDBRANCH  90  91
ENDBRANCH  64  85
ENDBRANCH  38  39
ENDBRANCH  30  33
ENDBRANCH  28  29
ENDBRANCH  27  28
ENDBRANCH  26  27
ENDBRANCH   1  26
TORSDOF 19
ENDMDL
MODEL 3
REMARK VINA RESULT:     -11.8      5.965     10.474
REMARK SMILES Cn1c(COc2ccc(C(=O)NCCCCCCNC(=O)c3ccc(-c4c5nc(c(-c6ccc(S(=O)(=O)[O-])cc6)c6ccc([nH]6)c(-c6ccc(S(=O)(=O)[O-])cc6)c6nc(c(-c7ccc(S(=O)(=O)[O-])cc7)c7ccc4[nH]7)C=C6)C=C5)cc3)cc2)nc2ccccc21
REMARK SMILES IDX 15 1 14 2 13 3 12 4 10 5 11 6 9 8 6 9 7 10 83 11 8 12 82 13
REMARK SMILES IDX 5 14 4 15 3 16 1 17 2 18 90 19 84 20 85 21 89 22 86 23 88 24
REMARK SMILES IDX 87 25 16 26 17 27 18 28 19 29 20 30 21 32 22 33 23 34 81 35
REMARK SMILES IDX 24 36 80 37 25 38 26 39 27 40 74 41 28 42 79 43 73 44 75 45
REMARK SMILES IDX 29 46 78 47 72 48 71 49 30 51 60 52 41 53 59 54 42 55 45 56
REMARK SMILES IDX 58 57 76 58 43 59 44 60 57 62 77 63 46 64 31 65 32 66 40 67
REMARK SMILES IDX 33 68 39 69 34 70 35 71 36 72 37 73 38 74 61 75 62 76 70 77
REMARK SMILES IDX 63 78 69 79 64 80 65 81 66 82 67 83 68 84 47 85 48 86 56 87
REMARK SMILES IDX 49 88 55 89 50 90 51 91 52 92 53 93 54 94
REMARK H PARENT 12 7 19 31 75 50 45 61
REMARK Flexibility Score: inf
ROOT
ATOM      1  C   UNL A   1      35.750  20.676  25.213  1.00  0.00     0.002 C 
ENDROOT
BRANCH   1   2
ATOM      2  C   UNL A   1      35.383  21.740  26.257  1.00  0.00     0.021 C 
BRANCH   2   3
ATOM      3  C   UNL A   1      34.161  21.368  27.100  1.00  0.00     0.116 C 
BRANCH   3   4
ATOM      4  N   UNL A   1      33.379  20.338  26.435  1.00  0.00    -0.352 N 
ATOM      5  C   UNL A   1      32.517  20.403  25.370  1.00  0.00     0.251 C 
ATOM      6  O   UNL A   1      32.021  19.360  24.945  1.00  0.00    -0.269 OA
ATOM      7  H   UNL A   1      33.486  19.438  26.817  1.00  0.00     0.163 HD
BRANCH   5   8
ATOM      8  C   UNL A   1      32.224  21.683  24.674  1.00  0.00     0.040 A 
ATOM      9  C   UNL A   1      31.461  24.034  23.372  1.00  0.00     0.120 A 
ATOM     10  C   UNL A   1      30.916  23.734  24.616  1.00  0.00     0.047 A 
ATOM     11  C   UNL A   1      32.469  23.234  22.838  1.00  0.00     0.047 A 
ATOM     12  C   UNL A   1      31.297  22.556  25.266  1.00  0.00     0.017 A 
ATOM     13  C   UNL A   1      32.853  22.063  23.487  1.00  0.00     0.017 A 
BRANCH   9  14
ATOM     14  O   UNL A   1      31.075  25.168  22.712  1.00  0.00    -0.486 OA
BRANCH  14  15
ATOM     15  C   UNL A   1      32.165  26.107  22.549  1.00  0.00     0.304 C 
BRANCH  15  16
ATOM     16  C   UNL A   1      32.261  27.017  23.739  1.00  0.00     0.147 A 
ATOM     17  C   UNL A   1      30.363  28.604  23.163  1.00  0.00     0.151 C 
ATOM     18  N   UNL A   1      31.486  28.141  23.941  1.00  0.00    -0.328 N 
ATOM     19  C   UNL A   1      32.006  28.836  25.012  1.00  0.00     0.068 A 
ATOM     20  N   UNL A   1      33.160  26.904  24.704  1.00  0.00    -0.229 NA
ATOM     21  C   UNL A   1      33.049  28.039  25.464  1.00  0.00     0.089 A 
ATOM     22  C   UNL A   1      31.679  30.061  25.608  1.00  0.00     0.028 A 
ATOM     23  C   UNL A   1      33.832  28.468  26.545  1.00  0.00     0.030 A 
ATOM     24  C   UNL A   1      32.475  30.479  26.682  1.00  0.00     0.002 A 
ATOM     25  C   UNL A   1      33.538  29.701  27.142  1.00  0.00     0.002 A 
ENDBRANCH  15  16
ENDBRANCH  14  15
ENDBRANCH   9  14
ENDBRANCH   5   8
ENDBRANCH   3   4
ENDBRANCH   2   3
ENDBRANCH   1   2
BRANCH   1  26
ATOM     26  C   UNL A   1      37.140  20.841  24.589  1.00  0.00     0.002 C 
BRANCH  26  27
ATOM     27  C   UNL A   1      38.195  19.850  25.088  1.00  0.00     0.021 C 
BRANCH  27  28
ATOM     28  C   UNL A   1      39.359  20.496  25.835  1.00  0.00     0.116 C 
BRANCH  28  29
ATOM     29  N   UNL A   1      40.405  19.531  26.132  1.00  0.00    -0.352 N 
ATOM     30  C   UNL A   1      41.741  19.742  26.370  1.00  0.00     0.251 C 
ATOM     31  H   UNL A   1      40.114  18.590  26.168  1.00  0.00     0.163 HD
ATOM     32  O   UNL A   1      42.524  18.800  26.361  1.00  0.00    -0.269 OA
BRANCH  30  33
ATOM     33  C   UNL A   1      42.229  21.114  26.627  1.00  0.00     0.039 A 
ATOM     34  C   UNL A   1      42.572  21.481  27.931  1.00  0.00     0.014 A 
ATOM     35  C   UNL A   1      42.337  22.039  25.583  1.00  0.00     0.014 A 
ATOM     36  C   UNL A   1      43.076  22.761  28.177  1.00  0.00     0.010 A 
ATOM     37  C   UNL A   1      42.908  23.285  25.819  1.00  0.00     0.010 A 
ATOM     38  C   UNL A   1      43.279  23.662  27.118  1.00  0.00    -0.014 A 
BRANCH  38  39
ATOM     39  C   UNL A   1      43.871  25.004  27.351  1.00  0.00     0.031 A 
ATOM     40  C   UNL A   1      43.019  26.123  27.890  1.00  0.00     0.074 A 
ATOM     41  C   UNL A   1      45.160  25.228  27.029  1.00  0.00     0.049 A 
ATOM     42  N   UNL A   1      43.341  27.373  28.105  1.00  0.00    -0.248 NA
ATOM     43  C   UNL A   1      41.618  25.801  28.209  1.00  0.00     0.031 C 
ATOM     44  C   UNL A   1      46.081  24.234  26.472  1.00  0.00     0.029 A 
ATOM     45  N   UNL A   1      45.921  26.367  27.120  1.00  0.00    -0.354 N 
ATOM     46  C   UNL A   1      42.185  27.985  28.575  1.00  0.00     0.074 A 
ATOM     47  C   UNL A   1      41.140  26.987  28.559  1.00  0.00     0.031 C 
ATOM     48  C   UNL A   1      47.289  24.796  26.305  1.00  0.00     0.029 A 
ATOM     49  C   UNL A   1      47.219  26.201  26.696  1.00  0.00     0.049 A 
ATOM     50  H   UNL A   1      45.571  27.222  27.459  1.00  0.00     0.167 HD
ATOM     51  C   UNL A   1      42.014  29.258  29.006  1.00  0.00     0.031 A 
ATOM     52  C   UNL A   1      48.236  27.081  26.622  1.00  0.00     0.031 A 
ATOM     53  C   UNL A   1      43.058  30.249  29.025  1.00  0.00     0.049 A 
ATOM     54  C   UNL A   1      48.009  28.500  27.070  1.00  0.00     0.074 A 
ATOM     55  C   UNL A   1      42.993  31.556  29.473  1.00  0.00     0.029 A 
ATOM     56  N   UNL A   1      44.353  30.043  28.578  1.00  0.00    -0.354 N 
ATOM     57  N   UNL A   1      46.921  29.046  27.559  1.00  0.00    -0.248 NA
ATOM     58  C   UNL A   1      49.150  29.419  26.965  1.00  0.00     0.031 C 
ATOM     59  C   UNL A   1      44.236  32.157  29.248  1.00  0.00     0.029 A 
ATOM     60  C   UNL A   1      45.093  31.204  28.721  1.00  0.00     0.049 A 
ATOM     61  H   UNL A   1      44.697  29.196  28.214  1.00  0.00     0.167 HD
ATOM     62  C   UNL A   1      47.258  30.363  27.853  1.00  0.00     0.074 A 
ATOM     63  C   UNL A   1      48.653  30.526  27.499  1.00  0.00     0.031 C 
ATOM     64  C   UNL A   1      46.484  31.349  28.370  1.00  0.00     0.031 A 
BRANCH  51  65
ATOM     65  C   UNL A   1      40.645  29.650  29.499  1.00  0.00    -0.014 A 
ATOM     66  C   UNL A   1      40.374  29.754  30.876  1.00  0.00     0.010 A 
ATOM     67  C   UNL A   1      39.630  29.967  28.577  1.00  0.00     0.010 A 
ATOM     68  C   UNL A   1      39.105  30.131  31.322  1.00  0.00     0.020 A 
ATOM     69  C   UNL A   1      38.367  30.373  29.019  1.00  0.00     0.020 A 
ATOM     70  C   UNL A   1      38.109  30.439  30.390  1.00  0.00     0.054 A 
BRANCH  70  71
ATOM     71  S   UNL A   1      36.481  30.956  31.001  1.00  0.00     0.124 S 
ATOM     72  O   UNL A   1      36.809  32.176  31.736  1.00  0.00    -0.237 OA
ATOM     73  O   UNL A   1      35.724  31.151  29.767  1.00  0.00    -0.237 OA
ATOM     74  O   UNL A   1      36.046  29.832  31.825  1.00  0.00    -0.744 OA
ENDBRANCH  70  71
ENDBRANCH  51  65
BRANCH  52  75
ATOM     75  C   UNL A   1      49.568  26.649  26.114  1.00  0.00    -0.014 A 
ATOM     76  C   UNL A   1      50.462  25.957  26.950  1.00  0.00     0.010 A 
ATOM     77  C   UNL A   1      49.955  26.940  24.793  1.00  0.00     0.010 A 
ATOM     78  C   UNL A   1      51.730  25.591  26.487  1.00  0.00     0.020 A 
ATOM     79  C   UNL A   1      51.209  26.547  24.316  1.00  0.00     0.020 A 
ATOM     80  C   UNL A   1      52.095  25.890  25.172  1.00  0.00     0.054 A 
BRANCH  80  81
ATOM     81  S   UNL A   1      53.732  25.382  24.581  1.00  0.00     0.124 S 
ATOM     82  O   UNL A   1      54.620  26.137  25.459  1.00  0.00    -0.237 OA
ATOM     83  O   UNL A   1      53.710  23.937  24.792  1.00  0.00    -0.237 OA
ATOM     84  O   UNL A   1      53.735  25.798  23.179  1.00  0.00    -0.744 OA
ENDBRANCH  80  81
ENDBRANCH  52  75
BRANCH  64  85
ATOM     85  C   UNL A   1      47.137  32.680  28.630  1.00  0.00    -0.014 A 
ATOM     86  C   UNL A   1      47.180  33.681  27.642  1.00  0.00     0.010 A 
ATOM     87  C   UNL A   1      47.669  32.952  29.904  1.00  0.00     0.010 A 
ATOM     88  C   UNL A   1      47.773  34.916  27.915  1.00  0.00     0.020 A 
ATOM     89  C   UNL A   1      48.235  34.197  30.190  1.00  0.00     0.020 A 
ATOM     90  C   UNL A   1      48.296  35.167  29.187  1.00  0.00     0.054 A 
BRANCH  90  91
ATOM     91  S   UNL A   1      49.020  36.794  29.528  1.00  0.00     0.124 S 
ATOM     92  O   UNL A   1      48.101  37.688  28.827  1.00  0.00    -0.237 OA
ATOM     93  O   UNL A   1      48.974  36.865  30.987  1.00  0.00    -0.237 OA
ATOM     94  O   UNL A   1      50.360  36.705  28.956  1.00  0.00    -0.744 OA
ENDBRANCH  90  91
ENDBRANCH  64  85
ENDBRANCH  38  39
ENDBRANCH  30  33
ENDBRANCH  28  29
ENDBRANCH  27  28
ENDBRANCH  26  27
ENDBRANCH   1  26
TORSDOF 19
ENDMDL
