MODEL 1
REMARK VINA RESULT:     -11.2      0.000      0.000
REMARK SMILES Cc1ccc2c(c1C)O[C@@H](C(=O)NCCCCCCNC(=O)c1ccc(-c3c4nc(c(-c5ccc(S(=O)(=O)[O-])cc5)c5ccc([nH]5)c(-c5ccc(S(=O)(=O)[O-])cc5)c5nc(c(-c6ccc(S(=O)(=O)[O-])cc6)c6ccc3[nH]6)C=C5)C=C4)cc1)CC2=O
REMARK SMILES IDX 18 1 17 2 16 3 15 4 14 5 13 6 11 7 12 8 10 10 1 11 2 12 3 13
REMARK SMILES IDX 7 14 4 15 6 16 8 17 5 18 9 19 84 20 83 21 85 22 19 23 20 24
REMARK SMILES IDX 21 25 22 27 23 28 24 29 82 30 25 31 81 32 26 33 27 34 28 35
REMARK SMILES IDX 75 36 29 37 80 38 74 39 76 40 30 41 79 42 73 43 72 44 31 46
REMARK SMILES IDX 61 47 42 48 60 49 43 50 46 51 59 52 77 53 44 54 45 55 58 57
REMARK SMILES IDX 78 58 47 59 32 60 33 61 41 62 34 63 40 64 35 65 36 66 37 67
REMARK SMILES IDX 38 68 39 69 62 70 63 71 71 72 64 73 70 74 65 75 66 76 67 77
REMARK SMILES IDX 68 78 69 79 48 80 49 81 57 82 50 83 56 84 51 85 52 86 53 87
REMARK SMILES IDX 54 88 55 89
REMARK H PARENT 13 9 20 26 76 45 46 56
REMARK Flexibility Score: inf
ROOT
ATOM      1  C   UNL A   1      34.004  28.073  25.394  1.00  0.00     0.021 C 
ENDROOT
BRANCH   1   2
ATOM      2  C   UNL A   1      33.024  28.647  24.367  1.00  0.00     0.002 C 
BRANCH   2   3
ATOM      3  C   UNL A   1      31.581  28.134  24.481  1.00  0.00     0.002 C 
BRANCH   3   4
ATOM      4  C   UNL A   1      30.957  27.652  23.167  1.00  0.00     0.021 C 
BRANCH   4   5
ATOM      5  C   UNL A   1      30.980  26.132  23.025  1.00  0.00     0.116 C 
BRANCH   5   6
ATOM      6  N   UNL A   1      32.260  25.633  22.579  1.00  0.00    -0.353 N 
ATOM      7  C   UNL A   1      33.108  24.698  23.079  1.00  0.00     0.261 C 
ATOM      8  O   UNL A   1      34.063  24.397  22.351  1.00  0.00    -0.271 OA
ATOM      9  H   UNL A   1      32.581  26.054  21.750  1.00  0.00     0.163 HD
BRANCH   7  10
ATOM     10  C   UNL A   1      32.994  24.065  24.494  1.00  0.00     0.269 C 
ATOM     11  C   UNL A   1      38.460  21.678  25.574  1.00  0.00     0.045 C 
ATOM     12  C   UNL A   1      36.960  21.657  25.441  1.00  0.00    -0.044 A 
ATOM     13  C   UNL A   1      36.336  20.456  25.065  1.00  0.00     0.005 A 
ATOM     14  C   UNL A   1      36.177  22.816  25.637  1.00  0.00    -0.005 A 
ATOM     15  C   UNL A   1      34.961  20.403  24.842  1.00  0.00     0.016 A 
ATOM     16  C   UNL A   1      34.802  22.770  25.327  1.00  0.00     0.134 A 
ATOM     17  C   UNL A   1      36.779  24.123  26.090  1.00  0.00     0.049 C 
ATOM     18  C   UNL A   1      34.201  21.569  24.950  1.00  0.00     0.060 A 
ATOM     19  O   UNL A   1      34.148  23.970  25.308  1.00  0.00    -0.479 OA
ATOM     20  C   UNL A   1      32.795  21.564  24.516  1.00  0.00     0.170 C 
ATOM     21  C   UNL A   1      32.060  22.867  24.534  1.00  0.00     0.136 C 
ATOM     22  O   UNL A   1      32.248  20.523  24.165  1.00  0.00    -0.294 OA
ENDBRANCH   7  10
ENDBRANCH   5   6
ENDBRANCH   4   5
ENDBRANCH   3   4
ENDBRANCH   2   3
ENDBRANCH   1   2
BRANCH   1  23
ATOM     23  C   UNL A   1      33.621  28.357  26.843  1.00  0.00     0.116 C 
BRANCH  23  24
ATOM     24  N   UNL A   1      33.472  29.785  27.082  1.00  0.00    -0.352 N 
ATOM     25  C   UNL A   1      34.278  30.626  27.801  1.00  0.00     0.251 C 
ATOM     26  H   UNL A   1      32.681  30.204  26.670  1.00  0.00     0.163 HD
ATOM     27  O   UNL A   1      33.877  31.737  28.140  1.00  0.00    -0.269 OA
BRANCH  25  28
ATOM     28  C   UNL A   1      35.635  30.180  28.165  1.00  0.00     0.039 A 
ATOM     29  C   UNL A   1      35.869  29.667  29.442  1.00  0.00     0.014 A 
ATOM     30  C   UNL A   1      36.675  30.284  27.235  1.00  0.00     0.014 A 
ATOM     31  C   UNL A   1      37.146  29.219  29.776  1.00  0.00     0.010 A 
ATOM     32  C   UNL A   1      37.932  29.780  27.548  1.00  0.00     0.010 A 
ATOM     33  C   UNL A   1      38.181  29.264  28.827  1.00  0.00    -0.014 A 
BRANCH  33  34
ATOM     34  C   UNL A   1      39.553  28.839  29.184  1.00  0.00     0.031 A 
ATOM     35  C   UNL A   1      40.432  29.766  29.972  1.00  0.00     0.074 A 
ATOM     36  C   UNL A   1      40.010  27.636  28.789  1.00  0.00     0.049 A 
ATOM     37  N   UNL A   1      41.656  29.581  30.389  1.00  0.00    -0.248 NA
ATOM     38  C   UNL A   1      39.864  31.077  30.328  1.00  0.00     0.031 C 
ATOM     39  C   UNL A   1      39.254  26.661  28.004  1.00  0.00     0.029 A 
ATOM     40  N   UNL A   1      41.221  27.029  29.003  1.00  0.00    -0.354 N 
ATOM     41  C   UNL A   1      42.000  30.744  31.065  1.00  0.00     0.074 A 
ATOM     42  C   UNL A   1      40.884  31.655  30.944  1.00  0.00     0.031 C 
ATOM     43  C   UNL A   1      40.009  25.564  27.826  1.00  0.00     0.029 A 
ATOM     44  C   UNL A   1      41.309  25.769  28.462  1.00  0.00     0.049 A 
ATOM     45  H   UNL A   1      41.958  27.455  29.497  1.00  0.00     0.167 HD
ATOM     46  C   UNL A   1      43.131  31.017  31.755  1.00  0.00     0.031 A 
ATOM     47  C   UNL A   1      42.318  24.878  28.478  1.00  0.00     0.031 A 
ATOM     48  C   UNL A   1      44.241  30.113  31.867  1.00  0.00     0.049 A 
ATOM     49  C   UNL A   1      43.590  25.218  29.201  1.00  0.00     0.074 A 
ATOM     50  C   UNL A   1      45.425  30.289  32.559  1.00  0.00     0.029 A 
ATOM     51  N   UNL A   1      44.304  28.863  31.270  1.00  0.00    -0.354 N 
ATOM     52  N   UNL A   1      43.887  26.310  29.865  1.00  0.00    -0.248 NA
ATOM     53  C   UNL A   1      44.661  24.213  29.183  1.00  0.00     0.031 C 
ATOM     54  C   UNL A   1      46.224  29.163  32.343  1.00  0.00     0.029 A 
ATOM     55  C   UNL A   1      45.518  28.266  31.558  1.00  0.00     0.049 A 
ATOM     56  H   UNL A   1      43.592  28.462  30.722  1.00  0.00     0.167 HD
ATOM     57  C   UNL A   1      45.174  26.120  30.354  1.00  0.00     0.074 A 
ATOM     58  C   UNL A   1      45.598  24.805  29.915  1.00  0.00     0.031 C 
ATOM     59  C   UNL A   1      45.930  26.961  31.101  1.00  0.00     0.031 A 
BRANCH  46  60
ATOM     60  C   UNL A   1      43.207  32.348  32.448  1.00  0.00    -0.014 A 
ATOM     61  C   UNL A   1      42.759  32.489  33.775  1.00  0.00     0.010 A 
ATOM     62  C   UNL A   1      43.743  33.463  31.780  1.00  0.00     0.010 A 
ATOM     63  C   UNL A   1      42.808  33.732  34.407  1.00  0.00     0.020 A 
ATOM     64  C   UNL A   1      43.817  34.703  32.420  1.00  0.00     0.020 A 
ATOM     65  C   UNL A   1      43.337  34.832  33.725  1.00  0.00     0.054 A 
BRANCH  65  66
ATOM     66  S   UNL A   1      43.377  36.433  34.575  1.00  0.00     0.124 S 
ATOM     67  O   UNL A   1      42.248  36.316  35.496  1.00  0.00    -0.237 OA
ATOM     68  O   UNL A   1      44.697  36.426  35.197  1.00  0.00    -0.237 OA
ATOM     69  O   UNL A   1      43.197  37.404  33.499  1.00  0.00    -0.744 OA
ENDBRANCH  65  66
ENDBRANCH  46  60
BRANCH  47  70
ATOM     70  C   UNL A   1      42.123  23.567  27.806  1.00  0.00    -0.014 A 
ATOM     71  C   UNL A   1      42.661  23.339  26.528  1.00  0.00     0.010 A 
ATOM     72  C   UNL A   1      41.506  22.505  28.491  1.00  0.00     0.010 A 
ATOM     73  C   UNL A   1      42.615  22.062  25.961  1.00  0.00     0.020 A 
ATOM     74  C   UNL A   1      41.472  21.224  27.935  1.00  0.00     0.020 A 
ATOM     75  C   UNL A   1      42.042  21.008  26.678  1.00  0.00     0.054 A 
BRANCH  75  76
ATOM     76  S   UNL A   1      42.108  19.339  25.969  1.00  0.00     0.124 S 
ATOM     77  O   UNL A   1      42.952  19.532  24.796  1.00  0.00    -0.237 OA
ATOM     78  O   UNL A   1      42.704  18.568  27.059  1.00  0.00    -0.237 OA
ATOM     79  O   UNL A   1      40.709  19.027  25.689  1.00  0.00    -0.744 OA
ENDBRANCH  75  76
ENDBRANCH  47  70
BRANCH  59  80
ATOM     80  C   UNL A   1      47.308  26.510  31.500  1.00  0.00    -0.014 A 
ATOM     81  C   UNL A   1      47.495  25.718  32.646  1.00  0.00     0.010 A 
ATOM     82  C   UNL A   1      48.396  26.752  30.642  1.00  0.00     0.010 A 
ATOM     83  C   UNL A   1      48.749  25.165  32.920  1.00  0.00     0.020 A 
ATOM     84  C   UNL A   1      49.645  26.185  30.903  1.00  0.00     0.020 A 
ATOM     85  C   UNL A   1      49.811  25.389  32.038  1.00  0.00     0.054 A 
BRANCH  85  86
ATOM     86  S   UNL A   1      51.401  24.586  32.380  1.00  0.00     0.124 S 
ATOM     87  O   UNL A   1      51.094  23.178  32.144  1.00  0.00    -0.237 OA
ATOM     88  O   UNL A   1      52.284  25.210  31.398  1.00  0.00    -0.237 OA
ATOM     89  O   UNL A   1      51.677  24.935  33.772  1.00  0.00    -0.744 OA
ENDBRANCH  85  86
ENDBRANCH  59  80
ENDBRANCH  33  34
ENDBRANCH  25  28
ENDBRANCH  23  24
ENDBRANCH   1  23
TORSDOF 16
ENDMDL
MODEL 2
REMARK VINA RESULT:     -11.1      1.275      2.827
REMARK SMILES Cc1ccc2c(c1C)O[C@@H](C(=O)NCCCCCCNC(=O)c1ccc(-c3c4nc(c(-c5ccc(S(=O)(=O)[O-])cc5)c5ccc([nH]5)c(-c5ccc(S(=O)(=O)[O-])cc5)c5nc(c(-c6ccc(S(=O)(=O)[O-])cc6)c6ccc3[nH]6)C=C5)C=C4)cc1)CC2=O
REMARK SMILES IDX 18 1 17 2 16 3 15 4 14 5 13 6 11 7 12 8 10 10 1 11 2 12 3 13
REMARK SMILES IDX 7 14 4 15 6 16 8 17 5 18 9 19 84 20 83 21 85 22 19 23 20 24
REMARK SMILES IDX 21 25 22 27 23 28 24 29 82 30 25 31 81 32 26 33 27 34 28 35
REMARK SMILES IDX 75 36 29 37 80 38 74 39 76 40 30 41 79 42 73 43 72 44 31 46
REMARK SMILES IDX 61 47 42 48 60 49 43 50 46 51 59 52 77 53 44 54 45 55 58 57
REMARK SMILES IDX 78 58 47 59 32 60 33 61 41 62 34 63 40 64 35 65 36 66 37 67
REMARK SMILES IDX 38 68 39 69 62 70 63 71 71 72 64 73 70 74 65 75 66 76 67 77
REMARK SMILES IDX 68 78 69 79 48 80 49 81 57 82 50 83 56 84 51 85 52 86 53 87
REMARK SMILES IDX 54 88 55 89
REMARK H PARENT 13 9 20 26 76 45 46 56
REMARK Flexibility Score: inf
ROOT
ATOM      1  C   UNL A   1      33.630  28.316  24.947  1.00  0.00     0.021 C 
ENDROOT
BRANCH   1   2
ATOM      2  C   UNL A   1      33.995  26.943  24.377  1.00  0.00     0.002 C 
BRANCH   2   3
ATOM      3  C   UNL A   1      34.054  25.802  25.403  1.00  0.00     0.002 C 
BRANCH   3   4
ATOM      4  C   UNL A   1      35.086  24.711  25.102  1.00  0.00     0.021 C 
BRANCH   4   5
ATOM      5  C   UNL A   1      34.541  23.304  25.334  1.00  0.00     0.116 C 
BRANCH   5   6
ATOM      6  N   UNL A   1      34.025  23.119  26.671  1.00  0.00    -0.353 N 
ATOM      7  C   UNL A   1      32.838  22.663  27.144  1.00  0.00     0.261 C 
ATOM      8  O   UNL A   1      32.782  22.482  28.368  1.00  0.00    -0.271 OA
ATOM      9  H   UNL A   1      34.660  23.375  27.378  1.00  0.00     0.163 HD
BRANCH   7  10
ATOM     10  C   UNL A   1      31.567  22.438  26.278  1.00  0.00     0.269 C 
ATOM     11  C   UNL A   1      32.583  25.562  21.184  1.00  0.00     0.045 C 
ATOM     12  C   UNL A   1      31.815  25.171  22.419  1.00  0.00    -0.044 A 
ATOM     13  C   UNL A   1      30.991  26.131  23.030  1.00  0.00     0.005 A 
ATOM     14  C   UNL A   1      31.936  23.889  22.998  1.00  0.00    -0.005 A 
ATOM     15  C   UNL A   1      30.327  25.849  24.222  1.00  0.00     0.016 A 
ATOM     16  C   UNL A   1      31.327  23.644  24.246  1.00  0.00     0.134 A 
ATOM     17  C   UNL A   1      32.763  22.797  22.365  1.00  0.00     0.049 C 
ATOM     18  C   UNL A   1      30.517  24.612  24.840  1.00  0.00     0.060 A 
ATOM     19  O   UNL A   1      31.672  22.476  24.867  1.00  0.00    -0.479 OA
ATOM     20  C   UNL A   1      29.989  24.386  26.195  1.00  0.00     0.170 C 
ATOM     21  C   UNL A   1      30.327  23.091  26.863  1.00  0.00     0.136 C 
ATOM     22  O   UNL A   1      29.287  25.229  26.746  1.00  0.00    -0.294 OA
ENDBRANCH   7  10
ENDBRANCH   5   6
ENDBRANCH   4   5
ENDBRANCH   3   4
ENDBRANCH   2   3
ENDBRANCH   1   2
BRANCH   1  23
ATOM     23  C   UNL A   1      33.881  28.452  26.446  1.00  0.00     0.116 C 
BRANCH  23  24
ATOM     24  N   UNL A   1      33.643  29.814  26.902  1.00  0.00    -0.352 N 
ATOM     25  C   UNL A   1      34.367  30.562  27.792  1.00  0.00     0.251 C 
ATOM     26  H   UNL A   1      32.852  30.258  26.518  1.00  0.00     0.163 HD
ATOM     27  O   UNL A   1      33.891  31.584  28.281  1.00  0.00    -0.269 OA
BRANCH  25  28
ATOM     28  C   UNL A   1      35.726  30.125  28.156  1.00  0.00     0.039 A 
ATOM     29  C   UNL A   1      36.760  30.254  27.228  1.00  0.00     0.014 A 
ATOM     30  C   UNL A   1      35.966  29.577  29.421  1.00  0.00     0.014 A 
ATOM     31  C   UNL A   1      38.052  29.865  27.583  1.00  0.00     0.010 A 
ATOM     32  C   UNL A   1      37.263  29.247  29.795  1.00  0.00     0.010 A 
ATOM     33  C   UNL A   1      38.310  29.371  28.872  1.00  0.00    -0.014 A 
BRANCH  33  34
ATOM     34  C   UNL A   1      39.666  28.908  29.247  1.00  0.00     0.031 A 
ATOM     35  C   UNL A   1      40.554  29.804  30.060  1.00  0.00     0.074 A 
ATOM     36  C   UNL A   1      40.098  27.698  28.846  1.00  0.00     0.049 A 
ATOM     37  N   UNL A   1      41.767  29.583  30.494  1.00  0.00    -0.248 NA
ATOM     38  C   UNL A   1      40.014  31.125  30.421  1.00  0.00     0.031 C 
ATOM     39  C   UNL A   1      39.331  26.751  28.037  1.00  0.00     0.029 A 
ATOM     40  N   UNL A   1      41.290  27.059  29.073  1.00  0.00    -0.354 N 
ATOM     41  C   UNL A   1      42.128  30.729  31.189  1.00  0.00     0.074 A 
ATOM     42  C   UNL A   1      41.037  31.669  31.060  1.00  0.00     0.031 C 
ATOM     43  C   UNL A   1      40.062  25.638  27.859  1.00  0.00     0.029 A 
ATOM     44  C   UNL A   1      41.356  25.803  28.519  1.00  0.00     0.049 A 
ATOM     45  H   UNL A   1      42.029  27.461  29.584  1.00  0.00     0.167 HD
ATOM     46  C   UNL A   1      43.254  30.966  31.901  1.00  0.00     0.031 A 
ATOM     47  C   UNL A   1      42.342  24.886  28.541  1.00  0.00     0.031 A 
ATOM     48  C   UNL A   1      44.338  30.034  32.021  1.00  0.00     0.049 A 
ATOM     49  C   UNL A   1      43.610  25.186  29.289  1.00  0.00     0.074 A 
ATOM     50  C   UNL A   1      45.515  30.172  32.734  1.00  0.00     0.029 A 
ATOM     51  N   UNL A   1      44.380  28.789  31.410  1.00  0.00    -0.354 N 
ATOM     52  N   UNL A   1      43.923  26.263  29.970  1.00  0.00    -0.248 NA
ATOM     53  C   UNL A   1      44.655  24.154  29.277  1.00  0.00     0.031 C 
ATOM     54  C   UNL A   1      46.290  29.029  32.518  1.00  0.00     0.029 A 
ATOM     55  C   UNL A   1      45.574  28.158  31.711  1.00  0.00     0.049 A 
ATOM     56  H   UNL A   1      43.668  28.412  30.846  1.00  0.00     0.167 HD
ATOM     57  C   UNL A   1      45.197  26.036  30.477  1.00  0.00     0.074 A 
ATOM     58  C   UNL A   1      45.595  24.715  30.030  1.00  0.00     0.031 C 
ATOM     59  C   UNL A   1      45.961  26.849  31.246  1.00  0.00     0.031 A 
BRANCH  46  60
ATOM     60  C   UNL A   1      43.352  32.288  32.611  1.00  0.00    -0.014 A 
ATOM     61  C   UNL A   1      44.058  33.359  32.032  1.00  0.00     0.010 A 
ATOM     62  C   UNL A   1      42.722  32.469  33.854  1.00  0.00     0.010 A 
ATOM     63  C   UNL A   1      44.168  34.576  32.704  1.00  0.00     0.020 A 
ATOM     64  C   UNL A   1      42.808  33.696  34.518  1.00  0.00     0.020 A 
ATOM     65  C   UNL A   1      43.541  34.737  33.944  1.00  0.00     0.054 A 
BRANCH  65  66
ATOM     66  S   UNL A   1      43.712  36.331  34.793  1.00  0.00     0.124 S 
ATOM     67  O   UNL A   1      45.164  36.487  34.856  1.00  0.00    -0.237 OA
ATOM     68  O   UNL A   1      43.022  37.244  33.888  1.00  0.00    -0.237 OA
ATOM     69  O   UNL A   1      43.058  36.112  36.080  1.00  0.00    -0.744 OA
ENDBRANCH  65  66
ENDBRANCH  46  60
BRANCH  47  70
ATOM     70  C   UNL A   1      42.125  23.589  27.850  1.00  0.00    -0.014 A 
ATOM     71  C   UNL A   1      42.706  23.349  26.594  1.00  0.00     0.010 A 
ATOM     72  C   UNL A   1      41.441  22.546  28.501  1.00  0.00     0.010 A 
ATOM     73  C   UNL A   1      42.635  22.078  26.016  1.00  0.00     0.020 A 
ATOM     74  C   UNL A   1      41.382  21.270  27.934  1.00  0.00     0.020 A 
ATOM     75  C   UNL A   1      41.994  21.041  26.700  1.00  0.00     0.054 A 
BRANCH  75  76
ATOM     76  S   UNL A   1      42.026  19.376  25.981  1.00  0.00     0.124 S 
ATOM     77  O   UNL A   1      42.569  18.575  27.072  1.00  0.00    -0.237 OA
ATOM     78  O   UNL A   1      40.616  19.150  25.671  1.00  0.00    -0.237 OA
ATOM     79  O   UNL A   1      42.897  19.520  24.817  1.00  0.00    -0.744 OA
ENDBRANCH  75  76
ENDBRANCH  47  70
BRANCH  59  80
ATOM     80  C   UNL A   1      47.320  26.359  31.663  1.00  0.00    -0.014 A 
ATOM     81  C   UNL A   1      47.482  25.627  32.852  1.00  0.00     0.010 A 
ATOM     82  C   UNL A   1      48.410  26.499  30.785  1.00  0.00     0.010 A 
ATOM     83  C   UNL A   1      48.711  25.034  33.150  1.00  0.00     0.020 A 
ATOM     84  C   UNL A   1      49.635  25.891  31.071  1.00  0.00     0.020 A 
ATOM     85  C   UNL A   1      49.774  25.156  32.250  1.00  0.00     0.054 A 
BRANCH  85  86
ATOM     86  S   UNL A   1      51.329  24.302  32.629  1.00  0.00     0.124 S 
ATOM     87  O   UNL A   1      52.260  24.927  31.694  1.00  0.00    -0.237 OA
ATOM     88  O   UNL A   1      51.534  24.634  34.037  1.00  0.00    -0.237 OA
ATOM     89  O   UNL A   1      51.030  22.897  32.360  1.00  0.00    -0.744 OA
ENDBRANCH  85  86
ENDBRANCH  59  80
ENDBRANCH  33  34
ENDBRANCH  25  28
ENDBRANCH  23  24
ENDBRANCH   1  23
TORSDOF 16
ENDMDL
MODEL 3
REMARK VINA RESULT:     -11.1      1.126      1.967
REMARK SMILES Cc1ccc2c(c1C)O[C@@H](C(=O)NCCCCCCNC(=O)c1ccc(-c3c4nc(c(-c5ccc(S(=O)(=O)[O-])cc5)c5ccc([nH]5)c(-c5ccc(S(=O)(=O)[O-])cc5)c5nc(c(-c6ccc(S(=O)(=O)[O-])cc6)c6ccc3[nH]6)C=C5)C=C4)cc1)CC2=O
REMARK SMILES IDX 18 1 17 2 16 3 15 4 14 5 13 6 11 7 12 8 10 10 1 11 2 12 3 13
REMARK SMILES IDX 7 14 4 15 6 16 8 17 5 18 9 19 84 20 83 21 85 22 19 23 20 24
REMARK SMILES IDX 21 25 22 27 23 28 24 29 82 30 25 31 81 32 26 33 27 34 28 35
REMARK SMILES IDX 75 36 29 37 80 38 74 39 76 40 30 41 79 42 73 43 72 44 31 46
REMARK SMILES IDX 61 47 42 48 60 49 43 50 46 51 59 52 77 53 44 54 45 55 58 57
REMARK SMILES IDX 78 58 47 59 32 60 33 61 41 62 34 63 40 64 35 65 36 66 37 67
REMARK SMILES IDX 38 68 39 69 62 70 63 71 71 72 64 73 70 74 65 75 66 76 67 77
REMARK SMILES IDX 68 78 69 79 48 80 49 81 57 82 50 83 56 84 51 85 52 86 53 87
REMARK SMILES IDX 54 88 55 89
REMARK H PARENT 13 9 20 26 76 45 46 56
REMARK Flexibility Score: inf
ROOT
ATOM      1  C   UNL A   1      32.585  27.928  25.928  1.00  0.00     0.021 C 
ENDROOT
BRANCH   1   2
ATOM      2  C   UNL A   1      32.771  28.322  24.461  1.00  0.00     0.002 C 
BRANCH   2   3
ATOM      3  C   UNL A   1      31.751  27.715  23.486  1.00  0.00     0.002 C 
BRANCH   3   4
ATOM      4  C   UNL A   1      30.353  27.485  24.070  1.00  0.00     0.021 C 
BRANCH   4   5
ATOM      5  C   UNL A   1      29.843  26.065  23.837  1.00  0.00     0.116 C 
BRANCH   5   6
ATOM      6  N   UNL A   1      29.851  25.266  25.041  1.00  0.00    -0.353 N 
ATOM      7  C   UNL A   1      30.839  24.616  25.707  1.00  0.00     0.261 C 
ATOM      8  O   UNL A   1      30.524  24.149  26.809  1.00  0.00    -0.271 OA
ATOM      9  H   UNL A   1      28.965  25.173  25.460  1.00  0.00     0.163 HD
BRANCH   7  10
ATOM     10  C   UNL A   1      32.269  24.368  25.149  1.00  0.00     0.269 C 
ATOM     11  C   UNL A   1      32.195  18.639  23.172  1.00  0.00     0.045 C 
ATOM     12  C   UNL A   1      32.709  19.800  23.982  1.00  0.00    -0.044 A 
ATOM     13  C   UNL A   1      33.350  19.536  25.203  1.00  0.00     0.005 A 
ATOM     14  C   UNL A   1      32.523  21.138  23.569  1.00  0.00    -0.005 A 
ATOM     15  C   UNL A   1      33.765  20.576  26.033  1.00  0.00     0.016 A 
ATOM     16  C   UNL A   1      32.872  22.179  24.453  1.00  0.00     0.134 A 
ATOM     17  C   UNL A   1      31.889  21.488  22.245  1.00  0.00     0.049 C 
ATOM     18  C   UNL A   1      33.502  21.896  25.665  1.00  0.00     0.060 A 
ATOM     19  O   UNL A   1      32.454  23.433  24.103  1.00  0.00    -0.479 OA
ATOM     20  C   UNL A   1      33.749  22.983  26.627  1.00  0.00     0.170 C 
ATOM     21  C   UNL A   1      33.335  24.365  26.232  1.00  0.00     0.136 C 
ATOM     22  O   UNL A   1      34.289  22.758  27.706  1.00  0.00    -0.294 OA
ENDBRANCH   7  10
ENDBRANCH   5   6
ENDBRANCH   4   5
ENDBRANCH   3   4
ENDBRANCH   2   3
ENDBRANCH   1   2
BRANCH   1  23
ATOM     23  C   UNL A   1      33.689  28.435  26.851  1.00  0.00     0.116 C 
BRANCH  23  24
ATOM     24  N   UNL A   1      33.561  29.864  27.098  1.00  0.00    -0.352 N 
ATOM     25  C   UNL A   1      34.374  30.687  27.830  1.00  0.00     0.251 C 
ATOM     26  H   UNL A   1      32.781  30.298  26.681  1.00  0.00     0.163 HD
ATOM     27  O   UNL A   1      33.989  31.802  28.172  1.00  0.00    -0.269 OA
BRANCH  25  28
ATOM     28  C   UNL A   1      35.720  30.216  28.205  1.00  0.00     0.039 A 
ATOM     29  C   UNL A   1      35.924  29.656  29.467  1.00  0.00     0.014 A 
ATOM     30  C   UNL A   1      36.778  30.343  27.299  1.00  0.00     0.014 A 
ATOM     31  C   UNL A   1      37.191  29.185  29.810  1.00  0.00     0.010 A 
ATOM     32  C   UNL A   1      38.025  29.818  27.619  1.00  0.00     0.010 A 
ATOM     33  C   UNL A   1      38.244  29.254  28.883  1.00  0.00    -0.014 A 
BRANCH  33  34
ATOM     34  C   UNL A   1      39.606  28.804  29.251  1.00  0.00     0.031 A 
ATOM     35  C   UNL A   1      40.488  29.708  30.062  1.00  0.00     0.074 A 
ATOM     36  C   UNL A   1      40.049  27.599  28.847  1.00  0.00     0.049 A 
ATOM     37  N   UNL A   1      41.704  29.499  30.492  1.00  0.00    -0.248 NA
ATOM     38  C   UNL A   1      39.935  31.023  30.427  1.00  0.00     0.031 C 
ATOM     39  C   UNL A   1      39.289  26.646  28.040  1.00  0.00     0.029 A 
ATOM     40  N   UNL A   1      41.249  26.972  29.068  1.00  0.00    -0.354 N 
ATOM     41  C   UNL A   1      42.056  30.649  31.187  1.00  0.00     0.074 A 
ATOM     42  C   UNL A   1      40.956  31.577  31.063  1.00  0.00     0.031 C 
ATOM     43  C   UNL A   1      40.030  25.540  27.858  1.00  0.00     0.029 A 
ATOM     44  C   UNL A   1      41.325  25.718  28.512  1.00  0.00     0.049 A 
ATOM     45  H   UNL A   1      41.986  27.381  29.577  1.00  0.00     0.167 HD
ATOM     46  C   UNL A   1      43.183  30.896  31.894  1.00  0.00     0.031 A 
ATOM     47  C   UNL A   1      42.321  24.812  28.529  1.00  0.00     0.031 A 
ATOM     48  C   UNL A   1      44.277  29.975  32.008  1.00  0.00     0.049 A 
ATOM     49  C   UNL A   1      43.588  25.124  29.272  1.00  0.00     0.074 A 
ATOM     50  C   UNL A   1      45.455  30.124  32.717  1.00  0.00     0.029 A 
ATOM     51  N   UNL A   1      44.330  28.732  31.396  1.00  0.00    -0.354 N 
ATOM     52  N   UNL A   1      43.893  26.203  29.954  1.00  0.00    -0.248 NA
ATOM     53  C   UNL A   1      44.645  24.103  29.255  1.00  0.00     0.031 C 
ATOM     54  C   UNL A   1      46.241  28.990  32.496  1.00  0.00     0.029 A 
ATOM     55  C   UNL A   1      45.531  28.113  31.691  1.00  0.00     0.049 A 
ATOM     56  H   UNL A   1      43.619  28.348  30.834  1.00  0.00     0.167 HD
ATOM     57  C   UNL A   1      45.171  25.988  30.456  1.00  0.00     0.074 A 
ATOM     58  C   UNL A   1      45.581  24.673  30.005  1.00  0.00     0.031 C 
ATOM     59  C   UNL A   1      45.930  26.808  31.223  1.00  0.00     0.031 A 
BRANCH  46  60
ATOM     60  C   UNL A   1      43.269  32.218  32.605  1.00  0.00    -0.014 A 
ATOM     61  C   UNL A   1      43.691  33.372  31.919  1.00  0.00     0.010 A 
ATOM     62  C   UNL A   1      42.912  32.314  33.961  1.00  0.00     0.010 A 
ATOM     63  C   UNL A   1      43.795  34.592  32.588  1.00  0.00     0.020 A 
ATOM     64  C   UNL A   1      42.989  33.541  34.627  1.00  0.00     0.020 A 
ATOM     65  C   UNL A   1      43.442  34.668  33.939  1.00  0.00     0.054 A 
BRANCH  65  66
ATOM     66  S   UNL A   1      43.597  36.268  34.778  1.00  0.00     0.124 S 
ATOM     67  O   UNL A   1      42.233  36.497  35.250  1.00  0.00    -0.237 OA
ATOM     68  O   UNL A   1      44.581  35.985  35.818  1.00  0.00    -0.237 OA
ATOM     69  O   UNL A   1      44.045  37.173  33.723  1.00  0.00    -0.744 OA
ENDBRANCH  65  66
ENDBRANCH  46  60
BRANCH  47  70
ATOM     70  C   UNL A   1      42.115  23.513  27.838  1.00  0.00    -0.014 A 
ATOM     71  C   UNL A   1      42.654  23.298  26.559  1.00  0.00     0.010 A 
ATOM     72  C   UNL A   1      41.485  22.447  28.506  1.00  0.00     0.010 A 
ATOM     73  C   UNL A   1      42.598  22.029  25.974  1.00  0.00     0.020 A 
ATOM     74  C   UNL A   1      41.441  21.174  27.932  1.00  0.00     0.020 A 
ATOM     75  C   UNL A   1      42.012  20.970  26.674  1.00  0.00     0.054 A 
BRANCH  75  76
ATOM     76  S   UNL A   1      42.064  19.311  25.942  1.00  0.00     0.124 S 
ATOM     77  O   UNL A   1      40.661  19.064  25.630  1.00  0.00    -0.237 OA
ATOM     78  O   UNL A   1      42.944  19.513  24.792  1.00  0.00    -0.237 OA
ATOM     79  O   UNL A   1      42.624  18.482  27.006  1.00  0.00    -0.744 OA
ENDBRANCH  75  76
ENDBRANCH  47  70
BRANCH  59  80
ATOM     80  C   UNL A   1      47.296  26.332  31.633  1.00  0.00    -0.014 A 
ATOM     81  C   UNL A   1      47.479  25.653  32.850  1.00  0.00     0.010 A 
ATOM     82  C   UNL A   1      48.368  26.429  30.728  1.00  0.00     0.010 A 
ATOM     83  C   UNL A   1      48.712  25.069  33.150  1.00  0.00     0.020 A 
ATOM     84  C   UNL A   1      49.596  25.829  31.016  1.00  0.00     0.020 A 
ATOM     85  C   UNL A   1      49.757  25.147  32.224  1.00  0.00     0.054 A 
BRANCH  85  86
ATOM     86  S   UNL A   1      51.317  24.304  32.609  1.00  0.00     0.124 S 
ATOM     87  O   UNL A   1      51.387  24.432  34.062  1.00  0.00    -0.237 OA
ATOM     88  O   UNL A   1      51.075  22.954  32.107  1.00  0.00    -0.237 OA
ATOM     89  O   UNL A   1      52.319  25.070  31.871  1.00  0.00    -0.744 OA
ENDBRANCH  85  86
ENDBRANCH  59  80
ENDBRANCH  33  34
ENDBRANCH  25  28
ENDBRANCH  23  24
ENDBRANCH   1  23
TORSDOF 16
ENDMDL
