MODEL 1
REMARK VINA RESULT:     -12.5      0.000      0.000
REMARK SMILES O=C(NCCCCCCNC(=O)c1ccc(-c2c3nc(c(-c4ccc(S(=O)(=O)[O-])cc4)c4ccc([nH]4)c(-c4ccc(S(=O)(=O)[O-])cc4)c4nc(c(-c5ccc(S(=O)(=O)[O-])cc5)c5ccc2[nH]5)C=C4)C=C3)cc1)C1=Cc2cc(Cl)cc(-c3ccc(Cl)cc3)c2O[C@@H]1C(F)(F)F
REMARK SMILES IDX 7 1 6 2 5 3 4 4 3 5 1 6 2 7 73 9 74 10 90 11 75 12 89 13
REMARK SMILES IDX 76 14 88 15 77 16 80 17 78 18 79 19 91 20 92 21 93 22 94 23
REMARK SMILES IDX 81 24 82 25 87 26 83 27 86 28 84 29 85 30 8 31 9 32 10 33
REMARK SMILES IDX 11 34 12 36 13 37 14 38 72 39 15 40 71 41 16 42 17 43 18 44
REMARK SMILES IDX 65 45 19 46 70 47 64 48 66 49 20 50 69 51 63 52 62 53 21 55
REMARK SMILES IDX 51 56 32 57 50 58 33 59 36 60 49 61 67 62 34 63 35 64 48 66
REMARK SMILES IDX 68 67 37 68 22 69 23 70 31 71 24 72 30 73 25 74 26 75 27 76
REMARK SMILES IDX 28 77 29 78 52 79 53 80 61 81 54 82 60 83 55 84 56 85 57 86
REMARK SMILES IDX 58 87 59 88 38 89 39 90 47 91 40 92 46 93 41 94 42 95 43 96
REMARK SMILES IDX 44 97 45 98
REMARK H PARENT 3 8 10 35 66 54 36 65
REMARK Flexibility Score: inf
ROOT
ATOM      1  C   UNL A   1      32.126  27.682  27.151  1.00  0.00     0.002 C 
ENDROOT
BRANCH   1   2
ATOM      2  C   UNL A   1      30.894  27.560  26.245  1.00  0.00     0.002 C 
BRANCH   2   3
ATOM      3  C   UNL A   1      30.762  26.275  25.425  1.00  0.00     0.021 C 
BRANCH   3   4
ATOM      4  C   UNL A   1      29.957  25.136  26.053  1.00  0.00     0.116 C 
BRANCH   4   5
ATOM      5  N   UNL A   1      30.707  24.268  26.948  1.00  0.00    -0.352 N 
ATOM      6  O   UNL A   1      32.447  23.069  27.715  1.00  0.00    -0.270 OA
ATOM      7  C   UNL A   1      31.911  23.638  26.763  1.00  0.00     0.251 C 
ATOM      8  H   UNL A   1      30.285  24.107  27.823  1.00  0.00     0.163 HD
BRANCH   7   9
ATOM      9  C   UNL A   1      32.656  23.699  25.469  1.00  0.00     0.067 C 
ATOM     10  C   UNL A   1      33.959  24.018  25.429  1.00  0.00     0.025 C 
ATOM     11  C   UNL A   1      32.131  22.720  24.448  1.00  0.00     0.314 C 
ATOM     12  C   UNL A   1      34.832  22.889  25.050  1.00  0.00     0.019 A 
ATOM     13  O   UNL A   1      32.921  21.504  24.436  1.00  0.00    -0.475 OA
ATOM     14  C   UNL A   1      36.191  22.995  25.365  1.00  0.00     0.032 A 
ATOM     15  C   UNL A   1      34.261  21.639  24.727  1.00  0.00     0.135 A 
ATOM     16  C   UNL A   1      36.962  21.842  25.435  1.00  0.00     0.042 A 
ATOM     17  C   UNL A   1      35.029  20.466  24.850  1.00  0.00     0.026 A 
ATOM     18  Cl  UNL A   1      38.586  21.941  25.992  1.00  0.00    -0.084 Cl
ATOM     19  C   UNL A   1      36.391  20.595  25.190  1.00  0.00     0.033 A 
BRANCH  11  20
ATOM     20  C   UNL A   1      32.022  23.376  23.057  1.00  0.00     0.429 C 
ATOM     21  F   UNL A   1      32.338  22.507  22.068  1.00  0.00    -0.167 F 
ATOM     22  F   UNL A   1      30.758  23.805  22.811  1.00  0.00    -0.167 F 
ATOM     23  F   UNL A   1      32.832  24.453  22.917  1.00  0.00    -0.167 F 
ENDBRANCH  11  20
BRANCH  17  24
ATOM     24  C   UNL A   1      34.432  19.117  24.864  1.00  0.00    -0.015 A 
ATOM     25  C   UNL A   1      33.201  18.932  25.519  1.00  0.00     0.010 A 
ATOM     26  C   UNL A   1      35.043  17.997  24.297  1.00  0.00     0.010 A 
ATOM     27  C   UNL A   1      32.611  17.676  25.653  1.00  0.00     0.021 A 
ATOM     28  C   UNL A   1      34.456  16.728  24.423  1.00  0.00     0.021 A 
ATOM     29  C   UNL A   1      33.251  16.572  25.110  1.00  0.00     0.041 A 
ATOM     30  Cl  UNL A   1      32.552  15.012  25.293  1.00  0.00    -0.084 Cl
ENDBRANCH  17  24
ENDBRANCH   7   9
ENDBRANCH   4   5
ENDBRANCH   3   4
ENDBRANCH   2   3
ENDBRANCH   1   2
BRANCH   1  31
ATOM     31  C   UNL A   1      33.493  27.503  26.482  1.00  0.00     0.021 C 
BRANCH  31  32
ATOM     32  C   UNL A   1      34.072  28.729  25.790  1.00  0.00     0.116 C 
BRANCH  32  33
ATOM     33  N   UNL A   1      33.826  29.942  26.551  1.00  0.00    -0.352 N 
ATOM     34  C   UNL A   1      34.520  30.511  27.592  1.00  0.00     0.251 C 
ATOM     35  H   UNL A   1      33.024  30.441  26.275  1.00  0.00     0.163 HD
ATOM     36  O   UNL A   1      33.981  31.408  28.236  1.00  0.00    -0.269 OA
BRANCH  34  37
ATOM     37  C   UNL A   1      35.892  30.069  27.957  1.00  0.00     0.039 A 
ATOM     38  C   UNL A   1      36.110  29.545  29.237  1.00  0.00     0.014 A 
ATOM     39  C   UNL A   1      36.978  30.237  27.095  1.00  0.00     0.014 A 
ATOM     40  C   UNL A   1      37.396  29.159  29.632  1.00  0.00     0.010 A 
ATOM     41  C   UNL A   1      38.242  29.769  27.456  1.00  0.00     0.010 A 
ATOM     42  C   UNL A   1      38.472  29.247  28.737  1.00  0.00    -0.014 A 
BRANCH  42  43
ATOM     43  C   UNL A   1      39.850  28.841  29.127  1.00  0.00     0.031 A 
ATOM     44  C   UNL A   1      40.749  29.816  29.847  1.00  0.00     0.074 A 
ATOM     45  C   UNL A   1      40.315  27.622  28.785  1.00  0.00     0.049 A 
ATOM     46  N   UNL A   1      42.004  29.682  30.193  1.00  0.00    -0.248 NA
ATOM     47  C   UNL A   1      40.172  31.125  30.196  1.00  0.00     0.031 C 
ATOM     48  C   UNL A   1      39.560  26.598  28.059  1.00  0.00     0.029 A 
ATOM     49  N   UNL A   1      41.541  27.040  28.997  1.00  0.00    -0.354 N 
ATOM     50  C   UNL A   1      42.371  30.894  30.769  1.00  0.00     0.074 A 
ATOM     51  C   UNL A   1      41.222  31.766  30.687  1.00  0.00     0.031 C 
ATOM     52  C   UNL A   1      40.328  25.506  27.911  1.00  0.00     0.029 A 
ATOM     53  C   UNL A   1      41.642  25.765  28.492  1.00  0.00     0.049 A 
ATOM     54  H   UNL A   1      42.278  27.493  29.467  1.00  0.00     0.167 HD
ATOM     55  C   UNL A   1      43.553  31.245  31.331  1.00  0.00     0.031 A 
ATOM     56  C   UNL A   1      42.677  24.902  28.489  1.00  0.00     0.031 A 
ATOM     57  C   UNL A   1      44.683  30.363  31.446  1.00  0.00     0.049 A 
ATOM     58  C   UNL A   1      43.976  25.313  29.129  1.00  0.00     0.074 A 
ATOM     59  C   UNL A   1      45.899  30.600  32.063  1.00  0.00     0.029 A 
ATOM     60  N   UNL A   1      44.735  29.074  30.940  1.00  0.00    -0.354 N 
ATOM     61  N   UNL A   1      44.282  26.443  29.721  1.00  0.00    -0.248 NA
ATOM     62  C   UNL A   1      45.066  24.326  29.111  1.00  0.00     0.031 C 
ATOM     63  C   UNL A   1      46.704  29.469  31.889  1.00  0.00     0.029 A 
ATOM     64  C   UNL A   1      45.970  28.509  31.212  1.00  0.00     0.049 A 
ATOM     65  H   UNL A   1      44.003  28.625  30.457  1.00  0.00     0.167 HD
ATOM     66  C   UNL A   1      45.588  26.291  30.172  1.00  0.00     0.074 A 
ATOM     67  C   UNL A   1      46.010  24.957  29.796  1.00  0.00     0.031 C 
ATOM     68  C   UNL A   1      46.369  27.177  30.837  1.00  0.00     0.031 A 
BRANCH  55  69
ATOM     69  C   UNL A   1      43.688  32.646  31.869  1.00  0.00    -0.014 A 
ATOM     70  C   UNL A   1      44.126  33.702  31.050  1.00  0.00     0.010 A 
ATOM     71  C   UNL A   1      43.315  32.922  33.198  1.00  0.00     0.010 A 
ATOM     72  C   UNL A   1      44.225  34.999  31.560  1.00  0.00     0.020 A 
ATOM     73  C   UNL A   1      43.387  34.223  33.704  1.00  0.00     0.020 A 
ATOM     74  C   UNL A   1      43.857  35.252  32.884  1.00  0.00     0.054 A 
BRANCH  74  75
ATOM     75  S   UNL A   1      43.962  36.953  33.507  1.00  0.00     0.124 S 
ATOM     76  O   UNL A   1      43.835  37.732  32.277  1.00  0.00    -0.237 OA
ATOM     77  O   UNL A   1      42.826  37.032  34.421  1.00  0.00    -0.237 OA
ATOM     78  O   UNL A   1      45.276  37.009  34.145  1.00  0.00    -0.744 OA
ENDBRANCH  74  75
ENDBRANCH  55  69
BRANCH  56  79
ATOM     79  C   UNL A   1      42.528  23.555  27.871  1.00  0.00    -0.014 A 
ATOM     80  C   UNL A   1      41.972  22.494  28.606  1.00  0.00     0.010 A 
ATOM     81  C   UNL A   1      42.944  23.326  26.547  1.00  0.00     0.010 A 
ATOM     82  C   UNL A   1      41.859  21.220  28.039  1.00  0.00     0.020 A 
ATOM     83  C   UNL A   1      42.806  22.061  25.967  1.00  0.00     0.020 A 
ATOM     84  C   UNL A   1      42.279  21.013  26.722  1.00  0.00     0.054 A 
BRANCH  84  85
ATOM     85  S   UNL A   1      42.092  19.361  25.993  1.00  0.00     0.124 S 
ATOM     86  O   UNL A   1      42.598  18.502  27.057  1.00  0.00    -0.237 OA
ATOM     87  O   UNL A   1      40.654  19.285  25.746  1.00  0.00    -0.237 OA
ATOM     88  O   UNL A   1      42.919  19.424  24.791  1.00  0.00    -0.744 OA
ENDBRANCH  84  85
ENDBRANCH  56  79
BRANCH  68  89
ATOM     89  C   UNL A   1      47.745  26.721  31.242  1.00  0.00    -0.014 A 
ATOM     90  C   UNL A   1      47.970  26.095  32.480  1.00  0.00     0.010 A 
ATOM     91  C   UNL A   1      48.816  26.869  30.341  1.00  0.00     0.010 A 
ATOM     92  C   UNL A   1      49.250  25.655  32.825  1.00  0.00     0.020 A 
ATOM     93  C   UNL A   1      50.092  26.405  30.671  1.00  0.00     0.020 A 
ATOM     94  C   UNL A   1      50.304  25.813  31.918  1.00  0.00     0.054 A 
BRANCH  94  95
ATOM     95  S   UNL A   1      51.947  25.192  32.369  1.00  0.00     0.124 S 
ATOM     96  O   UNL A   1      52.148  25.794  33.683  1.00  0.00    -0.237 OA
ATOM     97  O   UNL A   1      51.756  23.744  32.363  1.00  0.00    -0.237 OA
ATOM     98  O   UNL A   1      52.813  25.704  31.309  1.00  0.00    -0.744 OA
ENDBRANCH  94  95
ENDBRANCH  68  89
ENDBRANCH  42  43
ENDBRANCH  34  37
ENDBRANCH  32  33
ENDBRANCH  31  32
ENDBRANCH   1  31
TORSDOF 18
ENDMDL
MODEL 2
REMARK VINA RESULT:     -11.9      2.195      2.812
REMARK SMILES O=C(NCCCCCCNC(=O)c1ccc(-c2c3nc(c(-c4ccc(S(=O)(=O)[O-])cc4)c4ccc([nH]4)c(-c4ccc(S(=O)(=O)[O-])cc4)c4nc(c(-c5ccc(S(=O)(=O)[O-])cc5)c5ccc2[nH]5)C=C4)C=C3)cc1)C1=Cc2cc(Cl)cc(-c3ccc(Cl)cc3)c2O[C@@H]1C(F)(F)F
REMARK SMILES IDX 7 1 6 2 5 3 4 4 3 5 1 6 2 7 73 9 74 10 90 11 75 12 89 13
REMARK SMILES IDX 76 14 88 15 77 16 80 17 78 18 79 19 91 20 92 21 93 22 94 23
REMARK SMILES IDX 81 24 82 25 87 26 83 27 86 28 84 29 85 30 8 31 9 32 10 33
REMARK SMILES IDX 11 34 12 36 13 37 14 38 72 39 15 40 71 41 16 42 17 43 18 44
REMARK SMILES IDX 65 45 19 46 70 47 64 48 66 49 20 50 69 51 63 52 62 53 21 55
REMARK SMILES IDX 51 56 32 57 50 58 33 59 36 60 49 61 67 62 34 63 35 64 48 66
REMARK SMILES IDX 68 67 37 68 22 69 23 70 31 71 24 72 30 73 25 74 26 75 27 76
REMARK SMILES IDX 28 77 29 78 52 79 53 80 61 81 54 82 60 83 55 84 56 85 57 86
REMARK SMILES IDX 58 87 59 88 38 89 39 90 47 91 40 92 46 93 41 94 42 95 43 96
REMARK SMILES IDX 44 97 45 98
REMARK H PARENT 3 8 10 35 66 54 36 65
REMARK Flexibility Score: inf
ROOT
ATOM      1  C   UNL A   1      32.052  27.749  26.944  1.00  0.00     0.002 C 
ENDROOT
BRANCH   1   2
ATOM      2  C   UNL A   1      31.236  27.617  25.652  1.00  0.00     0.002 C 
BRANCH   2   3
ATOM      3  C   UNL A   1      30.997  26.200  25.126  1.00  0.00     0.021 C 
BRANCH   3   4
ATOM      4  C   UNL A   1      30.115  25.288  25.979  1.00  0.00     0.116 C 
BRANCH   4   5
ATOM      5  N   UNL A   1      30.833  24.391  26.873  1.00  0.00    -0.352 N 
ATOM      6  O   UNL A   1      32.521  23.117  27.631  1.00  0.00    -0.270 OA
ATOM      7  C   UNL A   1      32.002  23.704  26.680  1.00  0.00     0.251 C 
ATOM      8  H   UNL A   1      30.412  24.257  27.753  1.00  0.00     0.163 HD
BRANCH   7   9
ATOM      9  C   UNL A   1      32.736  23.719  25.378  1.00  0.00     0.067 C 
ATOM     10  C   UNL A   1      34.046  24.004  25.319  1.00  0.00     0.025 C 
ATOM     11  C   UNL A   1      32.176  22.734  24.382  1.00  0.00     0.314 C 
ATOM     12  C   UNL A   1      34.887  22.847  24.954  1.00  0.00     0.019 A 
ATOM     13  O   UNL A   1      32.936  21.498  24.388  1.00  0.00    -0.475 OA
ATOM     14  C   UNL A   1      36.251  22.924  25.254  1.00  0.00     0.032 A 
ATOM     15  C   UNL A   1      34.281  21.605  24.662  1.00  0.00     0.135 A 
ATOM     16  C   UNL A   1      36.994  21.754  25.340  1.00  0.00     0.042 A 
ATOM     17  C   UNL A   1      35.020  20.415  24.801  1.00  0.00     0.026 A 
ATOM     18  Cl  UNL A   1      38.625  21.823  25.879  1.00  0.00    -0.084 Cl
ATOM     19  C   UNL A   1      36.389  20.517  25.126  1.00  0.00     0.033 A 
BRANCH  11  20
ATOM     20  C   UNL A   1      32.070  23.364  22.980  1.00  0.00     0.429 C 
ATOM     21  F   UNL A   1      32.415  22.486  22.009  1.00  0.00    -0.167 F 
ATOM     22  F   UNL A   1      30.800  23.762  22.712  1.00  0.00    -0.167 F 
ATOM     23  F   UNL A   1      32.859  24.456  22.831  1.00  0.00    -0.167 F 
ENDBRANCH  11  20
BRANCH  17  24
ATOM     24  C   UNL A   1      34.390  19.083  24.849  1.00  0.00    -0.015 A 
ATOM     25  C   UNL A   1      33.160  18.943  25.517  1.00  0.00     0.010 A 
ATOM     26  C   UNL A   1      34.968  17.936  24.301  1.00  0.00     0.010 A 
ATOM     27  C   UNL A   1      32.540  17.705  25.682  1.00  0.00     0.021 A 
ATOM     28  C   UNL A   1      34.351  16.685  24.459  1.00  0.00     0.021 A 
ATOM     29  C   UNL A   1      33.148  16.575  25.157  1.00  0.00     0.041 A 
ATOM     30  Cl  UNL A   1      32.411  15.036  25.379  1.00  0.00    -0.084 Cl
ENDBRANCH  17  24
ENDBRANCH   7   9
ENDBRANCH   4   5
ENDBRANCH   3   4
ENDBRANCH   2   3
ENDBRANCH   1   2
BRANCH   1  31
ATOM     31  C   UNL A   1      33.577  27.748  26.798  1.00  0.00     0.021 C 
BRANCH  31  32
ATOM     32  C   UNL A   1      34.172  28.833  25.912  1.00  0.00     0.116 C 
BRANCH  32  33
ATOM     33  N   UNL A   1      33.826  30.163  26.386  1.00  0.00    -0.352 N 
ATOM     34  C   UNL A   1      34.304  30.896  27.446  1.00  0.00     0.251 C 
ATOM     35  H   UNL A   1      33.130  30.616  25.858  1.00  0.00     0.163 HD
ATOM     36  O   UNL A   1      33.683  31.898  27.794  1.00  0.00    -0.269 OA
BRANCH  34  37
ATOM     37  C   UNL A   1      35.540  30.509  28.175  1.00  0.00     0.039 A 
ATOM     38  C   UNL A   1      36.772  30.987  27.709  1.00  0.00     0.014 A 
ATOM     39  C   UNL A   1      35.518  29.623  29.254  1.00  0.00     0.014 A 
ATOM     40  C   UNL A   1      37.961  30.610  28.343  1.00  0.00     0.010 A 
ATOM     41  C   UNL A   1      36.694  29.318  29.940  1.00  0.00     0.010 A 
ATOM     42  C   UNL A   1      37.932  29.789  29.480  1.00  0.00    -0.014 A 
BRANCH  42  43
ATOM     43  C   UNL A   1      39.180  29.373  30.176  1.00  0.00     0.031 A 
ATOM     44  C   UNL A   1      39.622  30.091  31.428  1.00  0.00     0.074 A 
ATOM     45  C   UNL A   1      39.947  28.394  29.655  1.00  0.00     0.049 A 
ATOM     46  N   UNL A   1      40.717  29.935  32.127  1.00  0.00    -0.248 NA
ATOM     47  C   UNL A   1      38.730  31.144  31.944  1.00  0.00     0.031 C 
ATOM     48  C   UNL A   1      39.652  27.643  28.433  1.00  0.00     0.029 A 
ATOM     49  N   UNL A   1      41.140  27.867  30.086  1.00  0.00    -0.354 N 
ATOM     50  C   UNL A   1      40.660  30.887  33.140  1.00  0.00     0.074 A 
ATOM     51  C   UNL A   1      39.445  31.643  32.942  1.00  0.00     0.031 C 
ATOM     52  C   UNL A   1      40.620  26.735  28.229  1.00  0.00     0.029 A 
ATOM     53  C   UNL A   1      41.626  26.865  29.278  1.00  0.00     0.049 A 
ATOM     54  H   UNL A   1      41.603  28.175  30.898  1.00  0.00     0.167 HD
ATOM     55  C   UNL A   1      41.530  31.100  34.157  1.00  0.00     0.031 A 
ATOM     56  C   UNL A   1      42.758  26.139  29.366  1.00  0.00     0.031 A 
ATOM     57  C   UNL A   1      42.719  30.321  34.376  1.00  0.00     0.049 A 
ATOM     58  C   UNL A   1      43.703  26.389  30.510  1.00  0.00     0.074 A 
ATOM     59  C   UNL A   1      43.626  30.411  35.417  1.00  0.00     0.029 A 
ATOM     60  N   UNL A   1      43.162  29.304  33.544  1.00  0.00    -0.354 N 
ATOM     61  N   UNL A   1      43.599  27.254  31.491  1.00  0.00    -0.248 NA
ATOM     62  C   UNL A   1      44.914  25.557  30.564  1.00  0.00     0.031 C 
ATOM     63  C   UNL A   1      44.645  29.479  35.189  1.00  0.00     0.029 A 
ATOM     64  C   UNL A   1      44.342  28.772  34.037  1.00  0.00     0.049 A 
ATOM     65  H   UNL A   1      42.706  29.004  32.725  1.00  0.00     0.167 HD
ATOM     66  C   UNL A   1      44.714  27.048  32.295  1.00  0.00     0.074 A 
ATOM     67  C   UNL A   1      45.472  25.970  31.694  1.00  0.00     0.031 C 
ATOM     68  C   UNL A   1      45.079  27.694  33.430  1.00  0.00     0.031 A 
BRANCH  55  69
ATOM     69  C   UNL A   1      41.230  32.224  35.115  1.00  0.00    -0.014 A 
ATOM     70  C   UNL A   1      40.501  31.999  36.297  1.00  0.00     0.010 A 
ATOM     71  C   UNL A   1      41.735  33.512  34.858  1.00  0.00     0.010 A 
ATOM     72  C   UNL A   1      40.251  33.049  37.185  1.00  0.00     0.020 A 
ATOM     73  C   UNL A   1      41.510  34.559  35.758  1.00  0.00     0.020 A 
ATOM     74  C   UNL A   1      40.756  34.323  36.909  1.00  0.00     0.054 A 
BRANCH  74  75
ATOM     75  S   UNL A   1      40.445  35.658  38.098  1.00  0.00     0.124 S 
ATOM     76  O   UNL A   1      41.775  35.870  38.665  1.00  0.00    -0.237 OA
ATOM     77  O   UNL A   1      39.945  36.735  37.249  1.00  0.00    -0.237 OA
ATOM     78  O   UNL A   1      39.463  35.084  39.016  1.00  0.00    -0.744 OA
ENDBRANCH  74  75
ENDBRANCH  55  69
BRANCH  56  79
ATOM     79  C   UNL A   1      43.057  25.094  28.348  1.00  0.00    -0.014 A 
ATOM     80  C   UNL A   1      43.798  25.414  27.197  1.00  0.00     0.010 A 
ATOM     81  C   UNL A   1      42.601  23.775  28.522  1.00  0.00     0.010 A 
ATOM     82  C   UNL A   1      44.054  24.443  26.224  1.00  0.00     0.020 A 
ATOM     83  C   UNL A   1      42.879  22.794  27.565  1.00  0.00     0.020 A 
ATOM     84  C   UNL A   1      43.591  23.138  26.415  1.00  0.00     0.054 A 
BRANCH  84  85
ATOM     85  S   UNL A   1      43.964  21.884  25.157  1.00  0.00     0.124 S 
ATOM     86  O   UNL A   1      42.956  20.867  25.435  1.00  0.00    -0.237 OA
ATOM     87  O   UNL A   1      43.790  22.625  23.910  1.00  0.00    -0.237 OA
ATOM     88  O   UNL A   1      45.342  21.501  25.456  1.00  0.00    -0.744 OA
ENDBRANCH  84  85
ENDBRANCH  56  79
BRANCH  68  89
ATOM     89  C   UNL A   1      46.330  27.226  34.122  1.00  0.00    -0.014 A 
ATOM     90  C   UNL A   1      46.298  26.169  35.048  1.00  0.00     0.010 A 
ATOM     91  C   UNL A   1      47.564  27.817  33.795  1.00  0.00     0.010 A 
ATOM     92  C   UNL A   1      47.476  25.733  35.660  1.00  0.00     0.020 A 
ATOM     93  C   UNL A   1      48.748  27.365  34.383  1.00  0.00     0.020 A 
ATOM     94  C   UNL A   1      48.694  26.333  35.324  1.00  0.00     0.054 A 
BRANCH  94  95
ATOM     95  S   UNL A   1      50.215  25.719  36.096  1.00  0.00     0.124 S 
ATOM     96  O   UNL A   1      50.613  26.853  36.926  1.00  0.00    -0.237 OA
ATOM     97  O   UNL A   1      49.752  24.540  36.824  1.00  0.00    -0.237 OA
ATOM     98  O   UNL A   1      51.091  25.438  34.961  1.00  0.00    -0.744 OA
ENDBRANCH  94  95
ENDBRANCH  68  89
ENDBRANCH  42  43
ENDBRANCH  34  37
ENDBRANCH  32  33
ENDBRANCH  31  32
ENDBRANCH   1  31
TORSDOF 18
ENDMDL
MODEL 3
REMARK VINA RESULT:     -11.8      4.545     10.384
REMARK SMILES O=C(NCCCCCCNC(=O)c1ccc(-c2c3nc(c(-c4ccc(S(=O)(=O)[O-])cc4)c4ccc([nH]4)c(-c4ccc(S(=O)(=O)[O-])cc4)c4nc(c(-c5ccc(S(=O)(=O)[O-])cc5)c5ccc2[nH]5)C=C4)C=C3)cc1)C1=Cc2cc(Cl)cc(-c3ccc(Cl)cc3)c2O[C@@H]1C(F)(F)F
REMARK SMILES IDX 7 1 6 2 5 3 4 4 3 5 1 6 2 7 73 9 74 10 90 11 75 12 89 13
REMARK SMILES IDX 76 14 88 15 77 16 80 17 78 18 79 19 91 20 92 21 93 22 94 23
REMARK SMILES IDX 81 24 82 25 87 26 83 27 86 28 84 29 85 30 8 31 9 32 10 33
REMARK SMILES IDX 11 34 12 36 13 37 14 38 72 39 15 40 71 41 16 42 17 43 18 44
REMARK SMILES IDX 65 45 19 46 70 47 64 48 66 49 20 50 69 51 63 52 62 53 21 55
REMARK SMILES IDX 51 56 32 57 50 58 33 59 36 60 49 61 67 62 34 63 35 64 48 66
REMARK SMILES IDX 68 67 37 68 22 69 23 70 31 71 24 72 30 73 25 74 26 75 27 76
REMARK SMILES IDX 28 77 29 78 52 79 53 80 61 81 54 82 60 83 55 84 56 85 57 86
REMARK SMILES IDX 58 87 59 88 38 89 39 90 47 91 40 92 46 93 41 94 42 95 43 96
REMARK SMILES IDX 44 97 45 98
REMARK H PARENT 3 8 10 35 66 54 36 65
REMARK Flexibility Score: inf
ROOT
ATOM      1  C   UNL A   1      36.263  23.059  25.993  1.00  0.00     0.002 C 
ENDROOT
BRANCH   1   2
ATOM      2  C   UNL A   1      35.464  21.814  26.399  1.00  0.00     0.002 C 
BRANCH   2   3
ATOM      3  C   UNL A   1      34.839  20.994  25.269  1.00  0.00     0.021 C 
BRANCH   3   4
ATOM      4  C   UNL A   1      33.352  20.662  25.400  1.00  0.00     0.116 C 
BRANCH   4   5
ATOM      5  N   UNL A   1      32.588  21.565  26.248  1.00  0.00    -0.352 N 
ATOM      6  O   UNL A   1      31.255  23.293  26.783  1.00  0.00    -0.270 OA
ATOM      7  C   UNL A   1      31.991  22.762  25.950  1.00  0.00     0.251 C 
ATOM      8  H   UNL A   1      32.484  21.270  27.182  1.00  0.00     0.163 HD
BRANCH   7   9
ATOM      9  C   UNL A   1      32.114  23.406  24.607  1.00  0.00     0.067 C 
ATOM     10  C   UNL A   1      31.030  23.782  23.912  1.00  0.00     0.025 C 
ATOM     11  C   UNL A   1      33.369  24.232  24.471  1.00  0.00     0.314 C 
ATOM     12  C   UNL A   1      30.877  25.247  23.801  1.00  0.00     0.019 A 
ATOM     13  O   UNL A   1      33.101  25.635  24.724  1.00  0.00    -0.475 OA
ATOM     14  C   UNL A   1      29.611  25.736  23.464  1.00  0.00     0.032 A 
ATOM     15  C   UNL A   1      31.855  26.097  24.362  1.00  0.00     0.135 A 
ATOM     16  C   UNL A   1      29.294  27.055  23.759  1.00  0.00     0.042 A 
ATOM     17  C   UNL A   1      31.517  27.418  24.710  1.00  0.00     0.026 A 
ATOM     18  Cl  UNL A   1      27.687  27.617  23.513  1.00  0.00    -0.084 Cl
ATOM     19  C   UNL A   1      30.227  27.884  24.380  1.00  0.00     0.033 A 
BRANCH  11  20
ATOM     20  C   UNL A   1      34.046  23.990  23.107  1.00  0.00     0.429 C 
ATOM     21  F   UNL A   1      33.767  22.757  22.622  1.00  0.00    -0.167 F 
ATOM     22  F   UNL A   1      33.617  24.880  22.177  1.00  0.00    -0.167 F 
ATOM     23  F   UNL A   1      35.395  24.104  23.161  1.00  0.00    -0.167 F 
ENDBRANCH  11  20
BRANCH  17  24
ATOM     24  C   UNL A   1      32.354  28.252  25.593  1.00  0.00    -0.015 A 
ATOM     25  C   UNL A   1      31.747  29.308  26.297  1.00  0.00     0.010 A 
ATOM     26  C   UNL A   1      33.732  28.079  25.738  1.00  0.00     0.010 A 
ATOM     27  C   UNL A   1      32.479  30.195  27.084  1.00  0.00     0.021 A 
ATOM     28  C   UNL A   1      34.478  28.964  26.531  1.00  0.00     0.021 A 
ATOM     29  C   UNL A   1      33.851  30.023  27.190  1.00  0.00     0.041 A 
ATOM     30  Cl  UNL A   1      34.773  31.128  28.133  1.00  0.00    -0.084 Cl
ENDBRANCH  17  24
ENDBRANCH   7   9
ENDBRANCH   4   5
ENDBRANCH   3   4
ENDBRANCH   2   3
ENDBRANCH   1   2
BRANCH   1  31
ATOM     31  C   UNL A   1      37.788  22.916  25.955  1.00  0.00     0.021 C 
BRANCH  31  32
ATOM     32  C   UNL A   1      38.587  24.018  26.638  1.00  0.00     0.116 C 
BRANCH  32  33
ATOM     33  N   UNL A   1      39.969  24.037  26.189  1.00  0.00    -0.352 N 
ATOM     34  C   UNL A   1      40.996  24.908  26.465  1.00  0.00     0.251 C 
ATOM     35  H   UNL A   1      40.211  23.300  25.583  1.00  0.00     0.163 HD
ATOM     36  O   UNL A   1      42.011  24.857  25.773  1.00  0.00    -0.269 OA
BRANCH  34  37
ATOM     37  C   UNL A   1      40.909  25.901  27.567  1.00  0.00     0.039 A 
ATOM     38  C   UNL A   1      39.914  25.739  28.540  1.00  0.00     0.014 A 
ATOM     39  C   UNL A   1      41.731  27.029  27.616  1.00  0.00     0.014 A 
ATOM     40  C   UNL A   1      39.772  26.678  29.568  1.00  0.00     0.010 A 
ATOM     41  C   UNL A   1      41.649  27.916  28.690  1.00  0.00     0.010 A 
ATOM     42  C   UNL A   1      40.654  27.764  29.666  1.00  0.00    -0.014 A 
BRANCH  42  43
ATOM     43  C   UNL A   1      40.530  28.777  30.750  1.00  0.00     0.031 A 
ATOM     44  C   UNL A   1      41.412  28.688  31.972  1.00  0.00     0.074 A 
ATOM     45  C   UNL A   1      39.588  29.738  30.669  1.00  0.00     0.049 A 
ATOM     46  N   UNL A   1      41.397  29.419  33.057  1.00  0.00    -0.248 NA
ATOM     47  C   UNL A   1      42.424  27.618  31.988  1.00  0.00     0.031 C 
ATOM     48  C   UNL A   1      38.648  29.915  29.559  1.00  0.00     0.029 A 
ATOM     49  N   UNL A   1      39.260  30.746  31.542  1.00  0.00    -0.354 N 
ATOM     50  C   UNL A   1      42.369  28.880  33.892  1.00  0.00     0.074 A 
ATOM     51  C   UNL A   1      42.926  27.735  33.209  1.00  0.00     0.031 C 
ATOM     52  C   UNL A   1      37.871  30.982  29.805  1.00  0.00     0.029 A 
ATOM     53  C   UNL A   1      38.225  31.541  31.106  1.00  0.00     0.049 A 
ATOM     54  H   UNL A   1      39.722  30.888  32.399  1.00  0.00     0.167 HD
ATOM     55  C   UNL A   1      42.776  29.308  35.111  1.00  0.00     0.031 A 
ATOM     56  C   UNL A   1      37.622  32.595  31.690  1.00  0.00     0.031 A 
ATOM     57  C   UNL A   1      42.248  30.471  35.774  1.00  0.00     0.049 A 
ATOM     58  C   UNL A   1      38.100  33.058  33.040  1.00  0.00     0.074 A 
ATOM     59  C   UNL A   1      42.644  31.029  36.977  1.00  0.00     0.029 A 
ATOM     60  N   UNL A   1      41.215  31.257  35.287  1.00  0.00    -0.354 N 
ATOM     61  N   UNL A   1      39.061  32.568  33.786  1.00  0.00    -0.248 NA
ATOM     62  C   UNL A   1      37.417  34.222  33.622  1.00  0.00     0.031 C 
ATOM     63  C   UNL A   1      41.818  32.127  37.240  1.00  0.00     0.029 A 
ATOM     64  C   UNL A   1      40.946  32.285  36.176  1.00  0.00     0.049 A 
ATOM     65  H   UNL A   1      40.743  31.108  34.436  1.00  0.00     0.167 HD
ATOM     66  C   UNL A   1      39.119  33.384  34.911  1.00  0.00     0.074 A 
ATOM     67  C   UNL A   1      38.105  34.404  34.741  1.00  0.00     0.031 C 
ATOM     68  C   UNL A   1      39.938  33.296  35.987  1.00  0.00     0.031 A 
BRANCH  55  69
ATOM     69  C   UNL A   1      43.848  28.516  35.814  1.00  0.00    -0.014 A 
ATOM     70  C   UNL A   1      43.523  27.451  36.673  1.00  0.00     0.010 A 
ATOM     71  C   UNL A   1      45.204  28.805  35.567  1.00  0.00     0.010 A 
ATOM     72  C   UNL A   1      44.531  26.714  37.301  1.00  0.00     0.020 A 
ATOM     73  C   UNL A   1      46.215  28.052  36.172  1.00  0.00     0.020 A 
ATOM     74  C   UNL A   1      45.871  27.020  37.047  1.00  0.00     0.054 A 
BRANCH  74  75
ATOM     75  S   UNL A   1      47.158  26.022  37.848  1.00  0.00     0.124 S 
ATOM     76  O   UNL A   1      47.618  25.184  36.743  1.00  0.00    -0.237 OA
ATOM     77  O   UNL A   1      48.107  27.031  38.309  1.00  0.00    -0.237 OA
ATOM     78  O   UNL A   1      46.440  25.315  38.907  1.00  0.00    -0.744 OA
ENDBRANCH  74  75
ENDBRANCH  55  69
BRANCH  56  79
ATOM     79  C   UNL A   1      36.508  33.299  30.997  1.00  0.00    -0.014 A 
ATOM     80  C   UNL A   1      36.735  33.962  29.777  1.00  0.00     0.010 A 
ATOM     81  C   UNL A   1      35.216  33.314  31.552  1.00  0.00     0.010 A 
ATOM     82  C   UNL A   1      35.698  34.650  29.139  1.00  0.00     0.020 A 
ATOM     83  C   UNL A   1      34.170  33.977  30.903  1.00  0.00     0.020 A 
ATOM     84  C   UNL A   1      34.421  34.653  29.708  1.00  0.00     0.054 A 
BRANCH  84  85
ATOM     85  S   UNL A   1      33.081  35.523  28.847  1.00  0.00     0.124 S 
ATOM     86  O   UNL A   1      33.814  36.527  28.084  1.00  0.00    -0.237 OA
ATOM     87  O   UNL A   1      32.464  34.456  28.063  1.00  0.00    -0.237 OA
ATOM     88  O   UNL A   1      32.257  36.041  29.936  1.00  0.00    -0.744 OA
ENDBRANCH  84  85
ENDBRANCH  56  79
BRANCH  68  89
ATOM     89  C   UNL A   1      39.803  34.354  37.048  1.00  0.00    -0.014 A 
ATOM     90  C   UNL A   1      39.022  34.139  38.197  1.00  0.00     0.010 A 
ATOM     91  C   UNL A   1      40.519  35.559  36.919  1.00  0.00     0.010 A 
ATOM     92  C   UNL A   1      38.933  35.124  39.183  1.00  0.00     0.020 A 
ATOM     93  C   UNL A   1      40.454  36.535  37.916  1.00  0.00     0.020 A 
ATOM     94  C   UNL A   1      39.649  36.317  39.037  1.00  0.00     0.054 A 
BRANCH  94  95
ATOM     95  S   UNL A   1      39.554  37.562  40.351  1.00  0.00     0.124 S 
ATOM     96  O   UNL A   1      38.751  38.607  39.722  1.00  0.00    -0.237 OA
ATOM     97  O   UNL A   1      38.899  36.834  41.436  1.00  0.00    -0.237 OA
ATOM     98  O   UNL A   1      40.950  37.912  40.599  1.00  0.00    -0.744 OA
ENDBRANCH  94  95
ENDBRANCH  68  89
ENDBRANCH  42  43
ENDBRANCH  34  37
ENDBRANCH  32  33
ENDBRANCH  31  32
ENDBRANCH   1  31
TORSDOF 18
ENDMDL
