MODEL 1
REMARK VINA RESULT:     -11.9      0.000      0.000
REMARK SMILES Cc1ccc(-c2c(C)sc(NC(=O)[C@H]3CC=CC[C@H]3C(=O)NCCCCCCNC(=O)c3ccc(-c4c5nc(c(-c6ccc(S(=O)(=O)[O-])cc6)c6ccc([nH]6)c(-c6ccc(S(=O)(=O)[O-])cc6)c6nc(c(-c7ccc(S(=O)(=O)[O-])cc7)c7ccc4[nH]7)C=C6)C=C5)cc3)c2C(N)=O)cc1
REMARK SMILES IDX 25 1 24 2 23 3 22 4 20 5 21 6 19 8 14 9 15 10 16 11 18 12
REMARK SMILES IDX 17 13 12 14 11 15 13 17 10 18 6 19 7 20 92 21 8 22 9 23 5 24
REMARK SMILES IDX 1 25 2 26 3 27 97 28 4 29 96 30 93 31 94 32 95 33 26 36
REMARK SMILES IDX 27 37 28 38 29 39 30 40 31 42 32 43 33 44 91 45 34 46 90 47
REMARK SMILES IDX 35 48 36 49 37 50 84 51 38 52 89 53 83 54 85 55 39 56 88 57
REMARK SMILES IDX 82 58 81 59 40 61 70 62 51 63 69 64 52 65 55 66 68 67 86 68
REMARK SMILES IDX 53 69 54 70 67 72 87 73 56 74 41 75 42 76 50 77 43 78 49 79
REMARK SMILES IDX 44 80 45 81 46 82 47 83 48 84 71 85 72 86 80 87 73 88 79 89
REMARK SMILES IDX 74 90 75 91 76 92 77 93 78 94 57 95 58 96 66 97 59 98 65 99
REMARK SMILES IDX 60 100 61 101 62 102 63 103 64 104
REMARK H PARENT 22 7 11 16 94 34 94 35 29 41 85 60 55 71
REMARK Flexibility Score: inf
ROOT
ATOM      1  C   UNL A   1      39.337  23.133  26.718  1.00  0.00     0.002 C 
ENDROOT
BRANCH   1   2
ATOM      2  C   UNL A   1      38.139  24.068  26.508  1.00  0.00     0.021 C 
BRANCH   2   3
ATOM      3  C   UNL A   1      36.827  23.342  26.217  1.00  0.00     0.116 C 
BRANCH   3   4
ATOM      4  N   UNL A   1      36.010  24.129  25.337  1.00  0.00    -0.356 N 
ATOM      5  C   UNL A   1      34.965  23.772  24.566  1.00  0.00     0.224 C 
ATOM      6  O   UNL A   1      34.554  24.618  23.763  1.00  0.00    -0.275 OA
ATOM      7  H   UNL A   1      36.251  25.083  25.290  1.00  0.00     0.163 HD
BRANCH   5   8
ATOM      8  C   UNL A   1      34.233  22.446  24.708  1.00  0.00     0.095 C 
ATOM      9  C   UNL A   1      32.693  22.376  24.727  1.00  0.00     0.095 C 
ATOM     10  C   UNL A   1      32.293  21.120  25.529  1.00  0.00     0.041 C 
ATOM     11  C   UNL A   1      33.237  19.942  25.355  1.00  0.00    -0.030 C 
ATOM     12  C   UNL A   1      34.881  21.261  24.003  1.00  0.00     0.041 C 
ATOM     13  C   UNL A   1      34.367  19.989  24.627  1.00  0.00    -0.030 C 
BRANCH   9  14
ATOM     14  C   UNL A   1      31.849  22.701  23.461  1.00  0.00     0.229 C 
ATOM     15  N   UNL A   1      31.325  23.880  23.013  1.00  0.00    -0.317 N 
ATOM     16  H   UNL A   1      30.573  23.757  22.390  1.00  0.00     0.170 HD
ATOM     17  O   UNL A   1      31.493  21.727  22.771  1.00  0.00    -0.274 OA
BRANCH  15  18
ATOM     18  C   UNL A   1      31.623  25.206  23.247  1.00  0.00     0.109 A 
ATOM     19  C   UNL A   1      31.914  27.390  24.036  1.00  0.00     0.010 A 
ATOM     20  C   UNL A   1      32.585  27.397  22.821  1.00  0.00     0.012 A 
ATOM     21  C   UNL A   1      31.325  26.067  24.309  1.00  0.00     0.082 A 
ATOM     22  C   UNL A   1      33.565  28.349  22.221  1.00  0.00     0.057 C 
ATOM     23  S   UNL A   1      31.972  26.134  21.871  1.00  0.00    -0.122 S 
BRANCH  19  24
ATOM     24  C   UNL A   1      31.826  28.638  24.796  1.00  0.00    -0.016 A 
ATOM     25  C   UNL A   1      31.400  32.402  26.867  1.00  0.00     0.044 C 
ATOM     26  C   UNL A   1      31.570  31.108  26.129  1.00  0.00    -0.051 A 
ATOM     27  C   UNL A   1      32.510  30.156  26.554  1.00  0.00     0.004 A 
ATOM     28  C   UNL A   1      30.755  30.814  25.036  1.00  0.00     0.004 A 
ATOM     29  C   UNL A   1      32.647  28.930  25.885  1.00  0.00     0.009 A 
ATOM     30  C   UNL A   1      30.873  29.587  24.390  1.00  0.00     0.009 A 
ENDBRANCH  19  24
BRANCH  21  31
ATOM     31  C   UNL A   1      30.556  25.762  25.527  1.00  0.00     0.252 C 
ATOM     32  N   UNL A   1      29.202  25.584  25.405  1.00  0.00    -0.365 N 
ATOM     33  O   UNL A   1      31.048  25.650  26.632  1.00  0.00    -0.269 OA
ATOM     34  H   UNL A   1      28.772  25.667  24.523  1.00  0.00     0.159 HD
ATOM     35  H   UNL A   1      28.660  25.372  26.198  1.00  0.00     0.159 HD
ENDBRANCH  21  31
ENDBRANCH  15  18
ENDBRANCH   9  14
ENDBRANCH   5   8
ENDBRANCH   3   4
ENDBRANCH   2   3
ENDBRANCH   1   2
BRANCH   1  36
ATOM     36  C   UNL A   1      40.629  23.799  27.221  1.00  0.00     0.002 C 
BRANCH  36  37
ATOM     37  C   UNL A   1      41.126  25.003  26.419  1.00  0.00     0.021 C 
BRANCH  37  38
ATOM     38  C   UNL A   1      42.037  25.924  27.205  1.00  0.00     0.116 C 
BRANCH  38  39
ATOM     39  N   UNL A   1      42.791  26.857  26.391  1.00  0.00    -0.352 N 
ATOM     40  C   UNL A   1      42.226  28.040  25.931  1.00  0.00     0.251 C 
ATOM     41  H   UNL A   1      43.725  26.648  26.160  1.00  0.00     0.163 HD
ATOM     42  O   UNL A   1      42.120  28.351  24.753  1.00  0.00    -0.269 OA
BRANCH  40  43
ATOM     43  C   UNL A   1      41.740  28.940  26.996  1.00  0.00     0.039 A 
ATOM     44  C   UNL A   1      42.655  29.662  27.768  1.00  0.00     0.014 A 
ATOM     45  C   UNL A   1      40.399  28.843  27.359  1.00  0.00     0.014 A 
ATOM     46  C   UNL A   1      42.253  30.145  29.009  1.00  0.00     0.010 A 
ATOM     47  C   UNL A   1      40.039  29.196  28.630  1.00  0.00     0.010 A 
ATOM     48  C   UNL A   1      40.974  29.821  29.456  1.00  0.00    -0.014 A 
BRANCH  48  49
ATOM     49  C   UNL A   1      40.443  30.139  30.760  1.00  0.00     0.031 A 
ATOM     50  C   UNL A   1      39.704  31.403  30.903  1.00  0.00     0.074 A 
ATOM     51  C   UNL A   1      40.465  29.179  31.707  1.00  0.00     0.049 A 
ATOM     52  N   UNL A   1      39.512  32.014  32.016  1.00  0.00    -0.248 NA
ATOM     53  C   UNL A   1      39.152  32.120  29.752  1.00  0.00     0.031 C 
ATOM     54  C   UNL A   1      39.699  29.099  32.943  1.00  0.00     0.029 A 
ATOM     55  N   UNL A   1      41.326  28.103  31.805  1.00  0.00    -0.354 N 
ATOM     56  C   UNL A   1      38.534  32.959  31.785  1.00  0.00     0.074 A 
ATOM     57  C   UNL A   1      38.456  33.088  30.352  1.00  0.00     0.031 C 
ATOM     58  C   UNL A   1      40.300  28.220  33.770  1.00  0.00     0.029 A 
ATOM     59  C   UNL A   1      41.561  27.830  33.149  1.00  0.00     0.049 A 
ATOM     60  H   UNL A   1      41.712  27.609  31.046  1.00  0.00     0.167 HD
ATOM     61  C   UNL A   1      37.761  33.365  32.829  1.00  0.00     0.031 A 
ATOM     62  C   UNL A   1      42.793  28.085  33.695  1.00  0.00     0.031 A 
ATOM     63  C   UNL A   1      38.224  32.749  34.073  1.00  0.00     0.049 A 
ATOM     64  C   UNL A   1      42.759  29.236  34.685  1.00  0.00     0.074 A 
ATOM     65  C   UNL A   1      37.775  31.646  34.779  1.00  0.00     0.029 A 
ATOM     66  N   UNL A   1      39.505  33.025  34.535  1.00  0.00    -0.354 N 
ATOM     67  N   UNL A   1      41.848  30.170  34.691  1.00  0.00    -0.248 NA
ATOM     68  C   UNL A   1      43.735  29.408  35.757  1.00  0.00     0.031 C 
ATOM     69  C   UNL A   1      38.844  31.192  35.595  1.00  0.00     0.029 A 
ATOM     70  C   UNL A   1      39.923  32.040  35.409  1.00  0.00     0.049 A 
ATOM     71  H   UNL A   1      40.039  33.811  34.277  1.00  0.00     0.167 HD
ATOM     72  C   UNL A   1      42.073  31.031  35.731  1.00  0.00     0.074 A 
ATOM     73  C   UNL A   1      43.272  30.514  36.367  1.00  0.00     0.031 C 
ATOM     74  C   UNL A   1      41.254  32.092  35.999  1.00  0.00     0.031 A 
BRANCH  61  75
ATOM     75  C   UNL A   1      36.408  34.029  32.689  1.00  0.00    -0.014 A 
ATOM     76  C   UNL A   1      35.655  33.786  31.521  1.00  0.00     0.010 A 
ATOM     77  C   UNL A   1      35.841  34.928  33.612  1.00  0.00     0.010 A 
ATOM     78  C   UNL A   1      34.447  34.445  31.257  1.00  0.00     0.020 A 
ATOM     79  C   UNL A   1      34.640  35.610  33.356  1.00  0.00     0.020 A 
ATOM     80  C   UNL A   1      33.952  35.366  32.172  1.00  0.00     0.054 A 
BRANCH  80  81
ATOM     81  S   UNL A   1      32.394  36.210  31.806  1.00  0.00     0.124 S 
ATOM     82  O   UNL A   1      31.403  35.305  32.384  1.00  0.00    -0.237 OA
ATOM     83  O   UNL A   1      32.560  37.486  32.497  1.00  0.00    -0.237 OA
ATOM     84  O   UNL A   1      32.376  36.292  30.347  1.00  0.00    -0.744 OA
ENDBRANCH  80  81
ENDBRANCH  61  75
BRANCH  62  85
ATOM     85  C   UNL A   1      43.922  27.807  32.747  1.00  0.00    -0.014 A 
ATOM     86  C   UNL A   1      44.442  26.492  32.728  1.00  0.00     0.010 A 
ATOM     87  C   UNL A   1      44.138  28.631  31.629  1.00  0.00     0.010 A 
ATOM     88  C   UNL A   1      44.982  25.955  31.555  1.00  0.00     0.020 A 
ATOM     89  C   UNL A   1      44.695  28.097  30.455  1.00  0.00     0.020 A 
ATOM     90  C   UNL A   1      45.041  26.744  30.406  1.00  0.00     0.054 A 
BRANCH  90  91
ATOM     91  S   UNL A   1      45.381  25.918  28.819  1.00  0.00     0.124 S 
ATOM     92  O   UNL A   1      46.722  25.384  29.025  1.00  0.00    -0.237 OA
ATOM     93  O   UNL A   1      44.306  24.925  28.747  1.00  0.00    -0.237 OA
ATOM     94  O   UNL A   1      45.276  26.997  27.843  1.00  0.00    -0.744 OA
ENDBRANCH  90  91
ENDBRANCH  62  85
BRANCH  74  95
ATOM     95  C   UNL A   1      41.579  33.240  36.923  1.00  0.00    -0.014 A 
ATOM     96  C   UNL A   1      41.899  33.088  38.280  1.00  0.00     0.010 A 
ATOM     97  C   UNL A   1      41.695  34.545  36.381  1.00  0.00     0.010 A 
ATOM     98  C   UNL A   1      42.225  34.191  39.077  1.00  0.00     0.020 A 
ATOM     99  C   UNL A   1      42.080  35.643  37.153  1.00  0.00     0.020 A 
ATOM    100  C   UNL A   1      42.304  35.464  38.510  1.00  0.00     0.054 A 
BRANCH 100 101
ATOM    101  S   UNL A   1      42.731  36.875  39.555  1.00  0.00     0.124 S 
ATOM    102  O   UNL A   1      42.256  36.430  40.863  1.00  0.00    -0.237 OA
ATOM    103  O   UNL A   1      44.183  36.956  39.410  1.00  0.00    -0.237 OA
ATOM    104  O   UNL A   1      41.989  37.983  38.962  1.00  0.00    -0.744 OA
ENDBRANCH 100 101
ENDBRANCH  74  95
ENDBRANCH  48  49
ENDBRANCH  40  43
ENDBRANCH  38  39
ENDBRANCH  37  38
ENDBRANCH  36  37
ENDBRANCH   1  36
TORSDOF 20
ENDMDL
MODEL 2
REMARK VINA RESULT:     -11.6      4.143      6.317
REMARK SMILES Cc1ccc(-c2c(C)sc(NC(=O)[C@H]3CC=CC[C@H]3C(=O)NCCCCCCNC(=O)c3ccc(-c4c5nc(c(-c6ccc(S(=O)(=O)[O-])cc6)c6ccc([nH]6)c(-c6ccc(S(=O)(=O)[O-])cc6)c6nc(c(-c7ccc(S(=O)(=O)[O-])cc7)c7ccc4[nH]7)C=C6)C=C5)cc3)c2C(N)=O)cc1
REMARK SMILES IDX 25 1 24 2 23 3 22 4 20 5 21 6 19 8 14 9 15 10 16 11 18 12
REMARK SMILES IDX 17 13 12 14 11 15 13 17 10 18 6 19 7 20 92 21 8 22 9 23 5 24
REMARK SMILES IDX 1 25 2 26 3 27 97 28 4 29 96 30 93 31 94 32 95 33 26 36
REMARK SMILES IDX 27 37 28 38 29 39 30 40 31 42 32 43 33 44 91 45 34 46 90 47
REMARK SMILES IDX 35 48 36 49 37 50 84 51 38 52 89 53 83 54 85 55 39 56 88 57
REMARK SMILES IDX 82 58 81 59 40 61 70 62 51 63 69 64 52 65 55 66 68 67 86 68
REMARK SMILES IDX 53 69 54 70 67 72 87 73 56 74 41 75 42 76 50 77 43 78 49 79
REMARK SMILES IDX 44 80 45 81 46 82 47 83 48 84 71 85 72 86 80 87 73 88 79 89
REMARK SMILES IDX 74 90 75 91 76 92 77 93 78 94 57 95 58 96 66 97 59 98 65 99
REMARK SMILES IDX 60 100 61 101 62 102 63 103 64 104
REMARK H PARENT 22 7 11 16 94 34 94 35 29 41 85 60 55 71
REMARK Flexibility Score: inf
ROOT
ATOM      1  C   UNL A   1      37.863  22.752  25.621  1.00  0.00     0.002 C 
ENDROOT
BRANCH   1   2
ATOM      2  C   UNL A   1      37.136  22.827  24.272  1.00  0.00     0.021 C 
BRANCH   2   3
ATOM      3  C   UNL A   1      35.884  21.956  24.191  1.00  0.00     0.116 C 
BRANCH   3   4
ATOM      4  N   UNL A   1      35.239  21.894  25.472  1.00  0.00    -0.356 N 
ATOM      5  C   UNL A   1      34.291  21.055  25.931  1.00  0.00     0.224 C 
ATOM      6  O   UNL A   1      33.778  21.340  27.020  1.00  0.00    -0.275 OA
ATOM      7  H   UNL A   1      35.537  22.575  26.119  1.00  0.00     0.163 HD
BRANCH   5   8
ATOM      8  C   UNL A   1      33.908  19.760  25.232  1.00  0.00     0.095 C 
ATOM      9  C   UNL A   1      32.572  19.618  24.477  1.00  0.00     0.095 C 
ATOM     10  C   UNL A   1      32.183  18.124  24.493  1.00  0.00     0.041 C 
ATOM     11  C   UNL A   1      33.362  17.172  24.405  1.00  0.00    -0.030 C 
ATOM     12  C   UNL A   1      35.056  19.008  24.570  1.00  0.00     0.041 C 
ATOM     13  C   UNL A   1      34.648  17.570  24.383  1.00  0.00    -0.030 C 
BRANCH   9  14
ATOM     14  C   UNL A   1      32.294  20.402  23.163  1.00  0.00     0.229 C 
ATOM     15  N   UNL A   1      31.775  21.649  22.956  1.00  0.00    -0.317 N 
ATOM     16  H   UNL A   1      31.400  21.768  22.054  1.00  0.00     0.170 HD
ATOM     17  O   UNL A   1      32.473  19.778  22.100  1.00  0.00    -0.274 OA
BRANCH  15  18
ATOM     18  C   UNL A   1      31.663  22.776  23.743  1.00  0.00     0.109 A 
ATOM     19  C   UNL A   1      31.749  24.875  24.776  1.00  0.00     0.010 A 
ATOM     20  C   UNL A   1      30.864  24.163  25.574  1.00  0.00     0.012 A 
ATOM     21  C   UNL A   1      32.242  24.047  23.661  1.00  0.00     0.082 A 
ATOM     22  C   UNL A   1      29.890  24.590  26.620  1.00  0.00     0.057 C 
ATOM     23  S   UNL A   1      31.154  22.509  25.340  1.00  0.00    -0.122 S 
BRANCH  19  24
ATOM     24  C   UNL A   1      32.107  26.239  25.169  1.00  0.00    -0.016 A 
ATOM     25  C   UNL A   1      33.333  30.164  26.485  1.00  0.00     0.044 C 
ATOM     26  C   UNL A   1      32.887  28.799  26.052  1.00  0.00    -0.051 A 
ATOM     27  C   UNL A   1      31.801  28.641  25.178  1.00  0.00     0.004 A 
ATOM     28  C   UNL A   1      33.585  27.669  26.477  1.00  0.00     0.004 A 
ATOM     29  C   UNL A   1      31.403  27.367  24.745  1.00  0.00     0.009 A 
ATOM     30  C   UNL A   1      33.207  26.407  26.026  1.00  0.00     0.009 A 
ENDBRANCH  19  24
BRANCH  21  31
ATOM     31  C   UNL A   1      33.194  24.537  22.650  1.00  0.00     0.252 C 
ATOM     32  N   UNL A   1      32.712  25.343  21.650  1.00  0.00    -0.365 N 
ATOM     33  O   UNL A   1      34.381  24.278  22.651  1.00  0.00    -0.269 OA
ATOM     34  H   UNL A   1      31.755  25.572  21.621  1.00  0.00     0.159 HD
ATOM     35  H   UNL A   1      33.323  25.693  20.963  1.00  0.00     0.159 HD
ENDBRANCH  21  31
ENDBRANCH  15  18
ENDBRANCH   9  14
ENDBRANCH   5   8
ENDBRANCH   3   4
ENDBRANCH   2   3
ENDBRANCH   1   2
BRANCH   1  36
ATOM     36  C   UNL A   1      37.878  24.048  26.449  1.00  0.00     0.002 C 
BRANCH  36  37
ATOM     37  C   UNL A   1      39.241  24.717  26.633  1.00  0.00     0.021 C 
BRANCH  37  38
ATOM     38  C   UNL A   1      39.949  24.315  27.911  1.00  0.00     0.116 C 
BRANCH  38  39
ATOM     39  N   UNL A   1      40.969  23.300  27.736  1.00  0.00    -0.352 N 
ATOM     40  C   UNL A   1      42.130  23.553  27.016  1.00  0.00     0.251 C 
ATOM     41  H   UNL A   1      40.835  22.410  28.137  1.00  0.00     0.163 HD
ATOM     42  O   UNL A   1      42.486  22.932  26.026  1.00  0.00    -0.269 OA
BRANCH  40  43
ATOM     43  C   UNL A   1      42.944  24.667  27.542  1.00  0.00     0.039 A 
ATOM     44  C   UNL A   1      43.474  24.592  28.834  1.00  0.00     0.014 A 
ATOM     45  C   UNL A   1      42.942  25.861  26.825  1.00  0.00     0.014 A 
ATOM     46  C   UNL A   1      43.847  25.768  29.476  1.00  0.00     0.010 A 
ATOM     47  C   UNL A   1      43.179  27.028  27.497  1.00  0.00     0.010 A 
ATOM     48  C   UNL A   1      43.605  26.976  28.825  1.00  0.00    -0.014 A 
BRANCH  48  49
ATOM     49  C   UNL A   1      43.820  28.285  29.394  1.00  0.00     0.031 A 
ATOM     50  C   UNL A   1      42.651  28.983  29.953  1.00  0.00     0.074 A 
ATOM     51  C   UNL A   1      45.091  28.700  29.573  1.00  0.00     0.049 A 
ATOM     52  N   UNL A   1      42.576  30.253  30.132  1.00  0.00    -0.248 NA
ATOM     53  C   UNL A   1      41.421  28.278  30.317  1.00  0.00     0.031 C 
ATOM     54  C   UNL A   1      45.588  29.771  30.426  1.00  0.00     0.029 A 
ATOM     55  N   UNL A   1      46.219  28.303  28.883  1.00  0.00    -0.354 N 
ATOM     56  C   UNL A   1      41.486  30.473  30.947  1.00  0.00     0.074 A 
ATOM     57  C   UNL A   1      40.723  29.251  30.907  1.00  0.00     0.031 C 
ATOM     58  C   UNL A   1      46.826  30.113  30.014  1.00  0.00     0.029 A 
ATOM     59  C   UNL A   1      47.094  29.380  28.782  1.00  0.00     0.049 A 
ATOM     60  H   UNL A   1      46.378  27.401  28.521  1.00  0.00     0.167 HD
ATOM     61  C   UNL A   1      41.468  31.590  31.723  1.00  0.00     0.031 A 
ATOM     62  C   UNL A   1      47.306  29.979  27.567  1.00  0.00     0.031 A 
ATOM     63  C   UNL A   1      42.636  32.424  31.439  1.00  0.00     0.049 A 
ATOM     64  C   UNL A   1      46.724  31.380  27.505  1.00  0.00     0.074 A 
ATOM     65  C   UNL A   1      43.852  32.560  32.088  1.00  0.00     0.029 A 
ATOM     66  N   UNL A   1      42.801  32.957  30.167  1.00  0.00    -0.354 N 
ATOM     67  N   UNL A   1      45.759  31.807  28.271  1.00  0.00    -0.248 NA
ATOM     68  C   UNL A   1      47.203  32.412  26.589  1.00  0.00     0.031 C 
ATOM     69  C   UNL A   1      44.784  33.083  31.153  1.00  0.00     0.029 A 
ATOM     70  C   UNL A   1      44.124  33.294  29.954  1.00  0.00     0.049 A 
ATOM     71  H   UNL A   1      42.077  33.078  29.510  1.00  0.00     0.167 HD
ATOM     72  C   UNL A   1      45.497  33.123  27.997  1.00  0.00     0.074 A 
ATOM     73  C   UNL A   1      46.425  33.455  26.930  1.00  0.00     0.031 C 
ATOM     74  C   UNL A   1      44.550  33.841  28.673  1.00  0.00     0.031 A 
BRANCH  61  75
ATOM     75  C   UNL A   1      40.607  31.768  32.955  1.00  0.00    -0.014 A 
ATOM     76  C   UNL A   1      41.169  31.481  34.218  1.00  0.00     0.010 A 
ATOM     77  C   UNL A   1      39.251  32.149  32.956  1.00  0.00     0.010 A 
ATOM     78  C   UNL A   1      40.415  31.508  35.398  1.00  0.00     0.020 A 
ATOM     79  C   UNL A   1      38.477  32.164  34.128  1.00  0.00     0.020 A 
ATOM     80  C   UNL A   1      39.065  31.838  35.345  1.00  0.00     0.054 A 
BRANCH  80  81
ATOM     81  S   UNL A   1      38.109  31.859  36.880  1.00  0.00     0.124 S 
ATOM     82  O   UNL A   1      37.047  32.815  36.576  1.00  0.00    -0.237 OA
ATOM     83  O   UNL A   1      37.686  30.466  37.005  1.00  0.00    -0.237 OA
ATOM     84  O   UNL A   1      39.073  32.307  37.884  1.00  0.00    -0.744 OA
ENDBRANCH  80  81
ENDBRANCH  61  75
BRANCH  62  85
ATOM     85  C   UNL A   1      47.309  29.003  26.427  1.00  0.00    -0.014 A 
ATOM     86  C   UNL A   1      48.388  28.092  26.357  1.00  0.00     0.010 A 
ATOM     87  C   UNL A   1      46.117  28.686  25.753  1.00  0.00     0.010 A 
ATOM     88  C   UNL A   1      48.213  26.820  25.804  1.00  0.00     0.020 A 
ATOM     89  C   UNL A   1      45.945  27.413  25.183  1.00  0.00     0.020 A 
ATOM     90  C   UNL A   1      46.969  26.467  25.282  1.00  0.00     0.054 A 
BRANCH  90  91
ATOM     91  S   UNL A   1      46.658  24.708  24.928  1.00  0.00     0.124 S 
ATOM     92  O   UNL A   1      47.174  24.052  26.124  1.00  0.00    -0.237 OA
ATOM     93  O   UNL A   1      45.202  24.674  24.763  1.00  0.00    -0.237 OA
ATOM     94  O   UNL A   1      47.413  24.466  23.703  1.00  0.00    -0.744 OA
ENDBRANCH  90  91
ENDBRANCH  62  85
BRANCH  74  95
ATOM     95  C   UNL A   1      43.999  35.181  28.252  1.00  0.00    -0.014 A 
ATOM     96  C   UNL A   1      43.253  35.390  27.083  1.00  0.00     0.010 A 
ATOM     97  C   UNL A   1      44.124  36.283  29.136  1.00  0.00     0.010 A 
ATOM     98  C   UNL A   1      42.739  36.652  26.765  1.00  0.00     0.020 A 
ATOM     99  C   UNL A   1      43.563  37.530  28.859  1.00  0.00     0.020 A 
ATOM    100  C   UNL A   1      42.906  37.717  27.651  1.00  0.00     0.054 A 
BRANCH 100 101
ATOM    101  S   UNL A   1      42.231  39.339  27.226  1.00  0.00     0.124 S 
ATOM    102  O   UNL A   1      41.179  38.982  26.277  1.00  0.00    -0.237 OA
ATOM    103  O   UNL A   1      41.767  39.844  28.516  1.00  0.00    -0.237 OA
ATOM    104  O   UNL A   1      43.372  40.052  26.658  1.00  0.00    -0.744 OA
ENDBRANCH 100 101
ENDBRANCH  74  95
ENDBRANCH  48  49
ENDBRANCH  40  43
ENDBRANCH  38  39
ENDBRANCH  37  38
ENDBRANCH  36  37
ENDBRANCH   1  36
TORSDOF 20
ENDMDL
MODEL 3
REMARK VINA RESULT:     -11.4      3.367      9.799
REMARK SMILES Cc1ccc(-c2c(C)sc(NC(=O)[C@H]3CC=CC[C@H]3C(=O)NCCCCCCNC(=O)c3ccc(-c4c5nc(c(-c6ccc(S(=O)(=O)[O-])cc6)c6ccc([nH]6)c(-c6ccc(S(=O)(=O)[O-])cc6)c6nc(c(-c7ccc(S(=O)(=O)[O-])cc7)c7ccc4[nH]7)C=C6)C=C5)cc3)c2C(N)=O)cc1
REMARK SMILES IDX 25 1 24 2 23 3 22 4 20 5 21 6 19 8 14 9 15 10 16 11 18 12
REMARK SMILES IDX 17 13 12 14 11 15 13 17 10 18 6 19 7 20 92 21 8 22 9 23 5 24
REMARK SMILES IDX 1 25 2 26 3 27 97 28 4 29 96 30 93 31 94 32 95 33 26 36
REMARK SMILES IDX 27 37 28 38 29 39 30 40 31 42 32 43 33 44 91 45 34 46 90 47
REMARK SMILES IDX 35 48 36 49 37 50 84 51 38 52 89 53 83 54 85 55 39 56 88 57
REMARK SMILES IDX 82 58 81 59 40 61 70 62 51 63 69 64 52 65 55 66 68 67 86 68
REMARK SMILES IDX 53 69 54 70 67 72 87 73 56 74 41 75 42 76 50 77 43 78 49 79
REMARK SMILES IDX 44 80 45 81 46 82 47 83 48 84 71 85 72 86 80 87 73 88 79 89
REMARK SMILES IDX 74 90 75 91 76 92 77 93 78 94 57 95 58 96 66 97 59 98 65 99
REMARK SMILES IDX 60 100 61 101 62 102 63 103 64 104
REMARK H PARENT 22 7 11 16 94 34 94 35 29 41 85 60 55 71
REMARK Flexibility Score: inf
ROOT
ATOM      1  C   UNL A   1      32.497  30.659  27.002  1.00  0.00     0.002 C 
ENDROOT
BRANCH   1   2
ATOM      2  C   UNL A   1      32.102  31.013  25.562  1.00  0.00     0.021 C 
BRANCH   2   3
ATOM      3  C   UNL A   1      30.595  31.103  25.334  1.00  0.00     0.116 C 
BRANCH   3   4
ATOM      4  N   UNL A   1      30.228  30.376  24.152  1.00  0.00    -0.356 N 
ATOM      5  C   UNL A   1      30.662  29.188  23.690  1.00  0.00     0.224 C 
ATOM      6  O   UNL A   1      30.311  28.877  22.545  1.00  0.00    -0.275 OA
ATOM      7  H   UNL A   1      29.551  30.816  23.589  1.00  0.00     0.163 HD
BRANCH   5   8
ATOM      8  C   UNL A   1      31.460  28.202  24.529  1.00  0.00     0.095 C 
ATOM      9  C   UNL A   1      30.768  27.085  25.334  1.00  0.00     0.095 C 
ATOM     10  C   UNL A   1      31.678  26.740  26.531  1.00  0.00     0.041 C 
ATOM     11  C   UNL A   1      33.164  26.832  26.232  1.00  0.00    -0.030 C 
ATOM     12  C   UNL A   1      32.801  27.778  23.942  1.00  0.00     0.041 C 
ATOM     13  C   UNL A   1      33.667  27.245  25.053  1.00  0.00    -0.030 C 
BRANCH   9  14
ATOM     14  C   UNL A   1      30.054  25.897  24.627  1.00  0.00     0.229 C 
ATOM     15  N   UNL A   1      30.493  24.639  24.327  1.00  0.00    -0.317 N 
ATOM     16  H   UNL A   1      29.982  24.214  23.602  1.00  0.00     0.170 HD
ATOM     17  O   UNL A   1      28.925  26.134  24.157  1.00  0.00    -0.274 OA
BRANCH  15  18
ATOM     18  C   UNL A   1      31.500  23.838  24.823  1.00  0.00     0.109 A 
ATOM     19  C   UNL A   1      33.415  22.570  25.274  1.00  0.00     0.010 A 
ATOM     20  C   UNL A   1      32.665  22.440  26.435  1.00  0.00     0.012 A 
ATOM     21  C   UNL A   1      32.721  23.416  24.287  1.00  0.00     0.082 A 
ATOM     22  C   UNL A   1      33.010  21.956  27.803  1.00  0.00     0.057 C 
ATOM     23  S   UNL A   1      31.045  22.767  26.057  1.00  0.00    -0.122 S 
BRANCH  19  24
ATOM     24  C   UNL A   1      34.677  21.837  25.168  1.00  0.00    -0.016 A 
ATOM     25  C   UNL A   1      38.265  19.459  24.839  1.00  0.00     0.044 C 
ATOM     26  C   UNL A   1      37.020  20.280  24.984  1.00  0.00    -0.051 A 
ATOM     27  C   UNL A   1      37.092  21.660  25.226  1.00  0.00     0.004 A 
ATOM     28  C   UNL A   1      35.768  19.684  24.829  1.00  0.00     0.004 A 
ATOM     29  C   UNL A   1      35.927  22.436  25.329  1.00  0.00     0.009 A 
ATOM     30  C   UNL A   1      34.614  20.459  24.904  1.00  0.00     0.009 A 
ENDBRANCH  19  24
BRANCH  21  31
ATOM     31  C   UNL A   1      33.279  23.732  22.961  1.00  0.00     0.252 C 
ATOM     32  N   UNL A   1      32.858  22.985  21.891  1.00  0.00    -0.365 N 
ATOM     33  O   UNL A   1      34.083  24.619  22.755  1.00  0.00    -0.269 OA
ATOM     34  H   UNL A   1      32.207  22.259  22.024  1.00  0.00     0.159 HD
ATOM     35  H   UNL A   1      33.206  23.175  20.990  1.00  0.00     0.159 HD
ENDBRANCH  21  31
ENDBRANCH  15  18
ENDBRANCH   9  14
ENDBRANCH   5   8
ENDBRANCH   3   4
ENDBRANCH   2   3
ENDBRANCH   1   2
BRANCH   1  36
ATOM     36  C   UNL A   1      33.215  31.764  27.794  1.00  0.00     0.002 C 
BRANCH  36  37
ATOM     37  C   UNL A   1      34.699  31.534  28.083  1.00  0.00     0.021 C 
BRANCH  37  38
ATOM     38  C   UNL A   1      35.550  32.777  27.925  1.00  0.00     0.116 C 
BRANCH  38  39
ATOM     39  N   UNL A   1      35.978  33.373  29.175  1.00  0.00    -0.352 N 
ATOM     40  C   UNL A   1      36.262  32.595  30.291  1.00  0.00     0.251 C 
ATOM     41  H   UNL A   1      36.069  34.352  29.235  1.00  0.00     0.163 HD
ATOM     42  O   UNL A   1      35.698  32.692  31.371  1.00  0.00    -0.269 OA
BRANCH  40  43
ATOM     43  C   UNL A   1      37.333  31.600  30.085  1.00  0.00     0.039 A 
ATOM     44  C   UNL A   1      37.279  30.372  30.751  1.00  0.00     0.014 A 
ATOM     45  C   UNL A   1      38.488  32.022  29.431  1.00  0.00     0.014 A 
ATOM     46  C   UNL A   1      38.451  29.640  30.907  1.00  0.00     0.010 A 
ATOM     47  C   UNL A   1      39.664  31.376  29.698  1.00  0.00     0.010 A 
ATOM     48  C   UNL A   1      39.642  30.205  30.455  1.00  0.00    -0.014 A 
BRANCH  48  49
ATOM     49  C   UNL A   1      40.956  29.638  30.644  1.00  0.00     0.031 A 
ATOM     50  C   UNL A   1      41.220  28.321  30.043  1.00  0.00     0.074 A 
ATOM     51  C   UNL A   1      41.920  30.425  31.165  1.00  0.00     0.049 A 
ATOM     52  N   UNL A   1      42.150  27.520  30.420  1.00  0.00    -0.248 NA
ATOM     53  C   UNL A   1      40.391  27.772  28.968  1.00  0.00     0.031 C 
ATOM     54  C   UNL A   1      43.364  30.244  31.126  1.00  0.00     0.029 A 
ATOM     55  N   UNL A   1      41.766  31.523  31.987  1.00  0.00    -0.354 N 
ATOM     56  C   UNL A   1      42.273  26.564  29.434  1.00  0.00     0.074 A 
ATOM     57  C   UNL A   1      41.074  26.672  28.643  1.00  0.00     0.031 C 
ATOM     58  C   UNL A   1      43.922  31.010  32.085  1.00  0.00     0.029 A 
ATOM     59  C   UNL A   1      42.837  31.583  32.873  1.00  0.00     0.049 A 
ATOM     60  H   UNL A   1      41.017  32.163  31.951  1.00  0.00     0.167 HD
ATOM     61  C   UNL A   1      43.471  25.937  29.280  1.00  0.00     0.031 A 
ATOM     62  C   UNL A   1      42.639  31.323  34.205  1.00  0.00     0.031 A 
ATOM     63  C   UNL A   1      44.405  26.365  30.322  1.00  0.00     0.049 A 
ATOM     64  C   UNL A   1      43.290  30.022  34.642  1.00  0.00     0.074 A 
ATOM     65  C   UNL A   1      45.425  27.301  30.319  1.00  0.00     0.029 A 
ATOM     66  N   UNL A   1      44.109  26.102  31.654  1.00  0.00    -0.354 N 
ATOM     67  N   UNL A   1      43.582  29.041  33.833  1.00  0.00    -0.248 NA
ATOM     68  C   UNL A   1      43.680  29.739  36.020  1.00  0.00     0.031 C 
ATOM     69  C   UNL A   1      45.665  27.682  31.665  1.00  0.00     0.029 A 
ATOM     70  C   UNL A   1      44.817  26.952  32.481  1.00  0.00     0.049 A 
ATOM     71  H   UNL A   1      43.483  25.408  31.964  1.00  0.00     0.167 HD
ATOM     72  C   UNL A   1      44.198  28.035  34.528  1.00  0.00     0.074 A 
ATOM     73  C   UNL A   1      44.231  28.517  35.897  1.00  0.00     0.031 C 
ATOM     74  C   UNL A   1      44.644  26.892  33.926  1.00  0.00     0.031 A 
BRANCH  61  75
ATOM     75  C   UNL A   1      43.909  25.217  28.024  1.00  0.00    -0.014 A 
ATOM     76  C   UNL A   1      44.238  23.847  28.111  1.00  0.00     0.010 A 
ATOM     77  C   UNL A   1      44.075  25.810  26.758  1.00  0.00     0.010 A 
ATOM     78  C   UNL A   1      44.760  23.130  27.027  1.00  0.00     0.020 A 
ATOM     79  C   UNL A   1      44.614  25.111  25.665  1.00  0.00     0.020 A 
ATOM     80  C   UNL A   1      44.959  23.771  25.810  1.00  0.00     0.054 A 
BRANCH  80  81
ATOM     81  S   UNL A   1      45.642  22.828  24.425  1.00  0.00     0.124 S 
ATOM     82  O   UNL A   1      46.164  21.634  25.086  1.00  0.00    -0.237 OA
ATOM     83  O   UNL A   1      44.469  22.618  23.581  1.00  0.00    -0.237 OA
ATOM     84  O   UNL A   1      46.658  23.717  23.866  1.00  0.00    -0.744 OA
ENDBRANCH  80  81
ENDBRANCH  61  75
BRANCH  62  85
ATOM     85  C   UNL A   1      41.322  31.832  34.711  1.00  0.00    -0.014 A 
ATOM     86  C   UNL A   1      40.361  30.869  35.098  1.00  0.00     0.010 A 
ATOM     87  C   UNL A   1      41.207  33.138  35.219  1.00  0.00     0.010 A 
ATOM     88  C   UNL A   1      39.439  31.148  36.111  1.00  0.00     0.020 A 
ATOM     89  C   UNL A   1      40.269  33.424  36.226  1.00  0.00     0.020 A 
ATOM     90  C   UNL A   1      39.446  32.405  36.715  1.00  0.00     0.054 A 
BRANCH  90  91
ATOM     91  S   UNL A   1      38.516  32.614  38.266  1.00  0.00     0.124 S 
ATOM     92  O   UNL A   1      37.587  31.491  38.228  1.00  0.00    -0.237 OA
ATOM     93  O   UNL A   1      39.573  32.530  39.278  1.00  0.00    -0.237 OA
ATOM     94  O   UNL A   1      37.911  33.935  38.128  1.00  0.00    -0.744 OA
ENDBRANCH  90  91
ENDBRANCH  62  85
BRANCH  74  95
ATOM     95  C   UNL A   1      45.060  25.629  34.641  1.00  0.00    -0.014 A 
ATOM     96  C   UNL A   1      46.269  24.958  34.407  1.00  0.00     0.010 A 
ATOM     97  C   UNL A   1      44.254  25.144  35.702  1.00  0.00     0.010 A 
ATOM     98  C   UNL A   1      46.613  23.809  35.128  1.00  0.00     0.020 A 
ATOM     99  C   UNL A   1      44.618  24.036  36.469  1.00  0.00     0.020 A 
ATOM    100  C   UNL A   1      45.779  23.350  36.149  1.00  0.00     0.054 A 
BRANCH 100 101
ATOM    101  S   UNL A   1      46.243  21.867  37.072  1.00  0.00     0.124 S 
ATOM    102  O   UNL A   1      45.668  20.810  36.244  1.00  0.00    -0.237 OA
ATOM    103  O   UNL A   1      47.703  21.934  37.078  1.00  0.00    -0.237 OA
ATOM    104  O   UNL A   1      45.611  22.057  38.375  1.00  0.00    -0.744 OA
ENDBRANCH 100 101
ENDBRANCH  74  95
ENDBRANCH  48  49
ENDBRANCH  40  43
ENDBRANCH  38  39
ENDBRANCH  37  38
ENDBRANCH  36  37
ENDBRANCH   1  36
TORSDOF 20
ENDMDL
