MODEL 1
REMARK VINA RESULT:     -10.3      0.000      0.000
REMARK SMILES CC(C)C[C@H](NC(=O)c1cc(Cl)nnc1Cl)C(=O)NCCCCCCNC(=O)c1ccc(-c2c3nc(c(-c4ccc(S(=O)(=O)[O-])cc4)c4ccc([nH]4)c(-c4ccc(S(=O)(=O)[O-])cc4)c4nc(c(-c5ccc(S(=O)(=O)[O-])cc5)c5ccc2[nH]5)C=C4)C=C3)cc1
REMARK SMILES IDX 23 1 22 2 21 3 20 4 19 5 17 6 18 7 5 9 4 10 2 11 1 12 3 13
REMARK SMILES IDX 6 14 7 15 8 17 9 18 10 19 15 20 11 21 14 22 16 23 12 24
REMARK SMILES IDX 13 25 24 26 25 27 26 28 27 29 28 31 29 32 30 33 88 34 31 35
REMARK SMILES IDX 87 36 32 37 33 38 34 39 81 40 35 41 86 42 80 43 82 44 36 45
REMARK SMILES IDX 85 46 79 47 78 48 37 50 67 51 48 52 66 53 49 54 52 55 65 56
REMARK SMILES IDX 83 57 50 58 51 59 64 61 84 62 53 63 38 64 39 65 47 66 40 67
REMARK SMILES IDX 46 68 41 69 42 70 43 71 44 72 45 73 68 74 69 75 77 76 70 77
REMARK SMILES IDX 76 78 71 79 72 80 73 81 74 82 75 83 54 84 55 85 63 86 56 87
REMARK SMILES IDX 62 88 57 89 58 90 59 91 60 92 61 93
REMARK H PARENT 19 8 6 16 26 30 82 49 52 60
REMARK Flexibility Score: inf
ROOT
ATOM      1  C   UNL A   1      34.945  22.202  24.561  1.00  0.00     0.002 C 
ENDROOT
BRANCH   1   2
ATOM      2  C   UNL A   1      33.747  21.255  24.431  1.00  0.00     0.002 C 
BRANCH   2   3
ATOM      3  C   UNL A   1      32.570  21.793  23.611  1.00  0.00     0.021 C 
BRANCH   3   4
ATOM      4  C   UNL A   1      32.490  23.315  23.535  1.00  0.00     0.116 C 
BRANCH   4   5
ATOM      5  N   UNL A   1      32.765  23.798  22.194  1.00  0.00    -0.354 N 
ATOM      6  C   UNL A   1      32.761  25.072  21.703  1.00  0.00     0.242 C 
ATOM      7  O   UNL A   1      33.104  25.241  20.531  1.00  0.00    -0.273 OA
ATOM      8  H   UNL A   1      32.988  23.100  21.537  1.00  0.00     0.163 HD
BRANCH   6   9
ATOM      9  C   UNL A   1      32.360  26.263  22.601  1.00  0.00     0.171 C 
BRANCH   9  10
ATOM     10  C   UNL A   1      30.953  26.802  22.290  1.00  0.00     0.038 C 
BRANCH  10  11
ATOM     11  C   UNL A   1      30.167  27.399  23.476  1.00  0.00    -0.015 C 
ATOM     12  C   UNL A   1      29.016  28.300  23.029  1.00  0.00     0.007 C 
ATOM     13  C   UNL A   1      29.619  26.264  24.348  1.00  0.00     0.007 C 
ENDBRANCH  10  11
ENDBRANCH   9  10
BRANCH   9  14
ATOM     14  N   UNL A   1      33.444  27.261  22.492  1.00  0.00    -0.340 N 
ATOM     15  C   UNL A   1      33.929  28.201  23.354  1.00  0.00     0.255 C 
ATOM     16  H   UNL A   1      33.908  27.245  21.625  1.00  0.00     0.164 HD
ATOM     17  O   UNL A   1      34.868  28.920  23.030  1.00  0.00    -0.269 OA
BRANCH  15  18
ATOM     18  C   UNL A   1      33.287  28.439  24.639  1.00  0.00     0.082 A 
ATOM     19  C   UNL A   1      32.663  29.671  24.841  1.00  0.00     0.060 A 
ATOM     20  C   UNL A   1      33.327  27.516  25.664  1.00  0.00     0.164 A 
ATOM     21  C   UNL A   1      32.060  29.878  26.060  1.00  0.00     0.152 A 
ATOM     22  N   UNL A   1      32.715  27.753  26.841  1.00  0.00    -0.136 NA
ATOM     23  Cl  UNL A   1      34.124  26.001  25.578  1.00  0.00    -0.059 Cl
ATOM     24  Cl  UNL A   1      31.234  31.330  26.420  1.00  0.00    -0.060 Cl
ATOM     25  N   UNL A   1      32.063  28.949  27.038  1.00  0.00    -0.137 NA
ENDBRANCH  15  18
ENDBRANCH   9  14
ENDBRANCH   6   9
ENDBRANCH   4   5
ENDBRANCH   3   4
ENDBRANCH   2   3
ENDBRANCH   1   2
BRANCH   1  26
ATOM     26  C   UNL A   1      35.187  22.763  25.963  1.00  0.00     0.021 C 
BRANCH  26  27
ATOM     27  C   UNL A   1      36.519  23.485  26.149  1.00  0.00     0.116 C 
BRANCH  27  28
ATOM     28  N   UNL A   1      37.653  22.583  26.039  1.00  0.00    -0.352 N 
ATOM     29  C   UNL A   1      38.975  22.846  26.292  1.00  0.00     0.251 C 
ATOM     30  H   UNL A   1      37.446  21.666  25.747  1.00  0.00     0.163 HD
ATOM     31  O   UNL A   1      39.842  22.025  26.010  1.00  0.00    -0.269 OA
BRANCH  29  32
ATOM     32  C   UNL A   1      39.343  24.144  26.890  1.00  0.00     0.039 A 
ATOM     33  C   UNL A   1      38.984  24.406  28.214  1.00  0.00     0.014 A 
ATOM     34  C   UNL A   1      40.063  25.084  26.145  1.00  0.00     0.014 A 
ATOM     35  C   UNL A   1      39.386  25.602  28.809  1.00  0.00     0.010 A 
ATOM     36  C   UNL A   1      40.497  26.258  26.754  1.00  0.00     0.010 A 
ATOM     37  C   UNL A   1      40.158  26.528  28.089  1.00  0.00    -0.014 A 
BRANCH  37  38
ATOM     38  C   UNL A   1      40.590  27.802  28.709  1.00  0.00     0.031 A 
ATOM     39  C   UNL A   1      41.984  27.926  29.256  1.00  0.00     0.074 A 
ATOM     40  C   UNL A   1      39.722  28.825  28.819  1.00  0.00     0.049 A 
ATOM     41  N   UNL A   1      42.535  28.938  29.872  1.00  0.00    -0.248 NA
ATOM     42  C   UNL A   1      42.867  26.757  29.103  1.00  0.00     0.031 C 
ATOM     43  C   UNL A   1      38.334  28.813  28.350  1.00  0.00     0.029 A 
ATOM     44  N   UNL A   1      39.879  30.074  29.364  1.00  0.00    -0.354 N 
ATOM     45  C   UNL A   1      43.824  28.527  30.189  1.00  0.00     0.074 A 
ATOM     46  C   UNL A   1      43.963  27.163  29.728  1.00  0.00     0.031 C 
ATOM     47  C   UNL A   1      37.772  30.003  28.619  1.00  0.00     0.029 A 
ATOM     48  C   UNL A   1      38.749  30.853  29.297  1.00  0.00     0.049 A 
ATOM     49  H   UNL A   1      40.723  30.383  29.767  1.00  0.00     0.167 HD
ATOM     50  C   UNL A   1      44.808  29.231  30.793  1.00  0.00     0.031 A 
ATOM     51  C   UNL A   1      38.522  32.107  29.732  1.00  0.00     0.031 A 
ATOM     52  C   UNL A   1      44.678  30.593  31.229  1.00  0.00     0.049 A 
ATOM     53  C   UNL A   1      39.632  32.870  30.399  1.00  0.00     0.074 A 
ATOM     54  C   UNL A   1      45.640  31.403  31.805  1.00  0.00     0.029 A 
ATOM     55  N   UNL A   1      43.520  31.346  31.133  1.00  0.00    -0.354 N 
ATOM     56  N   UNL A   1      40.857  32.478  30.653  1.00  0.00    -0.248 NA
ATOM     57  C   UNL A   1      39.335  34.245  30.830  1.00  0.00     0.031 C 
ATOM     58  C   UNL A   1      45.053  32.640  32.088  1.00  0.00     0.029 A 
ATOM     59  C   UNL A   1      43.738  32.610  31.652  1.00  0.00     0.049 A 
ATOM     60  H   UNL A   1      42.668  31.031  30.752  1.00  0.00     0.167 HD
ATOM     61  C   UNL A   1      41.483  33.561  31.259  1.00  0.00     0.074 A 
ATOM     62  C   UNL A   1      40.505  34.626  31.329  1.00  0.00     0.031 C 
ATOM     63  C   UNL A   1      42.754  33.660  31.713  1.00  0.00     0.031 A 
BRANCH  50  64
ATOM     64  C   UNL A   1      46.126  28.544  31.010  1.00  0.00    -0.014 A 
ATOM     65  C   UNL A   1      47.152  28.646  30.056  1.00  0.00     0.010 A 
ATOM     66  C   UNL A   1      46.368  27.859  32.214  1.00  0.00     0.010 A 
ATOM     67  C   UNL A   1      48.398  28.064  30.297  1.00  0.00     0.020 A 
ATOM     68  C   UNL A   1      47.619  27.289  32.466  1.00  0.00     0.020 A 
ATOM     69  C   UNL A   1      48.625  27.394  31.503  1.00  0.00     0.054 A 
BRANCH  69  70
ATOM     70  S   UNL A   1      50.270  26.689  31.801  1.00  0.00     0.124 S 
ATOM     71  O   UNL A   1      50.942  27.776  32.507  1.00  0.00    -0.237 OA
ATOM     72  O   UNL A   1      49.964  25.509  32.605  1.00  0.00    -0.237 OA
ATOM     73  O   UNL A   1      50.779  26.415  30.459  1.00  0.00    -0.744 OA
ENDBRANCH  69  70
ENDBRANCH  50  64
BRANCH  51  74
ATOM     74  C   UNL A   1      37.184  32.720  29.532  1.00  0.00    -0.014 A 
ATOM     75  C   UNL A   1      36.269  32.794  30.597  1.00  0.00     0.010 A 
ATOM     76  C   UNL A   1      36.838  33.278  28.289  1.00  0.00     0.010 A 
ATOM     77  C   UNL A   1      35.034  33.424  30.423  1.00  0.00     0.020 A 
ATOM     78  C   UNL A   1      35.609  33.922  28.115  1.00  0.00     0.020 A 
ATOM     79  C   UNL A   1      34.716  33.993  29.186  1.00  0.00     0.054 A 
BRANCH  79  80
ATOM     80  S   UNL A   1      33.135  34.867  29.013  1.00  0.00     0.124 S 
ATOM     81  O   UNL A   1      33.561  36.186  28.557  1.00  0.00    -0.237 OA
ATOM     82  O   UNL A   1      32.439  34.048  28.024  1.00  0.00    -0.237 OA
ATOM     83  O   UNL A   1      32.569  34.823  30.360  1.00  0.00    -0.744 OA
ENDBRANCH  79  80
ENDBRANCH  51  74
BRANCH  63  84
ATOM     84  C   UNL A   1      43.185  34.964  32.320  1.00  0.00    -0.014 A 
ATOM     85  C   UNL A   1      43.103  35.171  33.708  1.00  0.00     0.010 A 
ATOM     86  C   UNL A   1      43.791  35.940  31.509  1.00  0.00     0.010 A 
ATOM     87  C   UNL A   1      43.625  36.336  34.275  1.00  0.00     0.020 A 
ATOM     88  C   UNL A   1      44.328  37.099  32.075  1.00  0.00     0.020 A 
ATOM     89  C   UNL A   1      44.242  37.287  33.456  1.00  0.00     0.054 A 
BRANCH  89  90
ATOM     90  S   UNL A   1      44.975  38.753  34.235  1.00  0.00     0.124 S 
ATOM     91  O   UNL A   1      44.377  38.724  35.567  1.00  0.00    -0.237 OA
ATOM     92  O   UNL A   1      46.404  38.457  34.181  1.00  0.00    -0.237 OA
ATOM     93  O   UNL A   1      44.538  39.857  33.382  1.00  0.00    -0.744 OA
ENDBRANCH  89  90
ENDBRANCH  63  84
ENDBRANCH  37  38
ENDBRANCH  29  32
ENDBRANCH  27  28
ENDBRANCH  26  27
ENDBRANCH   1  26
TORSDOF 20
ENDMDL
MODEL 2
REMARK VINA RESULT:     -10.1      3.942      9.415
REMARK SMILES CC(C)C[C@H](NC(=O)c1cc(Cl)nnc1Cl)C(=O)NCCCCCCNC(=O)c1ccc(-c2c3nc(c(-c4ccc(S(=O)(=O)[O-])cc4)c4ccc([nH]4)c(-c4ccc(S(=O)(=O)[O-])cc4)c4nc(c(-c5ccc(S(=O)(=O)[O-])cc5)c5ccc2[nH]5)C=C4)C=C3)cc1
REMARK SMILES IDX 23 1 22 2 21 3 20 4 19 5 17 6 18 7 5 9 4 10 2 11 1 12 3 13
REMARK SMILES IDX 6 14 7 15 8 17 9 18 10 19 15 20 11 21 14 22 16 23 12 24
REMARK SMILES IDX 13 25 24 26 25 27 26 28 27 29 28 31 29 32 30 33 88 34 31 35
REMARK SMILES IDX 87 36 32 37 33 38 34 39 81 40 35 41 86 42 80 43 82 44 36 45
REMARK SMILES IDX 85 46 79 47 78 48 37 50 67 51 48 52 66 53 49 54 52 55 65 56
REMARK SMILES IDX 83 57 50 58 51 59 64 61 84 62 53 63 38 64 39 65 47 66 40 67
REMARK SMILES IDX 46 68 41 69 42 70 43 71 44 72 45 73 68 74 69 75 77 76 70 77
REMARK SMILES IDX 76 78 71 79 72 80 73 81 74 82 75 83 54 84 55 85 63 86 56 87
REMARK SMILES IDX 62 88 57 89 58 90 59 91 60 92 61 93
REMARK H PARENT 19 8 6 16 26 30 82 49 52 60
REMARK Flexibility Score: inf
ROOT
ATOM      1  C   UNL A   1      31.977  30.622  26.036  1.00  0.00     0.002 C 
ENDROOT
BRANCH   1   2
ATOM      2  C   UNL A   1      33.054  29.685  26.593  1.00  0.00     0.002 C 
BRANCH   2   3
ATOM      3  C   UNL A   1      32.534  28.509  27.427  1.00  0.00     0.021 C 
BRANCH   3   4
ATOM      4  C   UNL A   1      32.433  27.188  26.670  1.00  0.00     0.116 C 
BRANCH   4   5
ATOM      5  N   UNL A   1      31.112  26.599  26.796  1.00  0.00    -0.354 N 
ATOM      6  C   UNL A   1      30.538  25.578  26.095  1.00  0.00     0.242 C 
ATOM      7  O   UNL A   1      29.415  25.202  26.438  1.00  0.00    -0.273 OA
ATOM      8  H   UNL A   1      30.542  26.998  27.492  1.00  0.00     0.163 HD
BRANCH   6   9
ATOM      9  C   UNL A   1      31.286  24.905  24.924  1.00  0.00     0.171 C 
BRANCH   9  10
ATOM     10  C   UNL A   1      30.710  25.282  23.547  1.00  0.00     0.038 C 
BRANCH  10  11
ATOM     11  C   UNL A   1      31.569  26.223  22.676  1.00  0.00    -0.015 C 
ATOM     12  C   UNL A   1      30.984  27.631  22.572  1.00  0.00     0.007 C 
ATOM     13  C   UNL A   1      32.986  26.299  23.254  1.00  0.00     0.007 C 
ENDBRANCH  10  11
ENDBRANCH   9  10
BRANCH   9  14
ATOM     14  N   UNL A   1      31.307  23.455  25.210  1.00  0.00    -0.340 N 
ATOM     15  C   UNL A   1      32.293  22.514  25.158  1.00  0.00     0.255 C 
ATOM     16  H   UNL A   1      30.436  23.097  25.495  1.00  0.00     0.164 HD
ATOM     17  O   UNL A   1      32.062  21.349  25.465  1.00  0.00    -0.269 OA
BRANCH  15  18
ATOM     18  C   UNL A   1      33.616  22.845  24.649  1.00  0.00     0.082 A 
ATOM     19  C   UNL A   1      34.603  23.197  25.571  1.00  0.00     0.060 A 
ATOM     20  C   UNL A   1      33.900  22.873  23.298  1.00  0.00     0.164 A 
ATOM     21  C   UNL A   1      35.848  23.505  25.072  1.00  0.00     0.152 A 
ATOM     22  N   UNL A   1      35.136  23.171  22.851  1.00  0.00    -0.136 NA
ATOM     23  Cl  UNL A   1      32.764  22.541  22.059  1.00  0.00    -0.059 Cl
ATOM     24  Cl  UNL A   1      37.150  23.919  26.098  1.00  0.00    -0.060 Cl
ATOM     25  N   UNL A   1      36.128  23.483  23.753  1.00  0.00    -0.137 NA
ENDBRANCH  15  18
ENDBRANCH   9  14
ENDBRANCH   6   9
ENDBRANCH   4   5
ENDBRANCH   3   4
ENDBRANCH   2   3
ENDBRANCH   1   2
BRANCH   1  26
ATOM     26  C   UNL A   1      31.719  31.886  26.858  1.00  0.00     0.021 C 
BRANCH  26  27
ATOM     27  C   UNL A   1      32.969  32.554  27.424  1.00  0.00     0.116 C 
BRANCH  27  28
ATOM     28  N   UNL A   1      32.762  33.966  27.696  1.00  0.00    -0.352 N 
ATOM     29  C   UNL A   1      33.396  34.755  28.622  1.00  0.00     0.251 C 
ATOM     30  H   UNL A   1      32.080  34.415  27.144  1.00  0.00     0.163 HD
ATOM     31  O   UNL A   1      33.008  35.898  28.841  1.00  0.00    -0.269 OA
BRANCH  29  32
ATOM     32  C   UNL A   1      34.540  34.198  29.370  1.00  0.00     0.039 A 
ATOM     33  C   UNL A   1      34.294  33.431  30.511  1.00  0.00     0.014 A 
ATOM     34  C   UNL A   1      35.847  34.418  28.924  1.00  0.00     0.014 A 
ATOM     35  C   UNL A   1      35.365  32.844  31.186  1.00  0.00     0.010 A 
ATOM     36  C   UNL A   1      36.910  33.799  29.575  1.00  0.00     0.010 A 
ATOM     37  C   UNL A   1      36.677  33.011  30.714  1.00  0.00    -0.014 A 
BRANCH  37  38
ATOM     38  C   UNL A   1      37.823  32.394  31.422  1.00  0.00     0.031 A 
ATOM     39  C   UNL A   1      38.242  32.927  32.762  1.00  0.00     0.074 A 
ATOM     40  C   UNL A   1      38.508  31.389  30.843  1.00  0.00     0.049 A 
ATOM     41  N   UNL A   1      39.240  32.553  33.517  1.00  0.00    -0.248 NA
ATOM     42  C   UNL A   1      37.444  34.032  33.319  1.00  0.00     0.031 C 
ATOM     43  C   UNL A   1      38.213  30.806  29.533  1.00  0.00     0.029 A 
ATOM     44  N   UNL A   1      39.599  30.684  31.284  1.00  0.00    -0.354 N 
ATOM     45  C   UNL A   1      39.198  33.380  34.632  1.00  0.00     0.074 A 
ATOM     46  C   UNL A   1      38.097  34.299  34.441  1.00  0.00     0.031 C 
ATOM     47  C   UNL A   1      39.095  29.824  29.283  1.00  0.00     0.029 A 
ATOM     48  C   UNL A   1      40.029  29.723  30.401  1.00  0.00     0.049 A 
ATOM     49  H   UNL A   1      40.034  30.851  32.152  1.00  0.00     0.167 HD
ATOM     50  C   UNL A   1      39.995  33.363  35.725  1.00  0.00     0.031 A 
ATOM     51  C   UNL A   1      41.060  28.859  30.481  1.00  0.00     0.031 A 
ATOM     52  C   UNL A   1      41.073  32.436  35.925  1.00  0.00     0.049 A 
ATOM     53  C   UNL A   1      41.930  28.857  31.706  1.00  0.00     0.074 A 
ATOM     54  C   UNL A   1      41.903  32.311  37.026  1.00  0.00     0.029 A 
ATOM     55  N   UNL A   1      41.469  31.474  35.011  1.00  0.00    -0.354 N 
ATOM     56  N   UNL A   1      41.849  29.621  32.768  1.00  0.00    -0.248 NA
ATOM     57  C   UNL A   1      43.024  27.875  31.749  1.00  0.00     0.031 C 
ATOM     58  C   UNL A   1      42.822  31.292  36.763  1.00  0.00     0.029 A 
ATOM     59  C   UNL A   1      42.540  30.758  35.515  1.00  0.00     0.049 A 
ATOM     60  H   UNL A   1      41.050  31.320  34.132  1.00  0.00     0.167 HD
ATOM     61  C   UNL A   1      42.870  29.203  33.614  1.00  0.00     0.074 A 
ATOM     62  C   UNL A   1      43.551  28.115  32.944  1.00  0.00     0.031 C 
ATOM     63  C   UNL A   1      43.207  29.678  34.836  1.00  0.00     0.031 A 
BRANCH  50  64
ATOM     64  C   UNL A   1      39.725  34.373  36.802  1.00  0.00    -0.014 A 
ATOM     65  C   UNL A   1      38.968  34.027  37.934  1.00  0.00     0.010 A 
ATOM     66  C   UNL A   1      40.300  35.654  36.721  1.00  0.00     0.010 A 
ATOM     67  C   UNL A   1      38.780  34.950  38.965  1.00  0.00     0.020 A 
ATOM     68  C   UNL A   1      40.128  36.575  37.758  1.00  0.00     0.020 A 
ATOM     69  C   UNL A   1      39.367  36.216  38.873  1.00  0.00     0.054 A 
BRANCH  69  70
ATOM     70  S   UNL A   1      39.139  37.374  40.251  1.00  0.00     0.124 S 
ATOM     71  O   UNL A   1      38.264  38.382  39.658  1.00  0.00    -0.237 OA
ATOM     72  O   UNL A   1      38.526  36.530  41.272  1.00  0.00    -0.237 OA
ATOM     73  O   UNL A   1      40.494  37.830  40.549  1.00  0.00    -0.744 OA
ENDBRANCH  69  70
ENDBRANCH  50  64
BRANCH  51  74
ATOM     74  C   UNL A   1      41.309  27.913  29.363  1.00  0.00    -0.014 A 
ATOM     75  C   UNL A   1      42.239  28.229  28.358  1.00  0.00     0.010 A 
ATOM     76  C   UNL A   1      40.654  26.669  29.328  1.00  0.00     0.010 A 
ATOM     77  C   UNL A   1      42.515  27.313  27.339  1.00  0.00     0.020 A 
ATOM     78  C   UNL A   1      40.939  25.744  28.319  1.00  0.00     0.020 A 
ATOM     79  C   UNL A   1      41.872  26.072  27.333  1.00  0.00     0.054 A 
BRANCH  79  80
ATOM     80  S   UNL A   1      42.306  24.876  26.039  1.00  0.00     0.124 S 
ATOM     81  O   UNL A   1      43.617  24.410  26.478  1.00  0.00    -0.237 OA
ATOM     82  O   UNL A   1      41.220  23.904  26.142  1.00  0.00    -0.237 OA
ATOM     83  O   UNL A   1      42.304  25.676  24.816  1.00  0.00    -0.744 OA
ENDBRANCH  79  80
ENDBRANCH  51  74
BRANCH  63  84
ATOM     84  C   UNL A   1      44.356  29.029  35.551  1.00  0.00    -0.014 A 
ATOM     85  C   UNL A   1      45.654  29.559  35.452  1.00  0.00     0.010 A 
ATOM     86  C   UNL A   1      44.112  27.955  36.426  1.00  0.00     0.010 A 
ATOM     87  C   UNL A   1      46.690  29.025  36.221  1.00  0.00     0.020 A 
ATOM     88  C   UNL A   1      45.143  27.430  37.209  1.00  0.00     0.020 A 
ATOM     89  C   UNL A   1      46.426  27.971  37.102  1.00  0.00     0.054 A 
BRANCH  89  90
ATOM     90  S   UNL A   1      47.778  27.351  38.140  1.00  0.00     0.124 S 
ATOM     91  O   UNL A   1      48.023  28.482  39.032  1.00  0.00    -0.237 OA
ATOM     92  O   UNL A   1      47.181  26.175  38.767  1.00  0.00    -0.237 OA
ATOM     93  O   UNL A   1      48.849  27.069  37.187  1.00  0.00    -0.744 OA
ENDBRANCH  89  90
ENDBRANCH  63  84
ENDBRANCH  37  38
ENDBRANCH  29  32
ENDBRANCH  27  28
ENDBRANCH  26  27
ENDBRANCH   1  26
TORSDOF 20
ENDMDL
MODEL 3
REMARK VINA RESULT:     -10.0      4.103      8.289
REMARK SMILES CC(C)C[C@H](NC(=O)c1cc(Cl)nnc1Cl)C(=O)NCCCCCCNC(=O)c1ccc(-c2c3nc(c(-c4ccc(S(=O)(=O)[O-])cc4)c4ccc([nH]4)c(-c4ccc(S(=O)(=O)[O-])cc4)c4nc(c(-c5ccc(S(=O)(=O)[O-])cc5)c5ccc2[nH]5)C=C4)C=C3)cc1
REMARK SMILES IDX 23 1 22 2 21 3 20 4 19 5 17 6 18 7 5 9 4 10 2 11 1 12 3 13
REMARK SMILES IDX 6 14 7 15 8 17 9 18 10 19 15 20 11 21 14 22 16 23 12 24
REMARK SMILES IDX 13 25 24 26 25 27 26 28 27 29 28 31 29 32 30 33 88 34 31 35
REMARK SMILES IDX 87 36 32 37 33 38 34 39 81 40 35 41 86 42 80 43 82 44 36 45
REMARK SMILES IDX 85 46 79 47 78 48 37 50 67 51 48 52 66 53 49 54 52 55 65 56
REMARK SMILES IDX 83 57 50 58 51 59 64 61 84 62 53 63 38 64 39 65 47 66 40 67
REMARK SMILES IDX 46 68 41 69 42 70 43 71 44 72 45 73 68 74 69 75 77 76 70 77
REMARK SMILES IDX 76 78 71 79 72 80 73 81 74 82 75 83 54 84 55 85 63 86 56 87
REMARK SMILES IDX 62 88 57 89 58 90 59 91 60 92 61 93
REMARK H PARENT 19 8 6 16 26 30 82 49 52 60
REMARK Flexibility Score: inf
ROOT
ATOM      1  C   UNL A   1      31.815  30.501  25.957  1.00  0.00     0.002 C 
ENDROOT
BRANCH   1   2
ATOM      2  C   UNL A   1      32.966  29.575  26.364  1.00  0.00     0.002 C 
BRANCH   2   3
ATOM      3  C   UNL A   1      32.569  28.379  27.237  1.00  0.00     0.021 C 
BRANCH   3   4
ATOM      4  C   UNL A   1      32.528  27.042  26.503  1.00  0.00     0.116 C 
BRANCH   4   5
ATOM      5  N   UNL A   1      31.352  26.271  26.863  1.00  0.00    -0.354 N 
ATOM      6  C   UNL A   1      30.776  25.205  26.233  1.00  0.00     0.242 C 
ATOM      7  O   UNL A   1      29.811  24.664  26.778  1.00  0.00    -0.273 OA
ATOM      8  H   UNL A   1      30.899  26.561  27.688  1.00  0.00     0.163 HD
BRANCH   6   9
ATOM      9  C   UNL A   1      31.334  24.685  24.891  1.00  0.00     0.171 C 
BRANCH   9  10
ATOM     10  C   UNL A   1      30.567  25.228  23.671  1.00  0.00     0.038 C 
BRANCH  10  11
ATOM     11  C   UNL A   1      31.166  26.470  22.979  1.00  0.00    -0.015 C 
ATOM     12  C   UNL A   1      31.767  26.152  21.610  1.00  0.00     0.007 C 
ATOM     13  C   UNL A   1      30.080  27.540  22.825  1.00  0.00     0.007 C 
ENDBRANCH  10  11
ENDBRANCH   9  10
BRANCH   9  14
ATOM     14  N   UNL A   1      31.377  23.212  24.990  1.00  0.00    -0.340 N 
ATOM     15  C   UNL A   1      32.386  22.302  24.863  1.00  0.00     0.255 C 
ATOM     16  H   UNL A   1      30.503  22.805  25.188  1.00  0.00     0.164 HD
ATOM     17  O   UNL A   1      32.169  21.104  25.007  1.00  0.00    -0.269 OA
BRANCH  15  18
ATOM     18  C   UNL A   1      33.722  22.720  24.460  1.00  0.00     0.082 A 
ATOM     19  C   UNL A   1      34.662  22.960  25.463  1.00  0.00     0.060 A 
ATOM     20  C   UNL A   1      34.059  22.934  23.139  1.00  0.00     0.164 A 
ATOM     21  C   UNL A   1      35.919  23.351  25.065  1.00  0.00     0.152 A 
ATOM     22  N   UNL A   1      35.306  23.309  22.790  1.00  0.00    -0.136 NA
ATOM     23  Cl  UNL A   1      32.982  22.755  21.818  1.00  0.00    -0.059 Cl
ATOM     24  Cl  UNL A   1      37.170  23.643  26.192  1.00  0.00    -0.060 Cl
ATOM     25  N   UNL A   1      36.253  23.512  23.768  1.00  0.00    -0.137 NA
ENDBRANCH  15  18
ENDBRANCH   9  14
ENDBRANCH   6   9
ENDBRANCH   4   5
ENDBRANCH   3   4
ENDBRANCH   2   3
ENDBRANCH   1   2
BRANCH   1  26
ATOM     26  C   UNL A   1      31.635  31.745  26.830  1.00  0.00     0.021 C 
BRANCH  26  27
ATOM     27  C   UNL A   1      32.931  32.402  27.293  1.00  0.00     0.116 C 
BRANCH  27  28
ATOM     28  N   UNL A   1      32.754  33.810  27.605  1.00  0.00    -0.352 N 
ATOM     29  C   UNL A   1      33.406  34.559  28.551  1.00  0.00     0.251 C 
ATOM     30  H   UNL A   1      32.080  34.287  27.068  1.00  0.00     0.163 HD
ATOM     31  O   UNL A   1      33.041  35.704  28.803  1.00  0.00    -0.269 OA
BRANCH  29  32
ATOM     32  C   UNL A   1      34.539  33.960  29.280  1.00  0.00     0.039 A 
ATOM     33  C   UNL A   1      35.841  34.300  28.906  1.00  0.00     0.014 A 
ATOM     34  C   UNL A   1      34.308  33.084  30.346  1.00  0.00     0.014 A 
ATOM     35  C   UNL A   1      36.919  33.791  29.632  1.00  0.00     0.010 A 
ATOM     36  C   UNL A   1      35.382  32.611  31.093  1.00  0.00     0.010 A 
ATOM     37  C   UNL A   1      36.696  32.957  30.739  1.00  0.00    -0.014 A 
BRANCH  37  38
ATOM     38  C   UNL A   1      37.831  32.410  31.518  1.00  0.00     0.031 A 
ATOM     39  C   UNL A   1      38.640  31.276  30.955  1.00  0.00     0.074 A 
ATOM     40  C   UNL A   1      38.105  32.901  32.741  1.00  0.00     0.049 A 
ATOM     41  N   UNL A   1      39.639  30.634  31.499  1.00  0.00    -0.248 NA
ATOM     42  C   UNL A   1      38.268  30.793  29.615  1.00  0.00     0.031 C 
ATOM     43  C   UNL A   1      37.373  33.982  33.405  1.00  0.00     0.029 A 
ATOM     44  N   UNL A   1      39.074  32.550  33.647  1.00  0.00    -0.354 N 
ATOM     45  C   UNL A   1      40.010  29.666  30.574  1.00  0.00     0.074 A 
ATOM     46  C   UNL A   1      39.109  29.782  29.449  1.00  0.00     0.031 C 
ATOM     47  C   UNL A   1      37.927  34.213  34.607  1.00  0.00     0.029 A 
ATOM     48  C   UNL A   1      39.037  33.283  34.809  1.00  0.00     0.049 A 
ATOM     49  H   UNL A   1      39.734  31.838  33.480  1.00  0.00     0.167 HD
ATOM     50  C   UNL A   1      41.024  28.774  30.649  1.00  0.00     0.031 A 
ATOM     51  C   UNL A   1      39.806  33.215  35.912  1.00  0.00     0.031 A 
ATOM     52  C   UNL A   1      41.935  28.675  31.756  1.00  0.00     0.049 A 
ATOM     53  C   UNL A   1      40.928  32.217  35.972  1.00  0.00     0.074 A 
ATOM     54  C   UNL A   1      43.024  27.834  31.895  1.00  0.00     0.029 A 
ATOM     55  N   UNL A   1      41.867  29.442  32.906  1.00  0.00    -0.354 N 
ATOM     56  N   UNL A   1      41.288  31.337  35.069  1.00  0.00    -0.248 NA
ATOM     57  C   UNL A   1      41.751  32.207  37.190  1.00  0.00     0.031 C 
ATOM     58  C   UNL A   1      43.598  28.071  33.147  1.00  0.00     0.029 A 
ATOM     59  C   UNL A   1      42.887  29.086  33.769  1.00  0.00     0.049 A 
ATOM     60  H   UNL A   1      41.193  30.138  33.084  1.00  0.00     0.167 HD
ATOM     61  C   UNL A   1      42.389  30.678  35.603  1.00  0.00     0.074 A 
ATOM     62  C   UNL A   1      42.641  31.263  36.903  1.00  0.00     0.031 C 
ATOM     63  C   UNL A   1      43.124  29.679  35.060  1.00  0.00     0.031 A 
BRANCH  50  64
ATOM     64  C   UNL A   1      41.214  27.834  29.494  1.00  0.00    -0.014 A 
ATOM     65  C   UNL A   1      42.295  27.995  28.610  1.00  0.00     0.010 A 
ATOM     66  C   UNL A   1      40.353  26.734  29.336  1.00  0.00     0.010 A 
ATOM     67  C   UNL A   1      42.506  27.077  27.580  1.00  0.00     0.020 A 
ATOM     68  C   UNL A   1      40.571  25.803  28.317  1.00  0.00     0.020 A 
ATOM     69  C   UNL A   1      41.646  25.984  27.444  1.00  0.00     0.054 A 
BRANCH  69  70
ATOM     70  S   UNL A   1      41.976  24.786  26.122  1.00  0.00     0.124 S 
ATOM     71  O   UNL A   1      41.760  25.591  24.923  1.00  0.00    -0.237 OA
ATOM     72  O   UNL A   1      43.360  24.404  26.383  1.00  0.00    -0.237 OA
ATOM     73  O   UNL A   1      40.985  23.736  26.348  1.00  0.00    -0.744 OA
ENDBRANCH  69  70
ENDBRANCH  50  64
BRANCH  51  74
ATOM     74  C   UNL A   1      39.542  34.139  37.045  1.00  0.00    -0.014 A 
ATOM     75  C   UNL A   1      38.798  33.707  38.157  1.00  0.00     0.010 A 
ATOM     76  C   UNL A   1      40.078  35.439  37.040  1.00  0.00     0.010 A 
ATOM     77  C   UNL A   1      38.600  34.558  39.248  1.00  0.00     0.020 A 
ATOM     78  C   UNL A   1      39.896  36.288  38.136  1.00  0.00     0.020 A 
ATOM     79  C   UNL A   1      39.160  35.839  39.235  1.00  0.00     0.054 A 
BRANCH  79  80
ATOM     80  S   UNL A   1      38.948  36.893  40.697  1.00  0.00     0.124 S 
ATOM     81  O   UNL A   1      38.110  36.063  41.556  1.00  0.00    -0.237 OA
ATOM     82  O   UNL A   1      40.326  37.079  41.144  1.00  0.00    -0.237 OA
ATOM     83  O   UNL A   1      38.304  38.092  40.165  1.00  0.00    -0.744 OA
ENDBRANCH  79  80
ENDBRANCH  51  74
BRANCH  63  84
ATOM     84  C   UNL A   1      44.285  29.149  35.851  1.00  0.00    -0.014 A 
ATOM     85  C   UNL A   1      45.569  29.699  35.696  1.00  0.00     0.010 A 
ATOM     86  C   UNL A   1      44.063  28.179  36.845  1.00  0.00     0.010 A 
ATOM     87  C   UNL A   1      46.614  29.287  36.527  1.00  0.00     0.020 A 
ATOM     88  C   UNL A   1      45.102  27.778  37.689  1.00  0.00     0.020 A 
ATOM     89  C   UNL A   1      46.370  28.337  37.524  1.00  0.00     0.054 A 
BRANCH  89  90
ATOM     90  S   UNL A   1      47.731  27.880  38.634  1.00  0.00     0.124 S 
ATOM     91  O   UNL A   1      47.571  28.837  39.726  1.00  0.00    -0.237 OA
ATOM     92  O   UNL A   1      47.417  26.492  38.963  1.00  0.00    -0.237 OA
ATOM     93  O   UNL A   1      48.927  28.068  37.815  1.00  0.00    -0.744 OA
ENDBRANCH  89  90
ENDBRANCH  63  84
ENDBRANCH  37  38
ENDBRANCH  29  32
ENDBRANCH  27  28
ENDBRANCH  26  27
ENDBRANCH   1  26
TORSDOF 20
ENDMDL
