MODEL 1
REMARK VINA RESULT:     -12.0      0.000      0.000
REMARK SMILES COc1ccc(-c2ccc(CCC(=O)NCCCCCCNC(=O)c3ccc(-c4c5nc(c(-c6ccc(S(=O)(=O)[O-])cc6)c6ccc([nH]6)c(-c6ccc(S(=O)(=O)[O-])cc6)c6nc(c(-c7ccc(S(=O)(=O)[O-])cc7)c7ccc4[nH]7)C=C6)C=C5)cc3)n2-c2ccc(C(C)=O)cc2)cc1
REMARK SMILES IDX 18 1 17 2 16 3 15 4 13 5 14 6 12 8 11 9 10 10 7 11 8 12
REMARK SMILES IDX 85 13 9 14 6 15 3 16 4 17 96 18 5 19 95 20 2 21 1 22 86 23
REMARK SMILES IDX 87 24 94 25 88 26 93 27 89 28 90 29 91 30 92 31 19 32 20 33
REMARK SMILES IDX 21 34 22 35 23 36 24 38 25 39 26 40 84 41 27 42 83 43 28 44
REMARK SMILES IDX 29 45 30 46 77 47 31 48 82 49 76 50 78 51 32 52 81 53 75 54
REMARK SMILES IDX 74 55 33 57 63 58 44 59 62 60 45 61 48 62 61 63 79 64 46 65
REMARK SMILES IDX 47 66 60 68 80 69 49 70 34 71 35 72 43 73 36 74 42 75 37 76
REMARK SMILES IDX 38 77 39 78 40 79 41 80 64 81 65 82 73 83 66 84 72 85 67 86
REMARK SMILES IDX 68 87 69 88 70 89 71 90 50 91 51 92 59 93 52 94 58 95 53 96
REMARK SMILES IDX 54 97 55 98 56 99 57 100
REMARK H PARENT 15 7 22 37 78 56 48 67
REMARK Flexibility Score: inf
ROOT
ATOM      1  C   UNL A   1      31.341  28.399  25.628  1.00  0.00     0.002 C 
ENDROOT
BRANCH   1   2
ATOM      2  C   UNL A   1      31.363  29.462  24.537  1.00  0.00     0.021 C 
BRANCH   2   3
ATOM      3  C   UNL A   1      31.209  28.939  23.112  1.00  0.00     0.116 C 
BRANCH   3   4
ATOM      4  N   UNL A   1      32.455  29.076  22.384  1.00  0.00    -0.356 N 
ATOM      5  C   UNL A   1      33.563  28.286  22.427  1.00  0.00     0.220 C 
ATOM      6  O   UNL A   1      34.579  28.669  21.842  1.00  0.00    -0.275 OA
ATOM      7  H   UNL A   1      32.507  29.847  21.775  1.00  0.00     0.163 HD
BRANCH   5   8
ATOM      8  C   UNL A   1      33.527  26.945  23.134  1.00  0.00     0.106 C 
BRANCH   8   9
ATOM      9  C   UNL A   1      33.278  25.767  22.191  1.00  0.00     0.064 C 
BRANCH   9  10
ATOM     10  C   UNL A   1      32.517  24.629  22.818  1.00  0.00     0.024 A 
ATOM     11  C   UNL A   1      32.088  22.502  23.444  1.00  0.00     0.053 A 
ATOM     12  C   UNL A   1      30.913  23.236  23.554  1.00  0.00     0.029 A 
ATOM     13  N   UNL A   1      33.100  23.449  23.284  1.00  0.00    -0.314 N 
ATOM     14  C   UNL A   1      31.180  24.562  23.154  1.00  0.00     0.024 A 
BRANCH  11  15
ATOM     15  C   UNL A   1      32.265  21.083  23.755  1.00  0.00    -0.001 A 
ATOM     16  C   UNL A   1      32.745  18.376  24.312  1.00  0.00     0.118 A 
ATOM     17  C   UNL A   1      32.463  18.784  23.010  1.00  0.00     0.047 A 
ATOM     18  C   UNL A   1      32.812  19.319  25.338  1.00  0.00     0.047 A 
ATOM     19  C   UNL A   1      32.219  20.131  22.732  1.00  0.00     0.014 A 
ATOM     20  C   UNL A   1      32.570  20.671  25.059  1.00  0.00     0.014 A 
BRANCH  16  21
ATOM     21  O   UNL A   1      33.024  17.049  24.483  1.00  0.00    -0.497 OA
ATOM     22  C   UNL A   1      34.134  16.590  23.717  1.00  0.00     0.278 C 
ENDBRANCH  16  21
ENDBRANCH  11  15
BRANCH  13  23
ATOM     23  C   UNL A   1      34.386  23.372  23.878  1.00  0.00     0.046 A 
ATOM     24  C   UNL A   1      34.495  23.831  25.196  1.00  0.00     0.027 A 
ATOM     25  C   UNL A   1      35.470  22.765  23.251  1.00  0.00     0.027 A 
ATOM     26  C   UNL A   1      35.693  23.704  25.892  1.00  0.00     0.014 A 
ATOM     27  C   UNL A   1      36.682  22.663  23.946  1.00  0.00     0.014 A 
ATOM     28  C   UNL A   1      36.803  23.130  25.270  1.00  0.00     0.017 A 
BRANCH  28  29
ATOM     29  C   UNL A   1      38.125  23.002  25.955  1.00  0.00     0.159 C 
ATOM     30  C   UNL A   1      38.916  21.716  25.885  1.00  0.00     0.093 C 
ATOM     31  O   UNL A   1      38.565  23.961  26.592  1.00  0.00    -0.295 OA
ENDBRANCH  28  29
ENDBRANCH  13  23
ENDBRANCH   9  10
ENDBRANCH   8   9
ENDBRANCH   5   8
ENDBRANCH   3   4
ENDBRANCH   2   3
ENDBRANCH   1   2
BRANCH   1  32
ATOM     32  C   UNL A   1      32.158  28.755  26.873  1.00  0.00     0.002 C 
BRANCH  32  33
ATOM     33  C   UNL A   1      32.563  30.233  27.006  1.00  0.00     0.021 C 
BRANCH  33  34
ATOM     34  C   UNL A   1      33.950  30.458  27.614  1.00  0.00     0.116 C 
BRANCH  34  35
ATOM     35  N   UNL A   1      33.940  31.647  28.445  1.00  0.00    -0.352 N 
ATOM     36  C   UNL A   1      34.728  31.992  29.509  1.00  0.00     0.251 C 
ATOM     37  H   UNL A   1      33.256  32.313  28.205  1.00  0.00     0.163 HD
ATOM     38  O   UNL A   1      34.301  32.823  30.303  1.00  0.00    -0.269 OA
BRANCH  36  39
ATOM     39  C   UNL A   1      36.077  31.416  29.707  1.00  0.00     0.039 A 
ATOM     40  C   UNL A   1      37.093  31.847  28.843  1.00  0.00     0.014 A 
ATOM     41  C   UNL A   1      36.321  30.374  30.609  1.00  0.00     0.014 A 
ATOM     42  C   UNL A   1      38.351  31.256  28.895  1.00  0.00     0.010 A 
ATOM     43  C   UNL A   1      37.580  29.782  30.669  1.00  0.00     0.010 A 
ATOM     44  C   UNL A   1      38.594  30.230  29.816  1.00  0.00    -0.014 A 
BRANCH  44  45
ATOM     45  C   UNL A   1      39.984  29.759  30.008  1.00  0.00     0.031 A 
ATOM     46  C   UNL A   1      40.840  30.843  30.701  1.00  0.00     0.074 A 
ATOM     47  C   UNL A   1      40.296  28.516  29.519  1.00  0.00     0.049 A 
ATOM     48  N   UNL A   1      42.119  31.037  30.646  1.00  0.00    -0.248 NA
ATOM     49  C   UNL A   1      40.183  31.918  31.504  1.00  0.00     0.031 C 
ATOM     50  C   UNL A   1      39.324  27.584  28.893  1.00  0.00     0.029 A 
ATOM     51  N   UNL A   1      41.458  27.774  29.436  1.00  0.00    -0.354 N 
ATOM     52  C   UNL A   1      42.441  32.121  31.498  1.00  0.00     0.074 A 
ATOM     53  C   UNL A   1      41.197  32.676  31.935  1.00  0.00     0.031 C 
ATOM     54  C   UNL A   1      39.939  26.469  28.433  1.00  0.00     0.029 A 
ATOM     55  C   UNL A   1      41.356  26.543  28.723  1.00  0.00     0.049 A 
ATOM     56  H   UNL A   1      42.302  28.075  29.843  1.00  0.00     0.167 HD
ATOM     57  C   UNL A   1      43.724  32.417  31.867  1.00  0.00     0.031 A 
ATOM     58  C   UNL A   1      42.351  25.671  28.356  1.00  0.00     0.031 A 
ATOM     59  C   UNL A   1      44.620  31.532  31.206  1.00  0.00     0.049 A 
ATOM     60  C   UNL A   1      43.569  26.179  28.999  1.00  0.00     0.074 A 
ATOM     61  C   UNL A   1      45.011  31.424  29.897  1.00  0.00     0.029 A 
ATOM     62  N   UNL A   1      44.906  30.365  31.871  1.00  0.00    -0.354 N 
ATOM     63  N   UNL A   1      43.838  26.099  30.266  1.00  0.00    -0.248 NA
ATOM     64  C   UNL A   1      44.559  26.872  28.164  1.00  0.00     0.031 C 
ATOM     65  C   UNL A   1      45.030  30.031  29.695  1.00  0.00     0.029 A 
ATOM     66  C   UNL A   1      44.913  29.374  30.926  1.00  0.00     0.049 A 
ATOM     67  H   UNL A   1      45.072  30.260  32.836  1.00  0.00     0.167 HD
ATOM     68  C   UNL A   1      44.799  27.064  30.412  1.00  0.00     0.074 A 
ATOM     69  C   UNL A   1      45.414  27.242  29.113  1.00  0.00     0.031 C 
ATOM     70  C   UNL A   1      44.626  28.029  31.350  1.00  0.00     0.031 A 
BRANCH  57  71
ATOM     71  C   UNL A   1      44.316  33.278  32.950  1.00  0.00    -0.014 A 
ATOM     72  C   UNL A   1      44.161  32.814  34.286  1.00  0.00     0.010 A 
ATOM     73  C   UNL A   1      44.673  34.620  32.772  1.00  0.00     0.010 A 
ATOM     74  C   UNL A   1      44.206  33.677  35.380  1.00  0.00     0.020 A 
ATOM     75  C   UNL A   1      44.759  35.490  33.877  1.00  0.00     0.020 A 
ATOM     76  C   UNL A   1      44.472  35.022  35.164  1.00  0.00     0.054 A 
BRANCH  76  77
ATOM     77  S   UNL A   1      44.362  36.147  36.584  1.00  0.00     0.124 S 
ATOM     78  O   UNL A   1      43.172  35.658  37.275  1.00  0.00    -0.237 OA
ATOM     79  O   UNL A   1      45.627  35.906  37.275  1.00  0.00    -0.237 OA
ATOM     80  O   UNL A   1      44.239  37.466  35.970  1.00  0.00    -0.744 OA
ENDBRANCH  76  77
ENDBRANCH  57  71
BRANCH  58  81
ATOM     81  C   UNL A   1      42.580  24.478  27.440  1.00  0.00    -0.014 A 
ATOM     82  C   UNL A   1      42.275  24.392  26.078  1.00  0.00     0.010 A 
ATOM     83  C   UNL A   1      43.335  23.384  27.965  1.00  0.00     0.010 A 
ATOM     84  C   UNL A   1      42.839  23.368  25.269  1.00  0.00     0.020 A 
ATOM     85  C   UNL A   1      43.949  22.411  27.174  1.00  0.00     0.020 A 
ATOM     86  C   UNL A   1      43.724  22.427  25.812  1.00  0.00     0.054 A 
BRANCH  86  87
ATOM     87  S   UNL A   1      44.708  21.329  24.747  1.00  0.00     0.124 S 
ATOM     88  O   UNL A   1      44.651  22.007  23.456  1.00  0.00    -0.237 OA
ATOM     89  O   UNL A   1      46.012  21.326  25.404  1.00  0.00    -0.237 OA
ATOM     90  O   UNL A   1      43.992  20.055  24.814  1.00  0.00    -0.744 OA
ENDBRANCH  86  87
ENDBRANCH  58  81
BRANCH  70  91
ATOM     91  C   UNL A   1      43.819  27.632  32.575  1.00  0.00    -0.014 A 
ATOM     92  C   UNL A   1      44.423  26.800  33.537  1.00  0.00     0.010 A 
ATOM     93  C   UNL A   1      42.478  28.007  32.795  1.00  0.00     0.010 A 
ATOM     94  C   UNL A   1      43.734  26.378  34.681  1.00  0.00     0.020 A 
ATOM     95  C   UNL A   1      41.774  27.586  33.942  1.00  0.00     0.020 A 
ATOM     96  C   UNL A   1      42.414  26.782  34.887  1.00  0.00     0.054 A 
BRANCH  96  97
ATOM     97  S   UNL A   1      41.576  26.253  36.412  1.00  0.00     0.124 S 
ATOM     98  O   UNL A   1      40.614  25.265  35.928  1.00  0.00    -0.237 OA
ATOM     99  O   UNL A   1      42.676  25.713  37.205  1.00  0.00    -0.237 OA
ATOM    100  O   UNL A   1      40.982  27.483  36.934  1.00  0.00    -0.744 OA
ENDBRANCH  96  97
ENDBRANCH  70  91
ENDBRANCH  44  45
ENDBRANCH  36  39
ENDBRANCH  34  35
ENDBRANCH  33  34
ENDBRANCH  32  33
ENDBRANCH   1  32
TORSDOF 22
ENDMDL
MODEL 2
REMARK VINA RESULT:     -11.9      2.747      8.543
REMARK SMILES COc1ccc(-c2ccc(CCC(=O)NCCCCCCNC(=O)c3ccc(-c4c5nc(c(-c6ccc(S(=O)(=O)[O-])cc6)c6ccc([nH]6)c(-c6ccc(S(=O)(=O)[O-])cc6)c6nc(c(-c7ccc(S(=O)(=O)[O-])cc7)c7ccc4[nH]7)C=C6)C=C5)cc3)n2-c2ccc(C(C)=O)cc2)cc1
REMARK SMILES IDX 18 1 17 2 16 3 15 4 13 5 14 6 12 8 11 9 10 10 7 11 8 12
REMARK SMILES IDX 85 13 9 14 6 15 3 16 4 17 96 18 5 19 95 20 2 21 1 22 86 23
REMARK SMILES IDX 87 24 94 25 88 26 93 27 89 28 90 29 91 30 92 31 19 32 20 33
REMARK SMILES IDX 21 34 22 35 23 36 24 38 25 39 26 40 84 41 27 42 83 43 28 44
REMARK SMILES IDX 29 45 30 46 77 47 31 48 82 49 76 50 78 51 32 52 81 53 75 54
REMARK SMILES IDX 74 55 33 57 63 58 44 59 62 60 45 61 48 62 61 63 79 64 46 65
REMARK SMILES IDX 47 66 60 68 80 69 49 70 34 71 35 72 43 73 36 74 42 75 37 76
REMARK SMILES IDX 38 77 39 78 40 79 41 80 64 81 65 82 73 83 66 84 72 85 67 86
REMARK SMILES IDX 68 87 69 88 70 89 71 90 50 91 51 92 59 93 52 94 58 95 53 96
REMARK SMILES IDX 54 97 55 98 56 99 57 100
REMARK H PARENT 15 7 22 37 78 56 48 67
REMARK Flexibility Score: inf
ROOT
ATOM      1  C   UNL A   1      31.838  27.945  26.255  1.00  0.00     0.002 C 
ENDROOT
BRANCH   1   2
ATOM      2  C   UNL A   1      31.426  29.066  25.309  1.00  0.00     0.021 C 
BRANCH   2   3
ATOM      3  C   UNL A   1      31.160  28.639  23.868  1.00  0.00     0.116 C 
BRANCH   3   4
ATOM      4  N   UNL A   1      32.319  28.906  23.039  1.00  0.00    -0.356 N 
ATOM      5  C   UNL A   1      33.437  28.149  22.862  1.00  0.00     0.220 C 
ATOM      6  O   UNL A   1      34.379  28.633  22.230  1.00  0.00    -0.275 OA
ATOM      7  H   UNL A   1      32.295  29.750  22.535  1.00  0.00     0.163 HD
BRANCH   5   8
ATOM      8  C   UNL A   1      33.497  26.726  23.385  1.00  0.00     0.106 C 
BRANCH   8   9
ATOM      9  C   UNL A   1      33.271  25.670  22.302  1.00  0.00     0.064 C 
BRANCH   9  10
ATOM     10  C   UNL A   1      32.486  24.472  22.767  1.00  0.00     0.024 A 
ATOM     11  C   UNL A   1      32.075  22.300  23.229  1.00  0.00     0.053 A 
ATOM     12  C   UNL A   1      30.864  22.981  23.215  1.00  0.00     0.029 A 
ATOM     13  N   UNL A   1      33.056  23.292  23.251  1.00  0.00    -0.314 N 
ATOM     14  C   UNL A   1      31.121  24.337  22.918  1.00  0.00     0.024 A 
BRANCH  11  15
ATOM     15  C   UNL A   1      32.273  20.875  23.493  1.00  0.00    -0.001 A 
ATOM     16  C   UNL A   1      32.511  18.131  24.025  1.00  0.00     0.118 A 
ATOM     17  C   UNL A   1      32.533  19.052  25.071  1.00  0.00     0.047 A 
ATOM     18  C   UNL A   1      32.348  18.572  22.712  1.00  0.00     0.047 A 
ATOM     19  C   UNL A   1      32.420  20.419  24.807  1.00  0.00     0.014 A 
ATOM     20  C   UNL A   1      32.232  19.943  22.447  1.00  0.00     0.014 A 
BRANCH  16  21
ATOM     21  O   UNL A   1      32.574  16.812  24.380  1.00  0.00    -0.497 OA
ATOM     22  C   UNL A   1      33.295  16.574  25.585  1.00  0.00     0.278 C 
ENDBRANCH  16  21
ENDBRANCH  11  15
BRANCH  13  23
ATOM     23  C   UNL A   1      34.254  23.234  24.007  1.00  0.00     0.046 A 
ATOM     24  C   UNL A   1      35.432  22.976  23.295  1.00  0.00     0.027 A 
ATOM     25  C   UNL A   1      34.303  23.533  25.365  1.00  0.00     0.027 A 
ATOM     26  C   UNL A   1      36.665  22.999  23.938  1.00  0.00     0.014 A 
ATOM     27  C   UNL A   1      35.544  23.528  26.013  1.00  0.00     0.014 A 
ATOM     28  C   UNL A   1      36.734  23.262  25.306  1.00  0.00     0.017 A 
BRANCH  28  29
ATOM     29  C   UNL A   1      38.027  23.261  26.057  1.00  0.00     0.159 C 
ATOM     30  C   UNL A   1      38.930  22.050  26.048  1.00  0.00     0.093 C 
ATOM     31  O   UNL A   1      38.348  24.265  26.696  1.00  0.00    -0.295 OA
ENDBRANCH  28  29
ENDBRANCH  13  23
ENDBRANCH   9  10
ENDBRANCH   8   9
ENDBRANCH   5   8
ENDBRANCH   3   4
ENDBRANCH   2   3
ENDBRANCH   1   2
BRANCH   1  32
ATOM     32  C   UNL A   1      33.291  28.023  26.731  1.00  0.00     0.002 C 
BRANCH  32  33
ATOM     33  C   UNL A   1      33.889  29.438  26.822  1.00  0.00     0.021 C 
BRANCH  33  34
ATOM     34  C   UNL A   1      35.341  29.483  27.307  1.00  0.00     0.116 C 
BRANCH  34  35
ATOM     35  N   UNL A   1      35.598  30.740  27.985  1.00  0.00    -0.352 N 
ATOM     36  C   UNL A   1      36.449  31.034  29.014  1.00  0.00     0.251 C 
ATOM     37  H   UNL A   1      35.075  31.504  27.650  1.00  0.00     0.163 HD
ATOM     38  O   UNL A   1      36.221  32.031  29.690  1.00  0.00    -0.269 OA
BRANCH  36  39
ATOM     39  C   UNL A   1      37.641  30.206  29.309  1.00  0.00     0.039 A 
ATOM     40  C   UNL A   1      38.831  30.531  28.642  1.00  0.00     0.014 A 
ATOM     41  C   UNL A   1      37.573  29.052  30.098  1.00  0.00     0.014 A 
ATOM     42  C   UNL A   1      39.951  29.719  28.781  1.00  0.00     0.010 A 
ATOM     43  C   UNL A   1      38.693  28.239  30.244  1.00  0.00     0.010 A 
ATOM     44  C   UNL A   1      39.883  28.578  29.591  1.00  0.00    -0.014 A 
BRANCH  44  45
ATOM     45  C   UNL A   1      41.131  27.847  29.898  1.00  0.00     0.031 A 
ATOM     46  C   UNL A   1      41.289  26.618  28.974  1.00  0.00     0.074 A 
ATOM     47  C   UNL A   1      41.892  28.318  30.938  1.00  0.00     0.049 A 
ATOM     48  N   UNL A   1      41.933  25.514  29.182  1.00  0.00    -0.248 NA
ATOM     49  C   UNL A   1      40.566  26.563  27.668  1.00  0.00     0.031 C 
ATOM     50  C   UNL A   1      41.596  29.550  31.713  1.00  0.00     0.029 A 
ATOM     51  N   UNL A   1      43.047  27.889  31.562  1.00  0.00    -0.354 N 
ATOM     52  C   UNL A   1      41.833  24.716  28.016  1.00  0.00     0.074 A 
ATOM     53  C   UNL A   1      40.909  25.380  27.149  1.00  0.00     0.031 C 
ATOM     54  C   UNL A   1      42.477  29.715  32.728  1.00  0.00     0.029 A 
ATOM     55  C   UNL A   1      43.441  28.633  32.713  1.00  0.00     0.049 A 
ATOM     56  H   UNL A   1      43.564  27.119  31.234  1.00  0.00     0.167 HD
ATOM     57  C   UNL A   1      42.608  23.609  27.808  1.00  0.00     0.031 A 
ATOM     58  C   UNL A   1      44.444  28.370  33.613  1.00  0.00     0.031 A 
ATOM     59  C   UNL A   1      43.426  23.384  28.951  1.00  0.00     0.049 A 
ATOM     60  C   UNL A   1      45.171  27.221  33.057  1.00  0.00     0.074 A 
ATOM     61  C   UNL A   1      43.136  22.954  30.219  1.00  0.00     0.029 A 
ATOM     62  N   UNL A   1      44.650  24.004  28.941  1.00  0.00    -0.354 N 
ATOM     63  N   UNL A   1      45.969  27.261  32.035  1.00  0.00    -0.248 NA
ATOM     64  C   UNL A   1      44.960  25.903  33.670  1.00  0.00     0.031 C 
ATOM     65  C   UNL A   1      43.942  23.787  31.018  1.00  0.00     0.029 A 
ATOM     66  C   UNL A   1      44.853  24.479  30.210  1.00  0.00     0.049 A 
ATOM     67  H   UNL A   1      45.263  24.091  28.175  1.00  0.00     0.167 HD
ATOM     68  C   UNL A   1      46.017  25.943  31.663  1.00  0.00     0.074 A 
ATOM     69  C   UNL A   1      45.690  25.164  32.840  1.00  0.00     0.031 C 
ATOM     70  C   UNL A   1      45.726  25.610  30.381  1.00  0.00     0.031 A 
BRANCH  57  71
ATOM     71  C   UNL A   1      42.925  22.782  26.591  1.00  0.00    -0.014 A 
ATOM     72  C   UNL A   1      42.493  21.427  26.614  1.00  0.00     0.010 A 
ATOM     73  C   UNL A   1      43.887  23.136  25.637  1.00  0.00     0.010 A 
ATOM     74  C   UNL A   1      43.099  20.443  25.834  1.00  0.00     0.020 A 
ATOM     75  C   UNL A   1      44.476  22.152  24.818  1.00  0.00     0.020 A 
ATOM     76  C   UNL A   1      44.115  20.808  24.962  1.00  0.00     0.054 A 
BRANCH  76  77
ATOM     77  S   UNL A   1      44.994  19.486  24.083  1.00  0.00     0.124 S 
ATOM     78  O   UNL A   1      44.550  19.679  22.707  1.00  0.00    -0.237 OA
ATOM     79  O   UNL A   1      46.395  19.815  24.339  1.00  0.00    -0.237 OA
ATOM     80  O   UNL A   1      44.521  18.267  24.735  1.00  0.00    -0.744 OA
ENDBRANCH  76  77
ENDBRANCH  57  71
BRANCH  58  81
ATOM     81  C   UNL A   1      44.926  28.807  34.987  1.00  0.00    -0.014 A 
ATOM     82  C   UNL A   1      44.237  29.605  35.906  1.00  0.00     0.010 A 
ATOM     83  C   UNL A   1      46.133  28.218  35.477  1.00  0.00     0.010 A 
ATOM     84  C   UNL A   1      44.641  29.660  37.268  1.00  0.00     0.020 A 
ATOM     85  C   UNL A   1      46.504  28.210  36.823  1.00  0.00     0.020 A 
ATOM     86  C   UNL A   1      45.731  28.910  37.727  1.00  0.00     0.054 A 
BRANCH  86  87
ATOM     87  S   UNL A   1      46.056  28.704  39.505  1.00  0.00     0.124 S 
ATOM     88  O   UNL A   1      45.025  29.538  40.113  1.00  0.00    -0.237 OA
ATOM     89  O   UNL A   1      45.901  27.265  39.697  1.00  0.00    -0.237 OA
ATOM     90  O   UNL A   1      47.426  29.193  39.661  1.00  0.00    -0.744 OA
ENDBRANCH  86  87
ENDBRANCH  58  81
BRANCH  70  91
ATOM     91  C   UNL A   1      46.041  26.662  29.330  1.00  0.00    -0.014 A 
ATOM     92  C   UNL A   1      44.970  27.343  28.720  1.00  0.00     0.010 A 
ATOM     93  C   UNL A   1      47.342  26.973  28.886  1.00  0.00     0.010 A 
ATOM     94  C   UNL A   1      45.183  28.311  27.730  1.00  0.00     0.020 A 
ATOM     95  C   UNL A   1      47.568  27.944  27.889  1.00  0.00     0.020 A 
ATOM     96  C   UNL A   1      46.483  28.618  27.326  1.00  0.00     0.054 A 
BRANCH  96  97
ATOM     97  S   UNL A   1      46.715  29.918  26.075  1.00  0.00     0.124 S 
ATOM     98  O   UNL A   1      45.545  30.772  26.272  1.00  0.00    -0.237 OA
ATOM     99  O   UNL A   1      47.991  30.510  26.469  1.00  0.00    -0.237 OA
ATOM    100  O   UNL A   1      46.737  29.190  24.807  1.00  0.00    -0.744 OA
ENDBRANCH  96  97
ENDBRANCH  70  91
ENDBRANCH  44  45
ENDBRANCH  36  39
ENDBRANCH  34  35
ENDBRANCH  33  34
ENDBRANCH  32  33
ENDBRANCH   1  32
TORSDOF 22
ENDMDL
MODEL 3
REMARK VINA RESULT:     -11.5      3.152      8.993
REMARK SMILES COc1ccc(-c2ccc(CCC(=O)NCCCCCCNC(=O)c3ccc(-c4c5nc(c(-c6ccc(S(=O)(=O)[O-])cc6)c6ccc([nH]6)c(-c6ccc(S(=O)(=O)[O-])cc6)c6nc(c(-c7ccc(S(=O)(=O)[O-])cc7)c7ccc4[nH]7)C=C6)C=C5)cc3)n2-c2ccc(C(C)=O)cc2)cc1
REMARK SMILES IDX 18 1 17 2 16 3 15 4 13 5 14 6 12 8 11 9 10 10 7 11 8 12
REMARK SMILES IDX 85 13 9 14 6 15 3 16 4 17 96 18 5 19 95 20 2 21 1 22 86 23
REMARK SMILES IDX 87 24 94 25 88 26 93 27 89 28 90 29 91 30 92 31 19 32 20 33
REMARK SMILES IDX 21 34 22 35 23 36 24 38 25 39 26 40 84 41 27 42 83 43 28 44
REMARK SMILES IDX 29 45 30 46 77 47 31 48 82 49 76 50 78 51 32 52 81 53 75 54
REMARK SMILES IDX 74 55 33 57 63 58 44 59 62 60 45 61 48 62 61 63 79 64 46 65
REMARK SMILES IDX 47 66 60 68 80 69 49 70 34 71 35 72 43 73 36 74 42 75 37 76
REMARK SMILES IDX 38 77 39 78 40 79 41 80 64 81 65 82 73 83 66 84 72 85 67 86
REMARK SMILES IDX 68 87 69 88 70 89 71 90 50 91 51 92 59 93 52 94 58 95 53 96
REMARK SMILES IDX 54 97 55 98 56 99 57 100
REMARK H PARENT 15 7 22 37 78 56 48 67
REMARK Flexibility Score: inf
ROOT
ATOM      1  C   UNL A   1      31.126  29.112  25.157  1.00  0.00     0.002 C 
ENDROOT
BRANCH   1   2
ATOM      2  C   UNL A   1      30.471  29.380  23.808  1.00  0.00     0.021 C 
BRANCH   2   3
ATOM      3  C   UNL A   1      30.874  28.428  22.685  1.00  0.00     0.116 C 
BRANCH   3   4
ATOM      4  N   UNL A   1      32.193  28.763  22.186  1.00  0.00    -0.356 N 
ATOM      5  C   UNL A   1      33.395  28.208  22.504  1.00  0.00     0.220 C 
ATOM      6  O   UNL A   1      34.419  28.747  22.080  1.00  0.00    -0.275 OA
ATOM      7  H   UNL A   1      32.223  29.492  21.526  1.00  0.00     0.163 HD
BRANCH   5   8
ATOM      8  C   UNL A   1      33.464  26.929  23.317  1.00  0.00     0.106 C 
BRANCH   8   9
ATOM      9  C   UNL A   1      33.554  25.667  22.458  1.00  0.00     0.064 C 
BRANCH   9  10
ATOM     10  C   UNL A   1      32.716  24.521  22.962  1.00  0.00     0.024 A 
ATOM     11  C   UNL A   1      32.193  22.380  23.455  1.00  0.00     0.053 A 
ATOM     12  C   UNL A   1      31.025  23.134  23.483  1.00  0.00     0.029 A 
ATOM     13  N   UNL A   1      33.232  23.311  23.431  1.00  0.00    -0.314 N 
ATOM     14  C   UNL A   1      31.353  24.470  23.166  1.00  0.00     0.024 A 
BRANCH  11  15
ATOM     15  C   UNL A   1      32.315  20.947  23.721  1.00  0.00    -0.001 A 
ATOM     16  C   UNL A   1      32.690  18.207  24.193  1.00  0.00     0.118 A 
ATOM     17  C   UNL A   1      32.418  18.666  22.905  1.00  0.00     0.047 A 
ATOM     18  C   UNL A   1      32.798  19.115  25.247  1.00  0.00     0.047 A 
ATOM     19  C   UNL A   1      32.226  20.029  22.670  1.00  0.00     0.014 A 
ATOM     20  C   UNL A   1      32.608  20.483  25.010  1.00  0.00     0.014 A 
BRANCH  16  21
ATOM     21  O   UNL A   1      32.916  16.865  24.322  1.00  0.00    -0.497 OA
ATOM     22  C   UNL A   1      33.075  16.435  25.671  1.00  0.00     0.278 C 
ENDBRANCH  16  21
ENDBRANCH  11  15
BRANCH  13  23
ATOM     23  C   UNL A   1      34.453  23.184  24.141  1.00  0.00     0.046 A 
ATOM     24  C   UNL A   1      35.548  22.690  23.420  1.00  0.00     0.027 A 
ATOM     25  C   UNL A   1      34.615  23.632  25.449  1.00  0.00     0.027 A 
ATOM     26  C   UNL A   1      36.808  22.625  24.006  1.00  0.00     0.014 A 
ATOM     27  C   UNL A   1      35.879  23.538  26.043  1.00  0.00     0.014 A 
ATOM     28  C   UNL A   1      36.985  23.036  25.328  1.00  0.00     0.017 A 
BRANCH  28  29
ATOM     29  C   UNL A   1      38.307  22.952  26.021  1.00  0.00     0.159 C 
ATOM     30  C   UNL A   1      38.841  24.118  26.818  1.00  0.00     0.093 C 
ATOM     31  O   UNL A   1      38.966  21.915  25.928  1.00  0.00    -0.295 OA
ENDBRANCH  28  29
ENDBRANCH  13  23
ENDBRANCH   9  10
ENDBRANCH   8   9
ENDBRANCH   5   8
ENDBRANCH   3   4
ENDBRANCH   2   3
ENDBRANCH   1   2
BRANCH   1  32
ATOM     32  C   UNL A   1      32.248  30.088  25.519  1.00  0.00     0.002 C 
BRANCH  32  33
ATOM     33  C   UNL A   1      31.935  31.072  26.660  1.00  0.00     0.021 C 
BRANCH  33  34
ATOM     34  C   UNL A   1      33.168  31.599  27.399  1.00  0.00     0.116 C 
BRANCH  34  35
ATOM     35  N   UNL A   1      32.981  32.996  27.741  1.00  0.00    -0.352 N 
ATOM     36  C   UNL A   1      33.497  33.734  28.771  1.00  0.00     0.251 C 
ATOM     37  H   UNL A   1      32.387  33.494  27.135  1.00  0.00     0.163 HD
ATOM     38  O   UNL A   1      32.907  34.755  29.106  1.00  0.00    -0.269 OA
BRANCH  36  39
ATOM     39  C   UNL A   1      34.749  33.350  29.462  1.00  0.00     0.039 A 
ATOM     40  C   UNL A   1      35.953  33.819  28.917  1.00  0.00     0.014 A 
ATOM     41  C   UNL A   1      34.769  32.438  30.522  1.00  0.00     0.014 A 
ATOM     42  C   UNL A   1      37.169  33.395  29.444  1.00  0.00     0.010 A 
ATOM     43  C   UNL A   1      35.983  32.015  31.057  1.00  0.00     0.010 A 
ATOM     44  C   UNL A   1      37.180  32.500  30.521  1.00  0.00    -0.014 A 
BRANCH  44  45
ATOM     45  C   UNL A   1      38.463  32.225  31.204  1.00  0.00     0.031 A 
ATOM     46  C   UNL A   1      39.166  30.999  30.580  1.00  0.00     0.074 A 
ATOM     47  C   UNL A   1      38.789  33.028  32.268  1.00  0.00     0.049 A 
ATOM     48  N   UNL A   1      40.010  30.176  31.116  1.00  0.00    -0.248 NA
ATOM     49  C   UNL A   1      38.830  30.568  29.189  1.00  0.00     0.031 C 
ATOM     50  C   UNL A   1      37.993  34.197  32.721  1.00  0.00     0.029 A 
ATOM     51  N   UNL A   1      39.826  33.049  33.181  1.00  0.00    -0.354 N 
ATOM     52  C   UNL A   1      40.418  29.249  30.126  1.00  0.00     0.074 A 
ATOM     53  C   UNL A   1      39.593  29.491  28.982  1.00  0.00     0.031 C 
ATOM     54  C   UNL A   1      38.519  34.744  33.843  1.00  0.00     0.029 A 
ATOM     55  C   UNL A   1      39.710  34.012  34.226  1.00  0.00     0.049 A 
ATOM     56  H   UNL A   1      40.595  32.438  33.114  1.00  0.00     0.167 HD
ATOM     57  C   UNL A   1      41.487  28.413  30.290  1.00  0.00     0.031 A 
ATOM     58  C   UNL A   1      40.493  34.178  35.341  1.00  0.00     0.031 A 
ATOM     59  C   UNL A   1      42.026  28.588  31.595  1.00  0.00     0.049 A 
ATOM     60  C   UNL A   1      41.614  33.245  35.169  1.00  0.00     0.074 A 
ATOM     61  C   UNL A   1      41.558  28.249  32.838  1.00  0.00     0.029 A 
ATOM     62  N   UNL A   1      43.004  29.544  31.715  1.00  0.00    -0.354 N 
ATOM     63  N   UNL A   1      42.600  33.399  34.339  1.00  0.00    -0.248 NA
ATOM     64  C   UNL A   1      41.619  32.010  35.965  1.00  0.00     0.031 C 
ATOM     65  C   UNL A   1      41.889  29.378  33.610  1.00  0.00     0.029 A 
ATOM     66  C   UNL A   1      42.753  30.209  32.885  1.00  0.00     0.049 A 
ATOM     67  H   UNL A   1      43.740  29.718  31.084  1.00  0.00     0.167 HD
ATOM     68  C   UNL A   1      43.088  32.123  34.240  1.00  0.00     0.074 A 
ATOM     69  C   UNL A   1      42.701  31.431  35.452  1.00  0.00     0.031 C 
ATOM     70  C   UNL A   1      43.222  31.564  33.011  1.00  0.00     0.031 A 
BRANCH  57  71
ATOM     71  C   UNL A   1      42.302  27.579  29.339  1.00  0.00    -0.014 A 
ATOM     72  C   UNL A   1      42.438  28.075  28.014  1.00  0.00     0.010 A 
ATOM     73  C   UNL A   1      42.617  26.232  29.558  1.00  0.00     0.010 A 
ATOM     74  C   UNL A   1      42.722  27.240  26.934  1.00  0.00     0.020 A 
ATOM     75  C   UNL A   1      42.943  25.389  28.477  1.00  0.00     0.020 A 
ATOM     76  C   UNL A   1      42.940  25.889  27.170  1.00  0.00     0.054 A 
BRANCH  76  77
ATOM     77  S   UNL A   1      43.143  24.800  25.732  1.00  0.00     0.124 S 
ATOM     78  O   UNL A   1      44.582  24.559  25.727  1.00  0.00    -0.237 OA
ATOM     79  O   UNL A   1      42.319  23.647  26.092  1.00  0.00    -0.237 OA
ATOM     80  O   UNL A   1      42.632  25.599  24.621  1.00  0.00    -0.744 OA
ENDBRANCH  76  77
ENDBRANCH  57  71
BRANCH  58  81
ATOM     81  C   UNL A   1      40.487  34.905  36.676  1.00  0.00    -0.014 A 
ATOM     82  C   UNL A   1      41.079  36.138  36.967  1.00  0.00     0.010 A 
ATOM     83  C   UNL A   1      39.655  34.372  37.710  1.00  0.00     0.010 A 
ATOM     84  C   UNL A   1      40.721  36.861  38.136  1.00  0.00     0.020 A 
ATOM     85  C   UNL A   1      39.243  35.098  38.829  1.00  0.00     0.020 A 
ATOM     86  C   UNL A   1      39.756  36.364  39.023  1.00  0.00     0.054 A 
BRANCH  86  87
ATOM     87  S   UNL A   1      39.043  37.410  40.330  1.00  0.00     0.124 S 
ATOM     88  O   UNL A   1      38.247  38.367  39.569  1.00  0.00    -0.237 OA
ATOM     89  O   UNL A   1      38.287  36.453  41.132  1.00  0.00    -0.237 OA
ATOM     90  O   UNL A   1      40.218  37.969  40.999  1.00  0.00    -0.744 OA
ENDBRANCH  86  87
ENDBRANCH  58  81
BRANCH  70  91
ATOM     91  C   UNL A   1      43.493  32.525  31.866  1.00  0.00    -0.014 A 
ATOM     92  C   UNL A   1      42.416  32.916  31.048  1.00  0.00     0.010 A 
ATOM     93  C   UNL A   1      44.770  33.021  31.535  1.00  0.00     0.010 A 
ATOM     94  C   UNL A   1      42.594  33.783  29.962  1.00  0.00     0.020 A 
ATOM     95  C   UNL A   1      44.961  33.893  30.443  1.00  0.00     0.020 A 
ATOM     96  C   UNL A   1      43.865  34.279  29.670  1.00  0.00     0.054 A 
BRANCH  96  97
ATOM     97  S   UNL A   1      44.041  35.443  28.283  1.00  0.00     0.124 S 
ATOM     98  O   UNL A   1      45.207  34.926  27.570  1.00  0.00    -0.237 OA
ATOM     99  O   UNL A   1      42.768  35.294  27.584  1.00  0.00    -0.237 OA
ATOM    100  O   UNL A   1      44.242  36.738  28.931  1.00  0.00    -0.744 OA
ENDBRANCH  96  97
ENDBRANCH  70  91
ENDBRANCH  44  45
ENDBRANCH  36  39
ENDBRANCH  34  35
ENDBRANCH  33  34
ENDBRANCH  32  33
ENDBRANCH   1  32
TORSDOF 22
ENDMDL
