MODEL 1
REMARK VINA RESULT:      -9.2      0.000      0.000
REMARK SMILES COc1ccc(NCc2ccc(C(=O)NCCCCCCNC(=O)c3ccc(-c4c5nc(c(-c6ccc(S(=O)(=O)[O-])cc6)c6ccc([nH]6)c(-c6ccc(S(=O)(=O)[O-])cc6)c6nc(c(-c7ccc(S(=O)(=O)[O-])cc7)c7ccc4[nH]7)C=C6)C=C5)cc3)o2)cc1
REMARK SMILES IDX 18 1 17 2 16 3 15 4 13 5 14 6 12 8 9 9 10 10 85 11 11 12
REMARK SMILES IDX 8 13 7 14 6 16 3 17 4 18 87 19 5 20 86 21 2 22 1 23 19 24
REMARK SMILES IDX 20 25 21 26 22 27 23 28 24 30 25 31 26 32 84 33 27 34 83 35
REMARK SMILES IDX 28 36 29 37 30 38 77 39 31 40 82 41 76 42 78 43 32 44 81 45
REMARK SMILES IDX 75 46 74 47 33 49 63 50 44 51 62 52 45 53 48 54 61 55 79 56
REMARK SMILES IDX 46 57 47 58 60 60 80 61 49 62 34 63 35 64 43 65 36 66 42 67
REMARK SMILES IDX 37 68 38 69 39 70 40 71 41 72 64 73 65 74 73 75 66 76 72 77
REMARK SMILES IDX 67 78 68 79 69 80 70 81 71 82 50 83 51 84 59 85 52 86 58 87
REMARK SMILES IDX 53 88 54 89 55 90 56 91 57 92
REMARK H PARENT 15 7 7 15 22 29 78 48 48 59
REMARK Flexibility Score: inf
ROOT
ATOM      1  C   UNL A   1      32.979  34.675  28.686  1.00  0.00     0.002 C 
ENDROOT
BRANCH   1   2
ATOM      2  C   UNL A   1      32.539  35.984  29.357  1.00  0.00     0.021 C 
BRANCH   2   3
ATOM      3  C   UNL A   1      33.663  37.012  29.479  1.00  0.00     0.116 C 
BRANCH   3   4
ATOM      4  N   UNL A   1      33.542  37.768  30.705  1.00  0.00    -0.349 N 
ATOM      5  C   UNL A   1      33.724  37.431  32.024  1.00  0.00     0.286 C 
ATOM      6  O   UNL A   1      33.555  38.356  32.824  1.00  0.00    -0.266 OA
ATOM      7  H   UNL A   1      33.276  38.706  30.569  1.00  0.00     0.163 HD
BRANCH   5   8
ATOM      8  C   UNL A   1      34.102  36.092  32.448  1.00  0.00     0.191 A 
ATOM      9  C   UNL A   1      35.594  34.662  33.261  1.00  0.00     0.124 A 
ATOM     10  C   UNL A   1      34.447  33.937  33.043  1.00  0.00     0.048 A 
ATOM     11  O   UNL A   1      35.399  35.956  32.893  1.00  0.00    -0.454 OA
ATOM     12  C   UNL A   1      33.484  34.858  32.561  1.00  0.00     0.056 A 
BRANCH   9  13
ATOM     13  C   UNL A   1      36.921  34.327  33.847  1.00  0.00     0.188 C 
BRANCH  13  14
ATOM     14  N   UNL A   1      37.754  33.512  32.974  1.00  0.00    -0.378 N 
ATOM     15  H   UNL A   1      37.879  33.821  32.048  1.00  0.00     0.161 HD
BRANCH  14  16
ATOM     16  C   UNL A   1      38.381  32.338  33.345  1.00  0.00     0.035 A 
ATOM     17  C   UNL A   1      39.820  30.011  34.080  1.00  0.00     0.119 A 
ATOM     18  C   UNL A   1      38.649  29.915  33.334  1.00  0.00     0.048 A 
ATOM     19  C   UNL A   1      40.292  31.268  34.443  1.00  0.00     0.048 A 
ATOM     20  C   UNL A   1      37.935  31.066  32.976  1.00  0.00     0.029 A 
ATOM     21  C   UNL A   1      39.579  32.415  34.071  1.00  0.00     0.029 A 
BRANCH  17  22
ATOM     22  O   UNL A   1      40.457  28.831  34.342  1.00  0.00    -0.497 OA
ATOM     23  C   UNL A   1      41.800  28.964  34.796  1.00  0.00     0.278 C 
ENDBRANCH  17  22
ENDBRANCH  14  16
ENDBRANCH  13  14
ENDBRANCH   9  13
ENDBRANCH   5   8
ENDBRANCH   3   4
ENDBRANCH   2   3
ENDBRANCH   1   2
BRANCH   1  24
ATOM     24  C   UNL A   1      34.439  34.645  28.212  1.00  0.00     0.002 C 
BRANCH  24  25
ATOM     25  C   UNL A   1      35.038  33.247  28.032  1.00  0.00     0.021 C 
BRANCH  25  26
ATOM     26  C   UNL A   1      34.537  32.211  29.035  1.00  0.00     0.116 C 
BRANCH  26  27
ATOM     27  N   UNL A   1      34.018  31.026  28.370  1.00  0.00    -0.352 N 
ATOM     28  C   UNL A   1      34.693  29.937  27.880  1.00  0.00     0.251 C 
ATOM     29  H   UNL A   1      33.040  31.002  28.256  1.00  0.00     0.163 HD
ATOM     30  O   UNL A   1      34.113  29.136  27.153  1.00  0.00    -0.269 OA
BRANCH  28  31
ATOM     31  C   UNL A   1      36.118  29.733  28.220  1.00  0.00     0.039 A 
ATOM     32  C   UNL A   1      36.450  29.281  29.500  1.00  0.00     0.014 A 
ATOM     33  C   UNL A   1      37.126  30.014  27.292  1.00  0.00     0.014 A 
ATOM     34  C   UNL A   1      37.789  29.068  29.834  1.00  0.00     0.010 A 
ATOM     35  C   UNL A   1      38.454  29.734  27.603  1.00  0.00     0.010 A 
ATOM     36  C   UNL A   1      38.801  29.268  28.881  1.00  0.00    -0.014 A 
BRANCH  36  37
ATOM     37  C   UNL A   1      40.226  29.004  29.207  1.00  0.00     0.031 A 
ATOM     38  C   UNL A   1      40.855  27.686  28.839  1.00  0.00     0.074 A 
ATOM     39  C   UNL A   1      40.938  29.927  29.882  1.00  0.00     0.049 A 
ATOM     40  N   UNL A   1      42.067  27.257  29.078  1.00  0.00    -0.248 NA
ATOM     41  C   UNL A   1      40.003  26.716  28.132  1.00  0.00     0.031 C 
ATOM     42  C   UNL A   1      40.431  31.226  30.331  1.00  0.00     0.029 A 
ATOM     43  N   UNL A   1      42.241  29.913  30.313  1.00  0.00    -0.354 N 
ATOM     44  C   UNL A   1      42.119  25.964  28.567  1.00  0.00     0.074 A 
ATOM     45  C   UNL A   1      40.801  25.662  28.051  1.00  0.00     0.031 C 
ATOM     46  C   UNL A   1      41.418  31.894  30.950  1.00  0.00     0.029 A 
ATOM     47  C   UNL A   1      42.614  31.058  30.976  1.00  0.00     0.049 A 
ATOM     48  H   UNL A   1      42.849  29.155  30.162  1.00  0.00     0.167 HD
ATOM     49  C   UNL A   1      43.171  25.112  28.516  1.00  0.00     0.031 A 
ATOM     50  C   UNL A   1      43.788  31.398  31.544  1.00  0.00     0.031 A 
ATOM     51  C   UNL A   1      44.483  25.421  29.020  1.00  0.00     0.049 A 
ATOM     52  C   UNL A   1      44.942  30.436  31.475  1.00  0.00     0.074 A 
ATOM     53  C   UNL A   1      45.629  24.648  28.966  1.00  0.00     0.029 A 
ATOM     54  N   UNL A   1      44.823  26.597  29.672  1.00  0.00    -0.354 N 
ATOM     55  N   UNL A   1      44.988  29.244  30.932  1.00  0.00    -0.248 NA
ATOM     56  C   UNL A   1      46.206  30.873  32.084  1.00  0.00     0.031 C 
ATOM     57  C   UNL A   1      46.652  25.336  29.629  1.00  0.00     0.029 A 
ATOM     58  C   UNL A   1      46.157  26.561  30.045  1.00  0.00     0.049 A 
ATOM     59  H   UNL A   1      44.209  27.346  29.846  1.00  0.00     0.167 HD
ATOM     60  C   UNL A   1      46.294  28.798  31.109  1.00  0.00     0.074 A 
ATOM     61  C   UNL A   1      47.007  29.855  31.797  1.00  0.00     0.031 C 
ATOM     62  C   UNL A   1      46.852  27.620  30.733  1.00  0.00     0.031 A 
BRANCH  49  63
ATOM     63  C   UNL A   1      42.941  23.759  27.897  1.00  0.00    -0.014 A 
ATOM     64  C   UNL A   1      43.199  23.529  26.533  1.00  0.00     0.010 A 
ATOM     65  C   UNL A   1      42.488  22.692  28.695  1.00  0.00     0.010 A 
ATOM     66  C   UNL A   1      42.966  22.272  25.969  1.00  0.00     0.020 A 
ATOM     67  C   UNL A   1      42.282  21.425  28.141  1.00  0.00     0.020 A 
ATOM     68  C   UNL A   1      42.504  21.229  26.776  1.00  0.00     0.054 A 
BRANCH  68  69
ATOM     69  S   UNL A   1      42.223  19.603  26.021  1.00  0.00     0.124 S 
ATOM     70  O   UNL A   1      43.113  19.652  24.864  1.00  0.00    -0.237 OA
ATOM     71  O   UNL A   1      42.622  18.683  27.082  1.00  0.00    -0.237 OA
ATOM     72  O   UNL A   1      40.795  19.608  25.709  1.00  0.00    -0.744 OA
ENDBRANCH  68  69
ENDBRANCH  49  63
BRANCH  50  73
ATOM     73  C   UNL A   1      43.932  32.721  32.211  1.00  0.00    -0.014 A 
ATOM     74  C   UNL A   1      44.322  33.853  31.474  1.00  0.00     0.010 A 
ATOM     75  C   UNL A   1      43.661  32.859  33.585  1.00  0.00     0.010 A 
ATOM     76  C   UNL A   1      44.452  35.095  32.102  1.00  0.00     0.020 A 
ATOM     77  C   UNL A   1      43.765  34.105  34.210  1.00  0.00     0.020 A 
ATOM     78  C   UNL A   1      44.170  35.213  33.465  1.00  0.00     0.054 A 
BRANCH  78  79
ATOM     79  S   UNL A   1      44.292  36.847  34.246  1.00  0.00     0.124 S 
ATOM     80  O   UNL A   1      45.700  36.898  34.625  1.00  0.00    -0.237 OA
ATOM     81  O   UNL A   1      43.893  37.745  33.164  1.00  0.00    -0.237 OA
ATOM     82  O   UNL A   1      43.345  36.765  35.357  1.00  0.00    -0.744 OA
ENDBRANCH  78  79
ENDBRANCH  50  73
BRANCH  62  83
ATOM     83  C   UNL A   1      48.315  27.424  31.028  1.00  0.00    -0.014 A 
ATOM     84  C   UNL A   1      48.743  26.748  32.184  1.00  0.00     0.010 A 
ATOM     85  C   UNL A   1      49.275  27.879  30.104  1.00  0.00     0.010 A 
ATOM     86  C   UNL A   1      50.106  26.562  32.429  1.00  0.00     0.020 A 
ATOM     87  C   UNL A   1      50.637  27.670  30.331  1.00  0.00     0.020 A 
ATOM     88  C   UNL A   1      51.045  27.025  31.501  1.00  0.00     0.054 A 
BRANCH  88  89
ATOM     89  S   UNL A   1      52.806  26.736  31.822  1.00  0.00     0.124 S 
ATOM     90  O   UNL A   1      52.797  26.327  33.224  1.00  0.00    -0.237 OA
ATOM     91  O   UNL A   1      53.139  25.685  30.863  1.00  0.00    -0.237 OA
ATOM     92  O   UNL A   1      53.424  28.033  31.555  1.00  0.00    -0.744 OA
ENDBRANCH  88  89
ENDBRANCH  62  83
ENDBRANCH  36  37
ENDBRANCH  28  31
ENDBRANCH  26  27
ENDBRANCH  25  26
ENDBRANCH  24  25
ENDBRANCH   1  24
TORSDOF 20
ENDMDL
MODEL 2
REMARK VINA RESULT:      -9.0      4.465     10.711
REMARK SMILES COc1ccc(NCc2ccc(C(=O)NCCCCCCNC(=O)c3ccc(-c4c5nc(c(-c6ccc(S(=O)(=O)[O-])cc6)c6ccc([nH]6)c(-c6ccc(S(=O)(=O)[O-])cc6)c6nc(c(-c7ccc(S(=O)(=O)[O-])cc7)c7ccc4[nH]7)C=C6)C=C5)cc3)o2)cc1
REMARK SMILES IDX 18 1 17 2 16 3 15 4 13 5 14 6 12 8 9 9 10 10 85 11 11 12
REMARK SMILES IDX 8 13 7 14 6 16 3 17 4 18 87 19 5 20 86 21 2 22 1 23 19 24
REMARK SMILES IDX 20 25 21 26 22 27 23 28 24 30 25 31 26 32 84 33 27 34 83 35
REMARK SMILES IDX 28 36 29 37 30 38 77 39 31 40 82 41 76 42 78 43 32 44 81 45
REMARK SMILES IDX 75 46 74 47 33 49 63 50 44 51 62 52 45 53 48 54 61 55 79 56
REMARK SMILES IDX 46 57 47 58 60 60 80 61 49 62 34 63 35 64 43 65 36 66 42 67
REMARK SMILES IDX 37 68 38 69 39 70 40 71 41 72 64 73 65 74 73 75 66 76 72 77
REMARK SMILES IDX 67 78 68 79 69 80 70 81 71 82 50 83 51 84 59 85 52 86 58 87
REMARK SMILES IDX 53 88 54 89 55 90 56 91 57 92
REMARK H PARENT 15 7 7 15 22 29 78 48 48 59
REMARK Flexibility Score: inf
ROOT
ATOM      1  C   UNL A   1      34.865  21.170  24.653  1.00  0.00     0.002 C 
ENDROOT
BRANCH   1   2
ATOM      2  C   UNL A   1      34.408  19.728  24.919  1.00  0.00     0.021 C 
BRANCH   2   3
ATOM      3  C   UNL A   1      32.895  19.540  24.811  1.00  0.00     0.116 C 
BRANCH   3   4
ATOM      4  N   UNL A   1      32.449  19.716  23.447  1.00  0.00    -0.349 N 
ATOM      5  C   UNL A   1      32.044  20.821  22.738  1.00  0.00     0.286 C 
ATOM      6  O   UNL A   1      31.750  20.602  21.560  1.00  0.00    -0.266 OA
ATOM      7  H   UNL A   1      32.430  18.881  22.925  1.00  0.00     0.163 HD
BRANCH   5   8
ATOM      8  C   UNL A   1      31.981  22.150  23.324  1.00  0.00     0.191 A 
ATOM      9  C   UNL A   1      32.485  24.313  23.290  1.00  0.00     0.124 A 
ATOM     10  C   UNL A   1      31.743  24.110  24.429  1.00  0.00     0.048 A 
ATOM     11  O   UNL A   1      32.644  23.137  22.627  1.00  0.00    -0.454 OA
ATOM     12  C   UNL A   1      31.390  22.738  24.431  1.00  0.00     0.056 A 
BRANCH   9  13
ATOM     13  C   UNL A   1      33.065  25.525  22.649  1.00  0.00     0.188 C 
BRANCH  13  14
ATOM     14  N   UNL A   1      34.009  26.236  23.500  1.00  0.00    -0.378 N 
ATOM     15  H   UNL A   1      34.959  25.987  23.432  1.00  0.00     0.161 HD
BRANCH  14  16
ATOM     16  C   UNL A   1      33.674  27.235  24.394  1.00  0.00     0.035 A 
ATOM     17  C   UNL A   1      33.017  29.398  26.101  1.00  0.00     0.119 A 
ATOM     18  C   UNL A   1      33.724  28.301  26.585  1.00  0.00     0.048 A 
ATOM     19  C   UNL A   1      32.655  29.432  24.759  1.00  0.00     0.048 A 
ATOM     20  C   UNL A   1      34.043  27.230  25.742  1.00  0.00     0.029 A 
ATOM     21  C   UNL A   1      32.988  28.362  23.918  1.00  0.00     0.029 A 
BRANCH  17  22
ATOM     22  O   UNL A   1      32.792  30.404  26.998  1.00  0.00    -0.497 OA
ATOM     23  C   UNL A   1      33.924  30.773  27.779  1.00  0.00     0.278 C 
ENDBRANCH  17  22
ENDBRANCH  14  16
ENDBRANCH  13  14
ENDBRANCH   9  13
ENDBRANCH   5   8
ENDBRANCH   3   4
ENDBRANCH   2   3
ENDBRANCH   1   2
BRANCH   1  24
ATOM     24  C   UNL A   1      35.057  22.034  25.907  1.00  0.00     0.002 C 
BRANCH  24  25
ATOM     25  C   UNL A   1      35.174  23.539  25.651  1.00  0.00     0.021 C 
BRANCH  25  26
ATOM     26  C   UNL A   1      36.604  24.071  25.652  1.00  0.00     0.116 C 
BRANCH  26  27
ATOM     27  N   UNL A   1      37.574  23.007  25.857  1.00  0.00    -0.352 N 
ATOM     28  C   UNL A   1      38.852  23.078  26.351  1.00  0.00     0.251 C 
ATOM     29  H   UNL A   1      37.269  22.106  25.603  1.00  0.00     0.163 HD
ATOM     30  O   UNL A   1      39.601  22.112  26.243  1.00  0.00    -0.269 OA
BRANCH  28  31
ATOM     31  C   UNL A   1      39.328  24.317  27.003  1.00  0.00     0.039 A 
ATOM     32  C   UNL A   1      40.094  25.220  26.261  1.00  0.00     0.014 A 
ATOM     33  C   UNL A   1      39.045  24.576  28.347  1.00  0.00     0.014 A 
ATOM     34  C   UNL A   1      40.538  26.404  26.855  1.00  0.00     0.010 A 
ATOM     35  C   UNL A   1      39.430  25.788  28.917  1.00  0.00     0.010 A 
ATOM     36  C   UNL A   1      40.189  26.710  28.181  1.00  0.00    -0.014 A 
BRANCH  36  37
ATOM     37  C   UNL A   1      40.617  27.983  28.812  1.00  0.00     0.031 A 
ATOM     38  C   UNL A   1      42.003  28.117  29.384  1.00  0.00     0.074 A 
ATOM     39  C   UNL A   1      39.741  29.001  28.921  1.00  0.00     0.049 A 
ATOM     40  N   UNL A   1      42.542  29.132  30.010  1.00  0.00    -0.248 NA
ATOM     41  C   UNL A   1      42.891  26.950  29.256  1.00  0.00     0.031 C 
ATOM     42  C   UNL A   1      38.356  28.982  28.444  1.00  0.00     0.029 A 
ATOM     43  N   UNL A   1      39.883  30.250  29.473  1.00  0.00    -0.354 N 
ATOM     44  C   UNL A   1      43.822  28.721  30.365  1.00  0.00     0.074 A 
ATOM     45  C   UNL A   1      43.961  27.348  29.929  1.00  0.00     0.031 C 
ATOM     46  C   UNL A   1      37.785  30.170  28.698  1.00  0.00     0.029 A 
ATOM     47  C   UNL A   1      38.748  31.022  29.390  1.00  0.00     0.049 A 
ATOM     48  H   UNL A   1      40.719  30.563  29.887  1.00  0.00     0.167 HD
ATOM     49  C   UNL A   1      44.801  29.427  30.983  1.00  0.00     0.031 A 
ATOM     50  C   UNL A   1      38.507  32.274  29.824  1.00  0.00     0.031 A 
ATOM     51  C   UNL A   1      44.662  30.795  31.405  1.00  0.00     0.049 A 
ATOM     52  C   UNL A   1      39.608  33.039  30.507  1.00  0.00     0.074 A 
ATOM     53  C   UNL A   1      45.612  31.615  31.987  1.00  0.00     0.029 A 
ATOM     54  N   UNL A   1      43.502  31.545  31.291  1.00  0.00    -0.354 N 
ATOM     55  N   UNL A   1      40.832  32.654  30.776  1.00  0.00    -0.248 NA
ATOM     56  C   UNL A   1      39.298  34.411  30.931  1.00  0.00     0.031 C 
ATOM     57  C   UNL A   1      45.011  32.847  32.272  1.00  0.00     0.029 A 
ATOM     58  C   UNL A   1      43.705  32.812  31.813  1.00  0.00     0.049 A 
ATOM     59  H   UNL A   1      42.658  31.225  30.898  1.00  0.00     0.167 HD
ATOM     60  C   UNL A   1      41.448  33.747  31.377  1.00  0.00     0.074 A 
ATOM     61  C   UNL A   1      40.466  34.811  31.418  1.00  0.00     0.031 C 
ATOM     62  C   UNL A   1      42.714  33.859  31.850  1.00  0.00     0.031 A 
BRANCH  49  63
ATOM     63  C   UNL A   1      46.107  28.723  31.244  1.00  0.00    -0.014 A 
ATOM     64  C   UNL A   1      46.321  28.007  32.436  1.00  0.00     0.010 A 
ATOM     65  C   UNL A   1      47.124  28.752  30.272  1.00  0.00     0.010 A 
ATOM     66  C   UNL A   1      47.544  27.372  32.671  1.00  0.00     0.020 A 
ATOM     67  C   UNL A   1      48.337  28.093  30.491  1.00  0.00     0.020 A 
ATOM     68  C   UNL A   1      48.546  27.423  31.698  1.00  0.00     0.054 A 
BRANCH  68  69
ATOM     69  S   UNL A   1      50.119  26.579  32.023  1.00  0.00     0.124 S 
ATOM     70  O   UNL A   1      50.983  27.692  32.408  1.00  0.00    -0.237 OA
ATOM     71  O   UNL A   1      49.771  25.654  33.098  1.00  0.00    -0.237 OA
ATOM     72  O   UNL A   1      50.445  25.950  30.745  1.00  0.00    -0.744 OA
ENDBRANCH  68  69
ENDBRANCH  49  63
BRANCH  50  73
ATOM     73  C   UNL A   1      37.169  32.889  29.606  1.00  0.00    -0.014 A 
ATOM     74  C   UNL A   1      36.194  32.853  30.619  1.00  0.00     0.010 A 
ATOM     75  C   UNL A   1      36.870  33.531  28.391  1.00  0.00     0.010 A 
ATOM     76  C   UNL A   1      34.940  33.435  30.414  1.00  0.00     0.020 A 
ATOM     77  C   UNL A   1      35.626  34.137  28.193  1.00  0.00     0.020 A 
ATOM     78  C   UNL A   1      34.665  34.076  29.203  1.00  0.00     0.054 A 
BRANCH  78  79
ATOM     79  S   UNL A   1      33.050  34.873  28.980  1.00  0.00     0.124 S 
ATOM     80  O   UNL A   1      32.521  34.871  30.339  1.00  0.00    -0.237 OA
ATOM     81  O   UNL A   1      33.416  36.182  28.443  1.00  0.00    -0.237 OA
ATOM     82  O   UNL A   1      32.362  33.993  28.037  1.00  0.00    -0.744 OA
ENDBRANCH  78  79
ENDBRANCH  50  73
BRANCH  62  83
ATOM     83  C   UNL A   1      43.123  35.191  32.423  1.00  0.00    -0.014 A 
ATOM     84  C   UNL A   1      43.777  36.155  31.637  1.00  0.00     0.010 A 
ATOM     85  C   UNL A   1      42.799  35.498  33.758  1.00  0.00     0.010 A 
ATOM     86  C   UNL A   1      44.131  37.389  32.186  1.00  0.00     0.020 A 
ATOM     87  C   UNL A   1      43.125  36.742  34.302  1.00  0.00     0.020 A 
ATOM     88  C   UNL A   1      43.804  37.676  33.515  1.00  0.00     0.054 A 
BRANCH  88  89
ATOM     89  S   UNL A   1      44.238  39.301  34.192  1.00  0.00     0.124 S 
ATOM     90  O   UNL A   1      43.057  40.094  33.862  1.00  0.00    -0.237 OA
ATOM     91  O   UNL A   1      44.427  39.017  35.613  1.00  0.00    -0.237 OA
ATOM     92  O   UNL A   1      45.455  39.664  33.469  1.00  0.00    -0.744 OA
ENDBRANCH  88  89
ENDBRANCH  62  83
ENDBRANCH  36  37
ENDBRANCH  28  31
ENDBRANCH  26  27
ENDBRANCH  25  26
ENDBRANCH  24  25
ENDBRANCH   1  24
TORSDOF 20
ENDMDL
MODEL 3
REMARK VINA RESULT:      -8.9      5.093     11.844
REMARK SMILES COc1ccc(NCc2ccc(C(=O)NCCCCCCNC(=O)c3ccc(-c4c5nc(c(-c6ccc(S(=O)(=O)[O-])cc6)c6ccc([nH]6)c(-c6ccc(S(=O)(=O)[O-])cc6)c6nc(c(-c7ccc(S(=O)(=O)[O-])cc7)c7ccc4[nH]7)C=C6)C=C5)cc3)o2)cc1
REMARK SMILES IDX 18 1 17 2 16 3 15 4 13 5 14 6 12 8 9 9 10 10 85 11 11 12
REMARK SMILES IDX 8 13 7 14 6 16 3 17 4 18 87 19 5 20 86 21 2 22 1 23 19 24
REMARK SMILES IDX 20 25 21 26 22 27 23 28 24 30 25 31 26 32 84 33 27 34 83 35
REMARK SMILES IDX 28 36 29 37 30 38 77 39 31 40 82 41 76 42 78 43 32 44 81 45
REMARK SMILES IDX 75 46 74 47 33 49 63 50 44 51 62 52 45 53 48 54 61 55 79 56
REMARK SMILES IDX 46 57 47 58 60 60 80 61 49 62 34 63 35 64 43 65 36 66 42 67
REMARK SMILES IDX 37 68 38 69 39 70 40 71 41 72 64 73 65 74 73 75 66 76 72 77
REMARK SMILES IDX 67 78 68 79 69 80 70 81 71 82 50 83 51 84 59 85 52 86 58 87
REMARK SMILES IDX 53 88 54 89 55 90 56 91 57 92
REMARK H PARENT 15 7 7 15 22 29 78 48 48 59
REMARK Flexibility Score: inf
ROOT
ATOM      1  C   UNL A   1      36.075  23.050  25.256  1.00  0.00     0.002 C 
ENDROOT
BRANCH   1   2
ATOM      2  C   UNL A   1      35.583  21.757  25.921  1.00  0.00     0.021 C 
BRANCH   2   3
ATOM      3  C   UNL A   1      35.636  20.541  24.997  1.00  0.00     0.116 C 
BRANCH   3   4
ATOM      4  N   UNL A   1      34.531  19.646  25.256  1.00  0.00    -0.349 N 
ATOM      5  C   UNL A   1      33.168  19.807  25.179  1.00  0.00     0.286 C 
ATOM      6  O   UNL A   1      32.511  18.799  25.454  1.00  0.00    -0.266 OA
ATOM      7  H   UNL A   1      34.808  18.746  25.544  1.00  0.00     0.163 HD
BRANCH   5   8
ATOM      8  C   UNL A   1      32.547  21.063  24.790  1.00  0.00     0.191 A 
ATOM      9  C   UNL A   1      31.328  22.857  25.269  1.00  0.00     0.124 A 
ATOM     10  C   UNL A   1      31.680  22.974  23.946  1.00  0.00     0.048 A 
ATOM     11  O   UNL A   1      31.834  21.703  25.780  1.00  0.00    -0.454 OA
ATOM     12  C   UNL A   1      32.489  21.849  23.651  1.00  0.00     0.056 A 
BRANCH   9  13
ATOM     13  C   UNL A   1      30.585  23.736  26.213  1.00  0.00     0.188 C 
BRANCH  13  14
ATOM     14  N   UNL A   1      29.979  24.895  25.573  1.00  0.00    -0.378 N 
ATOM     15  H   UNL A   1      29.134  24.757  25.090  1.00  0.00     0.161 HD
BRANCH  14  16
ATOM     16  C   UNL A   1      30.501  26.175  25.593  1.00  0.00     0.035 A 
ATOM     17  C   UNL A   1      31.614  28.777  25.467  1.00  0.00     0.119 A 
ATOM     18  C   UNL A   1      31.776  27.990  26.604  1.00  0.00     0.048 A 
ATOM     19  C   UNL A   1      30.918  28.261  24.380  1.00  0.00     0.048 A 
ATOM     20  C   UNL A   1      31.220  26.706  26.668  1.00  0.00     0.029 A 
ATOM     21  C   UNL A   1      30.375  26.971  24.446  1.00  0.00     0.029 A 
BRANCH  17  22
ATOM     22  O   UNL A   1      32.229  29.997  25.496  1.00  0.00    -0.497 OA
ATOM     23  C   UNL A   1      31.473  31.033  26.115  1.00  0.00     0.278 C 
ENDBRANCH  17  22
ENDBRANCH  14  16
ENDBRANCH  13  14
ENDBRANCH   9  13
ENDBRANCH   5   8
ENDBRANCH   3   4
ENDBRANCH   2   3
ENDBRANCH   1   2
BRANCH   1  24
ATOM     24  C   UNL A   1      37.234  23.752  25.977  1.00  0.00     0.002 C 
BRANCH  24  25
ATOM     25  C   UNL A   1      38.518  22.927  26.106  1.00  0.00     0.021 C 
BRANCH  25  26
ATOM     26  C   UNL A   1      39.639  23.619  26.875  1.00  0.00     0.116 C 
BRANCH  26  27
ATOM     27  N   UNL A   1      40.680  24.109  25.986  1.00  0.00    -0.352 N 
ATOM     28  C   UNL A   1      41.340  25.312  25.997  1.00  0.00     0.251 C 
ATOM     29  H   UNL A   1      40.950  23.486  25.272  1.00  0.00     0.163 HD
ATOM     30  O   UNL A   1      42.029  25.638  25.036  1.00  0.00    -0.269 OA
BRANCH  28  31
ATOM     31  C   UNL A   1      41.213  26.216  27.161  1.00  0.00     0.039 A 
ATOM     32  C   UNL A   1      41.617  27.547  27.029  1.00  0.00     0.014 A 
ATOM     33  C   UNL A   1      40.726  25.748  28.385  1.00  0.00     0.014 A 
ATOM     34  C   UNL A   1      41.490  28.420  28.112  1.00  0.00     0.010 A 
ATOM     35  C   UNL A   1      40.536  26.636  29.441  1.00  0.00     0.010 A 
ATOM     36  C   UNL A   1      40.925  27.978  29.320  1.00  0.00    -0.014 A 
BRANCH  36  37
ATOM     37  C   UNL A   1      40.743  28.905  30.466  1.00  0.00     0.031 A 
ATOM     38  C   UNL A   1      41.606  28.771  31.693  1.00  0.00     0.074 A 
ATOM     39  C   UNL A   1      39.765  29.831  30.426  1.00  0.00     0.049 A 
ATOM     40  N   UNL A   1      41.567  29.456  32.806  1.00  0.00    -0.248 NA
ATOM     41  C   UNL A   1      42.630  27.714  31.674  1.00  0.00     0.031 C 
ATOM     42  C   UNL A   1      38.836  30.035  29.312  1.00  0.00     0.029 A 
ATOM     43  N   UNL A   1      39.386  30.773  31.349  1.00  0.00    -0.354 N 
ATOM     44  C   UNL A   1      42.546  28.904  33.625  1.00  0.00     0.074 A 
ATOM     45  C   UNL A   1      43.127  27.795  32.899  1.00  0.00     0.031 C 
ATOM     46  C   UNL A   1      38.013  31.055  29.605  1.00  0.00     0.029 A 
ATOM     47  C   UNL A   1      38.329  31.552  30.941  1.00  0.00     0.049 A 
ATOM     48  H   UNL A   1      39.830  30.881  32.221  1.00  0.00     0.167 HD
ATOM     49  C   UNL A   1      42.938  29.294  34.862  1.00  0.00     0.031 A 
ATOM     50  C   UNL A   1      37.684  32.553  31.570  1.00  0.00     0.031 A 
ATOM     51  C   UNL A   1      42.365  30.405  35.576  1.00  0.00     0.049 A 
ATOM     52  C   UNL A   1      38.138  32.969  32.943  1.00  0.00     0.074 A 
ATOM     53  C   UNL A   1      42.730  30.914  36.809  1.00  0.00     0.029 A 
ATOM     54  N   UNL A   1      41.306  31.175  35.122  1.00  0.00    -0.354 N 
ATOM     55  N   UNL A   1      39.107  32.475  33.674  1.00  0.00    -0.248 NA
ATOM     56  C   UNL A   1      37.418  34.087  33.568  1.00  0.00     0.031 C 
ATOM     57  C   UNL A   1      41.859  31.963  37.124  1.00  0.00     0.029 A 
ATOM     58  C   UNL A   1      40.990  32.144  36.061  1.00  0.00     0.049 A 
ATOM     59  H   UNL A   1      40.846  31.053  34.260  1.00  0.00     0.167 HD
ATOM     60  C   UNL A   1      39.132  33.240  34.835  1.00  0.00     0.074 A 
ATOM     61  C   UNL A   1      38.090  34.238  34.702  1.00  0.00     0.031 C 
ATOM     62  C   UNL A   1      39.946  33.128  35.914  1.00  0.00     0.031 A 
BRANCH  49  63
ATOM     63  C   UNL A   1      44.038  28.506  35.524  1.00  0.00    -0.014 A 
ATOM     64  C   UNL A   1      43.754  27.565  36.530  1.00  0.00     0.010 A 
ATOM     65  C   UNL A   1      45.372  28.686  35.113  1.00  0.00     0.010 A 
ATOM     66  C   UNL A   1      44.786  26.852  37.146  1.00  0.00     0.020 A 
ATOM     67  C   UNL A   1      46.405  27.953  35.707  1.00  0.00     0.020 A 
ATOM     68  C   UNL A   1      46.106  27.054  36.733  1.00  0.00     0.054 A 
BRANCH  68  69
ATOM     69  S   UNL A   1      47.426  26.105  37.540  1.00  0.00     0.124 S 
ATOM     70  O   UNL A   1      46.997  26.124  38.936  1.00  0.00    -0.237 OA
ATOM     71  O   UNL A   1      47.342  24.809  36.874  1.00  0.00    -0.237 OA
ATOM     72  O   UNL A   1      48.634  26.875  37.249  1.00  0.00    -0.744 OA
ENDBRANCH  68  69
ENDBRANCH  49  63
BRANCH  50  73
ATOM     73  C   UNL A   1      36.551  33.244  30.896  1.00  0.00    -0.014 A 
ATOM     74  C   UNL A   1      35.253  33.178  31.433  1.00  0.00     0.010 A 
ATOM     75  C   UNL A   1      36.769  33.989  29.722  1.00  0.00     0.010 A 
ATOM     76  C   UNL A   1      34.192  33.831  30.800  1.00  0.00     0.020 A 
ATOM     77  C   UNL A   1      35.714  34.665  29.102  1.00  0.00     0.020 A 
ATOM     78  C   UNL A   1      34.430  34.572  29.640  1.00  0.00     0.054 A 
BRANCH  78  79
ATOM     79  S   UNL A   1      33.047  35.458  28.867  1.00  0.00     0.124 S 
ATOM     80  O   UNL A   1      32.291  35.913  30.029  1.00  0.00    -0.237 OA
ATOM     81  O   UNL A   1      33.729  36.502  28.105  1.00  0.00    -0.237 OA
ATOM     82  O   UNL A   1      32.396  34.432  28.056  1.00  0.00    -0.744 OA
ENDBRANCH  78  79
ENDBRANCH  50  73
BRANCH  62  83
ATOM     83  C   UNL A   1      39.767  34.130  37.024  1.00  0.00    -0.014 A 
ATOM     84  C   UNL A   1      38.946  33.854  38.131  1.00  0.00     0.010 A 
ATOM     85  C   UNL A   1      40.472  35.347  36.978  1.00  0.00     0.010 A 
ATOM     86  C   UNL A   1      38.808  34.791  39.157  1.00  0.00     0.020 A 
ATOM     87  C   UNL A   1      40.358  36.275  38.016  1.00  0.00     0.020 A 
ATOM     88  C   UNL A   1      39.514  35.997  39.093  1.00  0.00     0.054 A 
BRANCH  88  89
ATOM     89  S   UNL A   1      39.349  37.181  40.457  1.00  0.00     0.124 S 
ATOM     90  O   UNL A   1      38.458  36.470  41.370  1.00  0.00    -0.237 OA
ATOM     91  O   UNL A   1      40.727  37.337  40.916  1.00  0.00    -0.237 OA
ATOM     92  O   UNL A   1      38.773  38.364  39.820  1.00  0.00    -0.744 OA
ENDBRANCH  88  89
ENDBRANCH  62  83
ENDBRANCH  36  37
ENDBRANCH  28  31
ENDBRANCH  26  27
ENDBRANCH  25  26
ENDBRANCH  24  25
ENDBRANCH   1  24
TORSDOF 20
ENDMDL
