MODEL 1
REMARK VINA RESULT:     -13.2      0.000      0.000
REMARK SMILES Cc1ccccc1C(=O)Nc1ccc(N2CCCCC2)cc1C(=O)NCCCCCCNC(=O)c1ccc(-c2c3nc(c(-c4ccc(S(=O)(=O)[O-])cc4)c4ccc([nH]4)c(-c4ccc(S(=O)(=O)[O-])cc4)c4nc(c(-c5ccc(S(=O)(=O)[O-])cc5)c5ccc2[nH]5)C=C4)C=C3)cc1
REMARK SMILES IDX 29 1 28 2 27 3 26 4 25 5 23 6 24 7 22 9 11 10 12 11 13 12
REMARK SMILES IDX 21 13 14 14 10 15 8 16 9 17 7 19 1 20 2 21 3 22 4 23 6 24
REMARK SMILES IDX 5 25 15 26 16 27 20 28 17 29 19 30 18 31 30 32 31 33 32 34
REMARK SMILES IDX 33 35 34 37 35 38 36 39 94 40 37 41 93 42 38 43 39 44 40 45
REMARK SMILES IDX 87 46 41 47 92 48 86 49 88 50 42 51 91 52 85 53 84 54 43 56
REMARK SMILES IDX 73 57 54 58 72 59 55 60 58 61 71 62 89 63 56 64 57 65 70 67
REMARK SMILES IDX 90 68 59 69 44 70 45 71 53 72 46 73 52 74 47 75 48 76 49 77
REMARK SMILES IDX 50 78 51 79 74 80 75 81 83 82 76 83 82 84 77 85 78 86 79 87
REMARK SMILES IDX 80 88 81 89 60 90 61 91 69 92 62 93 68 94 63 95 64 96 65 97
REMARK SMILES IDX 66 98 67 99
REMARK H PARENT 25 8 10 18 32 36 88 55 58 66
REMARK Flexibility Score: inf
ROOT
ATOM      1  C   UNL A   1      32.424  29.392  25.871  1.00  0.00     0.002 C 
ENDROOT
BRANCH   1   2
ATOM      2  C   UNL A   1      32.897  29.540  24.421  1.00  0.00     0.002 C 
BRANCH   2   3
ATOM      3  C   UNL A   1      33.626  28.355  23.780  1.00  0.00     0.021 C 
BRANCH   3   4
ATOM      4  C   UNL A   1      33.571  28.215  22.261  1.00  0.00     0.116 C 
BRANCH   4   5
ATOM      5  N   UNL A   1      33.182  26.910  21.763  1.00  0.00    -0.352 N 
ATOM      6  C   UNL A   1      31.949  26.295  21.743  1.00  0.00     0.253 C 
ATOM      7  O   UNL A   1      31.833  25.215  21.167  1.00  0.00    -0.269 OA
ATOM      8  H   UNL A   1      33.917  26.378  21.379  1.00  0.00     0.163 HD
BRANCH   6   9
ATOM      9  C   UNL A   1      30.756  26.904  22.393  1.00  0.00     0.065 A 
ATOM     10  C   UNL A   1      29.851  26.130  23.143  1.00  0.00     0.054 A 
ATOM     11  C   UNL A   1      28.650  26.711  23.574  1.00  0.00     0.029 A 
ATOM     12  C   UNL A   1      28.437  28.078  23.434  1.00  0.00     0.028 A 
ATOM     13  C   UNL A   1      30.452  28.261  22.154  1.00  0.00     0.042 A 
ATOM     14  C   UNL A   1      29.360  28.884  22.768  1.00  0.00     0.038 A 
BRANCH  10  15
ATOM     15  N   UNL A   1      30.017  24.811  23.591  1.00  0.00    -0.321 N 
ATOM     16  C   UNL A   1      31.049  24.157  24.217  1.00  0.00     0.255 C 
ATOM     17  O   UNL A   1      30.925  22.941  24.392  1.00  0.00    -0.269 OA
ATOM     18  H   UNL A   1      29.236  24.238  23.421  1.00  0.00     0.170 HD
BRANCH  16  19
ATOM     19  C   UNL A   1      32.238  24.828  24.812  1.00  0.00     0.043 A 
ATOM     20  C   UNL A   1      30.992  26.228  26.592  1.00  0.00     0.045 C 
ATOM     21  C   UNL A   1      32.224  25.733  25.893  1.00  0.00    -0.038 A 
ATOM     22  C   UNL A   1      33.457  26.208  26.387  1.00  0.00     0.004 A 
ATOM     23  C   UNL A   1      34.671  25.743  25.883  1.00  0.00     0.000 A 
ATOM     24  C   UNL A   1      33.473  24.356  24.326  1.00  0.00     0.014 A 
ATOM     25  C   UNL A   1      34.680  24.805  24.860  1.00  0.00     0.001 A 
ENDBRANCH  16  19
ENDBRANCH  10  15
BRANCH  14  26
ATOM     26  N   UNL A   1      29.198  30.265  22.820  1.00  0.00    -0.372 N 
ATOM     27  C   UNL A   1      28.193  30.779  21.871  1.00  0.00     0.116 C 
ATOM     28  C   UNL A   1      29.262  30.972  24.097  1.00  0.00     0.116 C 
ATOM     29  C   UNL A   1      28.475  32.247  21.570  1.00  0.00     0.021 C 
ATOM     30  C   UNL A   1      29.583  32.444  23.827  1.00  0.00     0.021 C 
ATOM     31  C   UNL A   1      28.584  33.069  22.853  1.00  0.00     0.004 C 
ENDBRANCH  14  26
ENDBRANCH   6   9
ENDBRANCH   4   5
ENDBRANCH   3   4
ENDBRANCH   2   3
ENDBRANCH   1   2
BRANCH   1  32
ATOM     32  C   UNL A   1      33.009  30.367  26.891  1.00  0.00     0.021 C 
BRANCH  32  33
ATOM     33  C   UNL A   1      34.452  30.083  27.295  1.00  0.00     0.116 C 
BRANCH  33  34
ATOM     34  N   UNL A   1      35.153  31.264  27.784  1.00  0.00    -0.352 N 
ATOM     35  C   UNL A   1      36.426  31.330  28.331  1.00  0.00     0.251 C 
ATOM     36  H   UNL A   1      34.665  32.115  27.719  1.00  0.00     0.163 HD
ATOM     37  O   UNL A   1      36.877  32.346  28.822  1.00  0.00    -0.269 OA
BRANCH  35  38
ATOM     38  C   UNL A   1      37.255  30.112  28.228  1.00  0.00     0.039 A 
ATOM     39  C   UNL A   1      37.343  29.289  29.355  1.00  0.00     0.014 A 
ATOM     40  C   UNL A   1      38.131  29.966  27.156  1.00  0.00     0.014 A 
ATOM     41  C   UNL A   1      38.437  28.439  29.492  1.00  0.00     0.010 A 
ATOM     42  C   UNL A   1      39.263  29.193  27.336  1.00  0.00     0.010 A 
ATOM     43  C   UNL A   1      39.446  28.477  28.529  1.00  0.00    -0.014 A 
BRANCH  43  44
ATOM     44  C   UNL A   1      40.769  27.892  28.732  1.00  0.00     0.031 A 
ATOM     45  C   UNL A   1      41.017  26.469  28.393  1.00  0.00     0.074 A 
ATOM     46  C   UNL A   1      41.793  28.652  29.185  1.00  0.00     0.049 A 
ATOM     47  N   UNL A   1      41.987  25.762  28.875  1.00  0.00    -0.248 NA
ATOM     48  C   UNL A   1      40.117  25.696  27.542  1.00  0.00     0.031 C 
ATOM     49  C   UNL A   1      43.214  28.310  29.144  1.00  0.00     0.029 A 
ATOM     50  N   UNL A   1      41.749  29.801  29.981  1.00  0.00    -0.354 N 
ATOM     51  C   UNL A   1      42.020  24.574  28.181  1.00  0.00     0.074 A 
ATOM     52  C   UNL A   1      40.766  24.530  27.469  1.00  0.00     0.031 C 
ATOM     53  C   UNL A   1      43.849  29.004  30.100  1.00  0.00     0.029 A 
ATOM     54  C   UNL A   1      42.837  29.711  30.865  1.00  0.00     0.049 A 
ATOM     55  H   UNL A   1      41.088  30.527  29.931  1.00  0.00     0.167 HD
ATOM     56  C   UNL A   1      43.164  23.832  28.171  1.00  0.00     0.031 A 
ATOM     57  C   UNL A   1      42.738  29.710  32.227  1.00  0.00     0.031 A 
ATOM     58  C   UNL A   1      44.136  24.324  29.147  1.00  0.00     0.049 A 
ATOM     59  C   UNL A   1      43.365  28.495  32.870  1.00  0.00     0.074 A 
ATOM     60  C   UNL A   1      45.308  25.053  29.035  1.00  0.00     0.029 A 
ATOM     61  N   UNL A   1      43.819  24.291  30.502  1.00  0.00    -0.354 N 
ATOM     62  N   UNL A   1      43.712  27.423  32.213  1.00  0.00    -0.248 NA
ATOM     63  C   UNL A   1      43.596  28.361  34.308  1.00  0.00     0.031 C 
ATOM     64  C   UNL A   1      45.645  25.538  30.328  1.00  0.00     0.029 A 
ATOM     65  C   UNL A   1      44.699  25.072  31.225  1.00  0.00     0.049 A 
ATOM     66  H   UNL A   1      43.071  23.783  30.890  1.00  0.00     0.167 HD
ATOM     67  C   UNL A   1      44.163  26.471  33.087  1.00  0.00     0.074 A 
ATOM     68  C   UNL A   1      44.092  27.114  34.386  1.00  0.00     0.031 C 
ATOM     69  C   UNL A   1      44.537  25.227  32.665  1.00  0.00     0.031 A 
BRANCH  56  70
ATOM     70  C   UNL A   1      43.520  22.816  27.096  1.00  0.00    -0.014 A 
ATOM     71  C   UNL A   1      42.698  21.683  26.905  1.00  0.00     0.010 A 
ATOM     72  C   UNL A   1      44.696  22.847  26.321  1.00  0.00     0.010 A 
ATOM     73  C   UNL A   1      43.066  20.621  26.059  1.00  0.00     0.020 A 
ATOM     74  C   UNL A   1      45.077  21.800  25.469  1.00  0.00     0.020 A 
ATOM     75  C   UNL A   1      44.270  20.677  25.360  1.00  0.00     0.054 A 
BRANCH  75  76
ATOM     76  S   UNL A   1      44.789  19.275  24.339  1.00  0.00     0.124 S 
ATOM     77  O   UNL A   1      44.039  18.168  24.927  1.00  0.00    -0.237 OA
ATOM     78  O   UNL A   1      44.372  19.684  23.002  1.00  0.00    -0.237 OA
ATOM     79  O   UNL A   1      46.236  19.214  24.544  1.00  0.00    -0.744 OA
ENDBRANCH  75  76
ENDBRANCH  56  70
BRANCH  57  80
ATOM     80  C   UNL A   1      41.565  30.444  32.767  1.00  0.00    -0.014 A 
ATOM     81  C   UNL A   1      40.350  29.736  32.868  1.00  0.00     0.010 A 
ATOM     82  C   UNL A   1      41.750  31.603  33.542  1.00  0.00     0.010 A 
ATOM     83  C   UNL A   1      39.419  30.066  33.853  1.00  0.00     0.020 A 
ATOM     84  C   UNL A   1      40.816  31.936  34.532  1.00  0.00     0.020 A 
ATOM     85  C   UNL A   1      39.694  31.121  34.723  1.00  0.00     0.054 A 
BRANCH  85  86
ATOM     86  S   UNL A   1      38.683  31.268  36.227  1.00  0.00     0.124 S 
ATOM     87  O   UNL A   1      39.510  32.116  37.078  1.00  0.00    -0.237 OA
ATOM     88  O   UNL A   1      37.466  31.890  35.705  1.00  0.00    -0.237 OA
ATOM     89  O   UNL A   1      38.535  29.884  36.666  1.00  0.00    -0.744 OA
ENDBRANCH  85  86
ENDBRANCH  57  80
BRANCH  69  90
ATOM     90  C   UNL A   1      44.856  24.055  33.562  1.00  0.00    -0.014 A 
ATOM     91  C   UNL A   1      43.966  23.002  33.829  1.00  0.00     0.010 A 
ATOM     92  C   UNL A   1      46.167  23.932  34.079  1.00  0.00     0.010 A 
ATOM     93  C   UNL A   1      44.342  21.915  34.631  1.00  0.00     0.020 A 
ATOM     94  C   UNL A   1      46.567  22.832  34.843  1.00  0.00     0.020 A 
ATOM     95  C   UNL A   1      45.639  21.840  35.140  1.00  0.00     0.054 A 
BRANCH  95  96
ATOM     96  S   UNL A   1      46.138  20.407  36.131  1.00  0.00     0.124 S 
ATOM     97  O   UNL A   1      45.737  20.818  37.474  1.00  0.00    -0.237 OA
ATOM     98  O   UNL A   1      45.357  19.317  35.552  1.00  0.00    -0.237 OA
ATOM     99  O   UNL A   1      47.578  20.323  35.903  1.00  0.00    -0.744 OA
ENDBRANCH  95  96
ENDBRANCH  69  90
ENDBRANCH  43  44
ENDBRANCH  35  38
ENDBRANCH  33  34
ENDBRANCH  32  33
ENDBRANCH   1  32
TORSDOF 19
ENDMDL
MODEL 2
REMARK VINA RESULT:     -12.8      4.847     11.358
REMARK SMILES Cc1ccccc1C(=O)Nc1ccc(N2CCCCC2)cc1C(=O)NCCCCCCNC(=O)c1ccc(-c2c3nc(c(-c4ccc(S(=O)(=O)[O-])cc4)c4ccc([nH]4)c(-c4ccc(S(=O)(=O)[O-])cc4)c4nc(c(-c5ccc(S(=O)(=O)[O-])cc5)c5ccc2[nH]5)C=C4)C=C3)cc1
REMARK SMILES IDX 29 1 28 2 27 3 26 4 25 5 23 6 24 7 22 9 11 10 12 11 13 12
REMARK SMILES IDX 21 13 14 14 10 15 8 16 9 17 7 19 1 20 2 21 3 22 4 23 6 24
REMARK SMILES IDX 5 25 15 26 16 27 20 28 17 29 19 30 18 31 30 32 31 33 32 34
REMARK SMILES IDX 33 35 34 37 35 38 36 39 94 40 37 41 93 42 38 43 39 44 40 45
REMARK SMILES IDX 87 46 41 47 92 48 86 49 88 50 42 51 91 52 85 53 84 54 43 56
REMARK SMILES IDX 73 57 54 58 72 59 55 60 58 61 71 62 89 63 56 64 57 65 70 67
REMARK SMILES IDX 90 68 59 69 44 70 45 71 53 72 46 73 52 74 47 75 48 76 49 77
REMARK SMILES IDX 50 78 51 79 74 80 75 81 83 82 76 83 82 84 77 85 78 86 79 87
REMARK SMILES IDX 80 88 81 89 60 90 61 91 69 92 62 93 68 94 63 95 64 96 65 97
REMARK SMILES IDX 66 98 67 99
REMARK H PARENT 25 8 10 18 32 36 88 55 58 66
REMARK Flexibility Score: inf
ROOT
ATOM      1  C   UNL A   1      36.836  23.355  23.923  1.00  0.00     0.002 C 
ENDROOT
BRANCH   1   2
ATOM      2  C   UNL A   1      35.425  22.945  23.486  1.00  0.00     0.002 C 
BRANCH   2   3
ATOM      3  C   UNL A   1      34.514  24.027  22.899  1.00  0.00     0.021 C 
BRANCH   3   4
ATOM      4  C   UNL A   1      33.573  23.633  21.763  1.00  0.00     0.116 C 
BRANCH   4   5
ATOM      5  N   UNL A   1      32.182  24.004  21.941  1.00  0.00    -0.352 N 
ATOM      6  C   UNL A   1      31.269  23.605  22.893  1.00  0.00     0.253 C 
ATOM      7  O   UNL A   1      30.161  24.139  22.914  1.00  0.00    -0.269 OA
ATOM      8  H   UNL A   1      31.835  24.642  21.276  1.00  0.00     0.163 HD
BRANCH   6   9
ATOM      9  C   UNL A   1      31.589  22.554  23.898  1.00  0.00     0.065 A 
ATOM     10  C   UNL A   1      31.267  22.714  25.259  1.00  0.00     0.054 A 
ATOM     11  C   UNL A   1      31.756  21.786  26.190  1.00  0.00     0.029 A 
ATOM     12  C   UNL A   1      32.383  20.622  25.763  1.00  0.00     0.028 A 
ATOM     13  C   UNL A   1      32.341  21.426  23.508  1.00  0.00     0.042 A 
ATOM     14  C   UNL A   1      32.638  20.398  24.409  1.00  0.00     0.038 A 
BRANCH  10  15
ATOM     15  N   UNL A   1      30.437  23.688  25.834  1.00  0.00    -0.321 N 
ATOM     16  C   UNL A   1      30.609  25.021  26.113  1.00  0.00     0.255 C 
ATOM     17  O   UNL A   1      29.705  25.592  26.731  1.00  0.00    -0.269 OA
ATOM     18  H   UNL A   1      29.552  23.345  26.092  1.00  0.00     0.170 HD
BRANCH  16  19
ATOM     19  C   UNL A   1      31.739  25.850  25.610  1.00  0.00     0.043 A 
ATOM     20  C   UNL A   1      33.667  24.472  26.641  1.00  0.00     0.045 C 
ATOM     21  C   UNL A   1      33.110  25.596  25.818  1.00  0.00    -0.038 A 
ATOM     22  C   UNL A   1      34.053  26.439  25.194  1.00  0.00     0.004 A 
ATOM     23  C   UNL A   1      33.656  27.457  24.326  1.00  0.00     0.000 A 
ATOM     24  C   UNL A   1      31.357  26.871  24.717  1.00  0.00     0.014 A 
ATOM     25  C   UNL A   1      32.307  27.664  24.076  1.00  0.00     0.001 A 
ENDBRANCH  16  19
ENDBRANCH  10  15
BRANCH  14  26
ATOM     26  N   UNL A   1      33.092  19.143  24.016  1.00  0.00    -0.372 N 
ATOM     27  C   UNL A   1      33.679  18.355  25.115  1.00  0.00     0.116 C 
ATOM     28  C   UNL A   1      32.355  18.366  23.021  1.00  0.00     0.116 C 
ATOM     29  C   UNL A   1      34.636  17.313  24.544  1.00  0.00     0.021 C 
ATOM     30  C   UNL A   1      33.304  17.336  22.404  1.00  0.00     0.021 C 
ATOM     31  C   UNL A   1      33.959  16.462  23.472  1.00  0.00     0.004 C 
ENDBRANCH  14  26
ENDBRANCH   6   9
ENDBRANCH   4   5
ENDBRANCH   3   4
ENDBRANCH   2   3
ENDBRANCH   1   2
BRANCH   1  32
ATOM     32  C   UNL A   1      37.414  22.644  25.146  1.00  0.00     0.021 C 
BRANCH  32  33
ATOM     33  C   UNL A   1      37.851  23.569  26.277  1.00  0.00     0.116 C 
BRANCH  33  34
ATOM     34  N   UNL A   1      39.170  23.243  26.805  1.00  0.00    -0.352 N 
ATOM     35  C   UNL A   1      40.116  24.113  27.326  1.00  0.00     0.251 C 
ATOM     36  H   UNL A   1      39.419  22.291  26.791  1.00  0.00     0.163 HD
ATOM     37  O   UNL A   1      41.237  23.758  27.633  1.00  0.00    -0.269 OA
BRANCH  35  38
ATOM     38  C   UNL A   1      39.674  25.503  27.567  1.00  0.00     0.039 A 
ATOM     39  C   UNL A   1      40.296  26.517  26.832  1.00  0.00     0.014 A 
ATOM     40  C   UNL A   1      38.893  25.792  28.682  1.00  0.00     0.014 A 
ATOM     41  C   UNL A   1      40.290  27.817  27.329  1.00  0.00     0.010 A 
ATOM     42  C   UNL A   1      38.968  27.062  29.222  1.00  0.00     0.010 A 
ATOM     43  C   UNL A   1      39.716  28.060  28.578  1.00  0.00    -0.014 A 
BRANCH  43  44
ATOM     44  C   UNL A   1      39.941  29.288  29.337  1.00  0.00     0.031 A 
ATOM     45  C   UNL A   1      38.925  30.369  29.327  1.00  0.00     0.074 A 
ATOM     46  C   UNL A   1      41.053  29.432  30.095  1.00  0.00     0.049 A 
ATOM     47  N   UNL A   1      39.171  31.604  29.621  1.00  0.00    -0.248 NA
ATOM     48  C   UNL A   1      37.551  30.151  28.885  1.00  0.00     0.031 C 
ATOM     49  C   UNL A   1      41.273  30.436  31.134  1.00  0.00     0.029 A 
ATOM     50  N   UNL A   1      42.309  28.839  29.934  1.00  0.00    -0.354 N 
ATOM     51  C   UNL A   1      37.964  32.260  29.706  1.00  0.00     0.074 A 
ATOM     52  C   UNL A   1      37.011  31.353  29.111  1.00  0.00     0.031 C 
ATOM     53  C   UNL A   1      42.593  30.612  31.288  1.00  0.00     0.029 A 
ATOM     54  C   UNL A   1      43.256  29.822  30.265  1.00  0.00     0.049 A 
ATOM     55  H   UNL A   1      42.492  27.917  29.645  1.00  0.00     0.167 HD
ATOM     56  C   UNL A   1      37.881  33.429  30.401  1.00  0.00     0.031 A 
ATOM     57  C   UNL A   1      44.230  30.281  29.427  1.00  0.00     0.031 A 
ATOM     58  C   UNL A   1      39.204  33.945  30.752  1.00  0.00     0.049 A 
ATOM     59  C   UNL A   1      44.185  31.778  29.222  1.00  0.00     0.074 A 
ATOM     60  C   UNL A   1      39.927  33.980  31.932  1.00  0.00     0.029 A 
ATOM     61  N   UNL A   1      40.085  34.309  29.738  1.00  0.00    -0.354 N 
ATOM     62  N   UNL A   1      43.173  32.527  29.564  1.00  0.00    -0.248 NA
ATOM     63  C   UNL A   1      45.242  32.543  28.561  1.00  0.00     0.031 C 
ATOM     64  C   UNL A   1      41.278  34.280  31.608  1.00  0.00     0.029 A 
ATOM     65  C   UNL A   1      41.363  34.463  30.238  1.00  0.00     0.049 A 
ATOM     66  H   UNL A   1      39.832  34.439  28.796  1.00  0.00     0.167 HD
ATOM     67  C   UNL A   1      43.398  33.817  29.165  1.00  0.00     0.074 A 
ATOM     68  C   UNL A   1      44.718  33.782  28.561  1.00  0.00     0.031 C 
ATOM     69  C   UNL A   1      42.468  34.799  29.349  1.00  0.00     0.031 A 
BRANCH  56  70
ATOM     70  C   UNL A   1      36.596  33.984  31.000  1.00  0.00    -0.014 A 
ATOM     71  C   UNL A   1      35.417  34.008  30.223  1.00  0.00     0.010 A 
ATOM     72  C   UNL A   1      36.501  34.599  32.263  1.00  0.00     0.010 A 
ATOM     73  C   UNL A   1      34.249  34.669  30.648  1.00  0.00     0.020 A 
ATOM     74  C   UNL A   1      35.345  35.258  32.706  1.00  0.00     0.020 A 
ATOM     75  C   UNL A   1      34.229  35.311  31.884  1.00  0.00     0.054 A 
BRANCH  75  76
ATOM     76  S   UNL A   1      32.760  36.237  32.397  1.00  0.00     0.124 S 
ATOM     77  O   UNL A   1      33.215  36.888  33.623  1.00  0.00    -0.237 OA
ATOM     78  O   UNL A   1      32.528  37.121  31.259  1.00  0.00    -0.237 OA
ATOM     79  O   UNL A   1      31.747  35.200  32.591  1.00  0.00    -0.744 OA
ENDBRANCH  75  76
ENDBRANCH  56  70
BRANCH  57  80
ATOM     80  C   UNL A   1      44.692  29.300  28.410  1.00  0.00    -0.014 A 
ATOM     81  C   UNL A   1      45.625  28.329  28.827  1.00  0.00     0.010 A 
ATOM     82  C   UNL A   1      43.927  29.067  27.254  1.00  0.00     0.010 A 
ATOM     83  C   UNL A   1      45.661  27.076  28.215  1.00  0.00     0.020 A 
ATOM     84  C   UNL A   1      43.962  27.808  26.638  1.00  0.00     0.020 A 
ATOM     85  C   UNL A   1      44.777  26.804  27.170  1.00  0.00     0.054 A 
BRANCH  85  86
ATOM     86  S   UNL A   1      44.560  25.068  26.672  1.00  0.00     0.124 S 
ATOM     87  O   UNL A   1      43.418  25.143  25.767  1.00  0.00    -0.237 OA
ATOM     88  O   UNL A   1      45.848  24.778  26.042  1.00  0.00    -0.237 OA
ATOM     89  O   UNL A   1      44.319  24.384  27.938  1.00  0.00    -0.744 OA
ENDBRANCH  85  86
ENDBRANCH  57  80
BRANCH  69  90
ATOM     90  C   UNL A   1      42.537  36.193  28.773  1.00  0.00    -0.014 A 
ATOM     91  C   UNL A   1      43.182  37.273  29.398  1.00  0.00     0.010 A 
ATOM     92  C   UNL A   1      42.031  36.417  27.471  1.00  0.00     0.010 A 
ATOM     93  C   UNL A   1      43.256  38.533  28.786  1.00  0.00     0.020 A 
ATOM     94  C   UNL A   1      42.136  37.656  26.832  1.00  0.00     0.020 A 
ATOM     95  C   UNL A   1      42.725  38.719  27.509  1.00  0.00     0.054 A 
BRANCH  95  96
ATOM     96  S   UNL A   1      42.869  40.333  26.699  1.00  0.00     0.124 S 
ATOM     97  O   UNL A   1      43.288  41.187  27.806  1.00  0.00    -0.237 OA
ATOM     98  O   UNL A   1      43.881  40.098  25.671  1.00  0.00    -0.237 OA
ATOM     99  O   UNL A   1      41.521  40.578  26.190  1.00  0.00    -0.744 OA
ENDBRANCH  95  96
ENDBRANCH  69  90
ENDBRANCH  43  44
ENDBRANCH  35  38
ENDBRANCH  33  34
ENDBRANCH  32  33
ENDBRANCH   1  32
TORSDOF 19
ENDMDL
MODEL 3
REMARK VINA RESULT:     -12.2      1.882      4.234
REMARK SMILES Cc1ccccc1C(=O)Nc1ccc(N2CCCCC2)cc1C(=O)NCCCCCCNC(=O)c1ccc(-c2c3nc(c(-c4ccc(S(=O)(=O)[O-])cc4)c4ccc([nH]4)c(-c4ccc(S(=O)(=O)[O-])cc4)c4nc(c(-c5ccc(S(=O)(=O)[O-])cc5)c5ccc2[nH]5)C=C4)C=C3)cc1
REMARK SMILES IDX 29 1 28 2 27 3 26 4 25 5 23 6 24 7 22 9 11 10 12 11 13 12
REMARK SMILES IDX 21 13 14 14 10 15 8 16 9 17 7 19 1 20 2 21 3 22 4 23 6 24
REMARK SMILES IDX 5 25 15 26 16 27 20 28 17 29 19 30 18 31 30 32 31 33 32 34
REMARK SMILES IDX 33 35 34 37 35 38 36 39 94 40 37 41 93 42 38 43 39 44 40 45
REMARK SMILES IDX 87 46 41 47 92 48 86 49 88 50 42 51 91 52 85 53 84 54 43 56
REMARK SMILES IDX 73 57 54 58 72 59 55 60 58 61 71 62 89 63 56 64 57 65 70 67
REMARK SMILES IDX 90 68 59 69 44 70 45 71 53 72 46 73 52 74 47 75 48 76 49 77
REMARK SMILES IDX 50 78 51 79 74 80 75 81 83 82 76 83 82 84 77 85 78 86 79 87
REMARK SMILES IDX 80 88 81 89 60 90 61 91 69 92 62 93 68 94 63 95 64 96 65 97
REMARK SMILES IDX 66 98 67 99
REMARK H PARENT 25 8 10 18 32 36 88 55 58 66
REMARK Flexibility Score: inf
ROOT
ATOM      1  C   UNL A   1      34.242  28.857  27.356  1.00  0.00     0.002 C 
ENDROOT
BRANCH   1   2
ATOM      2  C   UNL A   1      33.937  27.924  26.179  1.00  0.00     0.002 C 
BRANCH   2   3
ATOM      3  C   UNL A   1      33.075  26.687  26.449  1.00  0.00     0.021 C 
BRANCH   3   4
ATOM      4  C   UNL A   1      31.558  26.848  26.415  1.00  0.00     0.116 C 
BRANCH   4   5
ATOM      5  N   UNL A   1      30.795  25.743  26.964  1.00  0.00    -0.352 N 
ATOM      6  C   UNL A   1      30.748  24.418  26.586  1.00  0.00     0.253 C 
ATOM      7  O   UNL A   1      30.103  23.628  27.274  1.00  0.00    -0.269 OA
ATOM      8  H   UNL A   1      30.220  25.977  27.728  1.00  0.00     0.163 HD
BRANCH   6   9
ATOM      9  C   UNL A   1      31.459  23.920  25.377  1.00  0.00     0.065 A 
ATOM     10  C   UNL A   1      30.982  24.188  24.080  1.00  0.00     0.054 A 
ATOM     11  C   UNL A   1      31.576  23.542  22.987  1.00  0.00     0.029 A 
ATOM     12  C   UNL A   1      32.739  22.798  23.153  1.00  0.00     0.028 A 
ATOM     13  C   UNL A   1      32.563  23.055  25.527  1.00  0.00     0.042 A 
ATOM     14  C   UNL A   1      33.281  22.587  24.422  1.00  0.00     0.038 A 
BRANCH  10  15
ATOM     15  N   UNL A   1      29.985  25.102  23.706  1.00  0.00    -0.321 N 
ATOM     16  C   UNL A   1      30.019  26.413  23.302  1.00  0.00     0.255 C 
ATOM     17  O   UNL A   1      28.936  26.984  23.139  1.00  0.00    -0.269 OA
ATOM     18  H   UNL A   1      29.076  24.726  23.741  1.00  0.00     0.170 HD
BRANCH  16  19
ATOM     19  C   UNL A   1      31.257  27.149  22.924  1.00  0.00     0.043 A 
ATOM     20  C   UNL A   1      30.716  29.376  24.119  1.00  0.00     0.045 C 
ATOM     21  C   UNL A   1      31.590  28.464  23.309  1.00  0.00    -0.038 A 
ATOM     22  C   UNL A   1      32.848  28.976  22.932  1.00  0.00     0.004 A 
ATOM     23  C   UNL A   1      33.785  28.188  22.263  1.00  0.00     0.000 A 
ATOM     24  C   UNL A   1      32.221  26.361  22.265  1.00  0.00     0.014 A 
ATOM     25  C   UNL A   1      33.476  26.874  21.941  1.00  0.00     0.001 A 
ENDBRANCH  16  19
ENDBRANCH  10  15
BRANCH  14  26
ATOM     26  N   UNL A   1      34.540  22.003  24.518  1.00  0.00    -0.372 N 
ATOM     27  C   UNL A   1      35.640  22.980  24.614  1.00  0.00     0.116 C 
ATOM     28  C   UNL A   1      34.732  20.777  25.290  1.00  0.00     0.116 C 
ATOM     29  C   UNL A   1      36.939  22.338  24.141  1.00  0.00     0.021 C 
ATOM     30  C   UNL A   1      36.011  20.090  24.808  1.00  0.00     0.021 C 
ATOM     31  C   UNL A   1      37.216  21.029  24.877  1.00  0.00     0.004 C 
ENDBRANCH  14  26
ENDBRANCH   6   9
ENDBRANCH   4   5
ENDBRANCH   3   4
ENDBRANCH   2   3
ENDBRANCH   1   2
BRANCH   1  32
ATOM     32  C   UNL A   1      33.348  30.086  27.511  1.00  0.00     0.021 C 
BRANCH  32  33
ATOM     33  C   UNL A   1      34.075  31.424  27.406  1.00  0.00     0.116 C 
BRANCH  33  34
ATOM     34  N   UNL A   1      34.231  32.093  28.692  1.00  0.00    -0.352 N 
ATOM     35  C   UNL A   1      35.108  31.770  29.717  1.00  0.00     0.251 C 
ATOM     36  H   UNL A   1      33.644  32.866  28.852  1.00  0.00     0.163 HD
ATOM     37  O   UNL A   1      35.080  32.317  30.802  1.00  0.00    -0.269 OA
BRANCH  35  38
ATOM     38  C   UNL A   1      36.146  30.765  29.407  1.00  0.00     0.039 A 
ATOM     39  C   UNL A   1      36.365  29.749  30.343  1.00  0.00     0.014 A 
ATOM     40  C   UNL A   1      37.050  31.005  28.376  1.00  0.00     0.014 A 
ATOM     41  C   UNL A   1      37.593  29.093  30.359  1.00  0.00     0.010 A 
ATOM     42  C   UNL A   1      38.300  30.421  28.452  1.00  0.00     0.010 A 
ATOM     43  C   UNL A   1      38.593  29.510  29.479  1.00  0.00    -0.014 A 
BRANCH  43  44
ATOM     44  C   UNL A   1      39.997  29.135  29.626  1.00  0.00     0.031 A 
ATOM     45  C   UNL A   1      40.469  27.810  29.155  1.00  0.00     0.074 A 
ATOM     46  C   UNL A   1      40.889  30.009  30.147  1.00  0.00     0.049 A 
ATOM     47  N   UNL A   1      41.549  27.231  29.568  1.00  0.00    -0.248 NA
ATOM     48  C   UNL A   1      39.695  26.981  28.235  1.00  0.00     0.031 C 
ATOM     49  C   UNL A   1      42.346  29.911  30.075  1.00  0.00     0.029 A 
ATOM     50  N   UNL A   1      40.670  31.056  31.048  1.00  0.00    -0.354 N 
ATOM     51  C   UNL A   1      41.766  26.134  28.766  1.00  0.00     0.074 A 
ATOM     52  C   UNL A   1      40.525  25.950  28.053  1.00  0.00     0.031 C 
ATOM     53  C   UNL A   1      42.874  30.608  31.092  1.00  0.00     0.029 A 
ATOM     54  C   UNL A   1      41.771  31.065  31.920  1.00  0.00     0.049 A 
ATOM     55  H   UNL A   1      39.897  31.665  31.066  1.00  0.00     0.167 HD
ATOM     56  C   UNL A   1      43.016  25.595  28.686  1.00  0.00     0.031 A 
ATOM     57  C   UNL A   1      41.695  30.923  33.275  1.00  0.00     0.031 A 
ATOM     58  C   UNL A   1      43.910  26.149  29.704  1.00  0.00     0.049 A 
ATOM     59  C   UNL A   1      42.523  29.773  33.802  1.00  0.00     0.074 A 
ATOM     60  C   UNL A   1      44.944  27.067  29.661  1.00  0.00     0.029 A 
ATOM     61  N   UNL A   1      43.623  25.939  31.050  1.00  0.00    -0.354 N 
ATOM     62  N   UNL A   1      43.031  28.838  33.047  1.00  0.00    -0.248 NA
ATOM     63  C   UNL A   1      42.795  29.546  35.220  1.00  0.00     0.031 C 
ATOM     64  C   UNL A   1      45.217  27.480  30.993  1.00  0.00     0.029 A 
ATOM     65  C   UNL A   1      44.375  26.783  31.843  1.00  0.00     0.049 A 
ATOM     66  H   UNL A   1      42.975  25.280  31.389  1.00  0.00     0.167 HD
ATOM     67  C   UNL A   1      43.645  27.897  33.827  1.00  0.00     0.074 A 
ATOM     68  C   UNL A   1      43.491  28.396  35.182  1.00  0.00     0.031 C 
ATOM     69  C   UNL A   1      44.211  26.776  33.291  1.00  0.00     0.031 A 
BRANCH  56  70
ATOM     70  C   UNL A   1      43.517  24.755  27.521  1.00  0.00    -0.014 A 
ATOM     71  C   UNL A   1      43.187  23.383  27.455  1.00  0.00     0.010 A 
ATOM     72  C   UNL A   1      44.403  25.213  26.525  1.00  0.00     0.010 A 
ATOM     73  C   UNL A   1      43.764  22.516  26.509  1.00  0.00     0.020 A 
ATOM     74  C   UNL A   1      44.983  24.364  25.571  1.00  0.00     0.020 A 
ATOM     75  C   UNL A   1      44.679  23.010  25.583  1.00  0.00     0.054 A 
BRANCH  75  76
ATOM     76  S   UNL A   1      45.489  21.883  24.422  1.00  0.00     0.124 S 
ATOM     77  O   UNL A   1      44.481  21.737  23.374  1.00  0.00    -0.237 OA
ATOM     78  O   UNL A   1      46.691  22.622  24.046  1.00  0.00    -0.237 OA
ATOM     79  O   UNL A   1      45.728  20.679  25.217  1.00  0.00    -0.744 OA
ENDBRANCH  75  76
ENDBRANCH  56  70
BRANCH  57  80
ATOM     80  C   UNL A   1      40.426  31.400  33.882  1.00  0.00    -0.014 A 
ATOM     81  C   UNL A   1      39.476  30.423  34.245  1.00  0.00     0.010 A 
ATOM     82  C   UNL A   1      40.358  32.675  34.470  1.00  0.00     0.010 A 
ATOM     83  C   UNL A   1      38.597  30.652  35.304  1.00  0.00     0.020 A 
ATOM     84  C   UNL A   1      39.476  32.906  35.535  1.00  0.00     0.020 A 
ATOM     85  C   UNL A   1      38.655  31.867  35.986  1.00  0.00     0.054 A 
BRANCH  85  86
ATOM     86  S   UNL A   1      37.805  31.983  37.589  1.00  0.00     0.124 S 
ATOM     87  O   UNL A   1      38.867  32.450  38.473  1.00  0.00    -0.237 OA
ATOM     88  O   UNL A   1      36.752  32.956  37.296  1.00  0.00    -0.237 OA
ATOM     89  O   UNL A   1      37.342  30.619  37.822  1.00  0.00    -0.744 OA
ENDBRANCH  85  86
ENDBRANCH  57  80
BRANCH  69  90
ATOM     90  C   UNL A   1      44.732  25.595  34.074  1.00  0.00    -0.014 A 
ATOM     91  C   UNL A   1      43.921  24.724  34.820  1.00  0.00     0.010 A 
ATOM     92  C   UNL A   1      46.102  25.258  33.965  1.00  0.00     0.010 A 
ATOM     93  C   UNL A   1      44.461  23.613  35.485  1.00  0.00     0.020 A 
ATOM     94  C   UNL A   1      46.644  24.129  34.587  1.00  0.00     0.020 A 
ATOM     95  C   UNL A   1      45.822  23.326  35.370  1.00  0.00     0.054 A 
BRANCH  95  96
ATOM     96  S   UNL A   1      46.507  21.860  36.185  1.00  0.00     0.124 S 
ATOM     97  O   UNL A   1      47.927  22.192  36.254  1.00  0.00    -0.237 OA
ATOM     98  O   UNL A   1      45.807  21.838  37.468  1.00  0.00    -0.237 OA
ATOM     99  O   UNL A   1      46.158  20.773  35.275  1.00  0.00    -0.744 OA
ENDBRANCH  95  96
ENDBRANCH  69  90
ENDBRANCH  43  44
ENDBRANCH  35  38
ENDBRANCH  33  34
ENDBRANCH  32  33
ENDBRANCH   1  32
TORSDOF 19
ENDMDL
