MODEL 1
REMARK VINA RESULT:      -9.5      0.000      0.000
REMARK SMILES Cc1n[nH]c(CCC(=O)NCCCCCCNC(=O)c2ccc(-c3c4nc(c(-c5ccc(S(=O)(=O)[O-])cc5)c5ccc([nH]5)c(-c5ccc(S(=O)(=O)[O-])cc5)c5nc(c(-c6ccc(S(=O)(=O)[O-])cc6)c6ccc3[nH]6)C=C5)C=C4)cc2)c1C
REMARK SMILES IDX 14 1 13 2 12 3 11 4 10 5 8 6 9 7 7 9 6 10 5 11 1 12 2 13
REMARK SMILES IDX 3 14 80 15 4 16 81 17 15 19 16 20 17 21 18 22 19 24 20 25
REMARK SMILES IDX 21 26 79 27 22 28 78 29 23 30 24 31 25 32 72 33 26 34 77 35
REMARK SMILES IDX 71 36 73 37 27 38 76 39 70 40 69 41 28 43 58 44 39 45 57 46
REMARK SMILES IDX 40 47 43 48 56 49 74 50 41 51 42 52 55 54 75 55 44 56 29 57
REMARK SMILES IDX 30 58 38 59 31 60 37 61 32 62 33 63 34 64 35 65 36 66 59 67
REMARK SMILES IDX 60 68 68 69 61 70 67 71 62 72 63 73 64 74 65 75 66 76 45 77
REMARK SMILES IDX 46 78 54 79 47 80 53 81 48 82 49 83 50 84 51 85 52 86
REMARK H PARENT 10 8 4 18 17 23 73 42 43 53
REMARK Flexibility Score: inf
ROOT
ATOM      1  C   UNL A   1      43.803  24.753  25.117  1.00  0.00     0.002 C 
ENDROOT
BRANCH   1   2
ATOM      2  C   UNL A   1      45.288  25.113  25.006  1.00  0.00     0.002 C 
BRANCH   2   3
ATOM      3  C   UNL A   1      46.075  25.140  26.315  1.00  0.00     0.021 C 
BRANCH   3   4
ATOM      4  C   UNL A   1      45.299  25.504  27.579  1.00  0.00     0.116 C 
BRANCH   4   5
ATOM      5  N   UNL A   1      44.752  24.317  28.220  1.00  0.00    -0.356 N 
ATOM      6  C   UNL A   1      44.761  23.937  29.530  1.00  0.00     0.220 C 
ATOM      7  O   UNL A   1      44.347  22.809  29.806  1.00  0.00    -0.275 OA
ATOM      8  H   UNL A   1      44.304  23.688  27.610  1.00  0.00     0.163 HD
BRANCH   6   9
ATOM      9  C   UNL A   1      45.208  24.887  30.626  1.00  0.00     0.106 C 
BRANCH   9  10
ATOM     10  C   UNL A   1      44.136  25.160  31.684  1.00  0.00     0.066 C 
BRANCH  10  11
ATOM     11  C   UNL A   1      44.373  24.403  32.946  1.00  0.00     0.039 A 
ATOM     12  C   UNL A   1      44.972  23.550  36.460  1.00  0.00     0.069 C 
ATOM     13  C   UNL A   1      44.721  23.661  35.003  1.00  0.00     0.062 A 
ATOM     14  N   UNL A   1      44.052  22.685  34.380  1.00  0.00    -0.181 NA
ATOM     15  C   UNL A   1      44.994  24.756  34.130  1.00  0.00    -0.007 A 
ATOM     16  N   UNL A   1      43.974  23.105  33.111  1.00  0.00    -0.282 N 
ATOM     17  C   UNL A   1      45.676  26.039  34.442  1.00  0.00     0.048 C 
ATOM     18  H   UNL A   1      43.660  22.537  32.371  1.00  0.00     0.190 HD
ENDBRANCH  10  11
ENDBRANCH   9  10
ENDBRANCH   6   9
ENDBRANCH   4   5
ENDBRANCH   3   4
ENDBRANCH   2   3
ENDBRANCH   1   2
BRANCH   1  19
ATOM     19  C   UNL A   1      43.394  23.344  24.665  1.00  0.00     0.021 C 
BRANCH  19  20
ATOM     20  C   UNL A   1      42.912  22.455  25.795  1.00  0.00     0.116 C 
BRANCH  20  21
ATOM     21  N   UNL A   1      41.544  21.967  25.627  1.00  0.00    -0.352 N 
ATOM     22  C   UNL A   1      40.384  22.387  26.268  1.00  0.00     0.251 C 
ATOM     23  H   UNL A   1      41.428  21.243  24.971  1.00  0.00     0.163 HD
ATOM     24  O   UNL A   1      39.375  21.703  26.226  1.00  0.00    -0.269 OA
BRANCH  22  25
ATOM     25  C   UNL A   1      40.384  23.684  26.985  1.00  0.00     0.039 A 
ATOM     26  C   UNL A   1      39.512  24.731  26.664  1.00  0.00     0.014 A 
ATOM     27  C   UNL A   1      41.335  23.866  27.979  1.00  0.00     0.014 A 
ATOM     28  C   UNL A   1      39.654  25.949  27.333  1.00  0.00     0.010 A 
ATOM     29  C   UNL A   1      41.268  24.926  28.825  1.00  0.00     0.010 A 
ATOM     30  C   UNL A   1      40.570  26.029  28.386  1.00  0.00    -0.014 A 
BRANCH  30  31
ATOM     31  C   UNL A   1      40.931  27.253  29.071  1.00  0.00     0.031 A 
ATOM     32  C   UNL A   1      41.991  28.036  28.408  1.00  0.00     0.074 A 
ATOM     33  C   UNL A   1      40.123  27.767  30.028  1.00  0.00     0.049 A 
ATOM     34  N   UNL A   1      43.185  28.241  28.847  1.00  0.00    -0.248 NA
ATOM     35  C   UNL A   1      41.768  28.514  27.033  1.00  0.00     0.031 C 
ATOM     36  C   UNL A   1      38.828  27.270  30.520  1.00  0.00     0.029 A 
ATOM     37  N   UNL A   1      40.239  28.952  30.673  1.00  0.00    -0.354 N 
ATOM     38  C   UNL A   1      43.816  29.031  27.895  1.00  0.00     0.074 A 
ATOM     39  C   UNL A   1      42.974  28.997  26.726  1.00  0.00     0.031 C 
ATOM     40  C   UNL A   1      38.190  28.258  31.191  1.00  0.00     0.029 A 
ATOM     41  C   UNL A   1      39.083  29.398  31.302  1.00  0.00     0.049 A 
ATOM     42  H   UNL A   1      41.082  29.460  30.697  1.00  0.00     0.167 HD
ATOM     43  C   UNL A   1      44.877  29.819  28.217  1.00  0.00     0.031 A 
ATOM     44  C   UNL A   1      38.873  30.640  31.812  1.00  0.00     0.031 A 
ATOM     45  C   UNL A   1      45.325  29.564  29.565  1.00  0.00     0.049 A 
ATOM     46  C   UNL A   1      40.221  31.241  32.021  1.00  0.00     0.074 A 
ATOM     47  C   UNL A   1      45.862  28.466  30.206  1.00  0.00     0.029 A 
ATOM     48  N   UNL A   1      44.815  30.377  30.555  1.00  0.00    -0.354 N 
ATOM     49  N   UNL A   1      41.086  30.756  32.872  1.00  0.00    -0.248 NA
ATOM     50  C   UNL A   1      40.798  32.026  30.937  1.00  0.00     0.031 C 
ATOM     51  C   UNL A   1      45.220  28.440  31.479  1.00  0.00     0.029 A 
ATOM     52  C   UNL A   1      44.399  29.568  31.583  1.00  0.00     0.049 A 
ATOM     53  H   UNL A   1      44.760  31.360  30.528  1.00  0.00     0.167 HD
ATOM     54  C   UNL A   1      42.305  30.785  32.205  1.00  0.00     0.074 A 
ATOM     55  C   UNL A   1      42.083  31.665  31.055  1.00  0.00     0.031 C 
ATOM     56  C   UNL A   1      43.284  29.865  32.464  1.00  0.00     0.031 A 
BRANCH  43  57
ATOM     57  C   UNL A   1      45.298  31.051  27.466  1.00  0.00    -0.014 A 
ATOM     58  C   UNL A   1      46.621  31.125  26.987  1.00  0.00     0.010 A 
ATOM     59  C   UNL A   1      44.531  32.232  27.420  1.00  0.00     0.010 A 
ATOM     60  C   UNL A   1      47.171  32.337  26.554  1.00  0.00     0.020 A 
ATOM     61  C   UNL A   1      45.057  33.438  26.950  1.00  0.00     0.020 A 
ATOM     62  C   UNL A   1      46.386  33.490  26.557  1.00  0.00     0.054 A 
BRANCH  62  63
ATOM     63  S   UNL A   1      47.145  35.072  26.117  1.00  0.00     0.124 S 
ATOM     64  O   UNL A   1      47.790  35.456  27.369  1.00  0.00    -0.237 OA
ATOM     65  O   UNL A   1      48.043  34.694  25.030  1.00  0.00    -0.237 OA
ATOM     66  O   UNL A   1      46.007  35.900  25.721  1.00  0.00    -0.744 OA
ENDBRANCH  62  63
ENDBRANCH  43  57
BRANCH  44  67
ATOM     67  C   UNL A   1      37.611  31.432  31.758  1.00  0.00    -0.014 A 
ATOM     68  C   UNL A   1      36.740  31.528  32.861  1.00  0.00     0.010 A 
ATOM     69  C   UNL A   1      37.392  32.327  30.688  1.00  0.00     0.010 A 
ATOM     70  C   UNL A   1      35.739  32.520  32.916  1.00  0.00     0.020 A 
ATOM     71  C   UNL A   1      36.397  33.311  30.731  1.00  0.00     0.020 A 
ATOM     72  C   UNL A   1      35.589  33.422  31.858  1.00  0.00     0.054 A 
BRANCH  72  73
ATOM     73  S   UNL A   1      34.436  34.821  32.011  1.00  0.00     0.124 S 
ATOM     74  O   UNL A   1      35.211  35.783  32.787  1.00  0.00    -0.237 OA
ATOM     75  O   UNL A   1      34.189  35.184  30.619  1.00  0.00    -0.237 OA
ATOM     76  O   UNL A   1      33.286  34.246  32.709  1.00  0.00    -0.744 OA
ENDBRANCH  72  73
ENDBRANCH  44  67
BRANCH  56  77
ATOM     77  C   UNL A   1      43.086  28.909  33.627  1.00  0.00    -0.014 A 
ATOM     78  C   UNL A   1      43.512  29.184  34.944  1.00  0.00     0.010 A 
ATOM     79  C   UNL A   1      42.276  27.782  33.417  1.00  0.00     0.010 A 
ATOM     80  C   UNL A   1      43.164  28.339  36.010  1.00  0.00     0.020 A 
ATOM     81  C   UNL A   1      41.909  26.946  34.476  1.00  0.00     0.020 A 
ATOM     82  C   UNL A   1      42.364  27.220  35.766  1.00  0.00     0.054 A 
BRANCH  82  83
ATOM     83  S   UNL A   1      41.886  26.145  37.148  1.00  0.00     0.124 S 
ATOM     84  O   UNL A   1      40.614  26.723  37.574  1.00  0.00    -0.237 OA
ATOM     85  O   UNL A   1      41.799  24.827  36.523  1.00  0.00    -0.237 OA
ATOM     86  O   UNL A   1      42.983  26.296  38.103  1.00  0.00    -0.744 OA
ENDBRANCH  82  83
ENDBRANCH  56  77
ENDBRANCH  30  31
ENDBRANCH  22  25
ENDBRANCH  20  21
ENDBRANCH  19  20
ENDBRANCH   1  19
TORSDOF 18
ENDMDL
MODEL 2
REMARK VINA RESULT:      -9.3      1.864      3.075
REMARK SMILES Cc1n[nH]c(CCC(=O)NCCCCCCNC(=O)c2ccc(-c3c4nc(c(-c5ccc(S(=O)(=O)[O-])cc5)c5ccc([nH]5)c(-c5ccc(S(=O)(=O)[O-])cc5)c5nc(c(-c6ccc(S(=O)(=O)[O-])cc6)c6ccc3[nH]6)C=C5)C=C4)cc2)c1C
REMARK SMILES IDX 14 1 13 2 12 3 11 4 10 5 8 6 9 7 7 9 6 10 5 11 1 12 2 13
REMARK SMILES IDX 3 14 80 15 4 16 81 17 15 19 16 20 17 21 18 22 19 24 20 25
REMARK SMILES IDX 21 26 79 27 22 28 78 29 23 30 24 31 25 32 72 33 26 34 77 35
REMARK SMILES IDX 71 36 73 37 27 38 76 39 70 40 69 41 28 43 58 44 39 45 57 46
REMARK SMILES IDX 40 47 43 48 56 49 74 50 41 51 42 52 55 54 75 55 44 56 29 57
REMARK SMILES IDX 30 58 38 59 31 60 37 61 32 62 33 63 34 64 35 65 36 66 59 67
REMARK SMILES IDX 60 68 68 69 61 70 67 71 62 72 63 73 64 74 65 75 66 76 45 77
REMARK SMILES IDX 46 78 54 79 47 80 53 81 48 82 49 83 50 84 51 85 52 86
REMARK H PARENT 10 8 4 18 17 23 73 42 43 53
REMARK Flexibility Score: inf
ROOT
ATOM      1  C   UNL A   1      45.200  22.992  26.133  1.00  0.00     0.002 C 
ENDROOT
BRANCH   1   2
ATOM      2  C   UNL A   1      45.130  24.030  27.258  1.00  0.00     0.002 C 
BRANCH   2   3
ATOM      3  C   UNL A   1      44.798  25.460  26.837  1.00  0.00     0.021 C 
BRANCH   3   4
ATOM      4  C   UNL A   1      44.658  25.723  25.340  1.00  0.00     0.116 C 
BRANCH   4   5
ATOM      5  N   UNL A   1      45.100  27.068  24.999  1.00  0.00    -0.356 N 
ATOM      6  C   UNL A   1      46.330  27.528  24.631  1.00  0.00     0.220 C 
ATOM      7  O   UNL A   1      46.481  28.748  24.526  1.00  0.00    -0.275 OA
ATOM      8  H   UNL A   1      44.397  27.756  25.042  1.00  0.00     0.163 HD
BRANCH   6   9
ATOM      9  C   UNL A   1      47.464  26.575  24.302  1.00  0.00     0.106 C 
BRANCH   9  10
ATOM     10  C   UNL A   1      48.780  26.912  25.008  1.00  0.00     0.066 C 
BRANCH  10  11
ATOM     11  C   UNL A   1      48.861  26.325  26.375  1.00  0.00     0.039 A 
ATOM     12  C   UNL A   1      48.494  25.778  29.981  1.00  0.00     0.069 C 
ATOM     13  C   UNL A   1      48.750  25.788  28.520  1.00  0.00     0.062 A 
ATOM     14  N   UNL A   1      48.836  24.624  27.865  1.00  0.00    -0.181 NA
ATOM     15  C   UNL A   1      48.808  26.901  27.631  1.00  0.00    -0.007 A 
ATOM     16  N   UNL A   1      49.034  24.985  26.591  1.00  0.00    -0.282 N 
ATOM     17  C   UNL A   1      48.709  28.349  27.955  1.00  0.00     0.048 C 
ATOM     18  H   UNL A   1      49.280  24.350  25.881  1.00  0.00     0.190 HD
ENDBRANCH  10  11
ENDBRANCH   9  10
ENDBRANCH   6   9
ENDBRANCH   4   5
ENDBRANCH   3   4
ENDBRANCH   2   3
ENDBRANCH   1   2
BRANCH   1  19
ATOM     19  C   UNL A   1      43.968  22.098  25.936  1.00  0.00     0.021 C 
BRANCH  19  20
ATOM     20  C   UNL A   1      42.814  22.792  25.240  1.00  0.00     0.116 C 
BRANCH  20  21
ATOM     21  N   UNL A   1      41.527  22.115  25.400  1.00  0.00    -0.352 N 
ATOM     22  C   UNL A   1      40.507  22.383  26.304  1.00  0.00     0.251 C 
ATOM     23  H   UNL A   1      41.362  21.367  24.783  1.00  0.00     0.163 HD
ATOM     24  O   UNL A   1      39.624  21.565  26.498  1.00  0.00    -0.269 OA
BRANCH  22  25
ATOM     25  C   UNL A   1      40.495  23.685  27.014  1.00  0.00     0.039 A 
ATOM     26  C   UNL A   1      39.623  24.727  26.679  1.00  0.00     0.014 A 
ATOM     27  C   UNL A   1      41.435  23.875  28.017  1.00  0.00     0.014 A 
ATOM     28  C   UNL A   1      39.755  25.949  27.342  1.00  0.00     0.010 A 
ATOM     29  C   UNL A   1      41.357  24.938  28.857  1.00  0.00     0.010 A 
ATOM     30  C   UNL A   1      40.660  26.037  28.404  1.00  0.00    -0.014 A 
BRANCH  30  31
ATOM     31  C   UNL A   1      41.009  27.266  29.087  1.00  0.00     0.031 A 
ATOM     32  C   UNL A   1      42.067  28.054  28.425  1.00  0.00     0.074 A 
ATOM     33  C   UNL A   1      40.195  27.777  30.039  1.00  0.00     0.049 A 
ATOM     34  N   UNL A   1      43.257  28.269  28.868  1.00  0.00    -0.248 NA
ATOM     35  C   UNL A   1      41.845  28.526  27.048  1.00  0.00     0.031 C 
ATOM     36  C   UNL A   1      38.901  27.274  30.528  1.00  0.00     0.029 A 
ATOM     37  N   UNL A   1      40.300  28.965  30.681  1.00  0.00    -0.354 N 
ATOM     38  C   UNL A   1      43.886  29.059  27.916  1.00  0.00     0.074 A 
ATOM     39  C   UNL A   1      43.049  29.016  26.744  1.00  0.00     0.031 C 
ATOM     40  C   UNL A   1      38.253  28.259  31.193  1.00  0.00     0.029 A 
ATOM     41  C   UNL A   1      39.138  29.405  31.304  1.00  0.00     0.049 A 
ATOM     42  H   UNL A   1      41.139  29.480  30.706  1.00  0.00     0.167 HD
ATOM     43  C   UNL A   1      44.941  29.856  28.239  1.00  0.00     0.031 A 
ATOM     44  C   UNL A   1      38.918  30.648  31.808  1.00  0.00     0.031 A 
ATOM     45  C   UNL A   1      45.385  29.608  29.590  1.00  0.00     0.049 A 
ATOM     46  C   UNL A   1      40.261  31.259  32.021  1.00  0.00     0.074 A 
ATOM     47  C   UNL A   1      45.928  28.516  30.237  1.00  0.00     0.029 A 
ATOM     48  N   UNL A   1      44.866  30.422  30.575  1.00  0.00    -0.354 N 
ATOM     49  N   UNL A   1      41.126  30.783  32.877  1.00  0.00    -0.248 NA
ATOM     50  C   UNL A   1      40.837  32.044  30.936  1.00  0.00     0.031 C 
ATOM     51  C   UNL A   1      45.281  28.491  31.507  1.00  0.00     0.029 A 
ATOM     52  C   UNL A   1      44.452  29.613  31.605  1.00  0.00     0.049 A 
ATOM     53  H   UNL A   1      44.804  31.404  30.545  1.00  0.00     0.167 HD
ATOM     54  C   UNL A   1      42.347  30.818  32.214  1.00  0.00     0.074 A 
ATOM     55  C   UNL A   1      42.124  31.692  31.060  1.00  0.00     0.031 C 
ATOM     56  C   UNL A   1      43.332  29.905  32.480  1.00  0.00     0.031 A 
BRANCH  43  57
ATOM     57  C   UNL A   1      45.356  31.089  27.486  1.00  0.00    -0.014 A 
ATOM     58  C   UNL A   1      46.725  31.275  27.208  1.00  0.00     0.010 A 
ATOM     59  C   UNL A   1      44.499  32.181  27.253  1.00  0.00     0.010 A 
ATOM     60  C   UNL A   1      47.220  32.516  26.789  1.00  0.00     0.020 A 
ATOM     61  C   UNL A   1      44.975  33.411  26.794  1.00  0.00     0.020 A 
ATOM     62  C   UNL A   1      46.339  33.581  26.603  1.00  0.00     0.054 A 
BRANCH  62  63
ATOM     63  S   UNL A   1      47.005  35.211  26.186  1.00  0.00     0.124 S 
ATOM     64  O   UNL A   1      45.809  36.046  26.232  1.00  0.00    -0.237 OA
ATOM     65  O   UNL A   1      47.976  35.432  27.254  1.00  0.00    -0.237 OA
ATOM     66  O   UNL A   1      47.581  35.016  24.857  1.00  0.00    -0.744 OA
ENDBRANCH  62  63
ENDBRANCH  43  57
BRANCH  44  67
ATOM     67  C   UNL A   1      37.651  31.432  31.747  1.00  0.00    -0.014 A 
ATOM     68  C   UNL A   1      36.714  31.423  32.800  1.00  0.00     0.010 A 
ATOM     69  C   UNL A   1      37.484  32.415  30.748  1.00  0.00     0.010 A 
ATOM     70  C   UNL A   1      35.698  32.398  32.880  1.00  0.00     0.020 A 
ATOM     71  C   UNL A   1      36.475  33.383  30.816  1.00  0.00     0.020 A 
ATOM     72  C   UNL A   1      35.600  33.388  31.897  1.00  0.00     0.054 A 
BRANCH  72  73
ATOM     73  S   UNL A   1      34.420  34.758  32.101  1.00  0.00     0.124 S 
ATOM     74  O   UNL A   1      34.121  35.123  30.721  1.00  0.00    -0.237 OA
ATOM     75  O   UNL A   1      33.328  34.131  32.841  1.00  0.00    -0.237 OA
ATOM     76  O   UNL A   1      35.178  35.757  32.856  1.00  0.00    -0.744 OA
ENDBRANCH  72  73
ENDBRANCH  44  67
BRANCH  56  77
ATOM     77  C   UNL A   1      43.135  28.952  33.646  1.00  0.00    -0.014 A 
ATOM     78  C   UNL A   1      43.628  29.197  34.945  1.00  0.00     0.010 A 
ATOM     79  C   UNL A   1      42.264  27.866  33.464  1.00  0.00     0.010 A 
ATOM     80  C   UNL A   1      43.284  28.362  36.020  1.00  0.00     0.020 A 
ATOM     81  C   UNL A   1      41.901  27.042  34.533  1.00  0.00     0.020 A 
ATOM     82  C   UNL A   1      42.421  27.285  35.804  1.00  0.00     0.054 A 
BRANCH  82  83
ATOM     83  S   UNL A   1      41.949  26.224  37.199  1.00  0.00     0.124 S 
ATOM     84  O   UNL A   1      42.994  26.507  38.179  1.00  0.00    -0.237 OA
ATOM     85  O   UNL A   1      40.615  26.710  37.544  1.00  0.00    -0.237 OA
ATOM     86  O   UNL A   1      41.980  24.874  36.637  1.00  0.00    -0.744 OA
ENDBRANCH  82  83
ENDBRANCH  56  77
ENDBRANCH  30  31
ENDBRANCH  22  25
ENDBRANCH  20  21
ENDBRANCH  19  20
ENDBRANCH   1  19
TORSDOF 18
ENDMDL
MODEL 3
REMARK VINA RESULT:      -9.1      3.956      6.972
REMARK SMILES Cc1n[nH]c(CCC(=O)NCCCCCCNC(=O)c2ccc(-c3c4nc(c(-c5ccc(S(=O)(=O)[O-])cc5)c5ccc([nH]5)c(-c5ccc(S(=O)(=O)[O-])cc5)c5nc(c(-c6ccc(S(=O)(=O)[O-])cc6)c6ccc3[nH]6)C=C5)C=C4)cc2)c1C
REMARK SMILES IDX 14 1 13 2 12 3 11 4 10 5 8 6 9 7 7 9 6 10 5 11 1 12 2 13
REMARK SMILES IDX 3 14 80 15 4 16 81 17 15 19 16 20 17 21 18 22 19 24 20 25
REMARK SMILES IDX 21 26 79 27 22 28 78 29 23 30 24 31 25 32 72 33 26 34 77 35
REMARK SMILES IDX 71 36 73 37 27 38 76 39 70 40 69 41 28 43 58 44 39 45 57 46
REMARK SMILES IDX 40 47 43 48 56 49 74 50 41 51 42 52 55 54 75 55 44 56 29 57
REMARK SMILES IDX 30 58 38 59 31 60 37 61 32 62 33 63 34 64 35 65 36 66 59 67
REMARK SMILES IDX 60 68 68 69 61 70 67 71 62 72 63 73 64 74 65 75 66 76 45 77
REMARK SMILES IDX 46 78 54 79 47 80 53 81 48 82 49 83 50 84 51 85 52 86
REMARK H PARENT 10 8 4 18 17 23 73 42 43 53
REMARK Flexibility Score: inf
ROOT
ATOM      1  C   UNL A   1      35.079  24.307  25.277  1.00  0.00     0.002 C 
ENDROOT
BRANCH   1   2
ATOM      2  C   UNL A   1      33.899  24.895  26.059  1.00  0.00     0.002 C 
BRANCH   2   3
ATOM      3  C   UNL A   1      33.553  26.352  25.763  1.00  0.00     0.021 C 
BRANCH   3   4
ATOM      4  C   UNL A   1      33.459  26.754  24.293  1.00  0.00     0.116 C 
BRANCH   4   5
ATOM      5  N   UNL A   1      32.329  27.642  24.062  1.00  0.00    -0.356 N 
ATOM      6  C   UNL A   1      30.989  27.392  24.089  1.00  0.00     0.220 C 
ATOM      7  O   UNL A   1      30.227  28.290  23.721  1.00  0.00    -0.275 OA
ATOM      8  H   UNL A   1      32.572  28.573  23.853  1.00  0.00     0.163 HD
BRANCH   6   9
ATOM      9  C   UNL A   1      30.440  26.076  24.609  1.00  0.00     0.106 C 
BRANCH   9  10
ATOM     10  C   UNL A   1      30.170  25.042  23.514  1.00  0.00     0.066 C 
BRANCH  10  11
ATOM     11  C   UNL A   1      31.182  23.949  23.497  1.00  0.00     0.039 A 
ATOM     12  C   UNL A   1      32.932  20.784  24.096  1.00  0.00     0.069 C 
ATOM     13  C   UNL A   1      32.406  22.116  23.712  1.00  0.00     0.062 A 
ATOM     14  N   UNL A   1      32.739  22.631  22.523  1.00  0.00    -0.181 NA
ATOM     15  C   UNL A   1      31.458  22.934  24.395  1.00  0.00    -0.007 A 
ATOM     16  N   UNL A   1      32.086  23.799  22.482  1.00  0.00    -0.282 N 
ATOM     17  C   UNL A   1      30.812  22.696  25.713  1.00  0.00     0.048 C 
ATOM     18  H   UNL A   1      32.241  24.481  21.790  1.00  0.00     0.190 HD
ENDBRANCH  10  11
ENDBRANCH   9  10
ENDBRANCH   6   9
ENDBRANCH   4   5
ENDBRANCH   3   4
ENDBRANCH   2   3
ENDBRANCH   1   2
BRANCH   1  19
ATOM     19  C   UNL A   1      35.991  23.327  26.029  1.00  0.00     0.021 C 
BRANCH  19  20
ATOM     20  C   UNL A   1      37.432  23.349  25.558  1.00  0.00     0.116 C 
BRANCH  20  21
ATOM     21  N   UNL A   1      38.222  22.201  26.003  1.00  0.00    -0.352 N 
ATOM     22  C   UNL A   1      39.485  22.184  26.582  1.00  0.00     0.251 C 
ATOM     23  H   UNL A   1      37.802  21.321  25.874  1.00  0.00     0.163 HD
ATOM     24  O   UNL A   1      40.122  21.145  26.642  1.00  0.00    -0.269 OA
BRANCH  22  25
ATOM     25  C   UNL A   1      40.039  23.439  27.144  1.00  0.00     0.039 A 
ATOM     26  C   UNL A   1      41.256  23.493  27.832  1.00  0.00     0.014 A 
ATOM     27  C   UNL A   1      39.274  24.590  27.015  1.00  0.00     0.014 A 
ATOM     28  C   UNL A   1      41.646  24.704  28.408  1.00  0.00     0.010 A 
ATOM     29  C   UNL A   1      39.794  25.811  27.301  1.00  0.00     0.010 A 
ATOM     30  C   UNL A   1      40.873  25.842  28.157  1.00  0.00    -0.014 A 
BRANCH  30  31
ATOM     31  C   UNL A   1      41.068  27.126  28.798  1.00  0.00     0.031 A 
ATOM     32  C   UNL A   1      42.178  27.925  28.244  1.00  0.00     0.074 A 
ATOM     33  C   UNL A   1      40.102  27.653  29.586  1.00  0.00     0.049 A 
ATOM     34  N   UNL A   1      43.280  28.225  28.838  1.00  0.00    -0.248 NA
ATOM     35  C   UNL A   1      42.142  28.299  26.820  1.00  0.00     0.031 C 
ATOM     36  C   UNL A   1      38.772  27.115  29.916  1.00  0.00     0.029 A 
ATOM     37  N   UNL A   1      40.063  28.881  30.155  1.00  0.00    -0.354 N 
ATOM     38  C   UNL A   1      44.010  28.987  27.935  1.00  0.00     0.074 A 
ATOM     39  C   UNL A   1      43.357  28.830  26.660  1.00  0.00     0.031 C 
ATOM     40  C   UNL A   1      37.994  28.106  30.413  1.00  0.00     0.029 A 
ATOM     41  C   UNL A   1      38.805  29.299  30.572  1.00  0.00     0.049 A 
ATOM     42  H   UNL A   1      40.868  29.438  30.265  1.00  0.00     0.167 HD
ATOM     43  C   UNL A   1      44.972  29.854  28.353  1.00  0.00     0.031 A 
ATOM     44  C   UNL A   1      38.462  30.558  30.955  1.00  0.00     0.031 A 
ATOM     45  C   UNL A   1      45.223  29.712  29.767  1.00  0.00     0.049 A 
ATOM     46  C   UNL A   1      39.733  31.248  31.317  1.00  0.00     0.074 A 
ATOM     47  C   UNL A   1      45.709  28.690  30.557  1.00  0.00     0.029 A 
ATOM     48  N   UNL A   1      44.532  30.557  30.610  1.00  0.00    -0.354 N 
ATOM     49  N   UNL A   1      40.481  30.869  32.319  1.00  0.00    -0.248 NA
ATOM     50  C   UNL A   1      40.430  31.993  30.276  1.00  0.00     0.031 C 
ATOM     51  C   UNL A   1      44.884  28.709  31.720  1.00  0.00     0.029 A 
ATOM     52  C   UNL A   1      44.004  29.792  31.621  1.00  0.00     0.049 A 
ATOM     53  H   UNL A   1      44.435  31.531  30.504  1.00  0.00     0.167 HD
ATOM     54  C   UNL A   1      41.785  30.925  31.838  1.00  0.00     0.074 A 
ATOM     55  C   UNL A   1      41.698  31.715  30.608  1.00  0.00     0.031 C 
ATOM     56  C   UNL A   1      42.756  30.080  32.304  1.00  0.00     0.031 A 
BRANCH  43  57
ATOM     57  C   UNL A   1      45.443  31.058  27.585  1.00  0.00    -0.014 A 
ATOM     58  C   UNL A   1      46.751  31.048  27.060  1.00  0.00     0.010 A 
ATOM     59  C   UNL A   1      44.751  32.284  27.564  1.00  0.00     0.010 A 
ATOM     60  C   UNL A   1      47.361  32.224  26.607  1.00  0.00     0.020 A 
ATOM     61  C   UNL A   1      45.334  33.455  27.074  1.00  0.00     0.020 A 
ATOM     62  C   UNL A   1      46.650  33.424  26.634  1.00  0.00     0.054 A 
BRANCH  62  63
ATOM     63  S   UNL A   1      47.490  34.955  26.166  1.00  0.00     0.124 S 
ATOM     64  O   UNL A   1      46.371  35.809  25.782  1.00  0.00    -0.237 OA
ATOM     65  O   UNL A   1      48.175  35.325  27.401  1.00  0.00    -0.237 OA
ATOM     66  O   UNL A   1      48.368  34.544  25.071  1.00  0.00    -0.744 OA
ENDBRANCH  62  63
ENDBRANCH  43  57
BRANCH  44  67
ATOM     67  C   UNL A   1      37.187  31.271  30.659  1.00  0.00    -0.014 A 
ATOM     68  C   UNL A   1      36.641  32.225  31.541  1.00  0.00     0.010 A 
ATOM     69  C   UNL A   1      36.635  31.206  29.361  1.00  0.00     0.010 A 
ATOM     70  C   UNL A   1      35.633  33.116  31.118  1.00  0.00     0.020 A 
ATOM     71  C   UNL A   1      35.630  32.083  28.934  1.00  0.00     0.020 A 
ATOM     72  C   UNL A   1      35.150  33.055  29.807  1.00  0.00     0.054 A 
BRANCH  72  73
ATOM     73  S   UNL A   1      33.998  34.326  29.201  1.00  0.00     0.124 S 
ATOM     74  O   UNL A   1      33.321  34.745  30.425  1.00  0.00    -0.237 OA
ATOM     75  O   UNL A   1      34.896  35.312  28.606  1.00  0.00    -0.237 OA
ATOM     76  O   UNL A   1      33.158  33.605  28.245  1.00  0.00    -0.744 OA
ENDBRANCH  72  73
ENDBRANCH  44  67
BRANCH  56  77
ATOM     77  C   UNL A   1      42.429  29.192  33.491  1.00  0.00    -0.014 A 
ATOM     78  C   UNL A   1      41.764  27.953  33.379  1.00  0.00     0.010 A 
ATOM     79  C   UNL A   1      42.981  29.534  34.736  1.00  0.00     0.010 A 
ATOM     80  C   UNL A   1      41.628  27.099  34.485  1.00  0.00     0.020 A 
ATOM     81  C   UNL A   1      42.867  28.681  35.838  1.00  0.00     0.020 A 
ATOM     82  C   UNL A   1      42.181  27.473  35.712  1.00  0.00     0.054 A 
BRANCH  82  83
ATOM     83  S   UNL A   1      42.035  26.356  37.136  1.00  0.00     0.124 S 
ATOM     84  O   UNL A   1      43.138  26.788  37.990  1.00  0.00    -0.237 OA
ATOM     85  O   UNL A   1      40.696  26.646  37.644  1.00  0.00    -0.237 OA
ATOM     86  O   UNL A   1      42.192  25.025  36.552  1.00  0.00    -0.744 OA
ENDBRANCH  82  83
ENDBRANCH  56  77
ENDBRANCH  30  31
ENDBRANCH  22  25
ENDBRANCH  20  21
ENDBRANCH  19  20
ENDBRANCH   1  19
TORSDOF 18
ENDMDL
