MODEL 1
REMARK VINA RESULT:     -10.9      0.000      0.000
REMARK SMILES C[C@H]1C[C@H]1C(=O)Nc1cc(C(F)(F)F)ccc1C(=O)NCCCCCCNC(=O)c1ccc(-c2c3nc(c(-c4ccc(S(=O)(=O)[O-])cc4)c4ccc([nH]4)c(-c4ccc(S(=O)(=O)[O-])cc4)c4nc(c(-c5ccc(S(=O)(=O)[O-])cc5)c5ccc2[nH]5)C=C4)C=C3)cc1
REMARK SMILES IDX 24 1 23 2 22 3 21 4 20 5 18 6 19 7 17 9 8 10 9 11 10 12
REMARK SMILES IDX 16 13 15 14 7 15 5 16 6 17 4 19 1 20 2 21 3 22 11 23 12 24
REMARK SMILES IDX 13 25 14 26 25 27 26 28 27 29 28 30 29 32 30 33 31 34 89 35
REMARK SMILES IDX 32 36 88 37 33 38 34 39 35 40 82 41 36 42 87 43 81 44 83 45
REMARK SMILES IDX 37 46 86 47 80 48 79 49 38 51 68 52 49 53 67 54 50 55 53 56
REMARK SMILES IDX 66 57 84 58 51 59 52 60 65 62 85 63 54 64 39 65 40 66 48 67
REMARK SMILES IDX 41 68 47 69 42 70 43 71 44 72 45 73 46 74 69 75 70 76 78 77
REMARK SMILES IDX 71 78 77 79 72 80 73 81 74 82 75 83 76 84 55 85 56 86 64 87
REMARK SMILES IDX 57 88 63 89 58 90 59 91 60 92 61 93 62 94
REMARK H PARENT 20 8 7 18 27 31 83 50 53 61
REMARK Flexibility Score: inf
ROOT
ATOM      1  C   UNL A   1      34.931  22.271  24.358  1.00  0.00     0.002 C 
ENDROOT
BRANCH   1   2
ATOM      2  C   UNL A   1      33.430  22.259  24.043  1.00  0.00     0.002 C 
BRANCH   2   3
ATOM      3  C   UNL A   1      32.630  23.509  24.435  1.00  0.00     0.021 C 
BRANCH   3   4
ATOM      4  C   UNL A   1      31.131  23.427  24.165  1.00  0.00     0.116 C 
BRANCH   4   5
ATOM      5  N   UNL A   1      30.346  23.854  25.304  1.00  0.00    -0.352 N 
ATOM      6  C   UNL A   1      29.868  25.084  25.666  1.00  0.00     0.253 C 
ATOM      7  O   UNL A   1      29.439  25.180  26.819  1.00  0.00    -0.269 OA
ATOM      8  H   UNL A   1      30.116  23.131  25.928  1.00  0.00     0.163 HD
BRANCH   6   9
ATOM      9  C   UNL A   1      29.915  26.308  24.805  1.00  0.00     0.063 A 
ATOM     10  C   UNL A   1      30.864  27.333  24.803  1.00  0.00     0.054 A 
ATOM     11  C   UNL A   1      30.575  28.538  24.122  1.00  0.00     0.040 A 
ATOM     12  C   UNL A   1      29.482  28.666  23.258  1.00  0.00     0.058 A 
ATOM     13  C   UNL A   1      28.828  26.431  23.905  1.00  0.00     0.016 A 
ATOM     14  C   UNL A   1      28.631  27.573  23.119  1.00  0.00     0.014 A 
BRANCH  10  15
ATOM     15  N   UNL A   1      32.146  27.345  25.349  1.00  0.00    -0.325 N 
ATOM     16  C   UNL A   1      33.396  27.062  24.888  1.00  0.00     0.227 C 
ATOM     17  O   UNL A   1      34.306  27.219  25.706  1.00  0.00    -0.274 OA
ATOM     18  H   UNL A   1      32.148  27.624  26.293  1.00  0.00     0.169 HD
BRANCH  16  19
ATOM     19  C   UNL A   1      33.792  26.613  23.536  1.00  0.00     0.082 C 
ATOM     20  C   UNL A   1      31.864  26.136  21.667  1.00  0.00     0.008 C 
ATOM     21  C   UNL A   1      33.243  26.375  22.148  1.00  0.00    -0.001 C 
ATOM     22  C   UNL A   1      33.642  27.756  22.518  1.00  0.00     0.018 C 
ENDBRANCH  16  19
ENDBRANCH  10  15
BRANCH  12  23
ATOM     23  C   UNL A   1      29.259  29.956  22.508  1.00  0.00     0.416 C 
ATOM     24  F   UNL A   1      30.288  30.246  21.666  1.00  0.00    -0.166 F 
ATOM     25  F   UNL A   1      28.139  29.928  21.733  1.00  0.00    -0.166 F 
ATOM     26  F   UNL A   1      29.120  31.037  23.322  1.00  0.00    -0.166 F 
ENDBRANCH  12  23
ENDBRANCH   6   9
ENDBRANCH   4   5
ENDBRANCH   3   4
ENDBRANCH   2   3
ENDBRANCH   1   2
BRANCH   1  27
ATOM     27  C   UNL A   1      35.413  23.333  25.349  1.00  0.00     0.021 C 
BRANCH  27  28
ATOM     28  C   UNL A   1      36.839  23.836  25.149  1.00  0.00     0.116 C 
BRANCH  28  29
ATOM     29  N   UNL A   1      37.846  22.831  25.433  1.00  0.00    -0.352 N 
ATOM     30  C   UNL A   1      39.027  22.953  26.117  1.00  0.00     0.251 C 
ATOM     31  H   UNL A   1      37.653  21.931  25.085  1.00  0.00     0.163 HD
ATOM     32  O   UNL A   1      39.805  21.999  26.160  1.00  0.00    -0.269 OA
BRANCH  30  33
ATOM     33  C   UNL A   1      39.386  24.229  26.771  1.00  0.00     0.039 A 
ATOM     34  C   UNL A   1      38.964  24.441  28.087  1.00  0.00     0.014 A 
ATOM     35  C   UNL A   1      40.120  25.216  26.106  1.00  0.00     0.014 A 
ATOM     36  C   UNL A   1      39.319  25.618  28.746  1.00  0.00     0.010 A 
ATOM     37  C   UNL A   1      40.540  26.355  26.792  1.00  0.00     0.010 A 
ATOM     38  C   UNL A   1      40.137  26.571  28.117  1.00  0.00    -0.014 A 
BRANCH  38  39
ATOM     39  C   UNL A   1      40.581  27.781  28.855  1.00  0.00     0.031 A 
ATOM     40  C   UNL A   1      41.963  27.860  29.445  1.00  0.00     0.074 A 
ATOM     41  C   UNL A   1      39.722  28.810  29.005  1.00  0.00     0.049 A 
ATOM     42  N   UNL A   1      42.534  28.858  30.071  1.00  0.00    -0.248 NA
ATOM     43  C   UNL A   1      42.807  26.658  29.339  1.00  0.00     0.031 C 
ATOM     44  C   UNL A   1      38.337  28.829  28.524  1.00  0.00     0.029 A 
ATOM     45  N   UNL A   1      39.886  30.041  29.588  1.00  0.00    -0.354 N 
ATOM     46  C   UNL A   1      43.797  28.405  30.435  1.00  0.00     0.074 A 
ATOM     47  C   UNL A   1      43.888  27.024  30.013  1.00  0.00     0.031 C 
ATOM     48  C   UNL A   1      37.797  30.029  28.788  1.00  0.00     0.029 A 
ATOM     49  C   UNL A   1      38.778  30.849  29.491  1.00  0.00     0.049 A 
ATOM     50  H   UNL A   1      40.719  30.319  30.034  1.00  0.00     0.167 HD
ATOM     51  C   UNL A   1      44.798  29.084  31.045  1.00  0.00     0.031 A 
ATOM     52  C   UNL A   1      38.573  32.111  29.916  1.00  0.00     0.031 A 
ATOM     53  C   UNL A   1      44.699  30.458  31.465  1.00  0.00     0.049 A 
ATOM     54  C   UNL A   1      39.698  32.841  30.596  1.00  0.00     0.074 A 
ATOM     55  C   UNL A   1      45.673  31.254  32.042  1.00  0.00     0.029 A 
ATOM     56  N   UNL A   1      43.558  31.239  31.360  1.00  0.00    -0.354 N 
ATOM     57  N   UNL A   1      40.914  32.422  30.857  1.00  0.00    -0.248 NA
ATOM     58  C   UNL A   1      39.428  34.220  31.024  1.00  0.00     0.031 C 
ATOM     59  C   UNL A   1      45.101  32.495  32.344  1.00  0.00     0.029 A 
ATOM     60  C   UNL A   1      43.791  32.497  31.890  1.00  0.00     0.049 A 
ATOM     61  H   UNL A   1      42.705  30.942  30.965  1.00  0.00     0.167 HD
ATOM     62  C   UNL A   1      41.561  33.494  31.460  1.00  0.00     0.074 A 
ATOM     63  C   UNL A   1      40.610  34.587  31.500  1.00  0.00     0.031 C 
ATOM     64  C   UNL A   1      42.829  33.569  31.938  1.00  0.00     0.031 A 
BRANCH  51  65
ATOM     65  C   UNL A   1      46.088  28.346  31.306  1.00  0.00    -0.014 A 
ATOM     66  C   UNL A   1      47.138  28.359  30.369  1.00  0.00     0.010 A 
ATOM     67  C   UNL A   1      46.271  27.663  32.523  1.00  0.00     0.010 A 
ATOM     68  C   UNL A   1      48.328  27.671  30.625  1.00  0.00     0.020 A 
ATOM     69  C   UNL A   1      47.470  27.000  32.797  1.00  0.00     0.020 A 
ATOM     70  C   UNL A   1      48.486  26.995  31.838  1.00  0.00     0.054 A 
BRANCH  70  71
ATOM     71  S   UNL A   1      50.049  26.131  32.153  1.00  0.00     0.124 S 
ATOM     72  O   UNL A   1      51.032  27.116  31.708  1.00  0.00    -0.237 OA
ATOM     73  O   UNL A   1      50.001  25.898  33.594  1.00  0.00    -0.237 OA
ATOM     74  O   UNL A   1      49.955  24.930  31.326  1.00  0.00    -0.744 OA
ENDBRANCH  70  71
ENDBRANCH  51  65
BRANCH  52  75
ATOM     75  C   UNL A   1      37.255  32.766  29.690  1.00  0.00    -0.014 A 
ATOM     76  C   UNL A   1      36.289  32.810  30.711  1.00  0.00     0.010 A 
ATOM     77  C   UNL A   1      36.965  33.366  28.450  1.00  0.00     0.010 A 
ATOM     78  C   UNL A   1      35.053  33.427  30.491  1.00  0.00     0.020 A 
ATOM     79  C   UNL A   1      35.744  34.011  28.237  1.00  0.00     0.020 A 
ATOM     80  C   UNL A   1      34.790  34.026  29.256  1.00  0.00     0.054 A 
BRANCH  80  81
ATOM     81  S   UNL A   1      33.198  34.862  29.010  1.00  0.00     0.124 S 
ATOM     82  O   UNL A   1      33.616  36.189  28.572  1.00  0.00    -0.237 OA
ATOM     83  O   UNL A   1      32.560  34.031  27.993  1.00  0.00    -0.237 OA
ATOM     84  O   UNL A   1      32.575  34.806  30.331  1.00  0.00    -0.744 OA
ENDBRANCH  80  81
ENDBRANCH  52  75
BRANCH  64  85
ATOM     85  C   UNL A   1      43.266  34.885  32.527  1.00  0.00    -0.014 A 
ATOM     86  C   UNL A   1      43.027  35.196  33.878  1.00  0.00     0.010 A 
ATOM     87  C   UNL A   1      43.954  35.812  31.723  1.00  0.00     0.010 A 
ATOM     88  C   UNL A   1      43.426  36.429  34.401  1.00  0.00     0.020 A 
ATOM     89  C   UNL A   1      44.386  37.031  32.251  1.00  0.00     0.020 A 
ATOM     90  C   UNL A   1      44.101  37.340  33.582  1.00  0.00     0.054 A 
BRANCH  90  91
ATOM     91  S   UNL A   1      44.629  38.924  34.290  1.00  0.00     0.124 S 
ATOM     92  O   UNL A   1      43.422  39.734  34.155  1.00  0.00    -0.237 OA
ATOM     93  O   UNL A   1      44.990  38.558  35.658  1.00  0.00    -0.237 OA
ATOM     94  O   UNL A   1      45.749  39.328  33.443  1.00  0.00    -0.744 OA
ENDBRANCH  90  91
ENDBRANCH  64  85
ENDBRANCH  38  39
ENDBRANCH  30  33
ENDBRANCH  28  29
ENDBRANCH  27  28
ENDBRANCH   1  27
TORSDOF 19
ENDMDL
MODEL 2
REMARK VINA RESULT:     -10.8      3.295      9.386
REMARK SMILES C[C@H]1C[C@H]1C(=O)Nc1cc(C(F)(F)F)ccc1C(=O)NCCCCCCNC(=O)c1ccc(-c2c3nc(c(-c4ccc(S(=O)(=O)[O-])cc4)c4ccc([nH]4)c(-c4ccc(S(=O)(=O)[O-])cc4)c4nc(c(-c5ccc(S(=O)(=O)[O-])cc5)c5ccc2[nH]5)C=C4)C=C3)cc1
REMARK SMILES IDX 24 1 23 2 22 3 21 4 20 5 18 6 19 7 17 9 8 10 9 11 10 12
REMARK SMILES IDX 16 13 15 14 7 15 5 16 6 17 4 19 1 20 2 21 3 22 11 23 12 24
REMARK SMILES IDX 13 25 14 26 25 27 26 28 27 29 28 30 29 32 30 33 31 34 89 35
REMARK SMILES IDX 32 36 88 37 33 38 34 39 35 40 82 41 36 42 87 43 81 44 83 45
REMARK SMILES IDX 37 46 86 47 80 48 79 49 38 51 68 52 49 53 67 54 50 55 53 56
REMARK SMILES IDX 66 57 84 58 51 59 52 60 65 62 85 63 54 64 39 65 40 66 48 67
REMARK SMILES IDX 41 68 47 69 42 70 43 71 44 72 45 73 46 74 69 75 70 76 78 77
REMARK SMILES IDX 71 78 77 79 72 80 73 81 74 82 75 83 76 84 55 85 56 86 64 87
REMARK SMILES IDX 57 88 63 89 58 90 59 91 60 92 61 93 62 94
REMARK H PARENT 20 8 7 18 27 31 83 50 53 61
REMARK Flexibility Score: inf
ROOT
ATOM      1  C   UNL A   1      32.031  28.273  24.844  1.00  0.00     0.002 C 
ENDROOT
BRANCH   1   2
ATOM      2  C   UNL A   1      30.699  27.861  24.204  1.00  0.00     0.002 C 
BRANCH   2   3
ATOM      3  C   UNL A   1      29.977  26.655  24.822  1.00  0.00     0.021 C 
BRANCH   3   4
ATOM      4  C   UNL A   1      30.336  25.305  24.210  1.00  0.00     0.116 C 
BRANCH   4   5
ATOM      5  N   UNL A   1      30.157  24.215  25.145  1.00  0.00    -0.352 N 
ATOM      6  C   UNL A   1      31.015  23.241  25.576  1.00  0.00     0.253 C 
ATOM      7  O   UNL A   1      30.503  22.301  26.192  1.00  0.00    -0.269 OA
ATOM      8  H   UNL A   1      29.258  24.166  25.540  1.00  0.00     0.163 HD
BRANCH   6   9
ATOM      9  C   UNL A   1      32.481  23.197  25.277  1.00  0.00     0.063 A 
ATOM     10  C   UNL A   1      33.179  22.295  24.470  1.00  0.00     0.054 A 
ATOM     11  C   UNL A   1      34.590  22.247  24.549  1.00  0.00     0.040 A 
ATOM     12  C   UNL A   1      35.334  23.219  25.226  1.00  0.00     0.058 A 
ATOM     13  C   UNL A   1      33.240  24.197  25.935  1.00  0.00     0.016 A 
ATOM     14  C   UNL A   1      34.640  24.231  25.884  1.00  0.00     0.014 A 
BRANCH  10  15
ATOM     15  N   UNL A   1      32.687  21.418  23.505  1.00  0.00    -0.325 N 
ATOM     16  C   UNL A   1      32.478  20.075  23.437  1.00  0.00     0.227 C 
ATOM     17  O   UNL A   1      31.992  19.671  22.377  1.00  0.00    -0.274 OA
ATOM     18  H   UNL A   1      32.432  21.881  22.674  1.00  0.00     0.169 HD
BRANCH  16  19
ATOM     19  C   UNL A   1      32.738  19.055  24.475  1.00  0.00     0.082 C 
ATOM     20  C   UNL A   1      33.440  16.529  23.724  1.00  0.00     0.008 C 
ATOM     21  C   UNL A   1      33.280  17.658  24.668  1.00  0.00    -0.001 C 
ATOM     22  C   UNL A   1      34.246  18.783  24.605  1.00  0.00     0.018 C 
ENDBRANCH  16  19
ENDBRANCH  10  15
BRANCH  12  23
ATOM     23  C   UNL A   1      36.842  23.154  25.223  1.00  0.00     0.416 C 
ATOM     24  F   UNL A   1      37.349  23.041  23.966  1.00  0.00    -0.166 F 
ATOM     25  F   UNL A   1      37.419  24.264  25.762  1.00  0.00    -0.166 F 
ATOM     26  F   UNL A   1      37.337  22.100  25.927  1.00  0.00    -0.166 F 
ENDBRANCH  12  23
ENDBRANCH   6   9
ENDBRANCH   4   5
ENDBRANCH   3   4
ENDBRANCH   2   3
ENDBRANCH   1   2
BRANCH   1  27
ATOM     27  C   UNL A   1      32.301  27.751  26.257  1.00  0.00     0.021 C 
BRANCH  27  28
ATOM     28  C   UNL A   1      33.528  28.325  26.958  1.00  0.00     0.116 C 
BRANCH  28  29
ATOM     29  N   UNL A   1      33.364  29.711  27.356  1.00  0.00    -0.352 N 
ATOM     30  C   UNL A   1      34.249  30.545  27.986  1.00  0.00     0.251 C 
ATOM     31  H   UNL A   1      32.489  30.109  27.143  1.00  0.00     0.163 HD
ATOM     32  O   UNL A   1      33.881  31.667  28.339  1.00  0.00    -0.269 OA
BRANCH  30  33
ATOM     33  C   UNL A   1      35.628  30.096  28.274  1.00  0.00     0.039 A 
ATOM     34  C   UNL A   1      36.568  30.141  27.241  1.00  0.00     0.014 A 
ATOM     35  C   UNL A   1      35.999  29.625  29.537  1.00  0.00     0.014 A 
ATOM     36  C   UNL A   1      37.887  29.761  27.490  1.00  0.00     0.010 A 
ATOM     37  C   UNL A   1      37.334  29.321  29.803  1.00  0.00     0.010 A 
ATOM     38  C   UNL A   1      38.290  29.379  28.780  1.00  0.00    -0.014 A 
BRANCH  38  39
ATOM     39  C   UNL A   1      39.714  29.058  29.056  1.00  0.00     0.031 A 
ATOM     40  C   UNL A   1      40.619  30.068  29.708  1.00  0.00     0.074 A 
ATOM     41  C   UNL A   1      40.194  27.849  28.701  1.00  0.00     0.049 A 
ATOM     42  N   UNL A   1      41.869  29.936  30.072  1.00  0.00    -0.248 NA
ATOM     43  C   UNL A   1      40.057  31.403  29.968  1.00  0.00     0.031 C 
ATOM     44  C   UNL A   1      39.427  26.805  28.013  1.00  0.00     0.029 A 
ATOM     45  N   UNL A   1      41.432  27.286  28.879  1.00  0.00    -0.354 N 
ATOM     46  C   UNL A   1      42.244  31.168  30.596  1.00  0.00     0.074 A 
ATOM     47  C   UNL A   1      41.107  32.051  30.451  1.00  0.00     0.031 C 
ATOM     48  C   UNL A   1      40.197  25.714  27.873  1.00  0.00     0.029 A 
ATOM     49  C   UNL A   1      41.520  25.992  28.421  1.00  0.00     0.049 A 
ATOM     50  H   UNL A   1      42.187  27.763  29.295  1.00  0.00     0.167 HD
ATOM     51  C   UNL A   1      43.419  31.526  31.168  1.00  0.00     0.031 A 
ATOM     52  C   UNL A   1      42.548  25.122  28.444  1.00  0.00     0.031 A 
ATOM     53  C   UNL A   1      44.547  30.641  31.307  1.00  0.00     0.049 A 
ATOM     54  C   UNL A   1      43.845  25.543  29.078  1.00  0.00     0.074 A 
ATOM     55  C   UNL A   1      45.763  30.888  31.920  1.00  0.00     0.029 A 
ATOM     56  N   UNL A   1      44.601  29.343  30.822  1.00  0.00    -0.354 N 
ATOM     57  N   UNL A   1      44.151  26.688  29.644  1.00  0.00    -0.248 NA
ATOM     58  C   UNL A   1      44.928  24.552  29.092  1.00  0.00     0.031 C 
ATOM     59  C   UNL A   1      46.575  29.762  31.748  1.00  0.00     0.029 A 
ATOM     60  C   UNL A   1      45.841  28.786  31.091  1.00  0.00     0.049 A 
ATOM     61  H   UNL A   1      43.866  28.884  30.354  1.00  0.00     0.167 HD
ATOM     62  C   UNL A   1      45.456  26.545  30.101  1.00  0.00     0.074 A 
ATOM     63  C   UNL A   1      45.869  25.196  29.768  1.00  0.00     0.031 C 
ATOM     64  C   UNL A   1      46.243  27.447  30.739  1.00  0.00     0.031 A 
BRANCH  51  65
ATOM     65  C   UNL A   1      43.548  32.939  31.679  1.00  0.00    -0.014 A 
ATOM     66  C   UNL A   1      43.254  33.262  33.017  1.00  0.00     0.010 A 
ATOM     67  C   UNL A   1      44.011  33.954  30.820  1.00  0.00     0.010 A 
ATOM     68  C   UNL A   1      43.381  34.576  33.476  1.00  0.00     0.020 A 
ATOM     69  C   UNL A   1      44.169  35.264  31.283  1.00  0.00     0.020 A 
ATOM     70  C   UNL A   1      43.837  35.570  32.604  1.00  0.00     0.054 A 
BRANCH  70  71
ATOM     71  S   UNL A   1      44.013  37.262  33.234  1.00  0.00     0.124 S 
ATOM     72  O   UNL A   1      44.108  38.034  31.997  1.00  0.00    -0.237 OA
ATOM     73  O   UNL A   1      42.783  37.448  33.998  1.00  0.00    -0.237 OA
ATOM     74  O   UNL A   1      45.237  37.210  34.030  1.00  0.00    -0.744 OA
ENDBRANCH  70  71
ENDBRANCH  51  65
BRANCH  52  75
ATOM     75  C   UNL A   1      42.382  23.760  27.863  1.00  0.00    -0.014 A 
ATOM     76  C   UNL A   1      42.626  23.525  26.499  1.00  0.00     0.010 A 
ATOM     77  C   UNL A   1      41.994  22.683  28.682  1.00  0.00     0.010 A 
ATOM     78  C   UNL A   1      42.467  22.244  25.961  1.00  0.00     0.020 A 
ATOM     79  C   UNL A   1      41.865  21.396  28.155  1.00  0.00     0.020 A 
ATOM     80  C   UNL A   1      42.091  21.186  26.794  1.00  0.00     0.054 A 
BRANCH  80  81
ATOM     81  S   UNL A   1      41.939  19.524  26.083  1.00  0.00     0.124 S 
ATOM     82  O   UNL A   1      42.811  19.610  24.917  1.00  0.00    -0.237 OA
ATOM     83  O   UNL A   1      42.416  18.673  27.170  1.00  0.00    -0.237 OA
ATOM     84  O   UNL A   1      40.512  19.407  25.791  1.00  0.00    -0.744 OA
ENDBRANCH  80  81
ENDBRANCH  52  75
BRANCH  64  85
ATOM     85  C   UNL A   1      47.625  26.997  31.137  1.00  0.00    -0.014 A 
ATOM     86  C   UNL A   1      48.744  27.278  30.333  1.00  0.00     0.010 A 
ATOM     87  C   UNL A   1      47.808  26.309  32.350  1.00  0.00     0.010 A 
ATOM     88  C   UNL A   1      50.015  26.837  30.712  1.00  0.00     0.020 A 
ATOM     89  C   UNL A   1      49.082  25.897  32.751  1.00  0.00     0.020 A 
ATOM     90  C   UNL A   1      50.174  26.147  31.918  1.00  0.00     0.054 A 
BRANCH  90  91
ATOM     91  S   UNL A   1      51.837  25.605  32.400  1.00  0.00     0.124 S 
ATOM     92  O   UNL A   1      52.222  26.629  33.366  1.00  0.00    -0.237 OA
ATOM     93  O   UNL A   1      51.592  24.276  32.957  1.00  0.00    -0.237 OA
ATOM     94  O   UNL A   1      52.584  25.620  31.144  1.00  0.00    -0.744 OA
ENDBRANCH  90  91
ENDBRANCH  64  85
ENDBRANCH  38  39
ENDBRANCH  30  33
ENDBRANCH  28  29
ENDBRANCH  27  28
ENDBRANCH   1  27
TORSDOF 19
ENDMDL
MODEL 3
REMARK VINA RESULT:     -10.4      1.831      2.354
REMARK SMILES C[C@H]1C[C@H]1C(=O)Nc1cc(C(F)(F)F)ccc1C(=O)NCCCCCCNC(=O)c1ccc(-c2c3nc(c(-c4ccc(S(=O)(=O)[O-])cc4)c4ccc([nH]4)c(-c4ccc(S(=O)(=O)[O-])cc4)c4nc(c(-c5ccc(S(=O)(=O)[O-])cc5)c5ccc2[nH]5)C=C4)C=C3)cc1
REMARK SMILES IDX 24 1 23 2 22 3 21 4 20 5 18 6 19 7 17 9 8 10 9 11 10 12
REMARK SMILES IDX 16 13 15 14 7 15 5 16 6 17 4 19 1 20 2 21 3 22 11 23 12 24
REMARK SMILES IDX 13 25 14 26 25 27 26 28 27 29 28 30 29 32 30 33 31 34 89 35
REMARK SMILES IDX 32 36 88 37 33 38 34 39 35 40 82 41 36 42 87 43 81 44 83 45
REMARK SMILES IDX 37 46 86 47 80 48 79 49 38 51 68 52 49 53 67 54 50 55 53 56
REMARK SMILES IDX 66 57 84 58 51 59 52 60 65 62 85 63 54 64 39 65 40 66 48 67
REMARK SMILES IDX 41 68 47 69 42 70 43 71 44 72 45 73 46 74 69 75 70 76 78 77
REMARK SMILES IDX 71 78 77 79 72 80 73 81 74 82 75 83 76 84 55 85 56 86 64 87
REMARK SMILES IDX 57 88 63 89 58 90 59 91 60 92 61 93 62 94
REMARK H PARENT 20 8 7 18 27 31 83 50 53 61
REMARK Flexibility Score: inf
ROOT
ATOM      1  C   UNL A   1      34.781  22.272  24.480  1.00  0.00     0.002 C 
ENDROOT
BRANCH   1   2
ATOM      2  C   UNL A   1      33.632  22.663  23.541  1.00  0.00     0.002 C 
BRANCH   2   3
ATOM      3  C   UNL A   1      32.802  23.892  23.937  1.00  0.00     0.021 C 
BRANCH   3   4
ATOM      4  C   UNL A   1      31.291  23.712  23.832  1.00  0.00     0.116 C 
BRANCH   4   5
ATOM      5  N   UNL A   1      30.613  24.043  25.066  1.00  0.00    -0.352 N 
ATOM      6  C   UNL A   1      30.139  25.231  25.551  1.00  0.00     0.253 C 
ATOM      7  O   UNL A   1      29.826  25.243  26.745  1.00  0.00    -0.269 OA
ATOM      8  H   UNL A   1      30.467  23.275  25.664  1.00  0.00     0.163 HD
BRANCH   6   9
ATOM      9  C   UNL A   1      30.066  26.505  24.769  1.00  0.00     0.063 A 
ATOM     10  C   UNL A   1      30.865  27.645  24.886  1.00  0.00     0.054 A 
ATOM     11  C   UNL A   1      30.451  28.844  24.261  1.00  0.00     0.040 A 
ATOM     12  C   UNL A   1      29.400  28.883  23.340  1.00  0.00     0.058 A 
ATOM     13  C   UNL A   1      29.022  26.543  23.811  1.00  0.00     0.016 A 
ATOM     14  C   UNL A   1      28.714  27.699  23.083  1.00  0.00     0.014 A 
BRANCH  10  15
ATOM     15  N   UNL A   1      32.102  27.791  25.511  1.00  0.00    -0.325 N 
ATOM     16  C   UNL A   1      33.402  27.675  25.120  1.00  0.00     0.227 C 
ATOM     17  O   UNL A   1      34.237  27.911  25.997  1.00  0.00    -0.274 OA
ATOM     18  H   UNL A   1      32.015  28.033  26.461  1.00  0.00     0.169 HD
BRANCH  16  19
ATOM     19  C   UNL A   1      33.927  27.327  23.783  1.00  0.00     0.082 C 
ATOM     20  C   UNL A   1      32.182  26.746  21.770  1.00  0.00     0.008 C 
ATOM     21  C   UNL A   1      33.496  27.097  22.353  1.00  0.00    -0.001 C 
ATOM     22  C   UNL A   1      33.729  28.493  22.800  1.00  0.00     0.018 C 
ENDBRANCH  16  19
ENDBRANCH  10  15
BRANCH  12  23
ATOM     23  C   UNL A   1      29.043  30.180  22.654  1.00  0.00     0.416 C 
ATOM     24  F   UNL A   1      27.771  30.172  22.169  1.00  0.00    -0.166 F 
ATOM     25  F   UNL A   1      29.120  31.255  23.486  1.00  0.00    -0.166 F 
ATOM     26  F   UNL A   1      29.849  30.470  21.597  1.00  0.00    -0.166 F 
ENDBRANCH  12  23
ENDBRANCH   6   9
ENDBRANCH   4   5
ENDBRANCH   3   4
ENDBRANCH   2   3
ENDBRANCH   1   2
BRANCH   1  27
ATOM     27  C   UNL A   1      34.992  23.160  25.709  1.00  0.00     0.021 C 
BRANCH  27  28
ATOM     28  C   UNL A   1      36.404  23.702  25.906  1.00  0.00     0.116 C 
BRANCH  28  29
ATOM     29  N   UNL A   1      37.418  22.665  25.930  1.00  0.00    -0.352 N 
ATOM     30  C   UNL A   1      38.747  22.755  26.248  1.00  0.00     0.251 C 
ATOM     31  H   UNL A   1      37.105  21.764  25.683  1.00  0.00     0.163 HD
ATOM     32  O   UNL A   1      39.475  21.772  26.103  1.00  0.00    -0.269 OA
BRANCH  30  33
ATOM     33  C   UNL A   1      39.318  24.032  26.728  1.00  0.00     0.039 A 
ATOM     34  C   UNL A   1      39.244  24.318  28.094  1.00  0.00     0.014 A 
ATOM     35  C   UNL A   1      39.912  24.947  25.853  1.00  0.00     0.014 A 
ATOM     36  C   UNL A   1      39.806  25.496  28.585  1.00  0.00     0.010 A 
ATOM     37  C   UNL A   1      40.542  26.084  26.357  1.00  0.00     0.010 A 
ATOM     38  C   UNL A   1      40.489  26.375  27.727  1.00  0.00    -0.014 A 
BRANCH  38  39
ATOM     39  C   UNL A   1      41.160  27.584  28.271  1.00  0.00     0.031 A 
ATOM     40  C   UNL A   1      42.660  27.704  28.258  1.00  0.00     0.074 A 
ATOM     41  C   UNL A   1      40.405  28.572  28.793  1.00  0.00     0.049 A 
ATOM     42  N   UNL A   1      43.406  28.709  28.640  1.00  0.00    -0.248 NA
ATOM     43  C   UNL A   1      43.422  26.541  27.775  1.00  0.00     0.031 C 
ATOM     44  C   UNL A   1      38.944  28.546  28.911  1.00  0.00     0.029 A 
ATOM     45  N   UNL A   1      40.757  29.794  29.309  1.00  0.00    -0.354 N 
ATOM     46  C   UNL A   1      44.721  28.300  28.448  1.00  0.00     0.074 A 
ATOM     47  C   UNL A   1      44.672  26.935  27.971  1.00  0.00     0.031 C 
ATOM     48  C   UNL A   1      38.524  29.716  29.416  1.00  0.00     0.029 A 
ATOM     49  C   UNL A   1      39.682  30.557  29.698  1.00  0.00     0.049 A 
ATOM     50  H   UNL A   1      41.691  30.095  29.393  1.00  0.00     0.167 HD
ATOM     51  C   UNL A   1      45.864  29.004  28.630  1.00  0.00     0.031 A 
ATOM     52  C   UNL A   1      39.631  31.799  30.217  1.00  0.00     0.031 A 
ATOM     53  C   UNL A   1      45.904  30.362  29.107  1.00  0.00     0.049 A 
ATOM     54  C   UNL A   1      40.913  32.559  30.416  1.00  0.00     0.074 A 
ATOM     55  C   UNL A   1      47.006  31.183  29.275  1.00  0.00     0.029 A 
ATOM     56  N   UNL A   1      44.796  31.097  29.501  1.00  0.00    -0.354 N 
ATOM     57  N   UNL A   1      42.143  32.183  30.149  1.00  0.00    -0.248 NA
ATOM     58  C   UNL A   1      40.801  33.914  30.970  1.00  0.00     0.031 C 
ATOM     59  C   UNL A   1      46.571  32.391  29.830  1.00  0.00     0.029 A 
ATOM     60  C   UNL A   1      45.189  32.351  29.941  1.00  0.00     0.049 A 
ATOM     61  H   UNL A   1      43.865  30.776  29.471  1.00  0.00     0.167 HD
ATOM     62  C   UNL A   1      42.948  33.266  30.483  1.00  0.00     0.074 A 
ATOM     63  C   UNL A   1      42.064  34.317  30.945  1.00  0.00     0.031 C 
ATOM     64  C   UNL A   1      44.298  33.381  30.414  1.00  0.00     0.031 A 
BRANCH  51  65
ATOM     65  C   UNL A   1      47.169  28.313  28.321  1.00  0.00    -0.014 A 
ATOM     66  C   UNL A   1      47.881  27.620  29.318  1.00  0.00     0.010 A 
ATOM     67  C   UNL A   1      47.672  28.320  27.007  1.00  0.00     0.010 A 
ATOM     68  C   UNL A   1      49.088  26.983  29.017  1.00  0.00     0.020 A 
ATOM     69  C   UNL A   1      48.863  27.659  26.694  1.00  0.00     0.020 A 
ATOM     70  C   UNL A   1      49.572  27.008  27.705  1.00  0.00     0.054 A 
BRANCH  70  71
ATOM     71  S   UNL A   1      51.130  26.153  27.339  1.00  0.00     0.124 S 
ATOM     72  O   UNL A   1      51.944  26.500  28.501  1.00  0.00    -0.237 OA
ATOM     73  O   UNL A   1      50.716  24.756  27.256  1.00  0.00    -0.237 OA
ATOM     74  O   UNL A   1      51.564  26.748  26.077  1.00  0.00    -0.744 OA
ENDBRANCH  70  71
ENDBRANCH  51  65
BRANCH  52  75
ATOM     75  C   UNL A   1      38.316  32.405  30.566  1.00  0.00    -0.014 A 
ATOM     76  C   UNL A   1      37.775  32.257  31.855  1.00  0.00     0.010 A 
ATOM     77  C   UNL A   1      37.603  33.152  29.609  1.00  0.00     0.010 A 
ATOM     78  C   UNL A   1      36.538  32.828  32.175  1.00  0.00     0.020 A 
ATOM     79  C   UNL A   1      36.383  33.751  29.935  1.00  0.00     0.020 A 
ATOM     80  C   UNL A   1      35.852  33.574  31.213  1.00  0.00     0.054 A 
BRANCH  80  81
ATOM     81  S   UNL A   1      34.274  34.346  31.666  1.00  0.00     0.124 S 
ATOM     82  O   UNL A   1      33.691  33.348  32.556  1.00  0.00    -0.237 OA
ATOM     83  O   UNL A   1      34.703  35.589  32.303  1.00  0.00    -0.237 OA
ATOM     84  O   UNL A   1      33.596  34.515  30.383  1.00  0.00    -0.744 OA
ENDBRANCH  80  81
ENDBRANCH  52  75
BRANCH  64  85
ATOM     85  C   UNL A   1      44.899  34.699  30.829  1.00  0.00    -0.014 A 
ATOM     86  C   UNL A   1      45.322  34.925  32.151  1.00  0.00     0.010 A 
ATOM     87  C   UNL A   1      45.071  35.716  29.872  1.00  0.00     0.010 A 
ATOM     88  C   UNL A   1      45.862  36.160  32.519  1.00  0.00     0.020 A 
ATOM     89  C   UNL A   1      45.643  36.940  30.227  1.00  0.00     0.020 A 
ATOM     90  C   UNL A   1      46.016  37.161  31.554  1.00  0.00     0.054 A 
BRANCH  90  91
ATOM     91  S   UNL A   1      46.740  38.747  32.051  1.00  0.00     0.124 S 
ATOM     92  O   UNL A   1      46.697  39.506  30.804  1.00  0.00    -0.237 OA
ATOM     93  O   UNL A   1      45.826  39.203  33.096  1.00  0.00    -0.237 OA
ATOM     94  O   UNL A   1      48.079  38.389  32.516  1.00  0.00    -0.744 OA
ENDBRANCH  90  91
ENDBRANCH  64  85
ENDBRANCH  38  39
ENDBRANCH  30  33
ENDBRANCH  28  29
ENDBRANCH  27  28
ENDBRANCH   1  27
TORSDOF 19
ENDMDL
