MODEL 1
REMARK VINA RESULT:     -12.8      0.000      0.000
REMARK SMILES NS(=O)(=O)c1ccc(-c2coc(=O)n2-c2ccc(C(=O)NCCCCCCNC(=O)c3ccc(-c4c5nc(c(-c6ccc(S(=O)(=O)[O-])cc6)c6ccc([nH]6)c(-c6ccc(S(=O)(=O)[O-])cc6)c6nc(c(-c7ccc(S(=O)(=O)[O-])cc7)c7ccc4[nH]7)C=C6)C=C5)cc3)cc2)cc1
REMARK SMILES IDX 24 1 23 2 22 3 21 4 19 5 20 6 18 8 15 9 16 10 92 11 17 12
REMARK SMILES IDX 91 13 14 14 9 15 10 16 11 17 12 18 13 19 8 20 5 21 6 22
REMARK SMILES IDX 94 23 7 24 93 25 2 26 3 27 4 28 1 29 25 32 26 33 27 34 28 35
REMARK SMILES IDX 29 36 30 38 31 39 32 40 90 41 33 42 89 43 34 44 35 45 36 46
REMARK SMILES IDX 83 47 37 48 88 49 82 50 84 51 38 52 87 53 81 54 80 55 39 57
REMARK SMILES IDX 69 58 50 59 68 60 51 61 54 62 67 63 85 64 52 65 53 66 66 68
REMARK SMILES IDX 86 69 55 70 40 71 41 72 49 73 42 74 48 75 43 76 44 77 45 78
REMARK SMILES IDX 46 79 47 80 70 81 71 82 79 83 72 84 78 85 73 86 74 87 75 88
REMARK SMILES IDX 76 89 77 90 56 91 57 92 65 93 58 94 64 95 59 96 60 97 61 98
REMARK SMILES IDX 62 99 63 100
REMARK H PARENT 21 7 1 30 1 31 28 37 84 56 54 67
REMARK Flexibility Score: inf
ROOT
ATOM      1  C   UNL A   1      31.254  28.832  24.987  1.00  0.00     0.002 C 
ENDROOT
BRANCH   1   2
ATOM      2  C   UNL A   1      31.268  27.299  25.073  1.00  0.00     0.021 C 
BRANCH   2   3
ATOM      3  C   UNL A   1      31.017  26.767  26.485  1.00  0.00     0.116 C 
BRANCH   3   4
ATOM      4  N   UNL A   1      30.435  25.439  26.428  1.00  0.00    -0.352 N 
ATOM      5  C   UNL A   1      30.967  24.179  26.337  1.00  0.00     0.251 C 
ATOM      6  O   UNL A   1      30.172  23.236  26.333  1.00  0.00    -0.269 OA
ATOM      7  H   UNL A   1      29.452  25.443  26.463  1.00  0.00     0.163 HD
BRANCH   5   8
ATOM      8  C   UNL A   1      32.431  23.891  26.332  1.00  0.00     0.039 A 
ATOM      9  C   UNL A   1      35.139  23.183  26.030  1.00  0.00     0.053 A 
ATOM     10  C   UNL A   1      34.504  23.925  25.035  1.00  0.00     0.028 A 
ATOM     11  C   UNL A   1      34.453  22.886  27.210  1.00  0.00     0.028 A 
ATOM     12  C   UNL A   1      33.148  24.244  25.174  1.00  0.00     0.016 A 
ATOM     13  C   UNL A   1      33.130  23.298  27.384  1.00  0.00     0.016 A 
BRANCH   9  14
ATOM     14  N   UNL A   1      36.446  22.697  25.843  1.00  0.00    -0.242 N 
ATOM     15  C   UNL A   1      36.841  21.415  25.580  1.00  0.00     0.095 A 
ATOM     16  C   UNL A   1      38.168  21.427  25.629  1.00  0.00     0.228 A 
ATOM     17  O   UNL A   1      38.723  22.677  25.901  1.00  0.00    -0.415 OA
ATOM     18  C   UNL A   1      37.586  23.481  26.001  1.00  0.00     0.424 A 
ATOM     19  O   UNL A   1      37.647  24.685  26.208  1.00  0.00    -0.223 OA
BRANCH  15  20
ATOM     20  C   UNL A   1      35.972  20.330  25.126  1.00  0.00     0.002 A 
ATOM     21  C   UNL A   1      34.364  18.209  24.237  1.00  0.00     0.082 A 
ATOM     22  C   UNL A   1      35.711  17.982  24.510  1.00  0.00     0.022 A 
ATOM     23  C   UNL A   1      33.803  19.474  24.431  1.00  0.00     0.022 A 
ATOM     24  C   UNL A   1      36.505  19.038  24.959  1.00  0.00     0.012 A 
ATOM     25  C   UNL A   1      34.608  20.532  24.874  1.00  0.00     0.012 A 
BRANCH  21  26
ATOM     26  S   UNL A   1      33.359  16.886  23.632  1.00  0.00     0.238 S 
ATOM     27  O   UNL A   1      32.569  16.373  24.736  1.00  0.00    -0.207 OA
ATOM     28  O   UNL A   1      34.141  16.043  22.772  1.00  0.00    -0.207 OA
BRANCH  26  29
ATOM     29  N   UNL A   1      32.265  17.659  22.611  1.00  0.00    -0.225 NA
ATOM     30  H   UNL A   1      31.835  18.442  23.104  1.00  0.00     0.137 HD
ATOM     31  H   UNL A   1      31.543  16.998  22.324  1.00  0.00     0.137 HD
ENDBRANCH  26  29
ENDBRANCH  21  26
ENDBRANCH  15  20
ENDBRANCH   9  14
ENDBRANCH   5   8
ENDBRANCH   3   4
ENDBRANCH   2   3
ENDBRANCH   1   2
BRANCH   1  32
ATOM     32  C   UNL A   1      32.633  29.510  25.003  1.00  0.00     0.002 C 
BRANCH  32  33
ATOM     33  C   UNL A   1      33.741  28.766  25.764  1.00  0.00     0.021 C 
BRANCH  33  34
ATOM     34  C   UNL A   1      33.792  29.102  27.249  1.00  0.00     0.116 C 
BRANCH  34  35
ATOM     35  N   UNL A   1      33.642  30.536  27.485  1.00  0.00    -0.352 N 
ATOM     36  C   UNL A   1      34.515  31.407  28.101  1.00  0.00     0.251 C 
ATOM     37  H   UNL A   1      32.803  30.935  27.159  1.00  0.00     0.163 HD
ATOM     38  O   UNL A   1      34.112  32.475  28.550  1.00  0.00    -0.269 OA
BRANCH  36  39
ATOM     39  C   UNL A   1      35.935  31.033  28.216  1.00  0.00     0.039 A 
ATOM     40  C   UNL A   1      36.842  31.847  28.900  1.00  0.00     0.014 A 
ATOM     41  C   UNL A   1      36.346  29.831  27.648  1.00  0.00     0.014 A 
ATOM     42  C   UNL A   1      38.147  31.396  29.085  1.00  0.00     0.010 A 
ATOM     43  C   UNL A   1      37.589  29.328  27.945  1.00  0.00     0.010 A 
ATOM     44  C   UNL A   1      38.510  30.121  28.625  1.00  0.00    -0.014 A 
BRANCH  44  45
ATOM     45  C   UNL A   1      39.819  29.551  28.940  1.00  0.00     0.031 A 
ATOM     46  C   UNL A   1      40.097  29.372  30.390  1.00  0.00     0.074 A 
ATOM     47  C   UNL A   1      40.625  28.997  28.008  1.00  0.00     0.049 A 
ATOM     48  N   UNL A   1      40.922  30.039  31.125  1.00  0.00    -0.248 NA
ATOM     49  C   UNL A   1      39.262  28.423  31.145  1.00  0.00     0.031 C 
ATOM     50  C   UNL A   1      40.346  28.811  26.577  1.00  0.00     0.029 A 
ATOM     51  N   UNL A   1      41.823  28.367  28.163  1.00  0.00    -0.354 N 
ATOM     52  C   UNL A   1      40.888  29.437  32.382  1.00  0.00     0.074 A 
ATOM     53  C   UNL A   1      39.717  28.597  32.389  1.00  0.00     0.031 C 
ATOM     54  C   UNL A   1      41.214  27.918  26.056  1.00  0.00     0.029 A 
ATOM     55  C   UNL A   1      42.226  27.629  27.056  1.00  0.00     0.049 A 
ATOM     56  H   UNL A   1      42.358  28.429  28.988  1.00  0.00     0.167 HD
ATOM     57  C   UNL A   1      41.973  29.460  33.207  1.00  0.00     0.031 A 
ATOM     58  C   UNL A   1      43.323  26.845  26.946  1.00  0.00     0.031 A 
ATOM     59  C   UNL A   1      42.995  30.338  32.696  1.00  0.00     0.049 A 
ATOM     60  C   UNL A   1      44.288  27.301  27.967  1.00  0.00     0.074 A 
ATOM     61  C   UNL A   1      43.170  31.695  32.548  1.00  0.00     0.029 A 
ATOM     62  N   UNL A   1      43.915  29.714  31.888  1.00  0.00    -0.354 N 
ATOM     63  N   UNL A   1      44.849  28.478  27.937  1.00  0.00    -0.248 NA
ATOM     64  C   UNL A   1      44.387  26.598  29.239  1.00  0.00     0.031 C 
ATOM     65  C   UNL A   1      44.021  31.850  31.415  1.00  0.00     0.029 A 
ATOM     66  C   UNL A   1      44.369  30.587  30.936  1.00  0.00     0.049 A 
ATOM     67  H   UNL A   1      44.205  28.779  31.982  1.00  0.00     0.167 HD
ATOM     68  C   UNL A   1      44.972  28.837  29.267  1.00  0.00     0.074 A 
ATOM     69  C   UNL A   1      44.844  27.589  30.009  1.00  0.00     0.031 C 
ATOM     70  C   UNL A   1      44.863  30.142  29.647  1.00  0.00     0.031 A 
BRANCH  57  71
ATOM     71  C   UNL A   1      42.345  28.362  34.186  1.00  0.00    -0.014 A 
ATOM     72  C   UNL A   1      41.983  28.524  35.542  1.00  0.00     0.010 A 
ATOM     73  C   UNL A   1      43.282  27.349  33.900  1.00  0.00     0.010 A 
ATOM     74  C   UNL A   1      42.597  27.783  36.561  1.00  0.00     0.020 A 
ATOM     75  C   UNL A   1      43.871  26.577  34.905  1.00  0.00     0.020 A 
ATOM     76  C   UNL A   1      43.555  26.827  36.233  1.00  0.00     0.054 A 
BRANCH  76  77
ATOM     77  S   UNL A   1      44.445  25.969  37.556  1.00  0.00     0.124 S 
ATOM     78  O   UNL A   1      45.766  26.581  37.475  1.00  0.00    -0.237 OA
ATOM     79  O   UNL A   1      43.655  26.314  38.734  1.00  0.00    -0.237 OA
ATOM     80  O   UNL A   1      44.378  24.565  37.156  1.00  0.00    -0.744 OA
ENDBRANCH  76  77
ENDBRANCH  57  71
BRANCH  58  81
ATOM     81  C   UNL A   1      43.548  25.642  26.119  1.00  0.00    -0.014 A 
ATOM     82  C   UNL A   1      44.807  25.379  25.552  1.00  0.00     0.010 A 
ATOM     83  C   UNL A   1      42.595  24.604  26.130  1.00  0.00     0.010 A 
ATOM     84  C   UNL A   1      45.131  24.097  25.082  1.00  0.00     0.020 A 
ATOM     85  C   UNL A   1      42.911  23.322  25.662  1.00  0.00     0.020 A 
ATOM     86  C   UNL A   1      44.189  23.069  25.165  1.00  0.00     0.054 A 
BRANCH  86  87
ATOM     87  S   UNL A   1      44.690  21.372  24.745  1.00  0.00     0.124 S 
ATOM     88  O   UNL A   1      46.021  21.285  25.338  1.00  0.00    -0.237 OA
ATOM     89  O   UNL A   1      43.656  20.567  25.390  1.00  0.00    -0.237 OA
ATOM     90  O   UNL A   1      44.659  21.356  23.284  1.00  0.00    -0.744 OA
ENDBRANCH  86  87
ENDBRANCH  58  81
BRANCH  70  91
ATOM     91  C   UNL A   1      45.090  31.197  28.595  1.00  0.00    -0.014 A 
ATOM     92  C   UNL A   1      44.058  31.893  27.939  1.00  0.00     0.010 A 
ATOM     93  C   UNL A   1      46.423  31.558  28.334  1.00  0.00     0.010 A 
ATOM     94  C   UNL A   1      44.359  32.913  27.023  1.00  0.00     0.020 A 
ATOM     95  C   UNL A   1      46.727  32.583  27.438  1.00  0.00     0.020 A 
ATOM     96  C   UNL A   1      45.694  33.250  26.778  1.00  0.00     0.054 A 
BRANCH  96  97
ATOM     97  S   UNL A   1      46.081  34.594  25.623  1.00  0.00     0.124 S 
ATOM     98  O   UNL A   1      45.662  35.780  26.364  1.00  0.00    -0.237 OA
ATOM     99  O   UNL A   1      47.522  34.449  25.428  1.00  0.00    -0.237 OA
ATOM    100  O   UNL A   1      45.272  34.284  24.444  1.00  0.00    -0.744 OA
ENDBRANCH  96  97
ENDBRANCH  70  91
ENDBRANCH  44  45
ENDBRANCH  36  39
ENDBRANCH  34  35
ENDBRANCH  33  34
ENDBRANCH  32  33
ENDBRANCH   1  32
TORSDOF 20
ENDMDL
MODEL 2
REMARK VINA RESULT:     -12.6      2.048      7.140
REMARK SMILES NS(=O)(=O)c1ccc(-c2coc(=O)n2-c2ccc(C(=O)NCCCCCCNC(=O)c3ccc(-c4c5nc(c(-c6ccc(S(=O)(=O)[O-])cc6)c6ccc([nH]6)c(-c6ccc(S(=O)(=O)[O-])cc6)c6nc(c(-c7ccc(S(=O)(=O)[O-])cc7)c7ccc4[nH]7)C=C6)C=C5)cc3)cc2)cc1
REMARK SMILES IDX 24 1 23 2 22 3 21 4 19 5 20 6 18 8 15 9 16 10 92 11 17 12
REMARK SMILES IDX 91 13 14 14 9 15 10 16 11 17 12 18 13 19 8 20 5 21 6 22
REMARK SMILES IDX 94 23 7 24 93 25 2 26 3 27 4 28 1 29 25 32 26 33 27 34 28 35
REMARK SMILES IDX 29 36 30 38 31 39 32 40 90 41 33 42 89 43 34 44 35 45 36 46
REMARK SMILES IDX 83 47 37 48 88 49 82 50 84 51 38 52 87 53 81 54 80 55 39 57
REMARK SMILES IDX 69 58 50 59 68 60 51 61 54 62 67 63 85 64 52 65 53 66 66 68
REMARK SMILES IDX 86 69 55 70 40 71 41 72 49 73 42 74 48 75 43 76 44 77 45 78
REMARK SMILES IDX 46 79 47 80 70 81 71 82 79 83 72 84 78 85 73 86 74 87 75 88
REMARK SMILES IDX 76 89 77 90 56 91 57 92 65 93 58 94 64 95 59 96 60 97 61 98
REMARK SMILES IDX 62 99 63 100
REMARK H PARENT 21 7 1 30 1 31 28 37 84 56 54 67
REMARK Flexibility Score: inf
ROOT
ATOM      1  C   UNL A   1      31.743  28.608  27.332  1.00  0.00     0.002 C 
ENDROOT
BRANCH   1   2
ATOM      2  C   UNL A   1      31.558  27.822  26.027  1.00  0.00     0.021 C 
BRANCH   2   3
ATOM      3  C   UNL A   1      30.851  26.479  26.221  1.00  0.00     0.116 C 
BRANCH   3   4
ATOM      4  N   UNL A   1      30.688  25.806  24.946  1.00  0.00    -0.352 N 
ATOM      5  C   UNL A   1      31.502  25.001  24.192  1.00  0.00     0.251 C 
ATOM      6  O   UNL A   1      31.035  24.564  23.138  1.00  0.00    -0.269 OA
ATOM      7  H   UNL A   1      29.806  25.958  24.536  1.00  0.00     0.163 HD
BRANCH   5   8
ATOM      8  C   UNL A   1      32.864  24.563  24.616  1.00  0.00     0.039 A 
ATOM      9  C   UNL A   1      35.402  23.486  25.186  1.00  0.00     0.053 A 
ATOM     10  C   UNL A   1      35.100  23.892  23.887  1.00  0.00     0.028 A 
ATOM     11  C   UNL A   1      34.478  23.711  26.209  1.00  0.00     0.028 A 
ATOM     12  C   UNL A   1      33.825  24.393  23.602  1.00  0.00     0.016 A 
ATOM     13  C   UNL A   1      33.246  24.308  25.933  1.00  0.00     0.016 A 
BRANCH   9  14
ATOM     14  N   UNL A   1      36.607  22.818  25.471  1.00  0.00    -0.242 N 
ATOM     15  C   UNL A   1      36.816  21.474  25.605  1.00  0.00     0.095 A 
ATOM     16  C   UNL A   1      38.073  21.340  26.011  1.00  0.00     0.228 A 
ATOM     17  O   UNL A   1      38.763  22.544  26.151  1.00  0.00    -0.415 OA
ATOM     18  C   UNL A   1      37.798  23.476  25.765  1.00  0.00     0.424 A 
ATOM     19  O   UNL A   1      38.024  24.677  25.719  1.00  0.00    -0.223 OA
BRANCH  15  20
ATOM     20  C   UNL A   1      35.899  20.420  25.171  1.00  0.00     0.002 A 
ATOM     21  C   UNL A   1      34.197  18.360  24.312  1.00  0.00     0.082 A 
ATOM     22  C   UNL A   1      35.568  18.127  24.399  1.00  0.00     0.022 A 
ATOM     23  C   UNL A   1      33.662  19.599  24.677  1.00  0.00     0.022 A 
ATOM     24  C   UNL A   1      36.410  19.152  24.833  1.00  0.00     0.012 A 
ATOM     25  C   UNL A   1      34.514  20.626  25.105  1.00  0.00     0.012 A 
BRANCH  21  26
ATOM     26  S   UNL A   1      33.127  17.081  23.727  1.00  0.00     0.238 S 
ATOM     27  O   UNL A   1      33.757  15.802  23.999  1.00  0.00    -0.207 OA
ATOM     28  O   UNL A   1      32.612  17.439  22.436  1.00  0.00    -0.207 OA
BRANCH  26  29
ATOM     29  N   UNL A   1      31.806  17.167  24.766  1.00  0.00    -0.225 NA
ATOM     30  H   UNL A   1      31.144  17.862  24.419  1.00  0.00     0.137 HD
ATOM     31  H   UNL A   1      32.123  17.436  25.698  1.00  0.00     0.137 HD
ENDBRANCH  26  29
ENDBRANCH  21  26
ENDBRANCH  15  20
ENDBRANCH   9  14
ENDBRANCH   5   8
ENDBRANCH   3   4
ENDBRANCH   2   3
ENDBRANCH   1   2
BRANCH   1  32
ATOM     32  C   UNL A   1      32.655  29.843  27.239  1.00  0.00     0.002 C 
BRANCH  32  33
ATOM     33  C   UNL A   1      34.021  29.624  26.573  1.00  0.00     0.021 C 
BRANCH  33  34
ATOM     34  C   UNL A   1      35.080  29.075  27.520  1.00  0.00     0.116 C 
BRANCH  34  35
ATOM     35  N   UNL A   1      35.299  29.963  28.660  1.00  0.00    -0.352 N 
ATOM     36  C   UNL A   1      36.338  29.966  29.566  1.00  0.00     0.251 C 
ATOM     37  H   UNL A   1      34.611  30.653  28.800  1.00  0.00     0.163 HD
ATOM     38  O   UNL A   1      36.206  30.510  30.658  1.00  0.00    -0.269 OA
BRANCH  36  39
ATOM     39  C   UNL A   1      37.603  29.304  29.206  1.00  0.00     0.039 A 
ATOM     40  C   UNL A   1      38.277  29.631  28.025  1.00  0.00     0.014 A 
ATOM     41  C   UNL A   1      38.125  28.361  30.086  1.00  0.00     0.014 A 
ATOM     42  C   UNL A   1      39.528  29.066  27.784  1.00  0.00     0.010 A 
ATOM     43  C   UNL A   1      39.412  27.911  29.915  1.00  0.00     0.010 A 
ATOM     44  C   UNL A   1      40.103  28.223  28.747  1.00  0.00    -0.014 A 
BRANCH  44  45
ATOM     45  C   UNL A   1      41.476  27.742  28.602  1.00  0.00     0.031 A 
ATOM     46  C   UNL A   1      41.606  26.353  28.086  1.00  0.00     0.074 A 
ATOM     47  C   UNL A   1      42.554  28.551  28.688  1.00  0.00     0.049 A 
ATOM     48  N   UNL A   1      41.983  25.301  28.732  1.00  0.00    -0.248 NA
ATOM     49  C   UNL A   1      41.135  26.073  26.718  1.00  0.00     0.031 C 
ATOM     50  C   UNL A   1      42.568  30.008  28.876  1.00  0.00     0.029 A 
ATOM     51  N   UNL A   1      43.872  28.261  28.502  1.00  0.00    -0.354 N 
ATOM     52  C   UNL A   1      42.029  24.271  27.794  1.00  0.00     0.074 A 
ATOM     53  C   UNL A   1      41.310  24.751  26.640  1.00  0.00     0.031 C 
ATOM     54  C   UNL A   1      43.785  30.497  28.555  1.00  0.00     0.029 A 
ATOM     55  C   UNL A   1      44.683  29.378  28.339  1.00  0.00     0.049 A 
ATOM     56  H   UNL A   1      44.220  27.340  28.485  1.00  0.00     0.167 HD
ATOM     57  C   UNL A   1      42.891  23.224  27.933  1.00  0.00     0.031 A 
ATOM     58  C   UNL A   1      46.008  29.399  28.065  1.00  0.00     0.031 A 
ATOM     59  C   UNL A   1      43.527  23.245  29.226  1.00  0.00     0.049 A 
ATOM     60  C   UNL A   1      46.559  28.093  28.484  1.00  0.00     0.074 A 
ATOM     61  C   UNL A   1      43.154  23.019  30.532  1.00  0.00     0.029 A 
ATOM     62  N   UNL A   1      44.720  23.926  29.251  1.00  0.00    -0.354 N 
ATOM     63  N   UNL A   1      46.593  27.705  29.729  1.00  0.00    -0.248 NA
ATOM     64  C   UNL A   1      46.764  27.041  27.499  1.00  0.00     0.031 C 
ATOM     65  C   UNL A   1      44.012  23.838  31.323  1.00  0.00     0.029 A 
ATOM     66  C   UNL A   1      44.903  24.503  30.480  1.00  0.00     0.049 A 
ATOM     67  H   UNL A   1      45.349  23.990  28.498  1.00  0.00     0.167 HD
ATOM     68  C   UNL A   1      46.382  26.340  29.670  1.00  0.00     0.074 A 
ATOM     69  C   UNL A   1      46.673  25.970  28.292  1.00  0.00     0.031 C 
ATOM     70  C   UNL A   1      45.702  25.699  30.664  1.00  0.00     0.031 A 
BRANCH  57  71
ATOM     71  C   UNL A   1      43.541  22.473  26.786  1.00  0.00    -0.014 A 
ATOM     72  C   UNL A   1      42.861  21.360  26.244  1.00  0.00     0.010 A 
ATOM     73  C   UNL A   1      44.898  22.618  26.433  1.00  0.00     0.010 A 
ATOM     74  C   UNL A   1      43.525  20.395  25.474  1.00  0.00     0.020 A 
ATOM     75  C   UNL A   1      45.560  21.683  25.632  1.00  0.00     0.020 A 
ATOM     76  C   UNL A   1      44.880  20.556  25.192  1.00  0.00     0.054 A 
BRANCH  76  77
ATOM     77  S   UNL A   1      45.767  19.244  24.315  1.00  0.00     0.124 S 
ATOM     78  O   UNL A   1      47.102  19.819  24.185  1.00  0.00    -0.237 OA
ATOM     79  O   UNL A   1      45.647  18.119  25.237  1.00  0.00    -0.237 OA
ATOM     80  O   UNL A   1      45.020  19.103  23.068  1.00  0.00    -0.744 OA
ENDBRANCH  76  77
ENDBRANCH  57  71
BRANCH  58  81
ATOM     81  C   UNL A   1      46.810  30.407  27.342  1.00  0.00    -0.014 A 
ATOM     82  C   UNL A   1      46.197  31.516  26.734  1.00  0.00     0.010 A 
ATOM     83  C   UNL A   1      48.210  30.425  27.501  1.00  0.00     0.010 A 
ATOM     84  C   UNL A   1      46.951  32.643  26.367  1.00  0.00     0.020 A 
ATOM     85  C   UNL A   1      48.968  31.546  27.137  1.00  0.00     0.020 A 
ATOM     86  C   UNL A   1      48.329  32.660  26.597  1.00  0.00     0.054 A 
BRANCH  86  87
ATOM     87  S   UNL A   1      49.255  34.198  26.309  1.00  0.00     0.124 S 
ATOM     88  O   UNL A   1      48.323  34.975  25.496  1.00  0.00    -0.237 OA
ATOM     89  O   UNL A   1      49.477  34.694  27.664  1.00  0.00    -0.237 OA
ATOM     90  O   UNL A   1      50.459  33.749  25.612  1.00  0.00    -0.744 OA
ENDBRANCH  86  87
ENDBRANCH  58  81
BRANCH  70  91
ATOM     91  C   UNL A   1      45.620  26.381  32.005  1.00  0.00    -0.014 A 
ATOM     92  C   UNL A   1      44.665  27.361  32.336  1.00  0.00     0.010 A 
ATOM     93  C   UNL A   1      46.502  25.932  33.003  1.00  0.00     0.010 A 
ATOM     94  C   UNL A   1      44.614  27.894  33.633  1.00  0.00     0.020 A 
ATOM     95  C   UNL A   1      46.443  26.446  34.298  1.00  0.00     0.020 A 
ATOM     96  C   UNL A   1      45.506  27.433  34.606  1.00  0.00     0.054 A 
BRANCH  96  97
ATOM     97  S   UNL A   1      45.413  28.094  36.292  1.00  0.00     0.124 S 
ATOM     98  O   UNL A   1      44.148  27.552  36.777  1.00  0.00    -0.237 OA
ATOM     99  O   UNL A   1      46.615  27.549  36.922  1.00  0.00    -0.237 OA
ATOM    100  O   UNL A   1      45.431  29.544  36.100  1.00  0.00    -0.744 OA
ENDBRANCH  96  97
ENDBRANCH  70  91
ENDBRANCH  44  45
ENDBRANCH  36  39
ENDBRANCH  34  35
ENDBRANCH  33  34
ENDBRANCH  32  33
ENDBRANCH   1  32
TORSDOF 20
ENDMDL
MODEL 3
REMARK VINA RESULT:     -12.5      4.749     10.675
REMARK SMILES NS(=O)(=O)c1ccc(-c2coc(=O)n2-c2ccc(C(=O)NCCCCCCNC(=O)c3ccc(-c4c5nc(c(-c6ccc(S(=O)(=O)[O-])cc6)c6ccc([nH]6)c(-c6ccc(S(=O)(=O)[O-])cc6)c6nc(c(-c7ccc(S(=O)(=O)[O-])cc7)c7ccc4[nH]7)C=C6)C=C5)cc3)cc2)cc1
REMARK SMILES IDX 24 1 23 2 22 3 21 4 19 5 20 6 18 8 15 9 16 10 92 11 17 12
REMARK SMILES IDX 91 13 14 14 9 15 10 16 11 17 12 18 13 19 8 20 5 21 6 22
REMARK SMILES IDX 94 23 7 24 93 25 2 26 3 27 4 28 1 29 25 32 26 33 27 34 28 35
REMARK SMILES IDX 29 36 30 38 31 39 32 40 90 41 33 42 89 43 34 44 35 45 36 46
REMARK SMILES IDX 83 47 37 48 88 49 82 50 84 51 38 52 87 53 81 54 80 55 39 57
REMARK SMILES IDX 69 58 50 59 68 60 51 61 54 62 67 63 85 64 52 65 53 66 66 68
REMARK SMILES IDX 86 69 55 70 40 71 41 72 49 73 42 74 48 75 43 76 44 77 45 78
REMARK SMILES IDX 46 79 47 80 70 81 71 82 79 83 72 84 78 85 73 86 74 87 75 88
REMARK SMILES IDX 76 89 77 90 56 91 57 92 65 93 58 94 64 95 59 96 60 97 61 98
REMARK SMILES IDX 62 99 63 100
REMARK H PARENT 21 7 1 30 1 31 28 37 84 56 54 67
REMARK Flexibility Score: inf
ROOT
ATOM      1  C   UNL A   1      42.041  24.681  28.188  1.00  0.00     0.002 C 
ENDROOT
BRANCH   1   2
ATOM      2  C   UNL A   1      40.787  25.430  28.661  1.00  0.00     0.021 C 
BRANCH   2   3
ATOM      3  C   UNL A   1      39.786  25.709  27.539  1.00  0.00     0.116 C 
BRANCH   3   4
ATOM      4  N   UNL A   1      39.653  27.137  27.324  1.00  0.00    -0.352 N 
ATOM      5  C   UNL A   1      40.516  28.111  26.894  1.00  0.00     0.251 C 
ATOM      6  O   UNL A   1      40.066  29.255  26.799  1.00  0.00    -0.269 OA
ATOM      7  H   UNL A   1      38.753  27.480  27.529  1.00  0.00     0.163 HD
BRANCH   5   8
ATOM      8  C   UNL A   1      41.919  27.848  26.457  1.00  0.00     0.039 A 
ATOM      9  C   UNL A   1      44.450  27.052  25.515  1.00  0.00     0.053 A 
ATOM     10  C   UNL A   1      43.376  27.133  24.629  1.00  0.00     0.028 A 
ATOM     11  C   UNL A   1      44.281  27.464  26.839  1.00  0.00     0.028 A 
ATOM     12  C   UNL A   1      42.113  27.494  25.109  1.00  0.00     0.016 A 
ATOM     13  C   UNL A   1      43.039  27.922  27.286  1.00  0.00     0.016 A 
BRANCH   9  14
ATOM     14  N   UNL A   1      45.688  26.527  25.102  1.00  0.00    -0.242 N 
ATOM     15  C   UNL A   1      46.110  25.227  25.148  1.00  0.00     0.095 A 
ATOM     16  C   UNL A   1      47.387  25.248  24.785  1.00  0.00     0.228 A 
ATOM     17  O   UNL A   1      47.875  26.515  24.470  1.00  0.00    -0.415 OA
ATOM     18  C   UNL A   1      46.745  27.313  24.653  1.00  0.00     0.424 A 
ATOM     19  O   UNL A   1      46.748  28.518  24.443  1.00  0.00    -0.223 OA
BRANCH  15  20
ATOM     20  C   UNL A   1      45.253  24.057  25.342  1.00  0.00     0.002 A 
ATOM     21  C   UNL A   1      43.669  21.775  25.741  1.00  0.00     0.082 A 
ATOM     22  C   UNL A   1      44.915  21.863  26.358  1.00  0.00     0.022 A 
ATOM     23  C   UNL A   1      43.192  22.826  24.951  1.00  0.00     0.022 A 
ATOM     24  C   UNL A   1      45.697  23.003  26.163  1.00  0.00     0.012 A 
ATOM     25  C   UNL A   1      43.985  23.964  24.753  1.00  0.00     0.012 A 
BRANCH  21  26
ATOM     26  S   UNL A   1      42.689  20.319  25.951  1.00  0.00     0.238 S 
ATOM     27  O   UNL A   1      43.429  19.191  25.416  1.00  0.00    -0.207 OA
ATOM     28  O   UNL A   1      41.327  20.602  25.595  1.00  0.00    -0.207 OA
BRANCH  26  29
ATOM     29  N   UNL A   1      42.668  20.098  27.620  1.00  0.00    -0.225 NA
ATOM     30  H   UNL A   1      43.214  19.270  27.861  1.00  0.00     0.137 HD
ATOM     31  H   UNL A   1      41.706  19.976  27.935  1.00  0.00     0.137 HD
ENDBRANCH  26  29
ENDBRANCH  21  26
ENDBRANCH  15  20
ENDBRANCH   9  14
ENDBRANCH   5   8
ENDBRANCH   3   4
ENDBRANCH   2   3
ENDBRANCH   1   2
BRANCH   1  32
ATOM     32  C   UNL A   1      42.235  23.275  28.777  1.00  0.00     0.002 C 
BRANCH  32  33
ATOM     33  C   UNL A   1      43.526  23.051  29.578  1.00  0.00     0.021 C 
BRANCH  33  34
ATOM     34  C   UNL A   1      44.506  24.213  29.494  1.00  0.00     0.116 C 
BRANCH  34  35
ATOM     35  N   UNL A   1      45.104  24.512  30.794  1.00  0.00    -0.352 N 
ATOM     36  C   UNL A   1      45.226  25.729  31.430  1.00  0.00     0.251 C 
ATOM     37  H   UNL A   1      45.469  23.739  31.282  1.00  0.00     0.163 HD
ATOM     38  O   UNL A   1      46.057  25.883  32.320  1.00  0.00    -0.269 OA
BRANCH  36  39
ATOM     39  C   UNL A   1      44.349  26.839  31.023  1.00  0.00     0.039 A 
ATOM     40  C   UNL A   1      42.964  26.764  31.196  1.00  0.00     0.014 A 
ATOM     41  C   UNL A   1      44.938  27.979  30.485  1.00  0.00     0.014 A 
ATOM     42  C   UNL A   1      42.186  27.884  30.907  1.00  0.00     0.010 A 
ATOM     43  C   UNL A   1      44.191  29.122  30.330  1.00  0.00     0.010 A 
ATOM     44  C   UNL A   1      42.810  29.071  30.496  1.00  0.00    -0.014 A 
BRANCH  44  45
ATOM     45  C   UNL A   1      42.045  30.308  30.338  1.00  0.00     0.031 A 
ATOM     46  C   UNL A   1      42.854  31.510  30.002  1.00  0.00     0.074 A 
ATOM     47  C   UNL A   1      40.697  30.335  30.256  1.00  0.00     0.049 A 
ATOM     48  N   UNL A   1      43.118  32.523  30.758  1.00  0.00    -0.248 NA
ATOM     49  C   UNL A   1      43.564  31.531  28.712  1.00  0.00     0.031 C 
ATOM     50  C   UNL A   1      39.776  29.191  30.250  1.00  0.00     0.029 A 
ATOM     51  N   UNL A   1      39.865  31.391  30.035  1.00  0.00    -0.354 N 
ATOM     52  C   UNL A   1      43.826  33.420  29.962  1.00  0.00     0.074 A 
ATOM     53  C   UNL A   1      44.241  32.679  28.798  1.00  0.00     0.031 C 
ATOM     54  C   UNL A   1      38.565  29.584  29.799  1.00  0.00     0.029 A 
ATOM     55  C   UNL A   1      38.570  31.030  29.681  1.00  0.00     0.049 A 
ATOM     56  H   UNL A   1      40.155  32.329  30.119  1.00  0.00     0.167 HD
ATOM     57  C   UNL A   1      43.771  34.764  30.189  1.00  0.00     0.031 A 
ATOM     58  C   UNL A   1      37.554  31.853  29.332  1.00  0.00     0.031 A 
ATOM     59  C   UNL A   1      43.098  35.053  31.429  1.00  0.00     0.049 A 
ATOM     60  C   UNL A   1      37.864  33.187  29.887  1.00  0.00     0.074 A 
ATOM     61  C   UNL A   1      43.363  34.911  32.772  1.00  0.00     0.029 A 
ATOM     62  N   UNL A   1      41.745  35.256  31.297  1.00  0.00    -0.354 N 
ATOM     63  N   UNL A   1      37.917  33.427  31.168  1.00  0.00    -0.248 NA
ATOM     64  C   UNL A   1      38.468  34.204  29.038  1.00  0.00     0.031 C 
ATOM     65  C   UNL A   1      42.093  34.746  33.399  1.00  0.00     0.029 A 
ATOM     66  C   UNL A   1      41.096  34.835  32.427  1.00  0.00     0.049 A 
ATOM     67  H   UNL A   1      41.308  35.648  30.507  1.00  0.00     0.167 HD
ATOM     68  C   UNL A   1      38.922  34.368  31.301  1.00  0.00     0.074 A 
ATOM     69  C   UNL A   1      39.092  34.932  29.968  1.00  0.00     0.031 C 
ATOM     70  C   UNL A   1      39.719  34.381  32.407  1.00  0.00     0.031 A 
BRANCH  57  71
ATOM     71  C   UNL A   1      43.862  35.832  29.115  1.00  0.00    -0.014 A 
ATOM     72  C   UNL A   1      44.820  36.859  29.273  1.00  0.00     0.010 A 
ATOM     73  C   UNL A   1      42.866  36.043  28.141  1.00  0.00     0.010 A 
ATOM     74  C   UNL A   1      44.727  38.066  28.567  1.00  0.00     0.020 A 
ATOM     75  C   UNL A   1      42.788  37.226  27.402  1.00  0.00     0.020 A 
ATOM     76  C   UNL A   1      43.695  38.247  27.649  1.00  0.00     0.054 A 
BRANCH  76  77
ATOM     77  S   UNL A   1      43.497  39.855  26.839  1.00  0.00     0.124 S 
ATOM     78  O   UNL A   1      43.692  40.777  27.953  1.00  0.00    -0.237 OA
ATOM     79  O   UNL A   1      44.560  39.832  25.840  1.00  0.00    -0.237 OA
ATOM     80  O   UNL A   1      42.140  39.799  26.301  1.00  0.00    -0.744 OA
ENDBRANCH  76  77
ENDBRANCH  57  71
BRANCH  58  81
ATOM     81  C   UNL A   1      36.403  31.610  28.438  1.00  0.00    -0.014 A 
ATOM     82  C   UNL A   1      36.309  30.425  27.688  1.00  0.00     0.010 A 
ATOM     83  C   UNL A   1      35.255  32.419  28.549  1.00  0.00     0.010 A 
ATOM     84  C   UNL A   1      35.085  30.022  27.130  1.00  0.00     0.020 A 
ATOM     85  C   UNL A   1      34.031  32.024  27.995  1.00  0.00     0.020 A 
ATOM     86  C   UNL A   1      33.947  30.812  27.311  1.00  0.00     0.054 A 
BRANCH  86  87
ATOM     87  S   UNL A   1      32.333  30.179  26.762  1.00  0.00     0.124 S 
ATOM     88  O   UNL A   1      31.457  31.324  26.987  1.00  0.00    -0.237 OA
ATOM     89  O   UNL A   1      32.583  29.839  25.364  1.00  0.00    -0.237 OA
ATOM     90  O   UNL A   1      32.096  29.034  27.641  1.00  0.00    -0.744 OA
ENDBRANCH  86  87
ENDBRANCH  58  81
BRANCH  70  91
ATOM     91  C   UNL A   1      39.199  33.705  33.650  1.00  0.00    -0.014 A 
ATOM     92  C   UNL A   1      39.396  32.344  33.950  1.00  0.00     0.010 A 
ATOM     93  C   UNL A   1      38.561  34.521  34.599  1.00  0.00     0.010 A 
ATOM     94  C   UNL A   1      38.940  31.810  35.164  1.00  0.00     0.020 A 
ATOM     95  C   UNL A   1      38.122  34.000  35.816  1.00  0.00     0.020 A 
ATOM     96  C   UNL A   1      38.304  32.643  36.090  1.00  0.00     0.054 A 
BRANCH  96  97
ATOM     97  S   UNL A   1      37.750  31.962  37.676  1.00  0.00     0.124 S 
ATOM     98  O   UNL A   1      38.864  32.278  38.565  1.00  0.00    -0.237 OA
ATOM     99  O   UNL A   1      36.512  32.697  37.931  1.00  0.00    -0.237 OA
ATOM    100  O   UNL A   1      37.566  30.538  37.399  1.00  0.00    -0.744 OA
ENDBRANCH  96  97
ENDBRANCH  70  91
ENDBRANCH  44  45
ENDBRANCH  36  39
ENDBRANCH  34  35
ENDBRANCH  33  34
ENDBRANCH  32  33
ENDBRANCH   1  32
TORSDOF 20
ENDMDL
