MODEL 1
REMARK VINA RESULT:     -10.1      0.000      0.000
REMARK SMILES O=C(CCCC(=O)Nc1ccccc1F)NCCCCCCNC(=O)c1ccc(-c2c3nc(c(-c4ccc(S(=O)(=O)[O-])cc4)c4ccc([nH]4)c(-c4ccc(S(=O)(=O)[O-])cc4)c4nc(c(-c5ccc(S(=O)(=O)[O-])cc5)c5ccc2[nH]5)C=C4)C=C3)cc1
REMARK SMILES IDX 19 1 18 2 17 3 16 4 1 5 2 6 3 8 4 9 5 10 6 11 7 12 8 13 9 15
REMARK SMILES IDX 10 16 14 17 11 18 13 19 15 20 12 21 20 22 21 23 22 24 23 25
REMARK SMILES IDX 24 26 25 28 26 29 27 30 85 31 28 32 84 33 29 34 30 35 31 36
REMARK SMILES IDX 78 37 32 38 83 39 77 40 79 41 33 42 82 43 76 44 75 45 34 47
REMARK SMILES IDX 64 48 45 49 63 50 46 51 49 52 62 53 80 54 47 55 48 56 61 58
REMARK SMILES IDX 81 59 50 60 35 61 36 62 44 63 37 64 43 65 38 66 39 67 40 68
REMARK SMILES IDX 41 69 42 70 65 71 66 72 74 73 67 74 73 75 68 76 69 77 70 78
REMARK SMILES IDX 71 79 72 80 51 81 52 82 60 83 53 84 59 85 54 86 55 87 56 88
REMARK SMILES IDX 57 89 58 90
REMARK H PARENT 16 7 8 14 23 27 79 46 49 57
REMARK Flexibility Score: inf
ROOT
ATOM      1  C   UNL A   1      31.319  28.010  24.693  1.00  0.00     0.002 C 
ENDROOT
BRANCH   1   2
ATOM      2  C   UNL A   1      30.648  28.134  23.319  1.00  0.00     0.021 C 
BRANCH   2   3
ATOM      3  C   UNL A   1      31.155  27.163  22.251  1.00  0.00     0.116 C 
BRANCH   3   4
ATOM      4  N   UNL A   1      31.863  26.030  22.807  1.00  0.00    -0.356 N 
ATOM      5  O   UNL A   1      33.748  26.332  21.557  1.00  0.00    -0.275 OA
ATOM      6  C   UNL A   1      33.143  25.713  22.429  1.00  0.00     0.220 C 
ATOM      7  H   UNL A   1      31.411  25.468  23.477  1.00  0.00     0.163 HD
BRANCH   6   8
ATOM      8  C   UNL A   1      33.738  24.470  23.070  1.00  0.00     0.100 C 
BRANCH   8   9
ATOM      9  C   UNL A   1      33.506  23.100  22.429  1.00  0.00     0.020 C 
BRANCH   9  10
ATOM     10  C   UNL A   1      32.824  21.973  23.197  1.00  0.00     0.101 C 
BRANCH  10  11
ATOM     11  C   UNL A   1      32.665  22.010  24.722  1.00  0.00     0.224 C 
ATOM     12  O   UNL A   1      31.555  22.206  25.225  1.00  0.00    -0.275 OA
ATOM     13  N   UNL A   1      33.659  21.504  25.518  1.00  0.00    -0.324 N 
ATOM     14  H   UNL A   1      33.367  20.836  26.181  1.00  0.00     0.170 HD
BRANCH  13  15
ATOM     15  C   UNL A   1      35.030  21.796  25.527  1.00  0.00     0.077 A 
ATOM     16  C   UNL A   1      35.920  20.798  25.129  1.00  0.00     0.029 A 
ATOM     17  C   UNL A   1      35.542  23.016  25.965  1.00  0.00     0.146 A 
ATOM     18  C   UNL A   1      37.285  21.085  25.004  1.00  0.00     0.002 A 
ATOM     19  C   UNL A   1      36.904  23.299  25.872  1.00  0.00     0.041 A 
ATOM     20  F   UNL A   1      34.724  23.947  26.479  1.00  0.00    -0.205 F 
ATOM     21  C   UNL A   1      37.773  22.345  25.349  1.00  0.00     0.003 A 
ENDBRANCH  13  15
ENDBRANCH  10  11
ENDBRANCH   9  10
ENDBRANCH   8   9
ENDBRANCH   6   8
ENDBRANCH   3   4
ENDBRANCH   2   3
ENDBRANCH   1   2
BRANCH   1  22
ATOM     22  C   UNL A   1      32.634  28.777  24.846  1.00  0.00     0.002 C 
BRANCH  22  23
ATOM     23  C   UNL A   1      33.624  28.170  25.840  1.00  0.00     0.021 C 
BRANCH  23  24
ATOM     24  C   UNL A   1      33.390  28.556  27.298  1.00  0.00     0.116 C 
BRANCH  24  25
ATOM     25  N   UNL A   1      33.408  29.996  27.499  1.00  0.00    -0.352 N 
ATOM     26  C   UNL A   1      34.393  30.783  28.050  1.00  0.00     0.251 C 
ATOM     27  H   UNL A   1      32.602  30.477  27.199  1.00  0.00     0.163 HD
ATOM     28  O   UNL A   1      34.168  31.957  28.314  1.00  0.00    -0.269 OA
BRANCH  26  29
ATOM     29  C   UNL A   1      35.718  30.192  28.346  1.00  0.00     0.039 A 
ATOM     30  C   UNL A   1      36.686  30.164  27.340  1.00  0.00     0.014 A 
ATOM     31  C   UNL A   1      36.008  29.690  29.618  1.00  0.00     0.014 A 
ATOM     32  C   UNL A   1      37.972  29.704  27.633  1.00  0.00     0.010 A 
ATOM     33  C   UNL A   1      37.310  29.299  29.926  1.00  0.00     0.010 A 
ATOM     34  C   UNL A   1      38.307  29.310  28.940  1.00  0.00    -0.014 A 
BRANCH  34  35
ATOM     35  C   UNL A   1      39.704  28.953  29.299  1.00  0.00     0.031 A 
ATOM     36  C   UNL A   1      40.607  29.954  29.963  1.00  0.00     0.074 A 
ATOM     37  C   UNL A   1      40.184  27.740  28.957  1.00  0.00     0.049 A 
ATOM     38  N   UNL A   1      41.866  29.833  30.300  1.00  0.00    -0.248 NA
ATOM     39  C   UNL A   1      40.027  31.271  30.268  1.00  0.00     0.031 C 
ATOM     40  C   UNL A   1      39.426  26.696  28.263  1.00  0.00     0.029 A 
ATOM     41  N   UNL A   1      41.427  27.184  29.134  1.00  0.00    -0.354 N 
ATOM     42  C   UNL A   1      42.230  31.056  30.851  1.00  0.00     0.074 A 
ATOM     43  C   UNL A   1      41.075  31.923  30.748  1.00  0.00     0.031 C 
ATOM     44  C   UNL A   1      40.213  25.622  28.090  1.00  0.00     0.029 A 
ATOM     45  C   UNL A   1      41.542  25.915  28.617  1.00  0.00     0.049 A 
ATOM     46  H   UNL A   1      42.166  27.650  29.588  1.00  0.00     0.167 HD
ATOM     47  C   UNL A   1      43.411  31.420  31.410  1.00  0.00     0.031 A 
ATOM     48  C   UNL A   1      42.599  25.082  28.555  1.00  0.00     0.031 A 
ATOM     49  C   UNL A   1      44.563  30.560  31.491  1.00  0.00     0.049 A 
ATOM     50  C   UNL A   1      43.910  25.513  29.150  1.00  0.00     0.074 A 
ATOM     51  C   UNL A   1      45.790  30.818  32.078  1.00  0.00     0.029 A 
ATOM     52  N   UNL A   1      44.638  29.281  30.959  1.00  0.00    -0.354 N 
ATOM     53  N   UNL A   1      44.212  26.646  29.738  1.00  0.00    -0.248 NA
ATOM     54  C   UNL A   1      45.018  24.552  29.084  1.00  0.00     0.031 C 
ATOM     55  C   UNL A   1      46.626  29.722  31.843  1.00  0.00     0.029 A 
ATOM     56  C   UNL A   1      45.900  28.750  31.172  1.00  0.00     0.049 A 
ATOM     57  H   UNL A   1      43.901  28.817  30.499  1.00  0.00     0.167 HD
ATOM     58  C   UNL A   1      45.543  26.530  30.123  1.00  0.00     0.074 A 
ATOM     59  C   UNL A   1      45.978  25.208  29.722  1.00  0.00     0.031 C 
ATOM     60  C   UNL A   1      46.331  27.439  30.750  1.00  0.00     0.031 A 
BRANCH  47  61
ATOM     61  C   UNL A   1      43.512  32.821  31.958  1.00  0.00    -0.014 A 
ATOM     62  C   UNL A   1      43.178  33.106  33.295  1.00  0.00     0.010 A 
ATOM     63  C   UNL A   1      43.951  33.870  31.129  1.00  0.00     0.010 A 
ATOM     64  C   UNL A   1      43.218  34.419  33.774  1.00  0.00     0.020 A 
ATOM     65  C   UNL A   1      44.026  35.180  31.613  1.00  0.00     0.020 A 
ATOM     66  C   UNL A   1      43.634  35.449  32.926  1.00  0.00     0.054 A 
BRANCH  66  67
ATOM     67  S   UNL A   1      43.660  37.144  33.568  1.00  0.00     0.124 S 
ATOM     68  O   UNL A   1      44.877  37.140  34.378  1.00  0.00    -0.237 OA
ATOM     69  O   UNL A   1      43.720  37.948  32.351  1.00  0.00    -0.237 OA
ATOM     70  O   UNL A   1      42.413  37.250  34.321  1.00  0.00    -0.744 OA
ENDBRANCH  66  67
ENDBRANCH  47  61
BRANCH  48  71
ATOM     71  C   UNL A   1      42.446  23.757  27.893  1.00  0.00    -0.014 A 
ATOM     72  C   UNL A   1      42.608  23.623  26.503  1.00  0.00     0.010 A 
ATOM     73  C   UNL A   1      42.192  22.608  28.666  1.00  0.00     0.010 A 
ATOM     74  C   UNL A   1      42.521  22.365  25.900  1.00  0.00     0.020 A 
ATOM     75  C   UNL A   1      42.134  21.345  28.070  1.00  0.00     0.020 A 
ATOM     76  C   UNL A   1      42.295  21.233  26.689  1.00  0.00     0.054 A 
BRANCH  76  77
ATOM     77  S   UNL A   1      42.277  19.602  25.893  1.00  0.00     0.124 S 
ATOM     78  O   UNL A   1      40.897  19.506  25.428  1.00  0.00    -0.237 OA
ATOM     79  O   UNL A   1      43.289  19.750  24.850  1.00  0.00    -0.237 OA
ATOM     80  O   UNL A   1      42.638  18.689  26.976  1.00  0.00    -0.744 OA
ENDBRANCH  76  77
ENDBRANCH  48  71
BRANCH  60  81
ATOM     81  C   UNL A   1      47.752  27.035  31.049  1.00  0.00    -0.014 A 
ATOM     82  C   UNL A   1      48.094  26.436  32.275  1.00  0.00     0.010 A 
ATOM     83  C   UNL A   1      48.746  27.202  30.068  1.00  0.00     0.010 A 
ATOM     84  C   UNL A   1      49.411  26.037  32.524  1.00  0.00     0.020 A 
ATOM     85  C   UNL A   1      50.056  26.776  30.301  1.00  0.00     0.020 A 
ATOM     86  C   UNL A   1      50.383  26.207  31.534  1.00  0.00     0.054 A 
BRANCH  86  87
ATOM     87  S   UNL A   1      52.072  25.632  31.863  1.00  0.00     0.124 S 
ATOM     88  O   UNL A   1      51.871  24.200  32.072  1.00  0.00    -0.237 OA
ATOM     89  O   UNL A   1      52.777  25.996  30.637  1.00  0.00    -0.237 OA
ATOM     90  O   UNL A   1      52.469  26.384  33.051  1.00  0.00    -0.744 OA
ENDBRANCH  86  87
ENDBRANCH  60  81
ENDBRANCH  34  35
ENDBRANCH  26  29
ENDBRANCH  24  25
ENDBRANCH  23  24
ENDBRANCH  22  23
ENDBRANCH   1  22
TORSDOF 20
ENDMDL
MODEL 2
REMARK VINA RESULT:      -9.3      3.980      5.795
REMARK SMILES O=C(CCCC(=O)Nc1ccccc1F)NCCCCCCNC(=O)c1ccc(-c2c3nc(c(-c4ccc(S(=O)(=O)[O-])cc4)c4ccc([nH]4)c(-c4ccc(S(=O)(=O)[O-])cc4)c4nc(c(-c5ccc(S(=O)(=O)[O-])cc5)c5ccc2[nH]5)C=C4)C=C3)cc1
REMARK SMILES IDX 19 1 18 2 17 3 16 4 1 5 2 6 3 8 4 9 5 10 6 11 7 12 8 13 9 15
REMARK SMILES IDX 10 16 14 17 11 18 13 19 15 20 12 21 20 22 21 23 22 24 23 25
REMARK SMILES IDX 24 26 25 28 26 29 27 30 85 31 28 32 84 33 29 34 30 35 31 36
REMARK SMILES IDX 78 37 32 38 83 39 77 40 79 41 33 42 82 43 76 44 75 45 34 47
REMARK SMILES IDX 64 48 45 49 63 50 46 51 49 52 62 53 80 54 47 55 48 56 61 58
REMARK SMILES IDX 81 59 50 60 35 61 36 62 44 63 37 64 43 65 38 66 39 67 40 68
REMARK SMILES IDX 41 69 42 70 65 71 66 72 74 73 67 74 73 75 68 76 69 77 70 78
REMARK SMILES IDX 71 79 72 80 51 81 52 82 60 83 53 84 59 85 54 86 55 87 56 88
REMARK SMILES IDX 57 89 58 90
REMARK H PARENT 16 7 8 14 23 27 79 46 49 57
REMARK Flexibility Score: inf
ROOT
ATOM      1  C   UNL A   1      35.599  33.344  28.194  1.00  0.00     0.002 C 
ENDROOT
BRANCH   1   2
ATOM      2  C   UNL A   1      34.396  32.506  28.651  1.00  0.00     0.021 C 
BRANCH   2   3
ATOM      3  C   UNL A   1      33.580  31.864  27.529  1.00  0.00     0.116 C 
BRANCH   3   4
ATOM      4  N   UNL A   1      33.401  30.438  27.703  1.00  0.00    -0.356 N 
ATOM      5  O   UNL A   1      32.793  30.041  25.540  1.00  0.00    -0.275 OA
ATOM      6  C   UNL A   1      33.042  29.616  26.666  1.00  0.00     0.220 C 
ATOM      7  H   UNL A   1      33.542  30.045  28.595  1.00  0.00     0.163 HD
BRANCH   6   8
ATOM      8  C   UNL A   1      32.853  28.149  27.013  1.00  0.00     0.100 C 
BRANCH   8   9
ATOM      9  C   UNL A   1      31.467  27.511  26.888  1.00  0.00     0.020 C 
BRANCH   9  10
ATOM     10  C   UNL A   1      31.081  26.697  25.658  1.00  0.00     0.101 C 
BRANCH  10  11
ATOM     11  C   UNL A   1      31.622  27.027  24.262  1.00  0.00     0.224 C 
ATOM     12  O   UNL A   1      32.793  26.764  23.972  1.00  0.00    -0.275 OA
ATOM     13  N   UNL A   1      30.745  27.298  23.244  1.00  0.00    -0.324 N 
ATOM     14  H   UNL A   1      30.873  26.763  22.426  1.00  0.00     0.170 HD
BRANCH  13  15
ATOM     15  C   UNL A   1      29.695  28.224  23.194  1.00  0.00     0.077 A 
ATOM     16  C   UNL A   1      30.013  29.575  23.050  1.00  0.00     0.029 A 
ATOM     17  C   UNL A   1      28.357  27.861  23.334  1.00  0.00     0.146 A 
ATOM     18  C   UNL A   1      28.995  30.520  22.870  1.00  0.00     0.002 A 
ATOM     19  C   UNL A   1      27.338  28.802  23.186  1.00  0.00     0.041 A 
ATOM     20  F   UNL A   1      28.026  26.590  23.606  1.00  0.00    -0.205 F 
ATOM     21  C   UNL A   1      27.658  30.128  22.910  1.00  0.00     0.003 A 
ENDBRANCH  13  15
ENDBRANCH  10  11
ENDBRANCH   9  10
ENDBRANCH   8   9
ENDBRANCH   6   8
ENDBRANCH   3   4
ENDBRANCH   2   3
ENDBRANCH   1   2
BRANCH   1  22
ATOM     22  C   UNL A   1      36.529  33.810  29.316  1.00  0.00     0.002 C 
BRANCH  22  23
ATOM     23  C   UNL A   1      37.803  32.982  29.484  1.00  0.00     0.021 C 
BRANCH  23  24
ATOM     24  C   UNL A   1      37.691  31.824  30.472  1.00  0.00     0.116 C 
BRANCH  24  25
ATOM     25  N   UNL A   1      36.742  30.812  30.034  1.00  0.00    -0.352 N 
ATOM     26  C   UNL A   1      36.956  29.706  29.246  1.00  0.00     0.251 C 
ATOM     27  H   UNL A   1      35.816  30.936  30.347  1.00  0.00     0.163 HD
ATOM     28  O   UNL A   1      36.007  29.060  28.820  1.00  0.00    -0.269 OA
BRANCH  26  29
ATOM     29  C   UNL A   1      38.341  29.318  28.892  1.00  0.00     0.039 A 
ATOM     30  C   UNL A   1      38.791  29.531  27.587  1.00  0.00     0.014 A 
ATOM     31  C   UNL A   1      39.197  28.771  29.852  1.00  0.00     0.014 A 
ATOM     32  C   UNL A   1      40.123  29.266  27.265  1.00  0.00     0.010 A 
ATOM     33  C   UNL A   1      40.542  28.575  29.547  1.00  0.00     0.010 A 
ATOM     34  C   UNL A   1      41.022  28.829  28.254  1.00  0.00    -0.014 A 
BRANCH  34  35
ATOM     35  C   UNL A   1      42.471  28.679  27.961  1.00  0.00     0.031 A 
ATOM     36  C   UNL A   1      43.410  29.843  28.109  1.00  0.00     0.074 A 
ATOM     37  C   UNL A   1      42.931  27.502  27.488  1.00  0.00     0.049 A 
ATOM     38  N   UNL A   1      44.691  29.907  27.849  1.00  0.00    -0.248 NA
ATOM     39  C   UNL A   1      42.830  31.106  28.589  1.00  0.00     0.031 C 
ATOM     40  C   UNL A   1      42.113  26.310  27.250  1.00  0.00     0.029 A 
ATOM     41  N   UNL A   1      44.193  27.118  27.110  1.00  0.00    -0.354 N 
ATOM     42  C   UNL A   1      45.070  31.215  28.129  1.00  0.00     0.074 A 
ATOM     43  C   UNL A   1      43.869  31.924  28.521  1.00  0.00     0.031 C 
ATOM     44  C   UNL A   1      42.897  25.325  26.785  1.00  0.00     0.029 A 
ATOM     45  C   UNL A   1      44.261  25.825  26.648  1.00  0.00     0.049 A 
ATOM     46  H   UNL A   1      44.976  27.713  27.165  1.00  0.00     0.167 HD
ATOM     47  C   UNL A   1      46.305  31.771  28.083  1.00  0.00     0.031 A 
ATOM     48  C   UNL A   1      45.296  25.122  26.150  1.00  0.00     0.031 A 
ATOM     49  C   UNL A   1      47.492  31.067  27.673  1.00  0.00     0.049 A 
ATOM     50  C   UNL A   1      46.652  25.764  26.075  1.00  0.00     0.074 A 
ATOM     51  C   UNL A   1      48.797  31.528  27.634  1.00  0.00     0.029 A 
ATOM     52  N   UNL A   1      47.519  29.757  27.215  1.00  0.00    -0.354 N 
ATOM     53  N   UNL A   1      47.006  26.979  26.420  1.00  0.00    -0.248 NA
ATOM     54  C   UNL A   1      47.751  24.939  25.557  1.00  0.00     0.031 C 
ATOM     55  C   UNL A   1      49.601  30.519  27.093  1.00  0.00     0.029 A 
ATOM     56  C   UNL A   1      48.811  29.404  26.858  1.00  0.00     0.049 A 
ATOM     57  H   UNL A   1      46.735  29.165  27.153  1.00  0.00     0.167 HD
ATOM     58  C   UNL A   1      48.371  27.062  26.170  1.00  0.00     0.074 A 
ATOM     59  C   UNL A   1      48.782  25.766  25.669  1.00  0.00     0.031 C 
ATOM     60  C   UNL A   1      49.206  28.117  26.340  1.00  0.00     0.031 A 
BRANCH  47  61
ATOM     61  C   UNL A   1      46.422  33.224  28.472  1.00  0.00    -0.014 A 
ATOM     62  C   UNL A   1      46.640  33.605  29.809  1.00  0.00     0.010 A 
ATOM     63  C   UNL A   1      46.319  34.225  27.488  1.00  0.00     0.010 A 
ATOM     64  C   UNL A   1      46.686  34.956  30.165  1.00  0.00     0.020 A 
ATOM     65  C   UNL A   1      46.399  35.577  27.834  1.00  0.00     0.020 A 
ATOM     66  C   UNL A   1      46.557  35.934  29.175  1.00  0.00     0.054 A 
BRANCH  66  67
ATOM     67  S   UNL A   1      46.603  37.679  29.667  1.00  0.00     0.124 S 
ATOM     68  O   UNL A   1      45.409  38.207  29.009  1.00  0.00    -0.237 OA
ATOM     69  O   UNL A   1      46.534  37.602  31.124  1.00  0.00    -0.237 OA
ATOM     70  O   UNL A   1      47.873  38.158  29.129  1.00  0.00    -0.744 OA
ENDBRANCH  66  67
ENDBRANCH  47  61
BRANCH  48  71
ATOM     71  C   UNL A   1      45.072  23.726  25.681  1.00  0.00    -0.014 A 
ATOM     72  C   UNL A   1      44.332  23.469  24.513  1.00  0.00     0.010 A 
ATOM     73  C   UNL A   1      45.650  22.647  26.375  1.00  0.00     0.010 A 
ATOM     74  C   UNL A   1      44.177  22.160  24.048  1.00  0.00     0.020 A 
ATOM     75  C   UNL A   1      45.522  21.340  25.896  1.00  0.00     0.020 A 
ATOM     76  C   UNL A   1      44.782  21.105  24.737  1.00  0.00     0.054 A 
BRANCH  76  77
ATOM     77  S   UNL A   1      44.642  19.426  24.064  1.00  0.00     0.124 S 
ATOM     78  O   UNL A   1      45.850  18.790  24.578  1.00  0.00    -0.237 OA
ATOM     79  O   UNL A   1      43.385  18.960  24.642  1.00  0.00    -0.237 OA
ATOM     80  O   UNL A   1      44.612  19.640  22.618  1.00  0.00    -0.744 OA
ENDBRANCH  76  77
ENDBRANCH  48  71
BRANCH  60  81
ATOM     81  C   UNL A   1      50.657  27.917  25.985  1.00  0.00    -0.014 A 
ATOM     82  C   UNL A   1      51.593  27.507  26.952  1.00  0.00     0.010 A 
ATOM     83  C   UNL A   1      51.079  28.083  24.653  1.00  0.00     0.010 A 
ATOM     84  C   UNL A   1      52.929  27.294  26.599  1.00  0.00     0.020 A 
ATOM     85  C   UNL A   1      52.407  27.841  24.291  1.00  0.00     0.020 A 
ATOM     86  C   UNL A   1      53.326  27.460  25.270  1.00  0.00     0.054 A 
BRANCH  86  87
ATOM     87  S   UNL A   1      55.054  27.125  24.829  1.00  0.00     0.124 S 
ATOM     88  O   UNL A   1      55.530  28.449  24.436  1.00  0.00    -0.237 OA
ATOM     89  O   UNL A   1      55.606  26.603  26.076  1.00  0.00    -0.237 OA
ATOM     90  O   UNL A   1      54.954  26.152  23.743  1.00  0.00    -0.744 OA
ENDBRANCH  86  87
ENDBRANCH  60  81
ENDBRANCH  34  35
ENDBRANCH  26  29
ENDBRANCH  24  25
ENDBRANCH  23  24
ENDBRANCH  22  23
ENDBRANCH   1  22
TORSDOF 20
ENDMDL
MODEL 3
REMARK VINA RESULT:      -9.3      3.228      4.129
REMARK SMILES O=C(CCCC(=O)Nc1ccccc1F)NCCCCCCNC(=O)c1ccc(-c2c3nc(c(-c4ccc(S(=O)(=O)[O-])cc4)c4ccc([nH]4)c(-c4ccc(S(=O)(=O)[O-])cc4)c4nc(c(-c5ccc(S(=O)(=O)[O-])cc5)c5ccc2[nH]5)C=C4)C=C3)cc1
REMARK SMILES IDX 19 1 18 2 17 3 16 4 1 5 2 6 3 8 4 9 5 10 6 11 7 12 8 13 9 15
REMARK SMILES IDX 10 16 14 17 11 18 13 19 15 20 12 21 20 22 21 23 22 24 23 25
REMARK SMILES IDX 24 26 25 28 26 29 27 30 85 31 28 32 84 33 29 34 30 35 31 36
REMARK SMILES IDX 78 37 32 38 83 39 77 40 79 41 33 42 82 43 76 44 75 45 34 47
REMARK SMILES IDX 64 48 45 49 63 50 46 51 49 52 62 53 80 54 47 55 48 56 61 58
REMARK SMILES IDX 81 59 50 60 35 61 36 62 44 63 37 64 43 65 38 66 39 67 40 68
REMARK SMILES IDX 41 69 42 70 65 71 66 72 74 73 67 74 73 75 68 76 69 77 70 78
REMARK SMILES IDX 71 79 72 80 51 81 52 82 60 83 53 84 59 85 54 86 55 87 56 88
REMARK SMILES IDX 57 89 58 90
REMARK H PARENT 16 7 8 14 23 27 79 46 49 57
REMARK Flexibility Score: inf
ROOT
ATOM      1  C   UNL A   1      34.039  28.509  26.359  1.00  0.00     0.002 C 
ENDROOT
BRANCH   1   2
ATOM      2  C   UNL A   1      33.291  29.374  25.336  1.00  0.00     0.021 C 
BRANCH   2   3
ATOM      3  C   UNL A   1      32.786  28.633  24.096  1.00  0.00     0.116 C 
BRANCH   3   4
ATOM      4  N   UNL A   1      33.322  27.294  23.979  1.00  0.00    -0.356 N 
ATOM      5  O   UNL A   1      32.300  26.838  21.991  1.00  0.00    -0.275 OA
ATOM      6  C   UNL A   1      33.054  26.494  22.897  1.00  0.00     0.220 C 
ATOM      7  H   UNL A   1      33.897  26.946  24.699  1.00  0.00     0.163 HD
BRANCH   6   8
ATOM      8  C   UNL A   1      33.656  25.099  22.936  1.00  0.00     0.100 C 
BRANCH   8   9
ATOM      9  C   UNL A   1      34.285  24.580  24.232  1.00  0.00     0.020 C 
BRANCH   9  10
ATOM     10  C   UNL A   1      35.587  23.786  24.214  1.00  0.00     0.101 C 
BRANCH  10  11
ATOM     11  C   UNL A   1      36.048  22.954  25.417  1.00  0.00     0.224 C 
ATOM     12  O   UNL A   1      37.078  23.259  26.025  1.00  0.00    -0.275 OA
ATOM     13  N   UNL A   1      35.168  22.093  26.020  1.00  0.00    -0.324 N 
ATOM     14  H   UNL A   1      35.072  22.206  26.994  1.00  0.00     0.170 HD
BRANCH  13  15
ATOM     15  C   UNL A   1      34.386  21.077  25.456  1.00  0.00     0.077 A 
ATOM     16  C   UNL A   1      35.035  19.952  24.944  1.00  0.00     0.029 A 
ATOM     17  C   UNL A   1      33.000  21.164  25.337  1.00  0.00     0.146 A 
ATOM     18  C   UNL A   1      34.288  18.860  24.486  1.00  0.00     0.002 A 
ATOM     19  C   UNL A   1      32.252  20.091  24.853  1.00  0.00     0.041 A 
ATOM     20  F   UNL A   1      32.360  22.286  25.697  1.00  0.00    -0.205 F 
ATOM     21  C   UNL A   1      32.895  18.919  24.467  1.00  0.00     0.003 A 
ENDBRANCH  13  15
ENDBRANCH  10  11
ENDBRANCH   9  10
ENDBRANCH   8   9
ENDBRANCH   6   8
ENDBRANCH   3   4
ENDBRANCH   2   3
ENDBRANCH   1   2
BRANCH   1  22
ATOM     22  C   UNL A   1      34.548  29.257  27.593  1.00  0.00     0.002 C 
BRANCH  22  23
ATOM     23  C   UNL A   1      34.657  30.773  27.429  1.00  0.00     0.021 C 
BRANCH  23  24
ATOM     24  C   UNL A   1      35.694  31.444  28.326  1.00  0.00     0.116 C 
BRANCH  24  25
ATOM     25  N   UNL A   1      35.559  31.050  29.719  1.00  0.00    -0.352 N 
ATOM     26  C   UNL A   1      36.468  30.413  30.532  1.00  0.00     0.251 C 
ATOM     27  H   UNL A   1      34.696  31.270  30.140  1.00  0.00     0.163 HD
ATOM     28  O   UNL A   1      36.123  29.988  31.627  1.00  0.00    -0.269 OA
BRANCH  26  29
ATOM     29  C   UNL A   1      37.858  30.220  30.061  1.00  0.00     0.039 A 
ATOM     30  C   UNL A   1      38.902  30.295  30.986  1.00  0.00     0.014 A 
ATOM     31  C   UNL A   1      38.126  29.942  28.717  1.00  0.00     0.014 A 
ATOM     32  C   UNL A   1      40.207  30.015  30.577  1.00  0.00     0.010 A 
ATOM     33  C   UNL A   1      39.417  29.593  28.328  1.00  0.00     0.010 A 
ATOM     34  C   UNL A   1      40.470  29.617  29.254  1.00  0.00    -0.014 A 
BRANCH  34  35
ATOM     35  C   UNL A   1      41.828  29.180  28.839  1.00  0.00     0.031 A 
ATOM     36  C   UNL A   1      42.955  30.169  28.736  1.00  0.00     0.074 A 
ATOM     37  C   UNL A   1      42.029  27.894  28.484  1.00  0.00     0.049 A 
ATOM     38  N   UNL A   1      44.188  29.975  28.342  1.00  0.00    -0.248 NA
ATOM     39  C   UNL A   1      42.652  31.561  29.099  1.00  0.00     0.031 C 
ATOM     40  C   UNL A   1      41.005  26.846  28.491  1.00  0.00     0.029 A 
ATOM     41  N   UNL A   1      43.156  27.252  28.035  1.00  0.00    -0.354 N 
ATOM     42  C   UNL A   1      44.806  31.219  28.405  1.00  0.00     0.074 A 
ATOM     43  C   UNL A   1      43.794  32.168  28.818  1.00  0.00     0.031 C 
ATOM     44  C   UNL A   1      41.555  25.692  28.085  1.00  0.00     0.029 A 
ATOM     45  C   UNL A   1      42.955  25.924  27.745  1.00  0.00     0.049 A 
ATOM     46  H   UNL A   1      44.026  27.702  27.931  1.00  0.00     0.167 HD
ATOM     47  C   UNL A   1      46.101  31.539  28.161  1.00  0.00     0.031 A 
ATOM     48  C   UNL A   1      43.793  24.996  27.244  1.00  0.00     0.031 A 
ATOM     49  C   UNL A   1      47.098  30.593  27.730  1.00  0.00     0.049 A 
ATOM     50  C   UNL A   1      45.217  25.375  26.948  1.00  0.00     0.074 A 
ATOM     51  C   UNL A   1      48.446  30.809  27.499  1.00  0.00     0.029 A 
ATOM     52  N   UNL A   1      46.855  29.256  27.451  1.00  0.00    -0.354 N 
ATOM     53  N   UNL A   1      45.803  26.540  27.089  1.00  0.00    -0.248 NA
ATOM     54  C   UNL A   1      46.095  24.315  26.435  1.00  0.00     0.031 C 
ATOM     55  C   UNL A   1      49.003  29.619  27.019  1.00  0.00     0.029 A 
ATOM     56  C   UNL A   1      48.019  28.642  27.016  1.00  0.00     0.049 A 
ATOM     57  H   UNL A   1      45.983  28.808  27.548  1.00  0.00     0.167 HD
ATOM     58  C   UNL A   1      47.122  26.351  26.694  1.00  0.00     0.074 A 
ATOM     59  C   UNL A   1      47.253  24.954  26.332  1.00  0.00     0.031 C 
ATOM     60  C   UNL A   1      48.133  27.254  26.637  1.00  0.00     0.031 A 
BRANCH  47  61
ATOM     61  C   UNL A   1      46.499  32.983  28.338  1.00  0.00    -0.014 A 
ATOM     62  C   UNL A   1      46.433  33.893  27.267  1.00  0.00     0.010 A 
ATOM     63  C   UNL A   1      46.942  33.440  29.592  1.00  0.00     0.010 A 
ATOM     64  C   UNL A   1      46.862  35.214  27.429  1.00  0.00     0.020 A 
ATOM     65  C   UNL A   1      47.340  34.769  29.769  1.00  0.00     0.020 A 
ATOM     66  C   UNL A   1      47.321  35.640  28.678  1.00  0.00     0.054 A 
BRANCH  66  67
ATOM     67  S   UNL A   1      47.889  37.354  28.854  1.00  0.00     0.124 S 
ATOM     68  O   UNL A   1      48.501  37.602  27.550  1.00  0.00    -0.237 OA
ATOM     69  O   UNL A   1      46.647  38.078  29.112  1.00  0.00    -0.237 OA
ATOM     70  O   UNL A   1      48.820  37.298  29.978  1.00  0.00    -0.744 OA
ENDBRANCH  66  67
ENDBRANCH  47  61
BRANCH  48  71
ATOM     71  C   UNL A   1      43.289  23.618  26.990  1.00  0.00    -0.014 A 
ATOM     72  C   UNL A   1      42.920  23.213  25.695  1.00  0.00     0.010 A 
ATOM     73  C   UNL A   1      43.230  22.683  28.041  1.00  0.00     0.010 A 
ATOM     74  C   UNL A   1      42.504  21.900  25.456  1.00  0.00     0.020 A 
ATOM     75  C   UNL A   1      42.844  21.362  27.800  1.00  0.00     0.020 A 
ATOM     76  C   UNL A   1      42.479  20.980  26.509  1.00  0.00     0.054 A 
BRANCH  76  77
ATOM     77  S   UNL A   1      42.022  19.260  26.156  1.00  0.00     0.124 S 
ATOM     78  O   UNL A   1      42.331  18.597  27.419  1.00  0.00    -0.237 OA
ATOM     79  O   UNL A   1      40.603  19.373  25.829  1.00  0.00    -0.237 OA
ATOM     80  O   UNL A   1      42.886  18.901  25.032  1.00  0.00    -0.744 OA
ENDBRANCH  76  77
ENDBRANCH  48  71
BRANCH  60  81
ATOM     81  C   UNL A   1      49.477  26.761  26.167  1.00  0.00    -0.014 A 
ATOM     82  C   UNL A   1      49.893  26.939  24.835  1.00  0.00     0.010 A 
ATOM     83  C   UNL A   1      50.361  26.165  27.085  1.00  0.00     0.010 A 
ATOM     84  C   UNL A   1      51.156  26.504  24.424  1.00  0.00     0.020 A 
ATOM     85  C   UNL A   1      51.636  25.757  26.685  1.00  0.00     0.020 A 
ATOM     86  C   UNL A   1      52.021  25.919  25.353  1.00  0.00     0.054 A 
BRANCH  86  87
ATOM     87  S   UNL A   1      53.675  25.413  24.805  1.00  0.00     0.124 S 
ATOM     88  O   UNL A   1      53.561  23.957  24.797  1.00  0.00    -0.237 OA
ATOM     89  O   UNL A   1      53.782  26.043  23.492  1.00  0.00    -0.237 OA
ATOM     90  O   UNL A   1      54.563  25.962  25.827  1.00  0.00    -0.744 OA
ENDBRANCH  86  87
ENDBRANCH  60  81
ENDBRANCH  34  35
ENDBRANCH  26  29
ENDBRANCH  24  25
ENDBRANCH  23  24
ENDBRANCH  22  23
ENDBRANCH   1  22
TORSDOF 20
ENDMDL
