MODEL 1
REMARK VINA RESULT:     -11.7      0.000      0.000
REMARK SMILES Cc1cc(C)cc(-c2ccc([C@@H](C)C(=O)NCCCCCCNC(=O)c3ccc(-c4c5nc(c(-c6ccc(S(=O)(=O)[O-])cc6)c6ccc([nH]6)c(-c6ccc(S(=O)(=O)[O-])cc6)c6nc(c(-c7ccc(S(=O)(=O)[O-])cc7)c7ccc4[nH]7)C=C6)C=C5)cc3)cc2F)c1
REMARK SMILES IDX 20 1 19 2 18 3 17 4 16 5 14 6 15 7 12 9 13 10 11 11 8 12
REMARK SMILES IDX 9 13 87 14 10 15 86 16 88 17 7 18 1 19 2 20 3 21 89 22 4 23
REMARK SMILES IDX 5 24 6 25 21 26 22 27 23 28 24 29 25 31 26 32 27 33 85 34
REMARK SMILES IDX 28 35 84 36 29 37 30 38 31 39 78 40 32 41 83 42 77 43 79 44
REMARK SMILES IDX 33 45 82 46 76 47 75 48 34 50 64 51 45 52 63 53 46 54 49 55
REMARK SMILES IDX 62 56 80 57 47 58 48 59 61 61 81 62 50 63 35 64 36 65 44 66
REMARK SMILES IDX 37 67 43 68 38 69 39 70 40 71 41 72 42 73 65 74 66 75 74 76
REMARK SMILES IDX 67 77 73 78 68 79 69 80 70 81 71 82 72 83 51 84 52 85 60 86
REMARK SMILES IDX 53 87 59 88 54 89 55 90 56 91 57 92 58 93
REMARK H PARENT 16 8 23 30 79 49 49 60
REMARK Flexibility Score: inf
ROOT
ATOM      1  C   UNL A   1      33.438  28.456  27.106  1.00  0.00     0.002 C 
ENDROOT
BRANCH   1   2
ATOM      2  C   UNL A   1      33.100  28.010  25.677  1.00  0.00     0.002 C 
BRANCH   2   3
ATOM      3  C   UNL A   1      32.730  29.144  24.714  1.00  0.00     0.021 C 
BRANCH   3   4
ATOM      4  C   UNL A   1      31.242  29.501  24.728  1.00  0.00     0.116 C 
BRANCH   4   5
ATOM      5  N   UNL A   1      30.788  29.944  23.426  1.00  0.00    -0.356 N 
ATOM      6  C   UNL A   1      30.057  29.321  22.462  1.00  0.00     0.227 C 
ATOM      7  O   UNL A   1      29.913  29.935  21.398  1.00  0.00    -0.274 OA
ATOM      8  H   UNL A   1      31.057  30.863  23.197  1.00  0.00     0.163 HD
BRANCH   6   9
ATOM      9  C   UNL A   1      29.407  27.940  22.641  1.00  0.00     0.105 C 
ATOM     10  C   UNL A   1      28.111  27.964  23.452  1.00  0.00     0.023 C 
BRANCH   9  11
ATOM     11  C   UNL A   1      30.395  26.840  23.000  1.00  0.00    -0.033 A 
ATOM     12  C   UNL A   1      32.369  24.877  23.674  1.00  0.00     0.017 A 
ATOM     13  C   UNL A   1      31.247  25.111  24.487  1.00  0.00     0.012 A 
ATOM     14  C   UNL A   1      32.459  25.636  22.501  1.00  0.00     0.131 A 
ATOM     15  C   UNL A   1      30.265  26.045  24.140  1.00  0.00     0.005 A 
ATOM     16  C   UNL A   1      31.507  26.610  22.175  1.00  0.00     0.044 A 
ATOM     17  F   UNL A   1      33.473  25.448  21.642  1.00  0.00    -0.206 F 
BRANCH  12  18
ATOM     18  C   UNL A   1      33.387  23.885  24.084  1.00  0.00    -0.015 A 
ATOM     19  C   UNL A   1      36.949  23.757  25.476  1.00  0.00     0.044 C 
ATOM     20  C   UNL A   1      35.594  23.330  24.996  1.00  0.00    -0.050 A 
ATOM     21  C   UNL A   1      35.249  21.973  25.009  1.00  0.00     0.006 A 
ATOM     22  C   UNL A   1      34.660  24.272  24.536  1.00  0.00     0.012 A 
ATOM     23  C   UNL A   1      33.994  21.553  24.562  1.00  0.00    -0.050 A 
ATOM     24  C   UNL A   1      33.625  20.100  24.601  1.00  0.00     0.044 C 
ATOM     25  C   UNL A   1      33.086  22.509  24.089  1.00  0.00     0.012 A 
ENDBRANCH  12  18
ENDBRANCH   9  11
ENDBRANCH   6   9
ENDBRANCH   4   5
ENDBRANCH   3   4
ENDBRANCH   2   3
ENDBRANCH   1   2
BRANCH   1  26
ATOM     26  C   UNL A   1      33.920  29.904  27.247  1.00  0.00     0.021 C 
BRANCH  26  27
ATOM     27  C   UNL A   1      35.345  30.052  27.775  1.00  0.00     0.116 C 
BRANCH  27  28
ATOM     28  N   UNL A   1      35.360  30.514  29.155  1.00  0.00    -0.352 N 
ATOM     29  C   UNL A   1      36.324  30.357  30.119  1.00  0.00     0.251 C 
ATOM     30  H   UNL A   1      34.561  31.014  29.438  1.00  0.00     0.163 HD
ATOM     31  O   UNL A   1      36.059  30.596  31.293  1.00  0.00    -0.269 OA
BRANCH  29  32
ATOM     32  C   UNL A   1      37.678  29.894  29.744  1.00  0.00     0.039 A 
ATOM     33  C   UNL A   1      38.153  30.155  28.456  1.00  0.00     0.014 A 
ATOM     34  C   UNL A   1      38.464  29.177  30.650  1.00  0.00     0.014 A 
ATOM     35  C   UNL A   1      39.438  29.743  28.095  1.00  0.00     0.010 A 
ATOM     36  C   UNL A   1      39.768  28.825  30.312  1.00  0.00     0.010 A 
ATOM     37  C   UNL A   1      40.267  29.100  29.029  1.00  0.00    -0.014 A 
BRANCH  37  38
ATOM     38  C   UNL A   1      41.657  28.707  28.682  1.00  0.00     0.031 A 
ATOM     39  C   UNL A   1      42.751  29.740  28.650  1.00  0.00     0.074 A 
ATOM     40  C   UNL A   1      41.919  27.433  28.330  1.00  0.00     0.049 A 
ATOM     41  N   UNL A   1      44.008  29.599  28.312  1.00  0.00    -0.248 NA
ATOM     42  C   UNL A   1      42.381  31.115  29.022  1.00  0.00     0.031 C 
ATOM     43  C   UNL A   1      40.935  26.348  28.278  1.00  0.00     0.029 A 
ATOM     44  N   UNL A   1      43.091  26.835  27.938  1.00  0.00    -0.354 N 
ATOM     45  C   UNL A   1      44.572  30.866  28.411  1.00  0.00     0.074 A 
ATOM     46  C   UNL A   1      43.510  31.771  28.797  1.00  0.00     0.031 C 
ATOM     47  C   UNL A   1      41.548  25.215  27.899  1.00  0.00     0.029 A 
ATOM     48  C   UNL A   1      42.957  25.499  27.641  1.00  0.00     0.049 A 
ATOM     49  H   UNL A   1      43.947  27.317  27.874  1.00  0.00     0.167 HD
ATOM     50  C   UNL A   1      45.859  31.239  28.214  1.00  0.00     0.031 A 
ATOM     51  C   UNL A   1      43.862  24.602  27.203  1.00  0.00     0.031 A 
ATOM     52  C   UNL A   1      46.913  30.332  27.845  1.00  0.00     0.049 A 
ATOM     53  C   UNL A   1      45.286  25.040  26.995  1.00  0.00     0.074 A 
ATOM     54  C   UNL A   1      48.262  30.601  27.687  1.00  0.00     0.029 A 
ATOM     55  N   UNL A   1      46.740  28.983  27.575  1.00  0.00    -0.354 N 
ATOM     56  N   UNL A   1      45.813  26.229  27.164  1.00  0.00    -0.248 NA
ATOM     57  C   UNL A   1      46.238  24.014  26.549  1.00  0.00     0.031 C 
ATOM     58  C   UNL A   1      48.895  29.427  27.267  1.00  0.00     0.029 A 
ATOM     59  C   UNL A   1      47.951  28.412  27.225  1.00  0.00     0.049 A 
ATOM     60  H   UNL A   1      45.882  28.503  27.625  1.00  0.00     0.167 HD
ATOM     61  C   UNL A   1      47.165  26.087  26.870  1.00  0.00     0.074 A 
ATOM     62  C   UNL A   1      47.376  24.695  26.529  1.00  0.00     0.031 C 
ATOM     63  C   UNL A   1      48.145  27.025  26.885  1.00  0.00     0.031 A 
BRANCH  50  64
ATOM     64  C   UNL A   1      46.198  32.697  28.385  1.00  0.00    -0.014 A 
ATOM     65  C   UNL A   1      46.086  33.603  27.315  1.00  0.00     0.010 A 
ATOM     66  C   UNL A   1      46.589  33.179  29.648  1.00  0.00     0.010 A 
ATOM     67  C   UNL A   1      46.396  34.954  27.494  1.00  0.00     0.020 A 
ATOM     68  C   UNL A   1      46.873  34.533  29.839  1.00  0.00     0.020 A 
ATOM     69  C   UNL A   1      46.791  35.409  28.755  1.00  0.00     0.054 A 
BRANCH  69  70
ATOM     70  S   UNL A   1      47.165  37.172  28.965  1.00  0.00     0.124 S 
ATOM     71  O   UNL A   1      48.583  37.222  28.623  1.00  0.00    -0.237 OA
ATOM     72  O   UNL A   1      46.265  37.807  28.005  1.00  0.00    -0.237 OA
ATOM     73  O   UNL A   1      46.854  37.429  30.369  1.00  0.00    -0.744 OA
ENDBRANCH  69  70
ENDBRANCH  50  64
BRANCH  51  74
ATOM     74  C   UNL A   1      43.448  23.196  26.942  1.00  0.00    -0.014 A 
ATOM     75  C   UNL A   1      43.465  22.675  25.637  1.00  0.00     0.010 A 
ATOM     76  C   UNL A   1      43.047  22.365  28.004  1.00  0.00     0.010 A 
ATOM     77  C   UNL A   1      43.071  21.356  25.395  1.00  0.00     0.020 A 
ATOM     78  C   UNL A   1      42.680  21.037  27.771  1.00  0.00     0.020 A 
ATOM     79  C   UNL A   1      42.682  20.544  26.465  1.00  0.00     0.054 A 
BRANCH  79  80
ATOM     80  S   UNL A   1      42.224  18.819  26.135  1.00  0.00     0.124 S 
ATOM     81  O   UNL A   1      42.495  18.184  27.420  1.00  0.00    -0.237 OA
ATOM     82  O   UNL A   1      40.815  18.932  25.767  1.00  0.00    -0.237 OA
ATOM     83  O   UNL A   1      43.115  18.433  25.044  1.00  0.00    -0.744 OA
ENDBRANCH  79  80
ENDBRANCH  51  74
BRANCH  63  84
ATOM     84  C   UNL A   1      49.542  26.573  26.554  1.00  0.00    -0.014 A 
ATOM     85  C   UNL A   1      50.382  26.020  27.535  1.00  0.00     0.010 A 
ATOM     86  C   UNL A   1      49.997  26.652  25.224  1.00  0.00     0.010 A 
ATOM     87  C   UNL A   1      51.666  25.582  27.199  1.00  0.00     0.020 A 
ATOM     88  C   UNL A   1      51.269  26.189  24.879  1.00  0.00     0.020 A 
ATOM     89  C   UNL A   1      52.102  25.669  25.872  1.00  0.00     0.054 A 
BRANCH  89  90
ATOM     90  S   UNL A   1      53.755  25.051  25.453  1.00  0.00     0.124 S 
ATOM     91  O   UNL A   1      54.048  25.781  24.222  1.00  0.00    -0.237 OA
ATOM     92  O   UNL A   1      54.548  25.440  26.617  1.00  0.00    -0.237 OA
ATOM     93  O   UNL A   1      53.557  23.613  25.292  1.00  0.00    -0.744 OA
ENDBRANCH  89  90
ENDBRANCH  63  84
ENDBRANCH  37  38
ENDBRANCH  29  32
ENDBRANCH  27  28
ENDBRANCH  26  27
ENDBRANCH   1  26
TORSDOF 18
ENDMDL
MODEL 2
REMARK VINA RESULT:     -11.6      3.361      5.150
REMARK SMILES Cc1cc(C)cc(-c2ccc([C@@H](C)C(=O)NCCCCCCNC(=O)c3ccc(-c4c5nc(c(-c6ccc(S(=O)(=O)[O-])cc6)c6ccc([nH]6)c(-c6ccc(S(=O)(=O)[O-])cc6)c6nc(c(-c7ccc(S(=O)(=O)[O-])cc7)c7ccc4[nH]7)C=C6)C=C5)cc3)cc2F)c1
REMARK SMILES IDX 20 1 19 2 18 3 17 4 16 5 14 6 15 7 12 9 13 10 11 11 8 12
REMARK SMILES IDX 9 13 87 14 10 15 86 16 88 17 7 18 1 19 2 20 3 21 89 22 4 23
REMARK SMILES IDX 5 24 6 25 21 26 22 27 23 28 24 29 25 31 26 32 27 33 85 34
REMARK SMILES IDX 28 35 84 36 29 37 30 38 31 39 78 40 32 41 83 42 77 43 79 44
REMARK SMILES IDX 33 45 82 46 76 47 75 48 34 50 64 51 45 52 63 53 46 54 49 55
REMARK SMILES IDX 62 56 80 57 47 58 48 59 61 61 81 62 50 63 35 64 36 65 44 66
REMARK SMILES IDX 37 67 43 68 38 69 39 70 40 71 41 72 42 73 65 74 66 75 74 76
REMARK SMILES IDX 67 77 73 78 68 79 69 80 70 81 71 82 72 83 51 84 52 85 60 86
REMARK SMILES IDX 53 87 59 88 54 89 55 90 56 91 57 92 58 93
REMARK H PARENT 16 8 23 30 79 49 49 60
REMARK Flexibility Score: inf
ROOT
ATOM      1  C   UNL A   1      33.550  26.152  26.008  1.00  0.00     0.002 C 
ENDROOT
BRANCH   1   2
ATOM      2  C   UNL A   1      32.479  25.088  26.283  1.00  0.00     0.002 C 
BRANCH   2   3
ATOM      3  C   UNL A   1      33.021  23.689  26.598  1.00  0.00     0.021 C 
BRANCH   3   4
ATOM      4  C   UNL A   1      33.053  22.755  25.386  1.00  0.00     0.116 C 
BRANCH   4   5
ATOM      5  N   UNL A   1      34.154  23.069  24.499  1.00  0.00    -0.356 N 
ATOM      6  C   UNL A   1      34.186  23.407  23.181  1.00  0.00     0.227 C 
ATOM      7  O   UNL A   1      35.306  23.521  22.670  1.00  0.00    -0.274 OA
ATOM      8  H   UNL A   1      35.039  23.032  24.927  1.00  0.00     0.163 HD
BRANCH   6   9
ATOM      9  C   UNL A   1      32.930  23.665  22.335  1.00  0.00     0.105 C 
ATOM     10  C   UNL A   1      33.076  23.261  20.867  1.00  0.00     0.023 C 
BRANCH   9  11
ATOM     11  C   UNL A   1      32.287  25.020  22.590  1.00  0.00    -0.033 A 
ATOM     12  C   UNL A   1      31.057  27.529  23.219  1.00  0.00     0.017 A 
ATOM     13  C   UNL A   1      32.352  27.452  22.677  1.00  0.00     0.012 A 
ATOM     14  C   UNL A   1      30.387  26.314  23.410  1.00  0.00     0.131 A 
ATOM     15  C   UNL A   1      32.939  26.229  22.338  1.00  0.00     0.005 A 
ATOM     16  C   UNL A   1      30.990  25.084  23.121  1.00  0.00     0.044 A 
ATOM     17  F   UNL A   1      29.130  26.294  23.880  1.00  0.00    -0.206 F 
BRANCH  12  18
ATOM     18  C   UNL A   1      30.478  28.843  23.571  1.00  0.00    -0.015 A 
ATOM     19  C   UNL A   1      31.042  31.723  26.028  1.00  0.00     0.044 C 
ATOM     20  C   UNL A   1      30.486  30.902  24.902  1.00  0.00    -0.050 A 
ATOM     21  C   UNL A   1      29.451  31.419  24.113  1.00  0.00     0.006 A 
ATOM     22  C   UNL A   1      30.990  29.622  24.622  1.00  0.00     0.012 A 
ATOM     23  C   UNL A   1      28.915  30.670  23.062  1.00  0.00    -0.050 A 
ATOM     24  C   UNL A   1      27.823  31.241  22.208  1.00  0.00     0.044 C 
ATOM     25  C   UNL A   1      29.421  29.387  22.815  1.00  0.00     0.012 A 
ENDBRANCH  12  18
ENDBRANCH   9  11
ENDBRANCH   6   9
ENDBRANCH   4   5
ENDBRANCH   3   4
ENDBRANCH   2   3
ENDBRANCH   1   2
BRANCH   1  26
ATOM     26  C   UNL A   1      33.207  27.568  26.482  1.00  0.00     0.021 C 
BRANCH  26  27
ATOM     27  C   UNL A   1      34.208  28.641  26.060  1.00  0.00     0.116 C 
BRANCH  27  28
ATOM     28  N   UNL A   1      33.934  29.915  26.708  1.00  0.00    -0.352 N 
ATOM     29  C   UNL A   1      34.610  30.542  27.725  1.00  0.00     0.251 C 
ATOM     30  H   UNL A   1      33.148  30.399  26.366  1.00  0.00     0.163 HD
ATOM     31  O   UNL A   1      34.092  31.488  28.310  1.00  0.00    -0.269 OA
BRANCH  29  32
ATOM     32  C   UNL A   1      35.957  30.074  28.118  1.00  0.00     0.039 A 
ATOM     33  C   UNL A   1      37.009  30.191  27.207  1.00  0.00     0.014 A 
ATOM     34  C   UNL A   1      36.173  29.492  29.370  1.00  0.00     0.014 A 
ATOM     35  C   UNL A   1      38.291  29.773  27.572  1.00  0.00     0.010 A 
ATOM     36  C   UNL A   1      37.463  29.137  29.757  1.00  0.00     0.010 A 
ATOM     37  C   UNL A   1      38.534  29.269  28.860  1.00  0.00    -0.014 A 
BRANCH  37  38
ATOM     38  C   UNL A   1      39.901  28.875  29.288  1.00  0.00     0.031 A 
ATOM     39  C   UNL A   1      40.770  29.846  30.041  1.00  0.00     0.074 A 
ATOM     40  C   UNL A   1      40.385  27.666  28.937  1.00  0.00     0.049 A 
ATOM     41  N   UNL A   1      42.008  29.704  30.443  1.00  0.00    -0.248 NA
ATOM     42  C   UNL A   1      40.181  31.156  30.364  1.00  0.00     0.031 C 
ATOM     43  C   UNL A   1      39.657  26.653  28.169  1.00  0.00     0.029 A 
ATOM     44  N   UNL A   1      41.607  27.088  29.173  1.00  0.00    -0.354 N 
ATOM     45  C   UNL A   1      42.351  30.909  31.045  1.00  0.00     0.074 A 
ATOM     46  C   UNL A   1      41.207  31.786  30.917  1.00  0.00     0.031 C 
ATOM     47  C   UNL A   1      40.438  25.572  28.015  1.00  0.00     0.029 A 
ATOM     48  C   UNL A   1      41.734  25.828  28.636  1.00  0.00     0.049 A 
ATOM     49  H   UNL A   1      42.325  27.533  29.677  1.00  0.00     0.167 HD
ATOM     50  C   UNL A   1      43.508  31.249  31.662  1.00  0.00     0.031 A 
ATOM     51  C   UNL A   1      42.777  24.975  28.637  1.00  0.00     0.031 A 
ATOM     52  C   UNL A   1      44.637  30.368  31.800  1.00  0.00     0.049 A 
ATOM     53  C   UNL A   1      44.050  25.374  29.332  1.00  0.00     0.074 A 
ATOM     54  C   UNL A   1      45.829  30.596  32.467  1.00  0.00     0.029 A 
ATOM     55  N   UNL A   1      44.717  29.093  31.262  1.00  0.00    -0.354 N 
ATOM     56  N   UNL A   1      44.328  26.492  29.959  1.00  0.00    -0.248 NA
ATOM     57  C   UNL A   1      45.144  24.394  29.330  1.00  0.00     0.031 C 
ATOM     58  C   UNL A   1      46.652  29.480  32.285  1.00  0.00     0.029 A 
ATOM     59  C   UNL A   1      45.948  28.532  31.557  1.00  0.00     0.049 A 
ATOM     60  H   UNL A   1      44.004  28.652  30.746  1.00  0.00     0.167 HD
ATOM     61  C   UNL A   1      45.620  26.338  30.449  1.00  0.00     0.074 A 
ATOM     62  C   UNL A   1      46.061  25.014  30.059  1.00  0.00     0.031 C 
ATOM     63  C   UNL A   1      46.373  27.214  31.161  1.00  0.00     0.031 A 
BRANCH  50  64
ATOM     64  C   UNL A   1      43.614  32.641  32.231  1.00  0.00    -0.014 A 
ATOM     65  C   UNL A   1      43.280  32.909  33.570  1.00  0.00     0.010 A 
ATOM     66  C   UNL A   1      44.102  33.688  31.426  1.00  0.00     0.010 A 
ATOM     67  C   UNL A   1      43.392  34.204  34.083  1.00  0.00     0.020 A 
ATOM     68  C   UNL A   1      44.242  34.979  31.943  1.00  0.00     0.020 A 
ATOM     69  C   UNL A   1      43.870  35.231  33.264  1.00  0.00     0.054 A 
BRANCH  69  70
ATOM     70  S   UNL A   1      44.029  36.898  33.964  1.00  0.00     0.124 S 
ATOM     71  O   UNL A   1      44.584  36.619  35.285  1.00  0.00    -0.237 OA
ATOM     72  O   UNL A   1      44.939  37.554  33.027  1.00  0.00    -0.237 OA
ATOM     73  O   UNL A   1      42.661  37.409  33.959  1.00  0.00    -0.744 OA
ENDBRANCH  69  70
ENDBRANCH  50  64
BRANCH  51  74
ATOM     74  C   UNL A   1      42.656  23.653  27.962  1.00  0.00    -0.014 A 
ATOM     75  C   UNL A   1      42.978  23.511  26.602  1.00  0.00     0.010 A 
ATOM     76  C   UNL A   1      42.230  22.524  28.685  1.00  0.00     0.010 A 
ATOM     77  C   UNL A   1      42.858  22.270  25.970  1.00  0.00     0.020 A 
ATOM     78  C   UNL A   1      42.136  21.275  28.066  1.00  0.00     0.020 A 
ATOM     79  C   UNL A   1      42.439  21.158  26.708  1.00  0.00     0.054 A 
BRANCH  79  80
ATOM     80  S   UNL A   1      42.341  19.545  25.882  1.00  0.00     0.124 S 
ATOM     81  O   UNL A   1      42.692  18.630  26.963  1.00  0.00    -0.237 OA
ATOM     82  O   UNL A   1      40.949  19.501  25.441  1.00  0.00    -0.237 OA
ATOM     83  O   UNL A   1      43.323  19.653  24.806  1.00  0.00    -0.744 OA
ENDBRANCH  79  80
ENDBRANCH  51  74
BRANCH  63  84
ATOM     84  C   UNL A   1      47.741  26.758  31.594  1.00  0.00    -0.014 A 
ATOM     85  C   UNL A   1      48.882  27.041  30.825  1.00  0.00     0.010 A 
ATOM     86  C   UNL A   1      47.889  26.086  32.822  1.00  0.00     0.010 A 
ATOM     87  C   UNL A   1      50.146  26.632  31.260  1.00  0.00     0.020 A 
ATOM     88  C   UNL A   1      49.154  25.702  33.274  1.00  0.00     0.020 A 
ATOM     89  C   UNL A   1      50.273  25.964  32.483  1.00  0.00     0.054 A 
BRANCH  89  90
ATOM     90  S   UNL A   1      51.929  25.485  33.048  1.00  0.00     0.124 S 
ATOM     91  O   UNL A   1      51.634  24.794  34.300  1.00  0.00    -0.237 OA
ATOM     92  O   UNL A   1      52.407  24.636  31.959  1.00  0.00    -0.237 OA
ATOM     93  O   UNL A   1      52.629  26.759  33.190  1.00  0.00    -0.744 OA
ENDBRANCH  89  90
ENDBRANCH  63  84
ENDBRANCH  37  38
ENDBRANCH  29  32
ENDBRANCH  27  28
ENDBRANCH  26  27
ENDBRANCH   1  26
TORSDOF 18
ENDMDL
MODEL 3
REMARK VINA RESULT:     -11.4      6.433     12.043
REMARK SMILES Cc1cc(C)cc(-c2ccc([C@@H](C)C(=O)NCCCCCCNC(=O)c3ccc(-c4c5nc(c(-c6ccc(S(=O)(=O)[O-])cc6)c6ccc([nH]6)c(-c6ccc(S(=O)(=O)[O-])cc6)c6nc(c(-c7ccc(S(=O)(=O)[O-])cc7)c7ccc4[nH]7)C=C6)C=C5)cc3)cc2F)c1
REMARK SMILES IDX 20 1 19 2 18 3 17 4 16 5 14 6 15 7 12 9 13 10 11 11 8 12
REMARK SMILES IDX 9 13 87 14 10 15 86 16 88 17 7 18 1 19 2 20 3 21 89 22 4 23
REMARK SMILES IDX 5 24 6 25 21 26 22 27 23 28 24 29 25 31 26 32 27 33 85 34
REMARK SMILES IDX 28 35 84 36 29 37 30 38 31 39 78 40 32 41 83 42 77 43 79 44
REMARK SMILES IDX 33 45 82 46 76 47 75 48 34 50 64 51 45 52 63 53 46 54 49 55
REMARK SMILES IDX 62 56 80 57 47 58 48 59 61 61 81 62 50 63 35 64 36 65 44 66
REMARK SMILES IDX 37 67 43 68 38 69 39 70 40 71 41 72 42 73 65 74 66 75 74 76
REMARK SMILES IDX 67 77 73 78 68 79 69 80 70 81 71 82 72 83 51 84 52 85 60 86
REMARK SMILES IDX 53 87 59 88 54 89 55 90 56 91 57 92 58 93
REMARK H PARENT 16 8 23 30 79 49 49 60
REMARK Flexibility Score: inf
ROOT
ATOM      1  C   UNL A   1      37.270  22.734  25.151  1.00  0.00     0.002 C 
ENDROOT
BRANCH   1   2
ATOM      2  C   UNL A   1      36.760  22.909  23.714  1.00  0.00     0.002 C 
BRANCH   2   3
ATOM      3  C   UNL A   1      35.256  22.680  23.527  1.00  0.00     0.021 C 
BRANCH   3   4
ATOM      4  C   UNL A   1      34.439  22.891  24.804  1.00  0.00     0.116 C 
BRANCH   4   5
ATOM      5  N   UNL A   1      33.702  21.698  25.168  1.00  0.00    -0.356 N 
ATOM      6  C   UNL A   1      32.510  21.205  24.736  1.00  0.00     0.227 C 
ATOM      7  O   UNL A   1      32.089  20.198  25.319  1.00  0.00    -0.274 OA
ATOM      8  H   UNL A   1      34.144  21.145  25.851  1.00  0.00     0.163 HD
BRANCH   6   9
ATOM      9  C   UNL A   1      31.701  21.813  23.580  1.00  0.00     0.105 C 
ATOM     10  C   UNL A   1      32.153  21.350  22.195  1.00  0.00     0.023 C 
BRANCH   9  11
ATOM     11  C   UNL A   1      31.444  23.304  23.731  1.00  0.00    -0.033 A 
ATOM     12  C   UNL A   1      31.041  26.109  24.149  1.00  0.00     0.017 A 
ATOM     13  C   UNL A   1      31.660  25.613  22.989  1.00  0.00     0.012 A 
ATOM     14  C   UNL A   1      30.605  25.158  25.080  1.00  0.00     0.131 A 
ATOM     15  C   UNL A   1      31.826  24.242  22.770  1.00  0.00     0.005 A 
ATOM     16  C   UNL A   1      30.815  23.787  24.890  1.00  0.00     0.044 A 
ATOM     17  F   UNL A   1      29.963  25.538  26.196  1.00  0.00    -0.206 F 
BRANCH  12  18
ATOM     18  C   UNL A   1      30.893  27.568  24.344  1.00  0.00    -0.015 A 
ATOM     19  C   UNL A   1      32.284  30.379  26.538  1.00  0.00     0.044 C 
ATOM     20  C   UNL A   1      31.519  29.654  25.470  1.00  0.00    -0.050 A 
ATOM     21  C   UNL A   1      30.709  30.376  24.586  1.00  0.00     0.006 A 
ATOM     22  C   UNL A   1      31.604  28.259  25.340  1.00  0.00     0.012 A 
ATOM     23  C   UNL A   1      29.985  29.721  23.587  1.00  0.00    -0.050 A 
ATOM     24  C   UNL A   1      29.139  30.506  22.629  1.00  0.00     0.044 C 
ATOM     25  C   UNL A   1      30.070  28.327  23.489  1.00  0.00     0.012 A 
ENDBRANCH  12  18
ENDBRANCH   9  11
ENDBRANCH   6   9
ENDBRANCH   4   5
ENDBRANCH   3   4
ENDBRANCH   2   3
ENDBRANCH   1   2
BRANCH   1  26
ATOM     26  C   UNL A   1      37.477  24.031  25.939  1.00  0.00     0.021 C 
BRANCH  26  27
ATOM     27  C   UNL A   1      38.743  24.064  26.792  1.00  0.00     0.116 C 
BRANCH  27  28
ATOM     28  N   UNL A   1      39.921  24.366  25.993  1.00  0.00    -0.352 N 
ATOM     29  C   UNL A   1      40.773  25.439  26.063  1.00  0.00     0.251 C 
ATOM     30  H   UNL A   1      40.139  23.701  25.300  1.00  0.00     0.163 HD
ATOM     31  O   UNL A   1      41.564  25.651  25.150  1.00  0.00    -0.269 OA
BRANCH  29  32
ATOM     32  C   UNL A   1      40.733  26.341  27.234  1.00  0.00     0.039 A 
ATOM     33  C   UNL A   1      41.403  27.566  27.171  1.00  0.00     0.014 A 
ATOM     34  C   UNL A   1      40.063  25.967  28.402  1.00  0.00     0.014 A 
ATOM     35  C   UNL A   1      41.356  28.438  28.261  1.00  0.00     0.010 A 
ATOM     36  C   UNL A   1      39.961  26.864  29.462  1.00  0.00     0.010 A 
ATOM     37  C   UNL A   1      40.611  28.107  29.405  1.00  0.00    -0.014 A 
BRANCH  37  38
ATOM     38  C   UNL A   1      40.500  29.046  30.550  1.00  0.00     0.031 A 
ATOM     39  C   UNL A   1      41.379  28.874  31.760  1.00  0.00     0.074 A 
ATOM     40  C   UNL A   1      39.561  30.013  30.529  1.00  0.00     0.049 A 
ATOM     41  N   UNL A   1      41.385  29.555  32.878  1.00  0.00    -0.248 NA
ATOM     42  C   UNL A   1      42.363  27.780  31.720  1.00  0.00     0.031 C 
ATOM     43  C   UNL A   1      38.619  30.254  29.433  1.00  0.00     0.029 A 
ATOM     44  N   UNL A   1      39.236  30.967  31.461  1.00  0.00    -0.354 N 
ATOM     45  C   UNL A   1      42.354  28.961  33.679  1.00  0.00     0.074 A 
ATOM     46  C   UNL A   1      42.883  27.837  32.937  1.00  0.00     0.031 C 
ATOM     47  C   UNL A   1      37.838  31.300  29.747  1.00  0.00     0.029 A 
ATOM     48  C   UNL A   1      38.194  31.779  31.079  1.00  0.00     0.049 A 
ATOM     49  H   UNL A   1      39.704  31.060  32.321  1.00  0.00     0.167 HD
ATOM     50  C   UNL A   1      42.774  29.327  34.914  1.00  0.00     0.031 A 
ATOM     51  C   UNL A   1      37.586  32.791  31.729  1.00  0.00     0.031 A 
ATOM     52  C   UNL A   1      42.254  30.454  35.641  1.00  0.00     0.049 A 
ATOM     53  C   UNL A   1      38.074  33.180  33.097  1.00  0.00     0.074 A 
ATOM     54  C   UNL A   1      42.662  30.947  36.869  1.00  0.00     0.029 A 
ATOM     55  N   UNL A   1      41.215  31.264  35.210  1.00  0.00    -0.354 N 
ATOM     56  N   UNL A   1      39.041  32.650  33.807  1.00  0.00    -0.248 NA
ATOM     57  C   UNL A   1      37.397  34.311  33.746  1.00  0.00     0.031 C 
ATOM     58  C   UNL A   1      41.831  32.021  37.206  1.00  0.00     0.029 A 
ATOM     59  C   UNL A   1      40.948  32.235  36.159  1.00  0.00     0.049 A 
ATOM     60  H   UNL A   1      40.737  31.163  34.355  1.00  0.00     0.167 HD
ATOM     61  C   UNL A   1      39.106  33.401  34.976  1.00  0.00     0.074 A 
ATOM     62  C   UNL A   1      38.092  34.430  34.870  1.00  0.00     0.031 C 
ATOM     63  C   UNL A   1      39.934  33.253  36.040  1.00  0.00     0.031 A 
BRANCH  50  64
ATOM     64  C   UNL A   1      43.848  28.492  35.562  1.00  0.00    -0.014 A 
ATOM     65  C   UNL A   1      45.211  28.783  35.374  1.00  0.00     0.010 A 
ATOM     66  C   UNL A   1      43.488  27.429  36.411  1.00  0.00     0.010 A 
ATOM     67  C   UNL A   1      46.194  28.003  35.990  1.00  0.00     0.020 A 
ATOM     68  C   UNL A   1      44.467  26.664  37.052  1.00  0.00     0.020 A 
ATOM     69  C   UNL A   1      45.815  26.947  36.823  1.00  0.00     0.054 A 
BRANCH  69  70
ATOM     70  S   UNL A   1      47.111  25.966  37.629  1.00  0.00     0.124 S 
ATOM     71  O   UNL A   1      47.093  24.737  36.841  1.00  0.00    -0.237 OA
ATOM     72  O   UNL A   1      48.298  26.802  37.460  1.00  0.00    -0.237 OA
ATOM     73  O   UNL A   1      46.640  25.831  39.005  1.00  0.00    -0.744 OA
ENDBRANCH  69  70
ENDBRANCH  50  64
BRANCH  51  74
ATOM     74  C   UNL A   1      36.454  33.512  31.086  1.00  0.00    -0.014 A 
ATOM     75  C   UNL A   1      35.279  33.789  31.807  1.00  0.00     0.010 A 
ATOM     76  C   UNL A   1      36.552  33.939  29.749  1.00  0.00     0.010 A 
ATOM     77  C   UNL A   1      34.216  34.461  31.199  1.00  0.00     0.020 A 
ATOM     78  C   UNL A   1      35.502  34.638  29.146  1.00  0.00     0.020 A 
ATOM     79  C   UNL A   1      34.335  34.884  29.871  1.00  0.00     0.054 A 
BRANCH  79  80
ATOM     80  S   UNL A   1      32.963  35.802  29.116  1.00  0.00     0.124 S 
ATOM     81  O   UNL A   1      32.375  34.798  28.237  1.00  0.00    -0.237 OA
ATOM     82  O   UNL A   1      32.160  36.179  30.277  1.00  0.00    -0.237 OA
ATOM     83  O   UNL A   1      33.629  36.915  28.443  1.00  0.00    -0.744 OA
ENDBRANCH  79  80
ENDBRANCH  51  74
BRANCH  63  84
ATOM     84  C   UNL A   1      39.802  34.245  37.164  1.00  0.00    -0.014 A 
ATOM     85  C   UNL A   1      40.369  35.529  37.075  1.00  0.00     0.010 A 
ATOM     86  C   UNL A   1      39.048  33.905  38.303  1.00  0.00     0.010 A 
ATOM     87  C   UNL A   1      40.211  36.444  38.119  1.00  0.00     0.020 A 
ATOM     88  C   UNL A   1      38.864  34.828  39.335  1.00  0.00     0.020 A 
ATOM     89  C   UNL A   1      39.459  36.087  39.243  1.00  0.00     0.054 A 
BRANCH  89  90
ATOM     90  S   UNL A   1      39.229  37.309  40.564  1.00  0.00     0.124 S 
ATOM     91  O   UNL A   1      38.249  38.215  39.971  1.00  0.00    -0.237 OA
ATOM     92  O   UNL A   1      38.741  36.495  41.674  1.00  0.00    -0.237 OA
ATOM     93  O   UNL A   1      40.564  37.872  40.752  1.00  0.00    -0.744 OA
ENDBRANCH  89  90
ENDBRANCH  63  84
ENDBRANCH  37  38
ENDBRANCH  29  32
ENDBRANCH  27  28
ENDBRANCH  26  27
ENDBRANCH   1  26
TORSDOF 18
ENDMDL
