MODEL 1
REMARK VINA RESULT:     -11.5      0.000      0.000
REMARK SMILES CC(C)(C)OC(=O)N1CCC2(CC1)CNc1ccc(C(=O)NCCCCCCNC(=O)c3ccc(-c4c5nc(c(-c6ccc(S(=O)(=O)[O-])cc6)c6ccc([nH]6)c(-c6ccc(S(=O)(=O)[O-])cc6)c6nc(c(-c7ccc(S(=O)(=O)[O-])cc7)c7ccc4[nH]7)C=C6)C=C5)cc3)cc12
REMARK SMILES IDX 26 1 25 2 24 3 23 4 22 5 20 6 21 7 19 9 6 10 7 11 8 12 9 13
REMARK SMILES IDX 13 14 10 15 12 16 11 17 14 18 93 19 15 20 16 21 92 22 17 24
REMARK SMILES IDX 18 25 5 26 2 27 1 28 3 29 4 30 27 31 28 32 29 33 30 34 31 36
REMARK SMILES IDX 32 37 33 38 91 39 34 40 90 41 35 42 36 43 37 44 84 45 38 46
REMARK SMILES IDX 89 47 83 48 85 49 39 50 88 51 82 52 81 53 40 55 70 56 51 57
REMARK SMILES IDX 69 58 52 59 55 60 68 61 86 62 53 63 54 64 67 66 87 67 56 68
REMARK SMILES IDX 41 69 42 70 50 71 43 72 49 73 44 74 45 75 46 76 47 77 48 78
REMARK SMILES IDX 71 79 72 80 80 81 73 82 79 83 74 84 75 85 76 86 77 87 78 88
REMARK SMILES IDX 57 89 58 90 66 91 59 92 65 93 60 94 61 95 62 96 63 97 64 98
REMARK H PARENT 22 8 15 23 29 35 85 54 55 65
REMARK Flexibility Score: inf
ROOT
ATOM      1  C   UNL A   1      42.516  22.557  28.157  1.00  0.00     0.002 C 
ENDROOT
BRANCH   1   2
ATOM      2  C   UNL A   1      41.031  22.219  27.957  1.00  0.00     0.002 C 
BRANCH   2   3
ATOM      3  C   UNL A   1      40.743  21.079  26.967  1.00  0.00     0.021 C 
BRANCH   3   4
ATOM      4  C   UNL A   1      39.700  21.439  25.906  1.00  0.00     0.116 C 
BRANCH   4   5
ATOM      5  N   UNL A   1      39.160  22.760  26.167  1.00  0.00    -0.352 N 
ATOM      6  C   UNL A   1      37.913  23.311  26.059  1.00  0.00     0.251 C 
ATOM      7  O   UNL A   1      37.813  24.504  26.357  1.00  0.00    -0.269 OA
ATOM      8  H   UNL A   1      39.838  23.397  26.491  1.00  0.00     0.163 HD
BRANCH   6   9
ATOM      9  C   UNL A   1      36.679  22.566  25.661  1.00  0.00     0.040 A 
ATOM     10  C   UNL A   1      31.053  27.008  24.544  1.00  0.00     0.410 C 
ATOM     11  O   UNL A   1      30.796  27.535  23.475  1.00  0.00    -0.224 OA
ATOM     12  N   UNL A   1      31.248  25.647  24.695  1.00  0.00    -0.308 N 
ATOM     13  C   UNL A   1      31.560  24.841  23.526  1.00  0.00     0.124 C 
ATOM     14  C   UNL A   1      31.205  24.947  25.972  1.00  0.00     0.124 C 
ATOM     15  C   UNL A   1      32.904  24.138  23.732  1.00  0.00     0.035 C 
ATOM     16  C   UNL A   1      32.516  24.216  26.239  1.00  0.00     0.035 C 
ATOM     17  C   UNL A   1      32.934  23.329  25.049  1.00  0.00     0.018 C 
ATOM     18  C   UNL A   1      32.062  22.032  24.936  1.00  0.00     0.124 C 
ATOM     19  C   UNL A   1      34.299  22.713  25.255  1.00  0.00    -0.016 A 
ATOM     20  N   UNL A   1      32.966  20.922  24.643  1.00  0.00    -0.384 N 
ATOM     21  C   UNL A   1      34.242  21.349  24.997  1.00  0.00     0.038 A 
ATOM     22  C   UNL A   1      35.496  23.325  25.606  1.00  0.00     0.020 A 
ATOM     23  H   UNL A   1      32.721  20.045  24.270  1.00  0.00     0.160 HD
ATOM     24  C   UNL A   1      35.398  20.594  24.982  1.00  0.00     0.027 A 
ATOM     25  C   UNL A   1      36.621  21.211  25.296  1.00  0.00     0.016 A 
BRANCH  10  26
ATOM     26  O   UNL A   1      31.248  27.680  25.708  1.00  0.00    -0.444 OA
BRANCH  26  27
ATOM     27  C   UNL A   1      32.448  28.468  25.929  1.00  0.00     0.106 C 
ATOM     28  C   UNL A   1      32.676  28.417  27.447  1.00  0.00     0.056 C 
ATOM     29  C   UNL A   1      32.185  29.914  25.503  1.00  0.00     0.056 C 
ATOM     30  C   UNL A   1      33.700  27.896  25.247  1.00  0.00     0.056 C 
ENDBRANCH  26  27
ENDBRANCH  10  26
ENDBRANCH   6   9
ENDBRANCH   4   5
ENDBRANCH   3   4
ENDBRANCH   2   3
ENDBRANCH   1   2
BRANCH   1  31
ATOM     31  C   UNL A   1      43.349  22.622  26.877  1.00  0.00     0.021 C 
BRANCH  31  32
ATOM     32  C   UNL A   1      43.605  24.033  26.360  1.00  0.00     0.116 C 
BRANCH  32  33
ATOM     33  N   UNL A   1      42.507  24.533  25.543  1.00  0.00    -0.352 N 
ATOM     34  C   UNL A   1      41.520  25.430  25.888  1.00  0.00     0.251 C 
ATOM     35  H   UNL A   1      42.466  24.185  24.624  1.00  0.00     0.163 HD
ATOM     36  O   UNL A   1      40.570  25.635  25.141  1.00  0.00    -0.269 OA
BRANCH  34  37
ATOM     37  C   UNL A   1      41.604  26.110  27.197  1.00  0.00     0.039 A 
ATOM     38  C   UNL A   1      40.724  25.759  28.224  1.00  0.00     0.014 A 
ATOM     39  C   UNL A   1      42.508  27.161  27.364  1.00  0.00     0.014 A 
ATOM     40  C   UNL A   1      40.628  26.572  29.349  1.00  0.00     0.010 A 
ATOM     41  C   UNL A   1      42.458  27.931  28.528  1.00  0.00     0.010 A 
ATOM     42  C   UNL A   1      41.478  27.679  29.502  1.00  0.00    -0.014 A 
BRANCH  42  43
ATOM     43  C   UNL A   1      41.295  28.598  30.655  1.00  0.00     0.031 A 
ATOM     44  C   UNL A   1      40.172  29.604  30.653  1.00  0.00     0.074 A 
ATOM     45  C   UNL A   1      42.101  28.492  31.730  1.00  0.00     0.049 A 
ATOM     46  N   UNL A   1      39.874  30.506  31.553  1.00  0.00    -0.248 NA
ATOM     47  C   UNL A   1      39.261  29.593  29.495  1.00  0.00     0.031 C 
ATOM     48  C   UNL A   1      43.185  27.519  31.872  1.00  0.00     0.029 A 
ATOM     49  N   UNL A   1      42.118  29.188  32.912  1.00  0.00    -0.354 N 
ATOM     50  C   UNL A   1      38.759  31.178  31.065  1.00  0.00     0.074 A 
ATOM     51  C   UNL A   1      38.445  30.600  29.777  1.00  0.00     0.031 C 
ATOM     52  C   UNL A   1      43.728  27.645  33.093  1.00  0.00     0.029 A 
ATOM     53  C   UNL A   1      43.083  28.754  33.792  1.00  0.00     0.049 A 
ATOM     54  H   UNL A   1      41.499  29.927  33.113  1.00  0.00     0.167 HD
ATOM     55  C   UNL A   1      38.056  32.178  31.644  1.00  0.00     0.031 A 
ATOM     56  C   UNL A   1      43.427  29.204  35.015  1.00  0.00     0.031 A 
ATOM     57  C   UNL A   1      38.365  32.738  32.934  1.00  0.00     0.049 A 
ATOM     58  C   UNL A   1      42.682  30.366  35.605  1.00  0.00     0.074 A 
ATOM     59  C   UNL A   1      37.713  33.761  33.600  1.00  0.00     0.029 A 
ATOM     60  N   UNL A   1      39.402  32.321  33.754  1.00  0.00    -0.354 N 
ATOM     61  N   UNL A   1      41.652  31.013  35.113  1.00  0.00    -0.248 NA
ATOM     62  C   UNL A   1      43.145  30.870  36.906  1.00  0.00     0.031 C 
ATOM     63  C   UNL A   1      38.388  33.999  34.799  1.00  0.00     0.029 A 
ATOM     64  C   UNL A   1      39.420  33.080  34.911  1.00  0.00     0.049 A 
ATOM     65  H   UNL A   1      40.031  31.593  33.546  1.00  0.00     0.167 HD
ATOM     66  C   UNL A   1      41.336  31.990  36.048  1.00  0.00     0.074 A 
ATOM     67  C   UNL A   1      42.274  31.845  37.141  1.00  0.00     0.031 C 
ATOM     68  C   UNL A   1      40.355  32.924  35.997  1.00  0.00     0.031 A 
BRANCH  55  69
ATOM     69  C   UNL A   1      36.876  32.750  30.901  1.00  0.00    -0.014 A 
ATOM     70  C   UNL A   1      37.089  33.638  29.831  1.00  0.00     0.010 A 
ATOM     71  C   UNL A   1      35.561  32.500  31.332  1.00  0.00     0.010 A 
ATOM     72  C   UNL A   1      36.014  34.287  29.219  1.00  0.00     0.020 A 
ATOM     73  C   UNL A   1      34.480  33.128  30.705  1.00  0.00     0.020 A 
ATOM     74  C   UNL A   1      34.714  34.033  29.667  1.00  0.00     0.054 A 
BRANCH  74  75
ATOM     75  S   UNL A   1      33.328  34.890  28.871  1.00  0.00     0.124 S 
ATOM     76  O   UNL A   1      32.440  35.156  29.999  1.00  0.00    -0.237 OA
ATOM     77  O   UNL A   1      33.970  36.064  28.283  1.00  0.00    -0.237 OA
ATOM     78  O   UNL A   1      32.835  33.912  27.903  1.00  0.00    -0.744 OA
ENDBRANCH  74  75
ENDBRANCH  55  69
BRANCH  56  79
ATOM     79  C   UNL A   1      44.532  28.527  35.746  1.00  0.00    -0.014 A 
ATOM     80  C   UNL A   1      45.870  28.905  35.523  1.00  0.00     0.010 A 
ATOM     81  C   UNL A   1      44.263  27.433  36.585  1.00  0.00     0.010 A 
ATOM     82  C   UNL A   1      46.918  28.162  36.068  1.00  0.00     0.020 A 
ATOM     83  C   UNL A   1      45.310  26.703  37.156  1.00  0.00     0.020 A 
ATOM     84  C   UNL A   1      46.631  27.053  36.866  1.00  0.00     0.054 A 
BRANCH  84  85
ATOM     85  S   UNL A   1      48.007  26.057  37.506  1.00  0.00     0.124 S 
ATOM     86  O   UNL A   1      48.264  25.153  36.388  1.00  0.00    -0.237 OA
ATOM     87  O   UNL A   1      49.040  27.060  37.754  1.00  0.00    -0.237 OA
ATOM     88  O   UNL A   1      47.448  25.433  38.702  1.00  0.00    -0.744 OA
ENDBRANCH  84  85
ENDBRANCH  56  79
BRANCH  68  89
ATOM     89  C   UNL A   1      40.213  33.879  37.151  1.00  0.00    -0.014 A 
ATOM     90  C   UNL A   1      39.456  33.499  38.275  1.00  0.00     0.010 A 
ATOM     91  C   UNL A   1      40.671  35.203  37.045  1.00  0.00     0.010 A 
ATOM     92  C   UNL A   1      39.114  34.440  39.249  1.00  0.00     0.020 A 
ATOM     93  C   UNL A   1      40.352  36.142  38.030  1.00  0.00     0.020 A 
ATOM     94  C   UNL A   1      39.547  35.761  39.108  1.00  0.00     0.054 A 
BRANCH  94  95
ATOM     95  S   UNL A   1      39.027  36.987  40.340  1.00  0.00     0.124 S 
ATOM     96  O   UNL A   1      40.277  37.270  41.037  1.00  0.00    -0.237 OA
ATOM     97  O   UNL A   1      38.506  38.073  39.513  1.00  0.00    -0.237 OA
ATOM     98  O   UNL A   1      38.020  36.276  41.126  1.00  0.00    -0.744 OA
ENDBRANCH  94  95
ENDBRANCH  68  89
ENDBRANCH  42  43
ENDBRANCH  34  37
ENDBRANCH  32  33
ENDBRANCH  31  32
ENDBRANCH   1  31
TORSDOF 18
ENDMDL
MODEL 2
REMARK VINA RESULT:     -10.7      0.781      7.902
REMARK SMILES CC(C)(C)OC(=O)N1CCC2(CC1)CNc1ccc(C(=O)NCCCCCCNC(=O)c3ccc(-c4c5nc(c(-c6ccc(S(=O)(=O)[O-])cc6)c6ccc([nH]6)c(-c6ccc(S(=O)(=O)[O-])cc6)c6nc(c(-c7ccc(S(=O)(=O)[O-])cc7)c7ccc4[nH]7)C=C6)C=C5)cc3)cc12
REMARK SMILES IDX 26 1 25 2 24 3 23 4 22 5 20 6 21 7 19 9 6 10 7 11 8 12 9 13
REMARK SMILES IDX 13 14 10 15 12 16 11 17 14 18 93 19 15 20 16 21 92 22 17 24
REMARK SMILES IDX 18 25 5 26 2 27 1 28 3 29 4 30 27 31 28 32 29 33 30 34 31 36
REMARK SMILES IDX 32 37 33 38 91 39 34 40 90 41 35 42 36 43 37 44 84 45 38 46
REMARK SMILES IDX 89 47 83 48 85 49 39 50 88 51 82 52 81 53 40 55 70 56 51 57
REMARK SMILES IDX 69 58 52 59 55 60 68 61 86 62 53 63 54 64 67 66 87 67 56 68
REMARK SMILES IDX 41 69 42 70 50 71 43 72 49 73 44 74 45 75 46 76 47 77 48 78
REMARK SMILES IDX 71 79 72 80 80 81 73 82 79 83 74 84 75 85 76 86 77 87 78 88
REMARK SMILES IDX 57 89 58 90 66 91 59 92 65 93 60 94 61 95 62 96 63 97 64 98
REMARK H PARENT 22 8 15 23 29 35 85 54 55 65
REMARK Flexibility Score: inf
ROOT
ATOM      1  C   UNL A   1      42.699  21.248  25.889  1.00  0.00     0.002 C 
ENDROOT
BRANCH   1   2
ATOM      2  C   UNL A   1      41.767  20.035  26.020  1.00  0.00     0.002 C 
BRANCH   2   3
ATOM      3  C   UNL A   1      40.399  20.322  26.660  1.00  0.00     0.021 C 
BRANCH   3   4
ATOM      4  C   UNL A   1      39.262  20.444  25.643  1.00  0.00     0.116 C 
BRANCH   4   5
ATOM      5  N   UNL A   1      38.841  21.827  25.529  1.00  0.00    -0.352 N 
ATOM      6  C   UNL A   1      37.634  22.435  25.315  1.00  0.00     0.251 C 
ATOM      7  O   UNL A   1      37.644  23.668  25.257  1.00  0.00    -0.269 OA
ATOM      8  H   UNL A   1      39.584  22.466  25.628  1.00  0.00     0.163 HD
BRANCH   6   9
ATOM      9  C   UNL A   1      36.325  21.723  25.199  1.00  0.00     0.040 A 
ATOM     10  C   UNL A   1      30.762  26.332  24.530  1.00  0.00     0.410 C 
ATOM     11  O   UNL A   1      30.353  26.765  23.466  1.00  0.00    -0.224 OA
ATOM     12  N   UNL A   1      30.928  24.983  24.790  1.00  0.00    -0.308 N 
ATOM     13  C   UNL A   1      31.014  24.051  23.678  1.00  0.00     0.124 C 
ATOM     14  C   UNL A   1      31.069  24.415  26.124  1.00  0.00     0.124 C 
ATOM     15  C   UNL A   1      32.346  23.300  23.740  1.00  0.00     0.035 C 
ATOM     16  C   UNL A   1      32.377  23.644  26.254  1.00  0.00     0.035 C 
ATOM     17  C   UNL A   1      32.561  22.623  25.113  1.00  0.00     0.018 C 
ATOM     18  C   UNL A   1      31.635  21.370  25.277  1.00  0.00     0.124 C 
ATOM     19  C   UNL A   1      33.917  21.957  25.163  1.00  0.00    -0.016 A 
ATOM     20  N   UNL A   1      32.436  20.190  24.962  1.00  0.00    -0.384 N 
ATOM     21  C   UNL A   1      33.768  20.580  25.062  1.00  0.00     0.038 A 
ATOM     22  C   UNL A   1      35.178  22.536  25.253  1.00  0.00     0.020 A 
ATOM     23  H   UNL A   1      32.100  19.295  24.727  1.00  0.00     0.160 HD
ATOM     24  C   UNL A   1      34.877  19.766  24.943  1.00  0.00     0.027 A 
ATOM     25  C   UNL A   1      36.157  20.344  24.992  1.00  0.00     0.016 A 
BRANCH  10  26
ATOM     26  O   UNL A   1      31.170  27.103  25.571  1.00  0.00    -0.444 OA
BRANCH  26  27
ATOM     27  C   UNL A   1      32.400  27.871  25.500  1.00  0.00     0.106 C 
ATOM     28  C   UNL A   1      33.053  27.692  26.879  1.00  0.00     0.056 C 
ATOM     29  C   UNL A   1      32.059  29.347  25.286  1.00  0.00     0.056 C 
ATOM     30  C   UNL A   1      33.391  27.360  24.442  1.00  0.00     0.056 C 
ENDBRANCH  26  27
ENDBRANCH  10  26
ENDBRANCH   6   9
ENDBRANCH   4   5
ENDBRANCH   3   4
ENDBRANCH   2   3
ENDBRANCH   1   2
BRANCH   1  31
ATOM     31  C   UNL A   1      42.689  22.211  27.077  1.00  0.00     0.021 C 
BRANCH  31  32
ATOM     32  C   UNL A   1      41.648  23.322  26.981  1.00  0.00     0.116 C 
BRANCH  32  33
ATOM     33  N   UNL A   1      41.933  24.258  25.902  1.00  0.00    -0.352 N 
ATOM     34  C   UNL A   1      42.014  25.632  25.957  1.00  0.00     0.251 C 
ATOM     35  H   UNL A   1      42.089  23.856  25.018  1.00  0.00     0.163 HD
ATOM     36  O   UNL A   1      42.107  26.297  24.931  1.00  0.00    -0.269 OA
BRANCH  34  37
ATOM     37  C   UNL A   1      41.943  26.296  27.275  1.00  0.00     0.039 A 
ATOM     38  C   UNL A   1      40.985  25.893  28.210  1.00  0.00     0.014 A 
ATOM     39  C   UNL A   1      42.780  27.381  27.540  1.00  0.00     0.014 A 
ATOM     40  C   UNL A   1      40.746  26.683  29.329  1.00  0.00     0.010 A 
ATOM     41  C   UNL A   1      42.586  28.131  28.702  1.00  0.00     0.010 A 
ATOM     42  C   UNL A   1      41.528  27.824  29.575  1.00  0.00    -0.014 A 
BRANCH  42  43
ATOM     43  C   UNL A   1      41.197  28.717  30.715  1.00  0.00     0.031 A 
ATOM     44  C   UNL A   1      42.064  28.725  31.949  1.00  0.00     0.074 A 
ATOM     45  C   UNL A   1      40.154  29.564  30.620  1.00  0.00     0.049 A 
ATOM     46  N   UNL A   1      41.916  29.412  33.052  1.00  0.00    -0.248 NA
ATOM     47  C   UNL A   1      43.252  27.854  31.942  1.00  0.00     0.031 C 
ATOM     48  C   UNL A   1      39.278  29.689  29.454  1.00  0.00     0.029 A 
ATOM     49  N   UNL A   1      39.669  30.495  31.504  1.00  0.00    -0.354 N 
ATOM     50  C   UNL A   1      42.977  29.046  33.873  1.00  0.00     0.074 A 
ATOM     51  C   UNL A   1      43.748  28.056  33.155  1.00  0.00     0.031 C 
ATOM     52  C   UNL A   1      38.396  30.676  29.673  1.00  0.00     0.029 A 
ATOM     53  C   UNL A   1      38.594  31.204  31.021  1.00  0.00     0.049 A 
ATOM     54  H   UNL A   1      40.054  30.642  32.398  1.00  0.00     0.167 HD
ATOM     55  C   UNL A   1      43.283  29.503  35.110  1.00  0.00     0.031 A 
ATOM     56  C   UNL A   1      37.836  32.158  31.599  1.00  0.00     0.031 A 
ATOM     57  C   UNL A   1      42.519  30.499  35.813  1.00  0.00     0.049 A 
ATOM     58  C   UNL A   1      38.148  32.594  33.001  1.00  0.00     0.074 A 
ATOM     59  C   UNL A   1      42.749  31.020  37.074  1.00  0.00     0.029 A 
ATOM     60  N   UNL A   1      41.390  31.132  35.317  1.00  0.00    -0.354 N 
ATOM     61  N   UNL A   1      39.135  32.210  33.776  1.00  0.00    -0.248 NA
ATOM     62  C   UNL A   1      37.248  33.580  33.614  1.00  0.00     0.031 C 
ATOM     63  C   UNL A   1      41.728  31.927  37.363  1.00  0.00     0.029 A 
ATOM     64  C   UNL A   1      40.900  32.022  36.255  1.00  0.00     0.049 A 
ATOM     65  H   UNL A   1      40.996  30.973  34.429  1.00  0.00     0.167 HD
ATOM     66  C   UNL A   1      38.981  32.916  34.963  1.00  0.00     0.074 A 
ATOM     67  C   UNL A   1      37.814  33.759  34.802  1.00  0.00     0.031 C 
ATOM     68  C   UNL A   1      39.741  32.862  36.083  1.00  0.00     0.031 A 
BRANCH  55  69
ATOM     69  C   UNL A   1      44.496  28.937  35.803  1.00  0.00    -0.014 A 
ATOM     70  C   UNL A   1      45.763  29.502  35.566  1.00  0.00     0.010 A 
ATOM     71  C   UNL A   1      44.401  27.781  36.597  1.00  0.00     0.010 A 
ATOM     72  C   UNL A   1      46.916  28.909  36.086  1.00  0.00     0.020 A 
ATOM     73  C   UNL A   1      45.550  27.198  37.142  1.00  0.00     0.020 A 
ATOM     74  C   UNL A   1      46.802  27.754  36.865  1.00  0.00     0.054 A 
BRANCH  74  75
ATOM     75  S   UNL A   1      48.308  26.988  37.526  1.00  0.00     0.124 S 
ATOM     76  O   UNL A   1      48.134  25.589  37.150  1.00  0.00    -0.237 OA
ATOM     77  O   UNL A   1      49.369  27.705  36.821  1.00  0.00    -0.237 OA
ATOM     78  O   UNL A   1      48.229  27.267  38.959  1.00  0.00    -0.744 OA
ENDBRANCH  74  75
ENDBRANCH  55  69
BRANCH  56  79
ATOM     79  C   UNL A   1      36.717  32.756  30.822  1.00  0.00    -0.014 A 
ATOM     80  C   UNL A   1      36.978  33.690  29.801  1.00  0.00     0.010 A 
ATOM     81  C   UNL A   1      35.384  32.480  31.170  1.00  0.00     0.010 A 
ATOM     82  C   UNL A   1      35.933  34.386  29.191  1.00  0.00     0.020 A 
ATOM     83  C   UNL A   1      34.333  33.153  30.540  1.00  0.00     0.020 A 
ATOM     84  C   UNL A   1      34.617  34.126  29.578  1.00  0.00     0.054 A 
BRANCH  84  85
ATOM     85  S   UNL A   1      33.278  35.091  28.824  1.00  0.00     0.124 S 
ATOM     86  O   UNL A   1      34.015  36.189  28.205  1.00  0.00    -0.237 OA
ATOM     87  O   UNL A   1      32.677  34.135  27.897  1.00  0.00    -0.237 OA
ATOM     88  O   UNL A   1      32.442  35.461  29.963  1.00  0.00    -0.744 OA
ENDBRANCH  84  85
ENDBRANCH  56  79
BRANCH  68  89
ATOM     89  C   UNL A   1      39.365  33.738  37.248  1.00  0.00    -0.014 A 
ATOM     90  C   UNL A   1      39.920  35.027  37.353  1.00  0.00     0.010 A 
ATOM     91  C   UNL A   1      38.613  33.223  38.318  1.00  0.00     0.010 A 
ATOM     92  C   UNL A   1      39.777  35.766  38.529  1.00  0.00     0.020 A 
ATOM     93  C   UNL A   1      38.446  33.970  39.487  1.00  0.00     0.020 A 
ATOM     94  C   UNL A   1      39.058  35.223  39.597  1.00  0.00     0.054 A 
BRANCH  94  95
ATOM     95  S   UNL A   1      38.949  36.163  41.144  1.00  0.00     0.124 S 
ATOM     96  O   UNL A   1      38.775  37.529  40.661  1.00  0.00    -0.237 OA
ATOM     97  O   UNL A   1      37.783  35.573  41.798  1.00  0.00    -0.237 OA
ATOM     98  O   UNL A   1      40.226  35.891  41.802  1.00  0.00    -0.744 OA
ENDBRANCH  94  95
ENDBRANCH  68  89
ENDBRANCH  42  43
ENDBRANCH  34  37
ENDBRANCH  32  33
ENDBRANCH  31  32
ENDBRANCH   1  31
TORSDOF 18
ENDMDL
MODEL 3
REMARK VINA RESULT:      -9.9      5.413      9.946
REMARK SMILES CC(C)(C)OC(=O)N1CCC2(CC1)CNc1ccc(C(=O)NCCCCCCNC(=O)c3ccc(-c4c5nc(c(-c6ccc(S(=O)(=O)[O-])cc6)c6ccc([nH]6)c(-c6ccc(S(=O)(=O)[O-])cc6)c6nc(c(-c7ccc(S(=O)(=O)[O-])cc7)c7ccc4[nH]7)C=C6)C=C5)cc3)cc12
REMARK SMILES IDX 26 1 25 2 24 3 23 4 22 5 20 6 21 7 19 9 6 10 7 11 8 12 9 13
REMARK SMILES IDX 13 14 10 15 12 16 11 17 14 18 93 19 15 20 16 21 92 22 17 24
REMARK SMILES IDX 18 25 5 26 2 27 1 28 3 29 4 30 27 31 28 32 29 33 30 34 31 36
REMARK SMILES IDX 32 37 33 38 91 39 34 40 90 41 35 42 36 43 37 44 84 45 38 46
REMARK SMILES IDX 89 47 83 48 85 49 39 50 88 51 82 52 81 53 40 55 70 56 51 57
REMARK SMILES IDX 69 58 52 59 55 60 68 61 86 62 53 63 54 64 67 66 87 67 56 68
REMARK SMILES IDX 41 69 42 70 50 71 43 72 49 73 44 74 45 75 46 76 47 77 48 78
REMARK SMILES IDX 71 79 72 80 80 81 73 82 79 83 74 84 75 85 76 86 77 87 78 88
REMARK SMILES IDX 57 89 58 90 66 91 59 92 65 93 60 94 61 95 62 96 63 97 64 98
REMARK H PARENT 22 8 15 23 29 35 85 54 55 65
REMARK Flexibility Score: inf
ROOT
ATOM      1  C   UNL A   1      36.863  29.536  29.365  1.00  0.00     0.002 C 
ENDROOT
BRANCH   1   2
ATOM      2  C   UNL A   1      36.501  30.125  27.993  1.00  0.00     0.002 C 
BRANCH   2   3
ATOM      3  C   UNL A   1      35.394  29.381  27.229  1.00  0.00     0.021 C 
BRANCH   3   4
ATOM      4  C   UNL A   1      34.066  30.142  27.182  1.00  0.00     0.116 C 
BRANCH   4   5
ATOM      5  N   UNL A   1      33.011  29.340  27.771  1.00  0.00    -0.352 N 
ATOM      6  C   UNL A   1      31.973  28.614  27.255  1.00  0.00     0.251 C 
ATOM      7  O   UNL A   1      31.236  28.054  28.071  1.00  0.00    -0.269 OA
ATOM      8  H   UNL A   1      33.051  29.312  28.755  1.00  0.00     0.163 HD
BRANCH   6   9
ATOM      9  C   UNL A   1      31.706  28.418  25.797  1.00  0.00     0.040 A 
ATOM     10  C   UNL A   1      32.943  21.587  23.692  1.00  0.00     0.410 C 
ATOM     11  O   UNL A   1      32.109  20.697  23.723  1.00  0.00    -0.224 OA
ATOM     12  N   UNL A   1      32.731  22.808  23.077  1.00  0.00    -0.308 N 
ATOM     13  C   UNL A   1      31.369  23.237  22.802  1.00  0.00     0.124 C 
ATOM     14  C   UNL A   1      33.789  23.740  22.714  1.00  0.00     0.124 C 
ATOM     15  C   UNL A   1      31.098  24.568  23.507  1.00  0.00     0.035 C 
ATOM     16  C   UNL A   1      33.577  25.094  23.379  1.00  0.00     0.035 C 
ATOM     17  C   UNL A   1      32.153  25.637  23.143  1.00  0.00     0.018 C 
ATOM     18  C   UNL A   1      31.948  26.158  21.679  1.00  0.00     0.124 C 
ATOM     19  C   UNL A   1      31.897  26.911  23.914  1.00  0.00    -0.016 A 
ATOM     20  N   UNL A   1      31.212  27.417  21.762  1.00  0.00    -0.384 N 
ATOM     21  C   UNL A   1      31.355  27.871  23.070  1.00  0.00     0.038 A 
ATOM     22  C   UNL A   1      32.097  27.176  25.264  1.00  0.00     0.020 A 
ATOM     23  H   UNL A   1      30.714  27.858  21.036  1.00  0.00     0.160 HD
ATOM     24  C   UNL A   1      30.905  29.073  23.579  1.00  0.00     0.027 A 
ATOM     25  C   UNL A   1      31.065  29.337  24.950  1.00  0.00     0.016 A 
BRANCH  10  26
ATOM     26  O   UNL A   1      34.153  21.531  24.305  1.00  0.00    -0.444 OA
BRANCH  26  27
ATOM     27  C   UNL A   1      34.264  21.541  25.752  1.00  0.00     0.106 C 
ATOM     28  C   UNL A   1      33.518  22.809  26.194  1.00  0.00     0.056 C 
ATOM     29  C   UNL A   1      35.739  21.657  26.143  1.00  0.00     0.056 C 
ATOM     30  C   UNL A   1      33.592  20.339  26.435  1.00  0.00     0.056 C 
ENDBRANCH  26  27
ENDBRANCH  10  26
ENDBRANCH   6   9
ENDBRANCH   4   5
ENDBRANCH   3   4
ENDBRANCH   2   3
ENDBRANCH   1   2
BRANCH   1  31
ATOM     31  C   UNL A   1      36.246  30.253  30.567  1.00  0.00     0.021 C 
BRANCH  31  32
ATOM     32  C   UNL A   1      35.792  31.681  30.286  1.00  0.00     0.116 C 
BRANCH  32  33
ATOM     33  N   UNL A   1      34.608  32.048  31.052  1.00  0.00    -0.352 N 
ATOM     34  C   UNL A   1      34.538  32.697  32.265  1.00  0.00     0.251 C 
ATOM     35  H   UNL A   1      33.745  31.800  30.650  1.00  0.00     0.163 HD
ATOM     36  O   UNL A   1      33.472  32.797  32.863  1.00  0.00    -0.269 OA
BRANCH  34  37
ATOM     37  C   UNL A   1      35.781  33.234  32.857  1.00  0.00     0.039 A 
ATOM     38  C   UNL A   1      36.092  34.589  32.718  1.00  0.00     0.014 A 
ATOM     39  C   UNL A   1      36.677  32.359  33.474  1.00  0.00     0.014 A 
ATOM     40  C   UNL A   1      37.370  35.034  33.037  1.00  0.00     0.010 A 
ATOM     41  C   UNL A   1      37.935  32.826  33.861  1.00  0.00     0.010 A 
ATOM     42  C   UNL A   1      38.313  34.152  33.591  1.00  0.00    -0.014 A 
BRANCH  42  43
ATOM     43  C   UNL A   1      39.705  34.611  33.830  1.00  0.00     0.031 A 
ATOM     44  C   UNL A   1      40.145  35.010  35.216  1.00  0.00     0.074 A 
ATOM     45  C   UNL A   1      40.592  34.615  32.816  1.00  0.00     0.049 A 
ATOM     46  N   UNL A   1      41.306  35.464  35.612  1.00  0.00    -0.248 NA
ATOM     47  C   UNL A   1      39.155  34.878  36.300  1.00  0.00     0.031 C 
ATOM     48  C   UNL A   1      40.301  34.196  31.445  1.00  0.00     0.029 A 
ATOM     49  N   UNL A   1      41.921  34.958  32.786  1.00  0.00    -0.354 N 
ATOM     50  C   UNL A   1      41.183  35.686  36.978  1.00  0.00     0.074 A 
ATOM     51  C   UNL A   1      39.827  35.344  37.344  1.00  0.00     0.031 C 
ATOM     52  C   UNL A   1      41.428  34.256  30.720  1.00  0.00     0.029 A 
ATOM     53  C   UNL A   1      42.504  34.788  31.552  1.00  0.00     0.049 A 
ATOM     54  H   UNL A   1      42.410  35.293  33.572  1.00  0.00     0.167 HD
ATOM     55  C   UNL A   1      42.120  36.126  37.850  1.00  0.00     0.031 A 
ATOM     56  C   UNL A   1      43.757  35.047  31.126  1.00  0.00     0.031 A 
ATOM     57  C   UNL A   1      43.473  36.451  37.482  1.00  0.00     0.049 A 
ATOM     58  C   UNL A   1      44.759  35.608  32.093  1.00  0.00     0.074 A 
ATOM     59  C   UNL A   1      44.493  36.912  38.295  1.00  0.00     0.029 A 
ATOM     60  N   UNL A   1      43.998  36.340  36.203  1.00  0.00    -0.354 N 
ATOM     61  N   UNL A   1      44.614  35.846  33.375  1.00  0.00    -0.248 NA
ATOM     62  C   UNL A   1      46.088  35.946  31.564  1.00  0.00     0.031 C 
ATOM     63  C   UNL A   1      45.619  37.132  37.499  1.00  0.00     0.029 A 
ATOM     64  C   UNL A   1      45.321  36.744  36.202  1.00  0.00     0.049 A 
ATOM     65  H   UNL A   1      43.504  36.021  35.414  1.00  0.00     0.167 HD
ATOM     66  C   UNL A   1      45.835  36.349  33.808  1.00  0.00     0.074 A 
ATOM     67  C   UNL A   1      46.712  36.372  32.656  1.00  0.00     0.031 C 
ATOM     68  C   UNL A   1      46.188  36.758  35.050  1.00  0.00     0.031 A 
BRANCH  55  69
ATOM     69  C   UNL A   1      41.733  36.293  39.297  1.00  0.00    -0.014 A 
ATOM     70  C   UNL A   1      41.222  37.525  39.745  1.00  0.00     0.010 A 
ATOM     71  C   UNL A   1      41.980  35.273  40.233  1.00  0.00     0.010 A 
ATOM     72  C   UNL A   1      40.988  37.746  41.105  1.00  0.00     0.020 A 
ATOM     73  C   UNL A   1      41.723  35.481  41.592  1.00  0.00     0.020 A 
ATOM     74  C   UNL A   1      41.249  36.723  42.022  1.00  0.00     0.054 A 
BRANCH  74  75
ATOM     75  S   UNL A   1      40.951  37.027  43.785  1.00  0.00     0.124 S 
ATOM     76  O   UNL A   1      42.051  37.920  44.135  1.00  0.00    -0.237 OA
ATOM     77  O   UNL A   1      39.621  37.632  43.786  1.00  0.00    -0.237 OA
ATOM     78  O   UNL A   1      41.015  35.691  44.375  1.00  0.00    -0.744 OA
ENDBRANCH  74  75
ENDBRANCH  55  69
BRANCH  56  79
ATOM     79  C   UNL A   1      44.110  34.760  29.709  1.00  0.00    -0.014 A 
ATOM     80  C   UNL A   1      43.868  35.718  28.706  1.00  0.00     0.010 A 
ATOM     81  C   UNL A   1      44.587  33.491  29.340  1.00  0.00     0.010 A 
ATOM     82  C   UNL A   1      44.030  35.392  27.359  1.00  0.00     0.020 A 
ATOM     83  C   UNL A   1      44.779  33.170  27.992  1.00  0.00     0.020 A 
ATOM     84  C   UNL A   1      44.467  34.113  27.009  1.00  0.00     0.054 A 
BRANCH  84  85
ATOM     85  S   UNL A   1      44.603  33.687  25.251  1.00  0.00     0.124 S 
ATOM     86  O   UNL A   1      43.332  34.180  24.727  1.00  0.00    -0.237 OA
ATOM     87  O   UNL A   1      45.788  34.431  24.831  1.00  0.00    -0.237 OA
ATOM     88  O   UNL A   1      44.754  32.234  25.264  1.00  0.00    -0.744 OA
ENDBRANCH  84  85
ENDBRANCH  56  79
BRANCH  68  89
ATOM     89  C   UNL A   1      47.588  37.265  35.267  1.00  0.00    -0.014 A 
ATOM     90  C   UNL A   1      47.882  38.618  35.018  1.00  0.00     0.010 A 
ATOM     91  C   UNL A   1      48.639  36.372  35.541  1.00  0.00     0.010 A 
ATOM     92  C   UNL A   1      49.206  39.061  34.984  1.00  0.00     0.020 A 
ATOM     93  C   UNL A   1      49.964  36.817  35.533  1.00  0.00     0.020 A 
ATOM     94  C   UNL A   1      50.239  38.152  35.222  1.00  0.00     0.054 A 
BRANCH  94  95
ATOM     95  S   UNL A   1      51.955  38.728  35.096  1.00  0.00     0.124 S 
ATOM     96  O   UNL A   1      52.543  38.209  36.326  1.00  0.00    -0.237 OA
ATOM     97  O   UNL A   1      52.416  38.096  33.862  1.00  0.00    -0.237 OA
ATOM     98  O   UNL A   1      51.825  40.182  35.030  1.00  0.00    -0.744 OA
ENDBRANCH  94  95
ENDBRANCH  68  89
ENDBRANCH  42  43
ENDBRANCH  34  37
ENDBRANCH  32  33
ENDBRANCH  31  32
ENDBRANCH   1  31
TORSDOF 18
ENDMDL
