MODEL 1
REMARK VINA RESULT:     -11.4      0.000      0.000
REMARK SMILES Cc1cc(F)ccc1CCNc1ccc(Cl)c(C(=O)NCCCCCCNC(=O)c2ccc(-c3c4nc(c(-c5ccc(S(=O)(=O)[O-])cc5)c5ccc([nH]5)c(-c5ccc(S(=O)(=O)[O-])cc5)c5nc(c(-c6ccc(S(=O)(=O)[O-])cc6)c6ccc3[nH]6)C=C5)C=C4)cc2)n1
REMARK SMILES IDX 23 1 22 2 21 3 20 4 18 5 19 6 17 8 12 9 13 10 90 11 14 12
REMARK SMILES IDX 15 13 16 14 11 15 10 17 9 18 8 19 1 20 2 21 3 22 4 23 7 24
REMARK SMILES IDX 5 25 6 26 24 27 25 28 26 29 27 30 28 31 29 33 30 34 31 35
REMARK SMILES IDX 89 36 32 37 88 38 33 39 34 40 35 41 82 42 36 43 87 44 81 45
REMARK SMILES IDX 83 46 37 47 86 48 80 49 79 50 38 52 68 53 49 54 67 55 50 56
REMARK SMILES IDX 53 57 66 58 84 59 51 60 52 61 65 63 85 64 54 65 39 66 40 67
REMARK SMILES IDX 48 68 41 69 47 70 42 71 43 72 44 73 45 74 46 75 69 76 70 77
REMARK SMILES IDX 78 78 71 79 77 80 72 81 73 82 74 83 75 84 76 85 55 86 56 87
REMARK SMILES IDX 64 88 57 89 63 90 58 91 59 92 60 93 61 94 62 95
REMARK H PARENT 20 7 11 16 27 32 83 51 53 62
REMARK Flexibility Score: inf
ROOT
ATOM      1  C   UNL A   1      34.300  30.854  27.195  1.00  0.00     0.002 C 
ENDROOT
BRANCH   1   2
ATOM      2  C   UNL A   1      32.985  30.076  27.315  1.00  0.00     0.021 C 
BRANCH   2   3
ATOM      3  C   UNL A   1      32.081  30.059  26.086  1.00  0.00     0.116 C 
BRANCH   3   4
ATOM      4  N   UNL A   1      32.737  29.712  24.841  1.00  0.00    -0.351 N 
ATOM      5  C   UNL A   1      32.264  29.026  23.736  1.00  0.00     0.271 C 
ATOM      6  O   UNL A   1      33.025  28.939  22.768  1.00  0.00    -0.267 OA
ATOM      7  H   UNL A   1      33.671  30.015  24.770  1.00  0.00     0.163 HD
BRANCH   5   8
ATOM      8  C   UNL A   1      30.929  28.325  23.686  1.00  0.00     0.149 A 
ATOM      9  C   UNL A   1      29.829  26.350  24.284  1.00  0.00     0.126 A 
ATOM     10  C   UNL A   1      28.623  26.854  23.826  1.00  0.00     0.048 A 
ATOM     11  N   UNL A   1      30.945  27.099  24.306  1.00  0.00    -0.224 NA
ATOM     12  C   UNL A   1      28.609  28.082  23.180  1.00  0.00     0.027 A 
ATOM     13  C   UNL A   1      29.800  28.787  23.015  1.00  0.00     0.072 A 
ATOM     14  Cl  UNL A   1      29.779  30.037  21.832  1.00  0.00    -0.082 Cl
BRANCH   9  15
ATOM     15  N   UNL A   1      29.956  25.027  24.670  1.00  0.00    -0.370 N 
ATOM     16  H   UNL A   1      29.273  24.363  24.420  1.00  0.00     0.162 HD
BRANCH  15  17
ATOM     17  C   UNL A   1      31.129  24.632  25.460  1.00  0.00     0.119 C 
BRANCH  17  18
ATOM     18  C   UNL A   1      31.785  23.337  24.935  1.00  0.00     0.057 C 
BRANCH  18  19
ATOM     19  C   UNL A   1      33.282  23.477  24.726  1.00  0.00    -0.043 A 
ATOM     20  C   UNL A   1      33.194  23.090  22.174  1.00  0.00     0.045 C 
ATOM     21  C   UNL A   1      33.919  23.294  23.477  1.00  0.00    -0.045 A 
ATOM     22  C   UNL A   1      35.324  23.360  23.416  1.00  0.00     0.043 A 
ATOM     23  C   UNL A   1      36.076  23.590  24.562  1.00  0.00     0.123 A 
ATOM     24  C   UNL A   1      34.072  23.756  25.862  1.00  0.00     0.007 A 
ATOM     25  F   UNL A   1      37.413  23.623  24.478  1.00  0.00    -0.207 F 
ATOM     26  C   UNL A   1      35.461  23.797  25.784  1.00  0.00     0.039 A 
ENDBRANCH  18  19
ENDBRANCH  17  18
ENDBRANCH  15  17
ENDBRANCH   9  15
ENDBRANCH   5   8
ENDBRANCH   3   4
ENDBRANCH   2   3
ENDBRANCH   1   2
BRANCH   1  27
ATOM     27  C   UNL A   1      34.417  32.165  27.979  1.00  0.00     0.002 C 
BRANCH  27  28
ATOM     28  C   UNL A   1      35.807  32.799  28.072  1.00  0.00     0.021 C 
BRANCH  28  29
ATOM     29  C   UNL A   1      36.521  32.662  29.413  1.00  0.00     0.116 C 
BRANCH  29  30
ATOM     30  N   UNL A   1      36.022  31.553  30.208  1.00  0.00    -0.352 N 
ATOM     31  C   UNL A   1      36.587  30.328  30.456  1.00  0.00     0.251 C 
ATOM     32  H   UNL A   1      35.147  31.704  30.634  1.00  0.00     0.163 HD
ATOM     33  O   UNL A   1      35.929  29.462  31.034  1.00  0.00    -0.269 OA
BRANCH  31  34
ATOM     34  C   UNL A   1      37.969  30.030  30.017  1.00  0.00     0.039 A 
ATOM     35  C   UNL A   1      38.975  29.925  30.983  1.00  0.00     0.014 A 
ATOM     36  C   UNL A   1      38.285  29.875  28.664  1.00  0.00     0.014 A 
ATOM     37  C   UNL A   1      40.280  29.608  30.596  1.00  0.00     0.010 A 
ATOM     38  C   UNL A   1      39.569  29.484  28.289  1.00  0.00     0.010 A 
ATOM     39  C   UNL A   1      40.582  29.352  29.249  1.00  0.00    -0.014 A 
BRANCH  39  40
ATOM     40  C   UNL A   1      41.949  28.937  28.835  1.00  0.00     0.031 A 
ATOM     41  C   UNL A   1      43.071  29.939  28.790  1.00  0.00     0.074 A 
ATOM     42  C   UNL A   1      42.166  27.666  28.441  1.00  0.00     0.049 A 
ATOM     43  N   UNL A   1      44.317  29.767  28.425  1.00  0.00    -0.248 NA
ATOM     44  C   UNL A   1      42.747  31.320  29.182  1.00  0.00     0.031 C 
ATOM     45  C   UNL A   1      41.152  26.611  28.392  1.00  0.00     0.029 A 
ATOM     46  N   UNL A   1      43.309  27.048  27.999  1.00  0.00    -0.354 N 
ATOM     47  C   UNL A   1      44.918  31.016  28.526  1.00  0.00     0.074 A 
ATOM     48  C   UNL A   1      43.888  31.947  28.935  1.00  0.00     0.031 C 
ATOM     49  C   UNL A   1      41.723  25.471  27.972  1.00  0.00     0.029 A 
ATOM     50  C   UNL A   1      43.131  25.722  27.680  1.00  0.00     0.049 A 
ATOM     51  H   UNL A   1      44.175  27.509  27.918  1.00  0.00     0.167 HD
ATOM     52  C   UNL A   1      46.212  31.357  28.310  1.00  0.00     0.031 A 
ATOM     53  C   UNL A   1      43.997  24.809  27.199  1.00  0.00     0.031 A 
ATOM     54  C   UNL A   1      47.232  30.426  27.902  1.00  0.00     0.049 A 
ATOM     55  C   UNL A   1      45.427  25.208  26.963  1.00  0.00     0.074 A 
ATOM     56  C   UNL A   1      48.585  30.658  27.722  1.00  0.00     0.029 A 
ATOM     57  N   UNL A   1      47.012  29.091  27.599  1.00  0.00    -0.354 N 
ATOM     58  N   UNL A   1      45.995  26.377  27.141  1.00  0.00    -0.248 NA
ATOM     59  C   UNL A   1      46.336  24.162  26.475  1.00  0.00     0.031 C 
ATOM     60  C   UNL A   1      49.170  29.480  27.245  1.00  0.00     0.029 A 
ATOM     61  C   UNL A   1      48.198  28.494  27.198  1.00  0.00     0.049 A 
ATOM     62  H   UNL A   1      46.143  28.633  27.659  1.00  0.00     0.167 HD
ATOM     63  C   UNL A   1      47.335  26.201  26.810  1.00  0.00     0.074 A 
ATOM     64  C   UNL A   1      47.493  24.809  26.438  1.00  0.00     0.031 C 
ATOM     65  C   UNL A   1      48.341  27.110  26.816  1.00  0.00     0.031 A 
BRANCH  52  66
ATOM     66  C   UNL A   1      46.590  32.807  28.490  1.00  0.00    -0.014 A 
ATOM     67  C   UNL A   1      46.495  33.727  27.429  1.00  0.00     0.010 A 
ATOM     68  C   UNL A   1      47.029  33.261  29.748  1.00  0.00     0.010 A 
ATOM     69  C   UNL A   1      46.885  35.057  27.608  1.00  0.00     0.020 A 
ATOM     70  C   UNL A   1      47.388  34.598  29.940  1.00  0.00     0.020 A 
ATOM     71  C   UNL A   1      47.335  35.483  28.861  1.00  0.00     0.054 A 
BRANCH  71  72
ATOM     72  S   UNL A   1      47.837  37.214  29.063  1.00  0.00     0.124 S 
ATOM     73  O   UNL A   1      47.349  37.512  30.408  1.00  0.00    -0.237 OA
ATOM     74  O   UNL A   1      49.289  37.145  28.923  1.00  0.00    -0.237 OA
ATOM     75  O   UNL A   1      47.142  37.907  27.982  1.00  0.00    -0.744 OA
ENDBRANCH  71  72
ENDBRANCH  52  66
BRANCH  53  76
ATOM     76  C   UNL A   1      43.526  23.423  26.923  1.00  0.00    -0.014 A 
ATOM     77  C   UNL A   1      43.734  22.830  25.666  1.00  0.00     0.010 A 
ATOM     78  C   UNL A   1      42.907  22.671  27.939  1.00  0.00     0.010 A 
ATOM     79  C   UNL A   1      43.326  21.513  25.428  1.00  0.00     0.020 A 
ATOM     80  C   UNL A   1      42.526  21.346  27.715  1.00  0.00     0.020 A 
ATOM     81  C   UNL A   1      42.732  20.777  26.457  1.00  0.00     0.054 A 
BRANCH  81  82
ATOM     82  S   UNL A   1      42.286  19.045  26.149  1.00  0.00     0.124 S 
ATOM     83  O   UNL A   1      43.149  18.704  25.023  1.00  0.00    -0.237 OA
ATOM     84  O   UNL A   1      42.618  18.405  27.420  1.00  0.00    -0.237 OA
ATOM     85  O   UNL A   1      40.858  19.108  25.846  1.00  0.00    -0.744 OA
ENDBRANCH  81  82
ENDBRANCH  53  76
BRANCH  65  86
ATOM     86  C   UNL A   1      49.717  26.626  26.433  1.00  0.00    -0.014 A 
ATOM     87  C   UNL A   1      50.578  26.041  27.378  1.00  0.00     0.010 A 
ATOM     88  C   UNL A   1      50.132  26.715  25.091  1.00  0.00     0.010 A 
ATOM     89  C   UNL A   1      51.843  25.587  26.995  1.00  0.00     0.020 A 
ATOM     90  C   UNL A   1      51.382  26.233  24.698  1.00  0.00     0.020 A 
ATOM     91  C   UNL A   1      52.237  25.685  25.657  1.00  0.00     0.054 A 
BRANCH  91  92
ATOM     92  S   UNL A   1      53.869  25.053  25.180  1.00  0.00     0.124 S 
ATOM     93  O   UNL A   1      54.211  25.915  24.051  1.00  0.00    -0.237 OA
ATOM     94  O   UNL A   1      54.658  25.261  26.391  1.00  0.00    -0.237 OA
ATOM     95  O   UNL A   1      53.615  23.655  24.840  1.00  0.00    -0.744 OA
ENDBRANCH  91  92
ENDBRANCH  65  86
ENDBRANCH  39  40
ENDBRANCH  31  34
ENDBRANCH  29  30
ENDBRANCH  28  29
ENDBRANCH  27  28
ENDBRANCH   1  27
TORSDOF 20
ENDMDL
MODEL 2
REMARK VINA RESULT:     -11.3      6.443     12.120
REMARK SMILES Cc1cc(F)ccc1CCNc1ccc(Cl)c(C(=O)NCCCCCCNC(=O)c2ccc(-c3c4nc(c(-c5ccc(S(=O)(=O)[O-])cc5)c5ccc([nH]5)c(-c5ccc(S(=O)(=O)[O-])cc5)c5nc(c(-c6ccc(S(=O)(=O)[O-])cc6)c6ccc3[nH]6)C=C5)C=C4)cc2)n1
REMARK SMILES IDX 23 1 22 2 21 3 20 4 18 5 19 6 17 8 12 9 13 10 90 11 14 12
REMARK SMILES IDX 15 13 16 14 11 15 10 17 9 18 8 19 1 20 2 21 3 22 4 23 7 24
REMARK SMILES IDX 5 25 6 26 24 27 25 28 26 29 27 30 28 31 29 33 30 34 31 35
REMARK SMILES IDX 89 36 32 37 88 38 33 39 34 40 35 41 82 42 36 43 87 44 81 45
REMARK SMILES IDX 83 46 37 47 86 48 80 49 79 50 38 52 68 53 49 54 67 55 50 56
REMARK SMILES IDX 53 57 66 58 84 59 51 60 52 61 65 63 85 64 54 65 39 66 40 67
REMARK SMILES IDX 48 68 41 69 47 70 42 71 43 72 44 73 45 74 46 75 69 76 70 77
REMARK SMILES IDX 78 78 71 79 77 80 72 81 73 82 74 83 75 84 76 85 55 86 56 87
REMARK SMILES IDX 64 88 57 89 63 90 58 91 59 92 60 93 61 94 62 95
REMARK H PARENT 20 7 11 16 27 32 83 51 53 62
REMARK Flexibility Score: inf
ROOT
ATOM      1  C   UNL A   1      38.603  23.019  26.487  1.00  0.00     0.002 C 
ENDROOT
BRANCH   1   2
ATOM      2  C   UNL A   1      37.484  22.919  25.444  1.00  0.00     0.021 C 
BRANCH   2   3
ATOM      3  C   UNL A   1      36.708  21.607  25.390  1.00  0.00     0.116 C 
BRANCH   3   4
ATOM      4  N   UNL A   1      35.733  21.423  26.446  1.00  0.00    -0.351 N 
ATOM      5  C   UNL A   1      34.349  21.417  26.402  1.00  0.00     0.271 C 
ATOM      6  O   UNL A   1      33.760  21.156  27.455  1.00  0.00    -0.267 OA
ATOM      7  H   UNL A   1      36.117  21.277  27.341  1.00  0.00     0.163 HD
BRANCH   5   8
ATOM      8  C   UNL A   1      33.543  21.786  25.182  1.00  0.00     0.149 A 
ATOM      9  C   UNL A   1      32.603  23.597  24.036  1.00  0.00     0.126 A 
ATOM     10  C   UNL A   1      32.182  22.763  23.014  1.00  0.00     0.048 A 
ATOM     11  N   UNL A   1      33.353  23.141  25.055  1.00  0.00    -0.224 NA
ATOM     12  C   UNL A   1      32.354  21.392  23.149  1.00  0.00     0.027 A 
ATOM     13  C   UNL A   1      32.954  20.884  24.301  1.00  0.00     0.072 A 
ATOM     14  Cl  UNL A   1      32.714  19.205  24.597  1.00  0.00    -0.082 Cl
BRANCH   9  15
ATOM     15  N   UNL A   1      32.209  24.921  24.093  1.00  0.00    -0.370 N 
ATOM     16  H   UNL A   1      31.774  25.350  23.320  1.00  0.00     0.162 HD
BRANCH  15  17
ATOM     17  C   UNL A   1      32.450  25.678  25.328  1.00  0.00     0.119 C 
BRANCH  17  18
ATOM     18  C   UNL A   1      33.354  26.908  25.101  1.00  0.00     0.057 C 
BRANCH  18  19
ATOM     19  C   UNL A   1      32.707  28.206  25.547  1.00  0.00    -0.043 A 
ATOM     20  C   UNL A   1      31.142  28.398  23.502  1.00  0.00     0.045 C 
ATOM     21  C   UNL A   1      31.753  28.911  24.778  1.00  0.00    -0.045 A 
ATOM     22  C   UNL A   1      31.284  30.153  25.249  1.00  0.00     0.043 A 
ATOM     23  C   UNL A   1      31.758  30.685  26.443  1.00  0.00     0.123 A 
ATOM     24  C   UNL A   1      33.132  28.752  26.777  1.00  0.00     0.007 A 
ATOM     25  F   UNL A   1      31.313  31.880  26.854  1.00  0.00    -0.207 F 
ATOM     26  C   UNL A   1      32.672  29.991  27.215  1.00  0.00     0.039 A 
ENDBRANCH  18  19
ENDBRANCH  17  18
ENDBRANCH  15  17
ENDBRANCH   9  15
ENDBRANCH   5   8
ENDBRANCH   3   4
ENDBRANCH   2   3
ENDBRANCH   1   2
BRANCH   1  27
ATOM     27  C   UNL A   1      39.793  22.066  26.335  1.00  0.00     0.002 C 
BRANCH  27  28
ATOM     28  C   UNL A   1      40.779  21.991  27.504  1.00  0.00     0.021 C 
BRANCH  28  29
ATOM     29  C   UNL A   1      41.883  23.043  27.521  1.00  0.00     0.116 C 
BRANCH  29  30
ATOM     30  N   UNL A   1      41.888  23.877  26.331  1.00  0.00    -0.352 N 
ATOM     31  C   UNL A   1      41.651  25.222  26.202  1.00  0.00     0.251 C 
ATOM     32  H   UNL A   1      42.093  23.406  25.491  1.00  0.00     0.163 HD
ATOM     33  O   UNL A   1      41.550  25.715  25.078  1.00  0.00    -0.269 OA
BRANCH  31  34
ATOM     34  C   UNL A   1      41.494  26.080  27.398  1.00  0.00     0.039 A 
ATOM     35  C   UNL A   1      42.458  27.059  27.656  1.00  0.00     0.014 A 
ATOM     36  C   UNL A   1      40.418  25.914  28.276  1.00  0.00     0.014 A 
ATOM     37  C   UNL A   1      42.312  27.905  28.758  1.00  0.00     0.010 A 
ATOM     38  C   UNL A   1      40.235  26.808  29.330  1.00  0.00     0.010 A 
ATOM     39  C   UNL A   1      41.182  27.810  29.587  1.00  0.00    -0.014 A 
BRANCH  39  40
ATOM     40  C   UNL A   1      40.975  28.755  30.716  1.00  0.00     0.031 A 
ATOM     41  C   UNL A   1      41.802  28.642  31.969  1.00  0.00     0.074 A 
ATOM     42  C   UNL A   1      39.999  29.682  30.636  1.00  0.00     0.049 A 
ATOM     43  N   UNL A   1      41.741  29.356  33.064  1.00  0.00    -0.248 NA
ATOM     44  C   UNL A   1      42.811  27.572  32.006  1.00  0.00     0.031 C 
ATOM     45  C   UNL A   1      39.097  29.864  29.496  1.00  0.00     0.029 A 
ATOM     46  N   UNL A   1      39.598  30.640  31.532  1.00  0.00    -0.354 N 
ATOM     47  C   UNL A   1      42.687  28.811  33.925  1.00  0.00     0.074 A 
ATOM     48  C   UNL A   1      43.271  27.676  33.244  1.00  0.00     0.031 C 
ATOM     49  C   UNL A   1      38.268  30.888  29.751  1.00  0.00     0.029 A 
ATOM     50  C   UNL A   1      38.547  31.407  31.086  1.00  0.00     0.049 A 
ATOM     51  H   UNL A   1      40.021  30.767  32.412  1.00  0.00     0.167 HD
ATOM     52  C   UNL A   1      43.048  29.226  35.164  1.00  0.00     0.031 A 
ATOM     53  C   UNL A   1      37.874  32.411  31.684  1.00  0.00     0.031 A 
ATOM     54  C   UNL A   1      42.462  30.356  35.837  1.00  0.00     0.049 A 
ATOM     55  C   UNL A   1      38.288  32.853  33.059  1.00  0.00     0.074 A 
ATOM     56  C   UNL A   1      42.804  30.898  37.065  1.00  0.00     0.029 A 
ATOM     57  N   UNL A   1      41.407  31.112  35.347  1.00  0.00    -0.354 N 
ATOM     58  N   UNL A   1      39.240  32.376  33.826  1.00  0.00    -0.248 NA
ATOM     59  C   UNL A   1      37.546  33.977  33.646  1.00  0.00     0.031 C 
ATOM     60  C   UNL A   1      41.911  31.937  37.347  1.00  0.00     0.029 A 
ATOM     61  C   UNL A   1      41.061  32.093  36.263  1.00  0.00     0.049 A 
ATOM     62  H   UNL A   1      40.969  30.973  34.477  1.00  0.00     0.167 HD
ATOM     63  C   UNL A   1      39.227  33.159  34.976  1.00  0.00     0.074 A 
ATOM     64  C   UNL A   1      38.184  34.149  34.795  1.00  0.00     0.031 C 
ATOM     65  C   UNL A   1      40.011  33.065  36.079  1.00  0.00     0.031 A 
BRANCH  52  66
ATOM     66  C   UNL A   1      44.112  28.433  35.881  1.00  0.00    -0.014 A 
ATOM     67  C   UNL A   1      43.784  27.334  36.698  1.00  0.00     0.010 A 
ATOM     68  C   UNL A   1      45.466  28.780  35.720  1.00  0.00     0.010 A 
ATOM     69  C   UNL A   1      44.783  26.637  37.383  1.00  0.00     0.020 A 
ATOM     70  C   UNL A   1      46.472  28.064  36.376  1.00  0.00     0.020 A 
ATOM     71  C   UNL A   1      46.120  27.010  37.222  1.00  0.00     0.054 A 
BRANCH  71  72
ATOM     72  S   UNL A   1      47.396  26.088  38.124  1.00  0.00     0.124 S 
ATOM     73  O   UNL A   1      47.172  24.724  37.650  1.00  0.00    -0.237 OA
ATOM     74  O   UNL A   1      48.631  26.718  37.664  1.00  0.00    -0.237 OA
ATOM     75  O   UNL A   1      47.066  26.321  39.528  1.00  0.00    -0.744 OA
ENDBRANCH  71  72
ENDBRANCH  52  66
BRANCH  53  76
ATOM     76  C   UNL A   1      36.748  33.069  30.966  1.00  0.00    -0.014 A 
ATOM     77  C   UNL A   1      35.416  32.824  31.341  1.00  0.00     0.010 A 
ATOM     78  C   UNL A   1      37.008  33.986  29.931  1.00  0.00     0.010 A 
ATOM     79  C   UNL A   1      34.364  33.478  30.690  1.00  0.00     0.020 A 
ATOM     80  C   UNL A   1      35.963  34.665  29.299  1.00  0.00     0.020 A 
ATOM     81  C   UNL A   1      34.646  34.401  29.679  1.00  0.00     0.054 A 
BRANCH  81  82
ATOM     82  S   UNL A   1      33.270  35.298  28.905  1.00  0.00     0.124 S 
ATOM     83  O   UNL A   1      33.969  36.331  28.148  1.00  0.00    -0.237 OA
ATOM     84  O   UNL A   1      32.625  34.256  28.109  1.00  0.00    -0.237 OA
ATOM     85  O   UNL A   1      32.489  35.775  30.043  1.00  0.00    -0.744 OA
ENDBRANCH  81  82
ENDBRANCH  53  76
BRANCH  65  86
ATOM     86  C   UNL A   1      39.791  34.078  37.174  1.00  0.00    -0.014 A 
ATOM     87  C   UNL A   1      38.919  33.821  38.246  1.00  0.00     0.010 A 
ATOM     88  C   UNL A   1      40.511  35.287  37.152  1.00  0.00     0.010 A 
ATOM     89  C   UNL A   1      38.743  34.770  39.257  1.00  0.00     0.020 A 
ATOM     90  C   UNL A   1      40.362  36.225  38.177  1.00  0.00     0.020 A 
ATOM     91  C   UNL A   1      39.467  35.965  39.217  1.00  0.00     0.054 A 
BRANCH  91  92
ATOM     92  S   UNL A   1      39.248  37.163  40.561  1.00  0.00     0.124 S 
ATOM     93  O   UNL A   1      38.238  38.061  40.008  1.00  0.00    -0.237 OA
ATOM     94  O   UNL A   1      38.802  36.322  41.669  1.00  0.00    -0.237 OA
ATOM     95  O   UNL A   1      40.577  37.748  40.725  1.00  0.00    -0.744 OA
ENDBRANCH  91  92
ENDBRANCH  65  86
ENDBRANCH  39  40
ENDBRANCH  31  34
ENDBRANCH  29  30
ENDBRANCH  28  29
ENDBRANCH  27  28
ENDBRANCH   1  27
TORSDOF 20
ENDMDL
MODEL 3
REMARK VINA RESULT:     -11.2      1.133      8.130
REMARK SMILES Cc1cc(F)ccc1CCNc1ccc(Cl)c(C(=O)NCCCCCCNC(=O)c2ccc(-c3c4nc(c(-c5ccc(S(=O)(=O)[O-])cc5)c5ccc([nH]5)c(-c5ccc(S(=O)(=O)[O-])cc5)c5nc(c(-c6ccc(S(=O)(=O)[O-])cc6)c6ccc3[nH]6)C=C5)C=C4)cc2)n1
REMARK SMILES IDX 23 1 22 2 21 3 20 4 18 5 19 6 17 8 12 9 13 10 90 11 14 12
REMARK SMILES IDX 15 13 16 14 11 15 10 17 9 18 8 19 1 20 2 21 3 22 4 23 7 24
REMARK SMILES IDX 5 25 6 26 24 27 25 28 26 29 27 30 28 31 29 33 30 34 31 35
REMARK SMILES IDX 89 36 32 37 88 38 33 39 34 40 35 41 82 42 36 43 87 44 81 45
REMARK SMILES IDX 83 46 37 47 86 48 80 49 79 50 38 52 68 53 49 54 67 55 50 56
REMARK SMILES IDX 53 57 66 58 84 59 51 60 52 61 65 63 85 64 54 65 39 66 40 67
REMARK SMILES IDX 48 68 41 69 47 70 42 71 43 72 44 73 45 74 46 75 69 76 70 77
REMARK SMILES IDX 78 78 71 79 77 80 72 81 73 82 74 83 75 84 76 85 55 86 56 87
REMARK SMILES IDX 64 88 57 89 63 90 58 91 59 92 60 93 61 94 62 95
REMARK H PARENT 20 7 11 16 27 32 83 51 53 62
REMARK Flexibility Score: inf
ROOT
ATOM      1  C   UNL A   1      34.277  30.484  27.406  1.00  0.00     0.002 C 
ENDROOT
BRANCH   1   2
ATOM      2  C   UNL A   1      32.887  29.889  27.155  1.00  0.00     0.021 C 
BRANCH   2   3
ATOM      3  C   UNL A   1      32.257  30.162  25.793  1.00  0.00     0.116 C 
BRANCH   3   4
ATOM      4  N   UNL A   1      32.969  29.606  24.660  1.00  0.00    -0.351 N 
ATOM      5  C   UNL A   1      32.531  28.782  23.638  1.00  0.00     0.271 C 
ATOM      6  O   UNL A   1      33.344  28.519  22.748  1.00  0.00    -0.267 OA
ATOM      7  H   UNL A   1      33.920  29.856  24.609  1.00  0.00     0.163 HD
BRANCH   5   8
ATOM      8  C   UNL A   1      31.168  28.137  23.601  1.00  0.00     0.149 A 
ATOM      9  C   UNL A   1      30.004  26.186  24.159  1.00  0.00     0.126 A 
ATOM     10  C   UNL A   1      28.808  26.754  23.754  1.00  0.00     0.048 A 
ATOM     11  N   UNL A   1      31.150  26.889  24.177  1.00  0.00    -0.224 NA
ATOM     12  C   UNL A   1      28.826  28.005  23.154  1.00  0.00     0.027 A 
ATOM     13  C   UNL A   1      30.041  28.668  22.980  1.00  0.00     0.072 A 
ATOM     14  Cl  UNL A   1      30.038  29.960  21.843  1.00  0.00    -0.082 Cl
BRANCH   9  15
ATOM     15  N   UNL A   1      30.087  24.846  24.495  1.00  0.00    -0.370 N 
ATOM     16  H   UNL A   1      29.322  24.243  24.348  1.00  0.00     0.162 HD
BRANCH  15  17
ATOM     17  C   UNL A   1      31.339  24.339  25.072  1.00  0.00     0.119 C 
BRANCH  17  18
ATOM     18  C   UNL A   1      31.132  23.043  25.885  1.00  0.00     0.057 C 
BRANCH  18  19
ATOM     19  C   UNL A   1      32.217  22.012  25.637  1.00  0.00    -0.043 A 
ATOM     20  C   UNL A   1      33.662  22.708  27.662  1.00  0.00     0.045 C 
ATOM     21  C   UNL A   1      33.396  21.914  26.411  1.00  0.00    -0.045 A 
ATOM     22  C   UNL A   1      34.379  20.977  26.036  1.00  0.00     0.043 A 
ATOM     23  C   UNL A   1      34.201  20.168  24.920  1.00  0.00     0.123 A 
ATOM     24  C   UNL A   1      32.046  21.143  24.538  1.00  0.00     0.007 A 
ATOM     25  F   UNL A   1      35.163  19.303  24.572  1.00  0.00    -0.207 F 
ATOM     26  C   UNL A   1      33.038  20.238  24.172  1.00  0.00     0.039 A 
ENDBRANCH  18  19
ENDBRANCH  17  18
ENDBRANCH  15  17
ENDBRANCH   9  15
ENDBRANCH   5   8
ENDBRANCH   3   4
ENDBRANCH   2   3
ENDBRANCH   1   2
BRANCH   1  27
ATOM     27  C   UNL A   1      34.343  31.883  28.028  1.00  0.00     0.002 C 
BRANCH  27  28
ATOM     28  C   UNL A   1      35.694  32.602  27.984  1.00  0.00     0.021 C 
BRANCH  28  29
ATOM     29  C   UNL A   1      36.418  32.755  29.317  1.00  0.00     0.116 C 
BRANCH  29  30
ATOM     30  N   UNL A   1      36.069  31.718  30.273  1.00  0.00    -0.352 N 
ATOM     31  C   UNL A   1      36.740  30.568  30.603  1.00  0.00     0.251 C 
ATOM     32  H   UNL A   1      35.223  31.862  30.756  1.00  0.00     0.163 HD
ATOM     33  O   UNL A   1      36.198  29.736  31.331  1.00  0.00    -0.269 OA
BRANCH  31  34
ATOM     34  C   UNL A   1      38.099  30.308  30.075  1.00  0.00     0.039 A 
ATOM     35  C   UNL A   1      39.177  30.301  30.966  1.00  0.00     0.014 A 
ATOM     36  C   UNL A   1      38.321  30.093  28.712  1.00  0.00     0.014 A 
ATOM     37  C   UNL A   1      40.464  30.021  30.498  1.00  0.00     0.010 A 
ATOM     38  C   UNL A   1      39.592  29.740  28.261  1.00  0.00     0.010 A 
ATOM     39  C   UNL A   1      40.678  29.705  29.147  1.00  0.00    -0.014 A 
BRANCH  39  40
ATOM     40  C   UNL A   1      42.029  29.329  28.652  1.00  0.00     0.031 A 
ATOM     41  C   UNL A   1      42.313  27.922  28.201  1.00  0.00     0.074 A 
ATOM     42  C   UNL A   1      43.019  30.244  28.665  1.00  0.00     0.049 A 
ATOM     43  N   UNL A   1      43.436  27.405  27.769  1.00  0.00    -0.248 NA
ATOM     44  C   UNL A   1      41.199  26.964  28.266  1.00  0.00     0.031 C 
ATOM     45  C   UNL A   1      42.886  31.628  29.123  1.00  0.00     0.029 A 
ATOM     46  N   UNL A   1      44.336  30.145  28.289  1.00  0.00    -0.354 N 
ATOM     47  C   UNL A   1      43.169  26.061  27.531  1.00  0.00     0.074 A 
ATOM     48  C   UNL A   1      41.793  25.832  27.915  1.00  0.00     0.031 C 
ATOM     49  C   UNL A   1      44.063  32.256  28.976  1.00  0.00     0.029 A 
ATOM     50  C   UNL A   1      45.046  31.311  28.455  1.00  0.00     0.049 A 
ATOM     51  H   UNL A   1      44.734  29.318  27.933  1.00  0.00     0.167 HD
ATOM     52  C   UNL A   1      43.989  25.108  27.025  1.00  0.00     0.031 A 
ATOM     53  C   UNL A   1      46.344  31.591  28.225  1.00  0.00     0.031 A 
ATOM     54  C   UNL A   1      45.358  25.342  26.646  1.00  0.00     0.049 A 
ATOM     55  C   UNL A   1      47.238  30.519  27.667  1.00  0.00     0.074 A 
ATOM     56  C   UNL A   1      46.251  24.460  26.063  1.00  0.00     0.029 A 
ATOM     57  N   UNL A   1      46.036  26.539  26.822  1.00  0.00    -0.354 N 
ATOM     58  N   UNL A   1      46.944  29.274  27.373  1.00  0.00    -0.248 NA
ATOM     59  C   UNL A   1      48.633  30.891  27.399  1.00  0.00     0.031 C 
ATOM     60  C   UNL A   1      47.489  25.103  25.949  1.00  0.00     0.029 A 
ATOM     61  C   UNL A   1      47.347  26.409  26.392  1.00  0.00     0.049 A 
ATOM     62  H   UNL A   1      45.645  27.361  27.197  1.00  0.00     0.167 HD
ATOM     63  C   UNL A   1      48.114  28.721  26.861  1.00  0.00     0.074 A 
ATOM     64  C   UNL A   1      49.111  29.772  26.871  1.00  0.00     0.031 C 
ATOM     65  C   UNL A   1      48.337  27.458  26.420  1.00  0.00     0.031 A 
BRANCH  52  66
ATOM     66  C   UNL A   1      43.428  23.715  26.877  1.00  0.00    -0.014 A 
ATOM     67  C   UNL A   1      43.298  22.854  27.984  1.00  0.00     0.010 A 
ATOM     68  C   UNL A   1      43.007  23.265  25.612  1.00  0.00     0.010 A 
ATOM     69  C   UNL A   1      42.811  21.555  27.818  1.00  0.00     0.020 A 
ATOM     70  C   UNL A   1      42.487  21.978  25.447  1.00  0.00     0.020 A 
ATOM     71  C   UNL A   1      42.414  21.123  26.549  1.00  0.00     0.054 A 
BRANCH  71  72
ATOM     72  S   UNL A   1      41.788  19.431  26.363  1.00  0.00     0.124 S 
ATOM     73  O   UNL A   1      40.352  19.658  26.210  1.00  0.00    -0.237 OA
ATOM     74  O   UNL A   1      42.480  18.964  25.164  1.00  0.00    -0.237 OA
ATOM     75  O   UNL A   1      42.185  18.773  27.605  1.00  0.00    -0.744 OA
ENDBRANCH  71  72
ENDBRANCH  52  66
BRANCH  53  76
ATOM     76  C   UNL A   1      46.863  32.957  28.512  1.00  0.00    -0.014 A 
ATOM     77  C   UNL A   1      46.833  33.959  27.527  1.00  0.00     0.010 A 
ATOM     78  C   UNL A   1      47.349  33.274  29.795  1.00  0.00     0.010 A 
ATOM     79  C   UNL A   1      47.284  35.252  27.818  1.00  0.00     0.020 A 
ATOM     80  C   UNL A   1      47.772  34.571  30.097  1.00  0.00     0.020 A 
ATOM     81  C   UNL A   1      47.743  35.550  29.103  1.00  0.00     0.054 A 
BRANCH  81  82
ATOM     82  S   UNL A   1      48.246  37.254  29.479  1.00  0.00     0.124 S 
ATOM     83  O   UNL A   1      47.083  38.018  29.043  1.00  0.00    -0.237 OA
ATOM     84  O   UNL A   1      48.469  37.204  30.922  1.00  0.00    -0.237 OA
ATOM     85  O   UNL A   1      49.453  37.438  28.676  1.00  0.00    -0.744 OA
ENDBRANCH  81  82
ENDBRANCH  53  76
BRANCH  65  86
ATOM     86  C   UNL A   1      49.711  27.143  25.885  1.00  0.00    -0.014 A 
ATOM     87  C   UNL A   1      50.054  27.402  24.546  1.00  0.00     0.010 A 
ATOM     88  C   UNL A   1      50.689  26.624  26.754  1.00  0.00     0.010 A 
ATOM     89  C   UNL A   1      51.339  27.114  24.078  1.00  0.00     0.020 A 
ATOM     90  C   UNL A   1      51.984  26.365  26.297  1.00  0.00     0.020 A 
ATOM     91  C   UNL A   1      52.296  26.598  24.957  1.00  0.00     0.054 A 
BRANCH  91  92
ATOM     92  S   UNL A   1      53.967  26.269  24.331  1.00  0.00     0.124 S 
ATOM     93  O   UNL A   1      54.249  24.952  24.895  1.00  0.00    -0.237 OA
ATOM     94  O   UNL A   1      53.779  26.306  22.883  1.00  0.00    -0.237 OA
ATOM     95  O   UNL A   1      54.764  27.364  24.879  1.00  0.00    -0.744 OA
ENDBRANCH  91  92
ENDBRANCH  65  86
ENDBRANCH  39  40
ENDBRANCH  31  34
ENDBRANCH  29  30
ENDBRANCH  28  29
ENDBRANCH  27  28
ENDBRANCH   1  27
TORSDOF 20
ENDMDL
