MODEL 1
REMARK VINA RESULT:     -12.5      0.000      0.000
REMARK SMILES Cc1ccc(N2C(=O)C[C@H](Sc3ccccc3C(=O)NCCCCCCNC(=O)c3ccc(-c4c5nc(c(-c6ccc(S(=O)(=O)[O-])cc6)c6ccc([nH]6)c(-c6ccc(S(=O)(=O)[O-])cc6)c6nc(c(-c7ccc(S(=O)(=O)[O-])cc7)c7ccc4[nH]7)C=C6)C=C5)cc3)C2=O)cc1
REMARK SMILES IDX 23 1 22 2 21 3 20 4 18 5 19 6 17 8 12 9 13 10 14 11 16 12
REMARK SMILES IDX 15 13 11 14 10 15 6 16 7 17 90 18 8 19 9 20 91 21 5 22 1 23
REMARK SMILES IDX 2 24 3 25 93 26 4 27 92 28 24 29 25 30 26 31 27 32 28 33
REMARK SMILES IDX 29 35 30 36 31 37 89 38 32 39 88 40 33 41 34 42 35 43 82 44
REMARK SMILES IDX 36 45 87 46 81 47 83 48 37 49 86 50 80 51 79 52 38 54 68 55
REMARK SMILES IDX 49 56 67 57 50 58 53 59 66 60 84 61 51 62 52 63 65 65 85 66
REMARK SMILES IDX 54 67 39 68 40 69 48 70 41 71 47 72 42 73 43 74 44 75 45 76
REMARK SMILES IDX 46 77 69 78 70 79 78 80 71 81 77 82 72 83 73 84 74 85 75 86
REMARK SMILES IDX 76 87 55 88 56 89 64 90 57 91 63 92 58 93 59 94 60 95 61 96
REMARK SMILES IDX 62 97
REMARK H PARENT 20 7 27 34 83 53 53 64
REMARK Flexibility Score: inf
ROOT
ATOM      1  C   UNL A   1      31.407  28.345  25.848  1.00  0.00     0.002 C 
ENDROOT
BRANCH   1   2
ATOM      2  C   UNL A   1      31.198  27.346  26.989  1.00  0.00     0.021 C 
BRANCH   2   3
ATOM      3  C   UNL A   1      31.879  25.980  26.922  1.00  0.00     0.116 C 
BRANCH   3   4
ATOM      4  N   UNL A   1      31.047  24.868  26.494  1.00  0.00    -0.352 N 
ATOM      5  C   UNL A   1      31.355  23.538  26.293  1.00  0.00     0.252 C 
ATOM      6  O   UNL A   1      30.435  22.743  26.119  1.00  0.00    -0.269 OA
ATOM      7  H   UNL A   1      30.108  25.102  26.319  1.00  0.00     0.163 HD
BRANCH   5   8
ATOM      8  C   UNL A   1      32.769  23.071  26.239  1.00  0.00     0.053 A 
ATOM      9  C   UNL A   1      33.471  22.922  25.019  1.00  0.00     0.021 A 
ATOM     10  C   UNL A   1      34.813  22.497  25.063  1.00  0.00     0.016 A 
ATOM     11  C   UNL A   1      35.438  22.193  26.274  1.00  0.00     0.001 A 
ATOM     12  C   UNL A   1      33.393  22.695  27.442  1.00  0.00     0.015 A 
ATOM     13  C   UNL A   1      34.723  22.274  27.463  1.00  0.00     0.001 A 
BRANCH   9  14
ATOM     14  S   UNL A   1      32.744  22.952  23.374  1.00  0.00    -0.111 SA
BRANCH  14  15
ATOM     15  C   UNL A   1      33.231  24.554  22.655  1.00  0.00     0.151 C 
ATOM     16  N   UNL A   1      31.809  26.368  22.270  1.00  0.00    -0.250 N 
ATOM     17  C   UNL A   1      31.918  25.710  21.065  1.00  0.00     0.235 C 
ATOM     18  C   UNL A   1      32.529  25.739  23.263  1.00  0.00     0.247 C 
ATOM     19  O   UNL A   1      31.345  25.936  20.009  1.00  0.00    -0.274 OA
ATOM     20  C   UNL A   1      33.014  24.697  21.170  1.00  0.00     0.126 C 
ATOM     21  O   UNL A   1      32.602  26.031  24.451  1.00  0.00    -0.273 OA
BRANCH  16  22
ATOM     22  C   UNL A   1      31.099  27.587  22.440  1.00  0.00     0.052 A 
ATOM     23  C   UNL A   1      28.845  31.282  22.592  1.00  0.00     0.044 C 
ATOM     24  C   UNL A   1      29.640  30.010  22.586  1.00  0.00    -0.051 A 
ATOM     25  C   UNL A   1      30.969  30.006  22.157  1.00  0.00     0.005 A 
ATOM     26  C   UNL A   1      29.044  28.798  22.943  1.00  0.00     0.005 A 
ATOM     27  C   UNL A   1      31.698  28.812  22.108  1.00  0.00     0.027 A 
ATOM     28  C   UNL A   1      29.764  27.600  22.861  1.00  0.00     0.027 A 
ENDBRANCH  16  22
ENDBRANCH  14  15
ENDBRANCH   9  14
ENDBRANCH   5   8
ENDBRANCH   3   4
ENDBRANCH   2   3
ENDBRANCH   1   2
BRANCH   1  29
ATOM     29  C   UNL A   1      32.096  29.680  26.148  1.00  0.00     0.002 C 
BRANCH  29  30
ATOM     30  C   UNL A   1      32.920  29.776  27.429  1.00  0.00     0.021 C 
BRANCH  30  31
ATOM     31  C   UNL A   1      34.431  29.707  27.229  1.00  0.00     0.116 C 
BRANCH  31  32
ATOM     32  N   UNL A   1      35.111  30.942  27.611  1.00  0.00    -0.352 N 
ATOM     33  C   UNL A   1      36.390  31.094  28.123  1.00  0.00     0.251 C 
ATOM     34  H   UNL A   1      34.596  31.772  27.489  1.00  0.00     0.163 HD
ATOM     35  O   UNL A   1      36.818  32.167  28.503  1.00  0.00    -0.269 OA
BRANCH  33  36
ATOM     36  C   UNL A   1      37.251  29.893  28.129  1.00  0.00     0.039 A 
ATOM     37  C   UNL A   1      37.304  29.135  29.302  1.00  0.00     0.014 A 
ATOM     38  C   UNL A   1      38.174  29.709  27.105  1.00  0.00     0.014 A 
ATOM     39  C   UNL A   1      38.409  28.319  29.535  1.00  0.00     0.010 A 
ATOM     40  C   UNL A   1      39.312  28.975  27.378  1.00  0.00     0.010 A 
ATOM     41  C   UNL A   1      39.455  28.323  28.614  1.00  0.00    -0.014 A 
BRANCH  41  42
ATOM     42  C   UNL A   1      40.773  27.754  28.877  1.00  0.00     0.031 A 
ATOM     43  C   UNL A   1      41.069  26.353  28.500  1.00  0.00     0.074 A 
ATOM     44  C   UNL A   1      41.773  28.519  29.369  1.00  0.00     0.049 A 
ATOM     45  N   UNL A   1      42.062  25.667  28.960  1.00  0.00    -0.248 NA
ATOM     46  C   UNL A   1      40.206  25.582  27.612  1.00  0.00     0.031 C 
ATOM     47  C   UNL A   1      43.202  28.217  29.325  1.00  0.00     0.029 A 
ATOM     48  N   UNL A   1      41.693  29.624  30.218  1.00  0.00    -0.354 N 
ATOM     49  C   UNL A   1      42.163  24.524  28.202  1.00  0.00     0.074 A 
ATOM     50  C   UNL A   1      40.920  24.463  27.468  1.00  0.00     0.031 C 
ATOM     51  C   UNL A   1      43.812  28.882  30.315  1.00  0.00     0.029 A 
ATOM     52  C   UNL A   1      42.773  29.510  31.113  1.00  0.00     0.049 A 
ATOM     53  H   UNL A   1      41.017  30.340  30.195  1.00  0.00     0.167 HD
ATOM     54  C   UNL A   1      43.342  23.839  28.170  1.00  0.00     0.031 A 
ATOM     55  C   UNL A   1      42.646  29.412  32.469  1.00  0.00     0.031 A 
ATOM     56  C   UNL A   1      44.314  24.355  29.140  1.00  0.00     0.049 A 
ATOM     57  C   UNL A   1      43.300  28.179  33.067  1.00  0.00     0.074 A 
ATOM     58  C   UNL A   1      45.509  25.050  29.054  1.00  0.00     0.029 A 
ATOM     59  N   UNL A   1      43.974  24.355  30.484  1.00  0.00    -0.354 N 
ATOM     60  N   UNL A   1      43.924  27.267  32.374  1.00  0.00    -0.248 NA
ATOM     61  C   UNL A   1      43.197  27.818  34.483  1.00  0.00     0.031 C 
ATOM     62  C   UNL A   1      45.895  25.443  30.368  1.00  0.00     0.029 A 
ATOM     63  C   UNL A   1      44.937  24.982  31.249  1.00  0.00     0.049 A 
ATOM     64  H   UNL A   1      43.149  23.958  30.847  1.00  0.00     0.167 HD
ATOM     65  C   UNL A   1      44.217  26.198  33.181  1.00  0.00     0.074 A 
ATOM     66  C   UNL A   1      43.765  26.599  34.499  1.00  0.00     0.031 C 
ATOM     67  C   UNL A   1      44.748  25.041  32.690  1.00  0.00     0.031 A 
BRANCH  54  68
ATOM     68  C   UNL A   1      43.709  22.836  27.092  1.00  0.00    -0.014 A 
ATOM     69  C   UNL A   1      42.850  21.748  26.827  1.00  0.00     0.010 A 
ATOM     70  C   UNL A   1      44.905  22.857  26.352  1.00  0.00     0.010 A 
ATOM     71  C   UNL A   1      43.213  20.696  25.970  1.00  0.00     0.020 A 
ATOM     72  C   UNL A   1      45.297  21.804  25.512  1.00  0.00     0.020 A 
ATOM     73  C   UNL A   1      44.455  20.716  25.342  1.00  0.00     0.054 A 
BRANCH  73  74
ATOM     74  S   UNL A   1      44.963  19.311  24.321  1.00  0.00     0.124 S 
ATOM     75  O   UNL A   1      46.409  19.284  24.523  1.00  0.00    -0.237 OA
ATOM     76  O   UNL A   1      44.221  18.204  24.916  1.00  0.00    -0.237 OA
ATOM     77  O   UNL A   1      44.537  19.690  22.975  1.00  0.00    -0.744 OA
ENDBRANCH  73  74
ENDBRANCH  54  68
BRANCH  55  78
ATOM     78  C   UNL A   1      41.422  30.069  33.007  1.00  0.00    -0.014 A 
ATOM     79  C   UNL A   1      41.441  31.475  33.123  1.00  0.00     0.010 A 
ATOM     80  C   UNL A   1      40.187  29.401  32.965  1.00  0.00     0.010 A 
ATOM     81  C   UNL A   1      40.259  32.208  33.013  1.00  0.00     0.020 A 
ATOM     82  C   UNL A   1      38.999  30.135  32.865  1.00  0.00     0.020 A 
ATOM     83  C   UNL A   1      39.055  31.532  32.820  1.00  0.00     0.054 A 
BRANCH  83  84
ATOM     84  S   UNL A   1      37.612  32.501  32.288  1.00  0.00     0.124 S 
ATOM     85  O   UNL A   1      36.708  31.470  31.792  1.00  0.00    -0.237 OA
ATOM     86  O   UNL A   1      37.214  33.146  33.537  1.00  0.00    -0.237 OA
ATOM     87  O   UNL A   1      38.165  33.396  31.275  1.00  0.00    -0.744 OA
ENDBRANCH  83  84
ENDBRANCH  55  78
BRANCH  67  88
ATOM     88  C   UNL A   1      45.083  23.827  33.515  1.00  0.00    -0.014 A 
ATOM     89  C   UNL A   1      44.176  22.782  33.752  1.00  0.00     0.010 A 
ATOM     90  C   UNL A   1      46.322  23.769  34.196  1.00  0.00     0.010 A 
ATOM     91  C   UNL A   1      44.513  21.706  34.588  1.00  0.00     0.020 A 
ATOM     92  C   UNL A   1      46.661  22.712  35.044  1.00  0.00     0.020 A 
ATOM     93  C   UNL A   1      45.758  21.675  35.223  1.00  0.00     0.054 A 
BRANCH  93  94
ATOM     94  S   UNL A   1      46.157  20.298  36.330  1.00  0.00     0.124 S 
ATOM     95  O   UNL A   1      45.328  19.215  35.804  1.00  0.00    -0.237 OA
ATOM     96  O   UNL A   1      47.594  20.146  36.117  1.00  0.00    -0.237 OA
ATOM     97  O   UNL A   1      45.770  20.785  37.651  1.00  0.00    -0.744 OA
ENDBRANCH  93  94
ENDBRANCH  67  88
ENDBRANCH  41  42
ENDBRANCH  33  36
ENDBRANCH  31  32
ENDBRANCH  30  31
ENDBRANCH  29  30
ENDBRANCH   1  29
TORSDOF 19
ENDMDL
MODEL 2
REMARK VINA RESULT:     -12.5      1.559      2.415
REMARK SMILES Cc1ccc(N2C(=O)C[C@H](Sc3ccccc3C(=O)NCCCCCCNC(=O)c3ccc(-c4c5nc(c(-c6ccc(S(=O)(=O)[O-])cc6)c6ccc([nH]6)c(-c6ccc(S(=O)(=O)[O-])cc6)c6nc(c(-c7ccc(S(=O)(=O)[O-])cc7)c7ccc4[nH]7)C=C6)C=C5)cc3)C2=O)cc1
REMARK SMILES IDX 23 1 22 2 21 3 20 4 18 5 19 6 17 8 12 9 13 10 14 11 16 12
REMARK SMILES IDX 15 13 11 14 10 15 6 16 7 17 90 18 8 19 9 20 91 21 5 22 1 23
REMARK SMILES IDX 2 24 3 25 93 26 4 27 92 28 24 29 25 30 26 31 27 32 28 33
REMARK SMILES IDX 29 35 30 36 31 37 89 38 32 39 88 40 33 41 34 42 35 43 82 44
REMARK SMILES IDX 36 45 87 46 81 47 83 48 37 49 86 50 80 51 79 52 38 54 68 55
REMARK SMILES IDX 49 56 67 57 50 58 53 59 66 60 84 61 51 62 52 63 65 65 85 66
REMARK SMILES IDX 54 67 39 68 40 69 48 70 41 71 47 72 42 73 43 74 44 75 45 76
REMARK SMILES IDX 46 77 69 78 70 79 78 80 71 81 77 82 72 83 73 84 74 85 75 86
REMARK SMILES IDX 76 87 55 88 56 89 64 90 57 91 63 92 58 93 59 94 60 95 61 96
REMARK SMILES IDX 62 97
REMARK H PARENT 20 7 27 34 83 53 53 64
REMARK Flexibility Score: inf
ROOT
ATOM      1  C   UNL A   1      31.801  27.815  25.898  1.00  0.00     0.002 C 
ENDROOT
BRANCH   1   2
ATOM      2  C   UNL A   1      32.783  27.002  26.748  1.00  0.00     0.021 C 
BRANCH   2   3
ATOM      3  C   UNL A   1      33.458  25.773  26.143  1.00  0.00     0.116 C 
BRANCH   3   4
ATOM      4  N   UNL A   1      33.257  24.518  26.847  1.00  0.00    -0.352 N 
ATOM      5  C   UNL A   1      33.972  23.339  26.808  1.00  0.00     0.252 C 
ATOM      6  O   UNL A   1      33.723  22.474  27.645  1.00  0.00    -0.269 OA
ATOM      7  H   UNL A   1      32.481  24.507  27.453  1.00  0.00     0.163 HD
BRANCH   5   8
ATOM      8  C   UNL A   1      34.992  23.086  25.752  1.00  0.00     0.053 A 
ATOM      9  C   UNL A   1      34.880  22.019  24.830  1.00  0.00     0.021 A 
ATOM     10  C   UNL A   1      35.880  21.868  23.850  1.00  0.00     0.016 A 
ATOM     11  C   UNL A   1      36.979  22.728  23.798  1.00  0.00     0.001 A 
ATOM     12  C   UNL A   1      36.141  23.899  25.727  1.00  0.00     0.015 A 
ATOM     13  C   UNL A   1      37.120  23.732  24.748  1.00  0.00     0.001 A 
BRANCH   9  14
ATOM     14  S   UNL A   1      33.727  20.644  24.946  1.00  0.00    -0.111 SA
BRANCH  14  15
ATOM     15  C   UNL A   1      32.136  21.287  24.330  1.00  0.00     0.151 C 
ATOM     16  N   UNL A   1      31.584  23.543  24.070  1.00  0.00    -0.250 N 
ATOM     17  C   UNL A   1      31.045  23.158  25.278  1.00  0.00     0.235 C 
ATOM     18  C   UNL A   1      32.265  22.510  23.461  1.00  0.00     0.247 C 
ATOM     19  O   UNL A   1      30.465  23.834  26.114  1.00  0.00    -0.274 OA
ATOM     20  C   UNL A   1      31.132  21.668  25.387  1.00  0.00     0.126 C 
ATOM     21  O   UNL A   1      32.899  22.531  22.413  1.00  0.00    -0.273 OA
BRANCH  16  22
ATOM     22  C   UNL A   1      31.392  24.828  23.496  1.00  0.00     0.052 A 
ATOM     23  C   UNL A   1      30.870  28.891  22.091  1.00  0.00     0.044 C 
ATOM     24  C   UNL A   1      31.038  27.468  22.533  1.00  0.00    -0.051 A 
ATOM     25  C   UNL A   1      29.976  26.778  23.121  1.00  0.00     0.005 A 
ATOM     26  C   UNL A   1      32.277  26.832  22.428  1.00  0.00     0.005 A 
ATOM     27  C   UNL A   1      30.144  25.465  23.576  1.00  0.00     0.027 A 
ATOM     28  C   UNL A   1      32.453  25.530  22.913  1.00  0.00     0.027 A 
ENDBRANCH  16  22
ENDBRANCH  14  15
ENDBRANCH   9  14
ENDBRANCH   5   8
ENDBRANCH   3   4
ENDBRANCH   2   3
ENDBRANCH   1   2
BRANCH   1  29
ATOM     29  C   UNL A   1      31.807  29.342  26.016  1.00  0.00     0.002 C 
BRANCH  29  30
ATOM     30  C   UNL A   1      32.567  29.956  27.189  1.00  0.00     0.021 C 
BRANCH  30  31
ATOM     31  C   UNL A   1      34.026  30.298  26.902  1.00  0.00     0.116 C 
BRANCH  31  32
ATOM     32  N   UNL A   1      34.519  31.406  27.716  1.00  0.00    -0.352 N 
ATOM     33  C   UNL A   1      35.631  31.433  28.543  1.00  0.00     0.251 C 
ATOM     34  H   UNL A   1      33.996  32.239  27.672  1.00  0.00     0.163 HD
ATOM     35  O   UNL A   1      35.891  32.383  29.257  1.00  0.00    -0.269 OA
BRANCH  33  36
ATOM     36  C   UNL A   1      36.539  30.269  28.475  1.00  0.00     0.039 A 
ATOM     37  C   UNL A   1      36.647  29.459  29.609  1.00  0.00     0.014 A 
ATOM     38  C   UNL A   1      37.448  30.173  27.427  1.00  0.00     0.014 A 
ATOM     39  C   UNL A   1      37.788  28.679  29.781  1.00  0.00     0.010 A 
ATOM     40  C   UNL A   1      38.620  29.474  27.642  1.00  0.00     0.010 A 
ATOM     41  C   UNL A   1      38.815  28.770  28.842  1.00  0.00    -0.014 A 
BRANCH  41  42
ATOM     42  C   UNL A   1      40.159  28.243  29.053  1.00  0.00     0.031 A 
ATOM     43  C   UNL A   1      40.475  26.841  28.697  1.00  0.00     0.074 A 
ATOM     44  C   UNL A   1      41.161  29.048  29.473  1.00  0.00     0.049 A 
ATOM     45  N   UNL A   1      41.508  26.194  29.125  1.00  0.00    -0.248 NA
ATOM     46  C   UNL A   1      39.591  26.023  27.875  1.00  0.00     0.031 C 
ATOM     47  C   UNL A   1      42.594  28.783  29.365  1.00  0.00     0.029 A 
ATOM     48  N   UNL A   1      41.093  30.173  30.296  1.00  0.00    -0.354 N 
ATOM     49  C   UNL A   1      41.603  25.034  28.392  1.00  0.00     0.074 A 
ATOM     50  C   UNL A   1      40.327  24.920  27.723  1.00  0.00     0.031 C 
ATOM     51  C   UNL A   1      43.233  29.490  30.305  1.00  0.00     0.029 A 
ATOM     52  C   UNL A   1      42.219  30.112  31.138  1.00  0.00     0.049 A 
ATOM     53  H   UNL A   1      40.397  30.870  30.289  1.00  0.00     0.167 HD
ATOM     54  C   UNL A   1      42.798  24.380  28.319  1.00  0.00     0.031 A 
ATOM     55  C   UNL A   1      42.162  30.049  32.500  1.00  0.00     0.031 A 
ATOM     56  C   UNL A   1      43.802  24.948  29.224  1.00  0.00     0.049 A 
ATOM     57  C   UNL A   1      42.879  28.850  33.097  1.00  0.00     0.074 A 
ATOM     58  C   UNL A   1      44.972  25.672  29.059  1.00  0.00     0.029 A 
ATOM     59  N   UNL A   1      43.529  24.976  30.583  1.00  0.00    -0.354 N 
ATOM     60  N   UNL A   1      43.493  27.936  32.397  1.00  0.00    -0.248 NA
ATOM     61  C   UNL A   1      42.858  28.525  34.525  1.00  0.00     0.031 C 
ATOM     62  C   UNL A   1      45.412  26.110  30.341  1.00  0.00     0.029 A 
ATOM     63  C   UNL A   1      44.512  25.649  31.282  1.00  0.00     0.049 A 
ATOM     64  H   UNL A   1      42.736  24.568  30.997  1.00  0.00     0.167 HD
ATOM     65  C   UNL A   1      43.856  26.898  33.215  1.00  0.00     0.074 A 
ATOM     66  C   UNL A   1      43.459  27.322  34.544  1.00  0.00     0.031 C 
ATOM     67  C   UNL A   1      44.393  25.742  32.728  1.00  0.00     0.031 A 
BRANCH  54  68
ATOM     68  C   UNL A   1      43.138  23.358  27.249  1.00  0.00    -0.014 A 
ATOM     69  C   UNL A   1      42.440  22.132  27.206  1.00  0.00     0.010 A 
ATOM     70  C   UNL A   1      44.171  23.501  26.305  1.00  0.00     0.010 A 
ATOM     71  C   UNL A   1      42.823  21.080  26.357  1.00  0.00     0.020 A 
ATOM     72  C   UNL A   1      44.584  22.455  25.467  1.00  0.00     0.020 A 
ATOM     73  C   UNL A   1      43.919  21.239  25.514  1.00  0.00     0.054 A 
BRANCH  73  74
ATOM     74  S   UNL A   1      44.474  19.848  24.498  1.00  0.00     0.124 S 
ATOM     75  O   UNL A   1      45.738  19.482  25.131  1.00  0.00    -0.237 OA
ATOM     76  O   UNL A   1      43.386  18.887  24.658  1.00  0.00    -0.237 OA
ATOM     77  O   UNL A   1      44.600  20.425  23.161  1.00  0.00    -0.744 OA
ENDBRANCH  73  74
ENDBRANCH  54  68
BRANCH  55  78
ATOM     78  C   UNL A   1      40.949  30.687  33.083  1.00  0.00    -0.014 A 
ATOM     79  C   UNL A   1      39.887  29.835  33.457  1.00  0.00     0.010 A 
ATOM     80  C   UNL A   1      41.029  31.971  33.646  1.00  0.00     0.010 A 
ATOM     81  C   UNL A   1      39.035  30.188  34.503  1.00  0.00     0.020 A 
ATOM     82  C   UNL A   1      40.168  32.331  34.690  1.00  0.00     0.020 A 
ATOM     83  C   UNL A   1      39.226  31.407  35.154  1.00  0.00     0.054 A 
BRANCH  83  84
ATOM     84  S   UNL A   1      38.379  31.665  36.742  1.00  0.00     0.124 S 
ATOM     85  O   UNL A   1      37.482  32.775  36.442  1.00  0.00    -0.237 OA
ATOM     86  O   UNL A   1      37.737  30.368  36.947  1.00  0.00    -0.237 OA
ATOM     87  O   UNL A   1      39.474  31.968  37.660  1.00  0.00    -0.744 OA
ENDBRANCH  83  84
ENDBRANCH  55  78
BRANCH  67  88
ATOM     88  C   UNL A   1      44.804  24.560  33.567  1.00  0.00    -0.014 A 
ATOM     89  C   UNL A   1      46.096  24.401  34.092  1.00  0.00     0.010 A 
ATOM     90  C   UNL A   1      43.899  23.487  33.746  1.00  0.00     0.010 A 
ATOM     91  C   UNL A   1      46.449  23.246  34.808  1.00  0.00     0.020 A 
ATOM     92  C   UNL A   1      44.245  22.326  34.441  1.00  0.00     0.020 A 
ATOM     93  C   UNL A   1      45.518  22.218  34.984  1.00  0.00     0.054 A 
BRANCH  93  94
ATOM     94  S   UNL A   1      46.006  20.719  35.875  1.00  0.00     0.124 S 
ATOM     95  O   UNL A   1      45.656  21.041  37.257  1.00  0.00    -0.237 OA
ATOM     96  O   UNL A   1      45.173  19.703  35.237  1.00  0.00    -0.237 OA
ATOM     97  O   UNL A   1      47.438  20.605  35.612  1.00  0.00    -0.744 OA
ENDBRANCH  93  94
ENDBRANCH  67  88
ENDBRANCH  41  42
ENDBRANCH  33  36
ENDBRANCH  31  32
ENDBRANCH  30  31
ENDBRANCH  29  30
ENDBRANCH   1  29
TORSDOF 19
ENDMDL
MODEL 3
REMARK VINA RESULT:     -12.4      1.927      4.398
REMARK SMILES Cc1ccc(N2C(=O)C[C@H](Sc3ccccc3C(=O)NCCCCCCNC(=O)c3ccc(-c4c5nc(c(-c6ccc(S(=O)(=O)[O-])cc6)c6ccc([nH]6)c(-c6ccc(S(=O)(=O)[O-])cc6)c6nc(c(-c7ccc(S(=O)(=O)[O-])cc7)c7ccc4[nH]7)C=C6)C=C5)cc3)C2=O)cc1
REMARK SMILES IDX 23 1 22 2 21 3 20 4 18 5 19 6 17 8 12 9 13 10 14 11 16 12
REMARK SMILES IDX 15 13 11 14 10 15 6 16 7 17 90 18 8 19 9 20 91 21 5 22 1 23
REMARK SMILES IDX 2 24 3 25 93 26 4 27 92 28 24 29 25 30 26 31 27 32 28 33
REMARK SMILES IDX 29 35 30 36 31 37 89 38 32 39 88 40 33 41 34 42 35 43 82 44
REMARK SMILES IDX 36 45 87 46 81 47 83 48 37 49 86 50 80 51 79 52 38 54 68 55
REMARK SMILES IDX 49 56 67 57 50 58 53 59 66 60 84 61 51 62 52 63 65 65 85 66
REMARK SMILES IDX 54 67 39 68 40 69 48 70 41 71 47 72 42 73 43 74 44 75 45 76
REMARK SMILES IDX 46 77 69 78 70 79 78 80 71 81 77 82 72 83 73 84 74 85 75 86
REMARK SMILES IDX 76 87 55 88 56 89 64 90 57 91 63 92 58 93 59 94 60 95 61 96
REMARK SMILES IDX 62 97
REMARK H PARENT 20 7 27 34 83 53 53 64
REMARK Flexibility Score: inf
ROOT
ATOM      1  C   UNL A   1      34.102  28.600  26.530  1.00  0.00     0.002 C 
ENDROOT
BRANCH   1   2
ATOM      2  C   UNL A   1      32.610  28.860  26.756  1.00  0.00     0.021 C 
BRANCH   2   3
ATOM      3  C   UNL A   1      31.801  29.572  25.672  1.00  0.00     0.116 C 
BRANCH   3   4
ATOM      4  N   UNL A   1      32.198  29.310  24.299  1.00  0.00    -0.352 N 
ATOM      5  C   UNL A   1      31.441  29.154  23.156  1.00  0.00     0.252 C 
ATOM      6  O   UNL A   1      32.014  29.134  22.070  1.00  0.00    -0.269 OA
ATOM      7  H   UNL A   1      33.170  29.230  24.160  1.00  0.00     0.163 HD
BRANCH   5   8
ATOM      8  C   UNL A   1      29.964  28.965  23.227  1.00  0.00     0.053 A 
ATOM      9  C   UNL A   1      29.370  27.690  23.380  1.00  0.00     0.021 A 
ATOM     10  C   UNL A   1      27.967  27.606  23.461  1.00  0.00     0.016 A 
ATOM     11  C   UNL A   1      27.166  28.746  23.359  1.00  0.00     0.001 A 
ATOM     12  C   UNL A   1      29.139  30.092  23.058  1.00  0.00     0.015 A 
ATOM     13  C   UNL A   1      27.751  29.987  23.139  1.00  0.00     0.001 A 
BRANCH   9  14
ATOM     14  S   UNL A   1      30.210  26.109  23.205  1.00  0.00    -0.111 SA
BRANCH  14  15
ATOM     15  C   UNL A   1      31.277  25.957  24.674  1.00  0.00     0.151 C 
ATOM     16  N   UNL A   1      33.001  24.405  24.956  1.00  0.00    -0.250 N 
ATOM     17  C   UNL A   1      31.907  23.878  25.606  1.00  0.00     0.235 C 
ATOM     18  C   UNL A   1      32.709  25.613  24.359  1.00  0.00     0.247 C 
ATOM     19  O   UNL A   1      31.786  22.793  26.156  1.00  0.00    -0.274 OA
ATOM     20  C   UNL A   1      30.848  24.931  25.692  1.00  0.00     0.126 C 
ATOM     21  O   UNL A   1      33.436  26.314  23.665  1.00  0.00    -0.273 OA
BRANCH  16  22
ATOM     22  C   UNL A   1      34.289  23.806  24.969  1.00  0.00     0.052 A 
ATOM     23  C   UNL A   1      38.093  21.760  25.293  1.00  0.00     0.044 C 
ATOM     24  C   UNL A   1      36.796  22.498  25.147  1.00  0.00    -0.051 A 
ATOM     25  C   UNL A   1      36.499  23.581  25.978  1.00  0.00     0.005 A 
ATOM     26  C   UNL A   1      35.835  22.073  24.226  1.00  0.00     0.005 A 
ATOM     27  C   UNL A   1      35.269  24.242  25.874  1.00  0.00     0.027 A 
ATOM     28  C   UNL A   1      34.593  22.715  24.146  1.00  0.00     0.027 A 
ENDBRANCH  16  22
ENDBRANCH  14  15
ENDBRANCH   9  14
ENDBRANCH   5   8
ENDBRANCH   3   4
ENDBRANCH   2   3
ENDBRANCH   1   2
BRANCH   1  29
ATOM     29  C   UNL A   1      35.125  29.396  27.348  1.00  0.00     0.002 C 
BRANCH  29  30
ATOM     30  C   UNL A   1      34.870  30.889  27.537  1.00  0.00     0.021 C 
BRANCH  30  31
ATOM     31  C   UNL A   1      34.272  31.273  28.887  1.00  0.00     0.116 C 
BRANCH  31  32
ATOM     32  N   UNL A   1      34.895  32.462  29.465  1.00  0.00    -0.352 N 
ATOM     33  C   UNL A   1      36.146  32.574  30.051  1.00  0.00     0.251 C 
ATOM     34  H   UNL A   1      34.360  33.287  29.433  1.00  0.00     0.163 HD
ATOM     35  O   UNL A   1      36.523  33.595  30.593  1.00  0.00    -0.269 OA
BRANCH  33  36
ATOM     36  C   UNL A   1      37.043  31.405  29.934  1.00  0.00     0.039 A 
ATOM     37  C   UNL A   1      37.104  30.519  31.012  1.00  0.00     0.014 A 
ATOM     38  C   UNL A   1      37.986  31.368  28.911  1.00  0.00     0.014 A 
ATOM     39  C   UNL A   1      38.230  29.714  31.168  1.00  0.00     0.010 A 
ATOM     40  C   UNL A   1      39.142  30.640  29.117  1.00  0.00     0.010 A 
ATOM     41  C   UNL A   1      39.288  29.855  30.272  1.00  0.00    -0.014 A 
BRANCH  41  42
ATOM     42  C   UNL A   1      40.619  29.297  30.491  1.00  0.00     0.031 A 
ATOM     43  C   UNL A   1      41.006  28.019  29.851  1.00  0.00     0.074 A 
ATOM     44  C   UNL A   1      41.552  29.983  31.189  1.00  0.00     0.049 A 
ATOM     45  N   UNL A   1      42.010  27.293  30.218  1.00  0.00    -0.248 NA
ATOM     46  C   UNL A   1      40.231  27.416  28.773  1.00  0.00     0.031 C 
ATOM     47  C   UNL A   1      42.995  29.755  31.169  1.00  0.00     0.029 A 
ATOM     48  N   UNL A   1      41.372  30.881  32.241  1.00  0.00    -0.354 N 
ATOM     49  C   UNL A   1      42.208  26.339  29.247  1.00  0.00     0.074 A 
ATOM     50  C   UNL A   1      41.008  26.382  28.443  1.00  0.00     0.031 C 
ATOM     51  C   UNL A   1      43.519  30.222  32.309  1.00  0.00     0.029 A 
ATOM     52  C   UNL A   1      42.410  30.627  33.156  1.00  0.00     0.049 A 
ATOM     53  H   UNL A   1      40.661  31.558  32.326  1.00  0.00     0.167 HD
ATOM     54  C   UNL A   1      43.421  25.724  29.146  1.00  0.00     0.031 A 
ATOM     55  C   UNL A   1      42.220  30.243  34.452  1.00  0.00     0.031 A 
ATOM     56  C   UNL A   1      44.315  26.066  30.258  1.00  0.00     0.049 A 
ATOM     57  C   UNL A   1      42.907  28.940  34.821  1.00  0.00     0.074 A 
ATOM     58  C   UNL A   1      45.475  26.812  30.388  1.00  0.00     0.029 A 
ATOM     59  N   UNL A   1      43.908  25.771  31.550  1.00  0.00    -0.354 N 
ATOM     60  N   UNL A   1      43.612  28.219  33.994  1.00  0.00    -0.248 NA
ATOM     61  C   UNL A   1      42.753  28.287  36.124  1.00  0.00     0.031 C 
ATOM     62  C   UNL A   1      45.774  26.936  31.776  1.00  0.00     0.029 A 
ATOM     63  C   UNL A   1      44.798  26.262  32.484  1.00  0.00     0.049 A 
ATOM     64  H   UNL A   1      43.089  25.274  31.773  1.00  0.00     0.167 HD
ATOM     65  C   UNL A   1      43.920  27.018  34.579  1.00  0.00     0.074 A 
ATOM     66  C   UNL A   1      43.382  27.116  35.922  1.00  0.00     0.031 C 
ATOM     67  C   UNL A   1      44.534  26.012  33.892  1.00  0.00     0.031 A 
BRANCH  54  68
ATOM     68  C   UNL A   1      43.893  24.985  27.908  1.00  0.00    -0.014 A 
ATOM     69  C   UNL A   1      44.643  23.797  28.045  1.00  0.00     0.010 A 
ATOM     70  C   UNL A   1      43.701  25.431  26.587  1.00  0.00     0.010 A 
ATOM     71  C   UNL A   1      45.255  23.164  26.950  1.00  0.00     0.020 A 
ATOM     72  C   UNL A   1      44.325  24.828  25.484  1.00  0.00     0.020 A 
ATOM     73  C   UNL A   1      45.118  23.707  25.676  1.00  0.00     0.054 A 
BRANCH  73  74
ATOM     74  S   UNL A   1      45.992  22.950  24.283  1.00  0.00     0.124 S 
ATOM     75  O   UNL A   1      46.973  23.974  23.935  1.00  0.00    -0.237 OA
ATOM     76  O   UNL A   1      46.533  21.731  24.876  1.00  0.00    -0.237 OA
ATOM     77  O   UNL A   1      44.941  22.742  23.288  1.00  0.00    -0.744 OA
ENDBRANCH  73  74
ENDBRANCH  54  68
BRANCH  55  78
ATOM     78  C   UNL A   1      40.939  30.722  35.040  1.00  0.00    -0.014 A 
ATOM     79  C   UNL A   1      40.910  32.042  35.540  1.00  0.00     0.010 A 
ATOM     80  C   UNL A   1      39.730  30.089  34.707  1.00  0.00     0.010 A 
ATOM     81  C   UNL A   1      39.723  32.774  35.532  1.00  0.00     0.020 A 
ATOM     82  C   UNL A   1      38.535  30.819  34.709  1.00  0.00     0.020 A 
ATOM     83  C   UNL A   1      38.557  32.174  35.055  1.00  0.00     0.054 A 
BRANCH  83  84
ATOM     84  S   UNL A   1      37.139  33.249  34.685  1.00  0.00     0.124 S 
ATOM     85  O   UNL A   1      36.574  33.489  36.008  1.00  0.00    -0.237 OA
ATOM     86  O   UNL A   1      37.793  34.396  34.058  1.00  0.00    -0.237 OA
ATOM     87  O   UNL A   1      36.324  32.432  33.789  1.00  0.00    -0.744 OA
ENDBRANCH  83  84
ENDBRANCH  55  78
BRANCH  67  88
ATOM     88  C   UNL A   1      44.891  24.666  34.468  1.00  0.00    -0.014 A 
ATOM     89  C   UNL A   1      46.159  24.365  34.990  1.00  0.00     0.010 A 
ATOM     90  C   UNL A   1      43.962  23.603  34.379  1.00  0.00     0.010 A 
ATOM     91  C   UNL A   1      46.464  23.074  35.450  1.00  0.00     0.020 A 
ATOM     92  C   UNL A   1      44.261  22.310  34.816  1.00  0.00     0.020 A 
ATOM     93  C   UNL A   1      45.509  22.056  35.366  1.00  0.00     0.054 A 
BRANCH  93  94
ATOM     94  S   UNL A   1      45.937  20.388  35.927  1.00  0.00     0.124 S 
ATOM     95  O   UNL A   1      45.009  19.550  35.170  1.00  0.00    -0.237 OA
ATOM     96  O   UNL A   1      47.339  20.286  35.531  1.00  0.00    -0.237 OA
ATOM     97  O   UNL A   1      45.697  20.429  37.367  1.00  0.00    -0.744 OA
ENDBRANCH  93  94
ENDBRANCH  67  88
ENDBRANCH  41  42
ENDBRANCH  33  36
ENDBRANCH  31  32
ENDBRANCH  30  31
ENDBRANCH  29  30
ENDBRANCH   1  29
TORSDOF 19
ENDMDL
