MODEL 1
REMARK VINA RESULT:      -9.9      0.000      0.000
REMARK SMILES CN(CC(C)(C)C)C(=O)N1CCO[C@@H](CC(=O)NCCCCCCNC(=O)c2ccc(-c3c4nc(c(-c5ccc(S(=O)(=O)[O-])cc5)c5ccc([nH]5)c(-c5ccc(S(=O)(=O)[O-])cc5)c5nc(c(-c6ccc(S(=O)(=O)[O-])cc6)c6ccc3[nH]6)C=C5)C=C4)cc2)C1
REMARK SMILES IDX 20 1 19 2 18 3 16 4 17 5 15 7 14 8 10 9 11 10 88 11 12 12
REMARK SMILES IDX 13 13 8 14 9 15 2 16 1 17 3 18 4 19 5 20 6 21 7 22 21 23
REMARK SMILES IDX 22 24 23 25 24 26 25 27 26 28 27 30 28 31 29 32 87 33 30 34
REMARK SMILES IDX 86 35 31 36 32 37 33 38 80 39 34 40 85 41 79 42 81 43 35 44
REMARK SMILES IDX 84 45 78 46 77 47 36 49 66 50 47 51 65 52 48 53 51 54 64 55
REMARK SMILES IDX 82 56 49 57 50 58 63 60 83 61 52 62 37 63 38 64 46 65 39 66
REMARK SMILES IDX 45 67 40 68 41 69 42 70 43 71 44 72 67 73 68 74 76 75 69 76
REMARK SMILES IDX 75 77 70 78 71 79 72 80 73 81 74 82 53 83 54 84 62 85 55 86
REMARK SMILES IDX 61 87 56 88 57 89 58 90 59 91 60 92
REMARK H PARENT 18 6 25 29 81 48 51 59
REMARK Flexibility Score: inf
ROOT
ATOM      1  C   UNL A   1      30.249  29.235  23.863  1.00  0.00     0.021 C 
ENDROOT
BRANCH   1   2
ATOM      2  C   UNL A   1      30.658  29.335  22.389  1.00  0.00     0.116 C 
BRANCH   2   3
ATOM      3  N   UNL A   1      32.109  29.226  22.261  1.00  0.00    -0.356 N 
ATOM      4  C   UNL A   1      32.923  28.129  22.292  1.00  0.00     0.222 C 
ATOM      5  O   UNL A   1      34.139  28.298  22.396  1.00  0.00    -0.275 OA
ATOM      6  H   UNL A   1      32.577  30.083  22.132  1.00  0.00     0.163 HD
BRANCH   4   7
ATOM      7  C   UNL A   1      32.343  26.739  22.174  1.00  0.00     0.133 C 
BRANCH   7   8
ATOM      8  C   UNL A   1      33.343  25.575  22.265  1.00  0.00     0.147 C 
ATOM      9  N   UNL A   1      33.529  23.420  23.612  1.00  0.00    -0.320 N 
ATOM     10  C   UNL A   1      32.873  22.780  22.483  1.00  0.00     0.150 C 
ATOM     11  C   UNL A   1      33.247  24.843  23.622  1.00  0.00     0.154 C 
ATOM     12  C   UNL A   1      33.440  23.397  21.215  1.00  0.00     0.182 C 
ATOM     13  O   UNL A   1      33.010  24.757  21.115  1.00  0.00    -0.374 OA
BRANCH   9  14
ATOM     14  C   UNL A   1      33.402  22.806  24.851  1.00  0.00     0.319 C 
ATOM     15  O   UNL A   1      32.483  23.101  25.616  1.00  0.00    -0.248 OA
BRANCH  14  16
ATOM     16  N   UNL A   1      34.436  21.955  25.208  1.00  0.00    -0.327 N 
ATOM     17  C   UNL A   1      34.311  20.571  24.779  1.00  0.00     0.148 C 
BRANCH  16  18
ATOM     18  C   UNL A   1      35.598  22.322  26.023  1.00  0.00     0.127 C 
BRANCH  18  19
ATOM     19  C   UNL A   1      36.923  22.570  25.234  1.00  0.00    -0.020 C 
ATOM     20  C   UNL A   1      37.849  23.547  25.966  1.00  0.00     0.012 C 
ATOM     21  C   UNL A   1      37.664  21.225  25.114  1.00  0.00     0.012 C 
ATOM     22  C   UNL A   1      36.674  23.123  23.823  1.00  0.00     0.012 C 
ENDBRANCH  18  19
ENDBRANCH  16  18
ENDBRANCH  14  16
ENDBRANCH   9  14
ENDBRANCH   7   8
ENDBRANCH   4   7
ENDBRANCH   2   3
ENDBRANCH   1   2
BRANCH   1  23
ATOM     23  C   UNL A   1      31.390  29.449  24.854  1.00  0.00     0.002 C 
BRANCH  23  24
ATOM     24  C   UNL A   1      31.617  28.281  25.816  1.00  0.00     0.002 C 
BRANCH  24  25
ATOM     25  C   UNL A   1      33.014  27.648  25.775  1.00  0.00     0.021 C 
BRANCH  25  26
ATOM     26  C   UNL A   1      33.989  28.150  26.838  1.00  0.00     0.116 C 
BRANCH  26  27
ATOM     27  N   UNL A   1      33.728  29.538  27.197  1.00  0.00    -0.352 N 
ATOM     28  C   UNL A   1      34.481  30.402  27.945  1.00  0.00     0.251 C 
ATOM     29  H   UNL A   1      32.885  29.907  26.851  1.00  0.00     0.163 HD
ATOM     30  O   UNL A   1      33.981  31.455  28.353  1.00  0.00    -0.269 OA
BRANCH  28  31
ATOM     31  C   UNL A   1      35.885  30.082  28.274  1.00  0.00     0.039 A 
ATOM     32  C   UNL A   1      36.197  29.616  29.554  1.00  0.00     0.014 A 
ATOM     33  C   UNL A   1      36.901  30.275  27.331  1.00  0.00     0.014 A 
ATOM     34  C   UNL A   1      37.518  29.293  29.872  1.00  0.00     0.010 A 
ATOM     35  C   UNL A   1      38.207  29.893  27.630  1.00  0.00     0.010 A 
ATOM     36  C   UNL A   1      38.531  29.403  28.905  1.00  0.00    -0.014 A 
BRANCH  36  37
ATOM     37  C   UNL A   1      39.932  29.012  29.207  1.00  0.00     0.031 A 
ATOM     38  C   UNL A   1      40.879  30.004  29.826  1.00  0.00     0.074 A 
ATOM     39  C   UNL A   1      40.369  27.784  28.866  1.00  0.00     0.049 A 
ATOM     40  N   UNL A   1      42.150  29.868  30.105  1.00  0.00    -0.248 NA
ATOM     41  C   UNL A   1      40.331  31.330  30.156  1.00  0.00     0.031 C 
ATOM     42  C   UNL A   1      39.560  26.744  28.225  1.00  0.00     0.029 A 
ATOM     43  N   UNL A   1      41.606  27.204  29.002  1.00  0.00    -0.354 N 
ATOM     44  C   UNL A   1      42.557  31.090  30.626  1.00  0.00     0.074 A 
ATOM     45  C   UNL A   1      41.410  31.971  30.582  1.00  0.00     0.031 C 
ATOM     46  C   UNL A   1      40.315  25.649  28.043  1.00  0.00     0.029 A 
ATOM     47  C   UNL A   1      41.669  25.919  28.517  1.00  0.00     0.049 A 
ATOM     48  H   UNL A   1      42.375  27.665  29.408  1.00  0.00     0.167 HD
ATOM     49  C   UNL A   1      43.771  31.445  31.111  1.00  0.00     0.031 A 
ATOM     50  C   UNL A   1      42.701  25.056  28.453  1.00  0.00     0.031 A 
ATOM     51  C   UNL A   1      44.910  30.564  31.161  1.00  0.00     0.049 A 
ATOM     52  C   UNL A   1      44.043  25.473  28.994  1.00  0.00     0.074 A 
ATOM     53  C   UNL A   1      46.168  30.813  31.680  1.00  0.00     0.029 A 
ATOM     54  N   UNL A   1      44.927  29.266  30.674  1.00  0.00    -0.354 N 
ATOM     55  N   UNL A   1      44.392  26.615  29.536  1.00  0.00    -0.248 NA
ATOM     56  C   UNL A   1      45.123  24.481  28.924  1.00  0.00     0.031 C 
ATOM     57  C   UNL A   1      46.961  29.681  31.465  1.00  0.00     0.029 A 
ATOM     58  C   UNL A   1      46.181  28.708  30.861  1.00  0.00     0.049 A 
ATOM     59  H   UNL A   1      44.162  28.809  30.255  1.00  0.00     0.167 HD
ATOM     60  C   UNL A   1      45.727  26.469  29.895  1.00  0.00     0.074 A 
ATOM     61  C   UNL A   1      46.117  25.125  29.522  1.00  0.00     0.031 C 
ATOM     62  C   UNL A   1      46.555  27.368  30.484  1.00  0.00     0.031 A 
BRANCH  49  63
ATOM     63  C   UNL A   1      43.931  32.852  31.625  1.00  0.00    -0.014 A 
ATOM     64  C   UNL A   1      43.782  33.146  32.992  1.00  0.00     0.010 A 
ATOM     65  C   UNL A   1      44.270  33.888  30.736  1.00  0.00     0.010 A 
ATOM     66  C   UNL A   1      43.923  34.457  33.455  1.00  0.00     0.020 A 
ATOM     67  C   UNL A   1      44.441  35.197  31.199  1.00  0.00     0.020 A 
ATOM     68  C   UNL A   1      44.248  35.475  32.553  1.00  0.00     0.054 A 
BRANCH  68  69
ATOM     69  S   UNL A   1      44.442  37.166  33.184  1.00  0.00     0.124 S 
ATOM     70  O   UNL A   1      44.874  37.885  31.988  1.00  0.00    -0.237 OA
ATOM     71  O   UNL A   1      43.098  37.488  33.657  1.00  0.00    -0.237 OA
ATOM     72  O   UNL A   1      45.453  37.032  34.230  1.00  0.00    -0.744 OA
ENDBRANCH  68  69
ENDBRANCH  49  63
BRANCH  50  73
ATOM     73  C   UNL A   1      42.502  23.703  27.866  1.00  0.00    -0.014 A 
ATOM     74  C   UNL A   1      42.872  23.441  26.535  1.00  0.00     0.010 A 
ATOM     75  C   UNL A   1      41.957  22.663  28.641  1.00  0.00     0.010 A 
ATOM     76  C   UNL A   1      42.687  22.171  25.985  1.00  0.00     0.020 A 
ATOM     77  C   UNL A   1      41.794  21.383  28.102  1.00  0.00     0.020 A 
ATOM     78  C   UNL A   1      42.150  21.148  26.773  1.00  0.00     0.054 A 
BRANCH  78  79
ATOM     79  S   UNL A   1      41.968  19.491  26.056  1.00  0.00     0.124 S 
ATOM     80  O   UNL A   1      40.535  19.431  25.791  1.00  0.00    -0.237 OA
ATOM     81  O   UNL A   1      42.828  19.562  24.876  1.00  0.00    -0.237 OA
ATOM     82  O   UNL A   1      42.450  18.607  27.113  1.00  0.00    -0.744 OA
ENDBRANCH  78  79
ENDBRANCH  50  73
BRANCH  62  83
ATOM     83  C   UNL A   1      47.957  26.919  30.792  1.00  0.00    -0.014 A 
ATOM     84  C   UNL A   1      48.992  27.063  29.851  1.00  0.00     0.010 A 
ATOM     85  C   UNL A   1      48.254  26.394  32.064  1.00  0.00     0.010 A 
ATOM     86  C   UNL A   1      50.294  26.663  30.168  1.00  0.00     0.020 A 
ATOM     87  C   UNL A   1      49.558  26.017  32.393  1.00  0.00     0.020 A 
ATOM     88  C   UNL A   1      50.568  26.142  31.436  1.00  0.00     0.054 A 
BRANCH  88  89
ATOM     89  S   UNL A   1      52.273  25.672  31.838  1.00  0.00     0.124 S 
ATOM     90  O   UNL A   1      52.957  25.898  30.568  1.00  0.00    -0.237 OA
ATOM     91  O   UNL A   1      52.619  26.601  32.911  1.00  0.00    -0.237 OA
ATOM     92  O   UNL A   1      52.160  24.273  32.245  1.00  0.00    -0.744 OA
ENDBRANCH  88  89
ENDBRANCH  62  83
ENDBRANCH  36  37
ENDBRANCH  28  31
ENDBRANCH  26  27
ENDBRANCH  25  26
ENDBRANCH  24  25
ENDBRANCH  23  24
ENDBRANCH   1  23
TORSDOF 21
ENDMDL
MODEL 2
REMARK VINA RESULT:      -9.8      1.420      2.286
REMARK SMILES CN(CC(C)(C)C)C(=O)N1CCO[C@@H](CC(=O)NCCCCCCNC(=O)c2ccc(-c3c4nc(c(-c5ccc(S(=O)(=O)[O-])cc5)c5ccc([nH]5)c(-c5ccc(S(=O)(=O)[O-])cc5)c5nc(c(-c6ccc(S(=O)(=O)[O-])cc6)c6ccc3[nH]6)C=C5)C=C4)cc2)C1
REMARK SMILES IDX 20 1 19 2 18 3 16 4 17 5 15 7 14 8 10 9 11 10 88 11 12 12
REMARK SMILES IDX 13 13 8 14 9 15 2 16 1 17 3 18 4 19 5 20 6 21 7 22 21 23
REMARK SMILES IDX 22 24 23 25 24 26 25 27 26 28 27 30 28 31 29 32 87 33 30 34
REMARK SMILES IDX 86 35 31 36 32 37 33 38 80 39 34 40 85 41 79 42 81 43 35 44
REMARK SMILES IDX 84 45 78 46 77 47 36 49 66 50 47 51 65 52 48 53 51 54 64 55
REMARK SMILES IDX 82 56 49 57 50 58 63 60 83 61 52 62 37 63 38 64 46 65 39 66
REMARK SMILES IDX 45 67 40 68 41 69 42 70 43 71 44 72 67 73 68 74 76 75 69 76
REMARK SMILES IDX 75 77 70 78 71 79 72 80 73 81 74 82 53 83 54 84 62 85 55 86
REMARK SMILES IDX 61 87 56 88 57 89 58 90 59 91 60 92
REMARK H PARENT 18 6 25 29 81 48 51 59
REMARK Flexibility Score: inf
ROOT
ATOM      1  C   UNL A   1      30.684  27.826  23.809  1.00  0.00     0.021 C 
ENDROOT
BRANCH   1   2
ATOM      2  C   UNL A   1      31.479  27.099  22.718  1.00  0.00     0.116 C 
BRANCH   2   3
ATOM      3  N   UNL A   1      32.768  26.660  23.244  1.00  0.00    -0.356 N 
ATOM      4  C   UNL A   1      33.362  25.429  23.226  1.00  0.00     0.222 C 
ATOM      5  O   UNL A   1      34.351  25.239  23.936  1.00  0.00    -0.275 OA
ATOM      6  H   UNL A   1      33.296  27.365  23.684  1.00  0.00     0.163 HD
BRANCH   4   7
ATOM      7  C   UNL A   1      32.829  24.333  22.333  1.00  0.00     0.133 C 
BRANCH   7   8
ATOM      8  C   UNL A   1      32.080  23.188  23.035  1.00  0.00     0.147 C 
ATOM      9  N   UNL A   1      32.731  21.168  24.447  1.00  0.00    -0.320 N 
ATOM     10  C   UNL A   1      32.508  22.031  25.596  1.00  0.00     0.150 C 
ATOM     11  C   UNL A   1      32.993  21.962  23.261  1.00  0.00     0.154 C 
ATOM     12  C   UNL A   1      31.284  22.882  25.299  1.00  0.00     0.182 C 
ATOM     13  O   UNL A   1      31.591  23.806  24.252  1.00  0.00    -0.374 OA
BRANCH   9  14
ATOM     14  C   UNL A   1      33.595  20.095  24.616  1.00  0.00     0.319 C 
ATOM     15  O   UNL A   1      34.805  20.270  24.758  1.00  0.00    -0.248 OA
BRANCH  14  16
ATOM     16  N   UNL A   1      33.024  18.839  24.484  1.00  0.00    -0.327 N 
ATOM     17  C   UNL A   1      32.133  18.650  23.349  1.00  0.00     0.148 C 
BRANCH  16  18
ATOM     18  C   UNL A   1      33.198  17.722  25.417  1.00  0.00     0.127 C 
BRANCH  18  19
ATOM     19  C   UNL A   1      33.895  16.455  24.829  1.00  0.00    -0.020 C 
ATOM     20  C   UNL A   1      35.278  16.225  25.447  1.00  0.00     0.012 C 
ATOM     21  C   UNL A   1      33.023  15.232  25.168  1.00  0.00     0.012 C 
ATOM     22  C   UNL A   1      34.067  16.530  23.304  1.00  0.00     0.012 C 
ENDBRANCH  18  19
ENDBRANCH  16  18
ENDBRANCH  14  16
ENDBRANCH   9  14
ENDBRANCH   7   8
ENDBRANCH   4   7
ENDBRANCH   2   3
ENDBRANCH   1   2
BRANCH   1  23
ATOM     23  C   UNL A   1      31.439  28.960  24.496  1.00  0.00     0.002 C 
BRANCH  23  24
ATOM     24  C   UNL A   1      31.550  28.815  26.015  1.00  0.00     0.002 C 
BRANCH  24  25
ATOM     25  C   UNL A   1      32.533  27.748  26.510  1.00  0.00     0.021 C 
BRANCH  25  26
ATOM     26  C   UNL A   1      33.820  28.285  27.134  1.00  0.00     0.116 C 
BRANCH  26  27
ATOM     27  N   UNL A   1      33.718  29.706  27.440  1.00  0.00    -0.352 N 
ATOM     28  C   UNL A   1      34.590  30.520  28.111  1.00  0.00     0.251 C 
ATOM     29  H   UNL A   1      32.899  30.146  27.115  1.00  0.00     0.163 HD
ATOM     30  O   UNL A   1      34.219  31.634  28.492  1.00  0.00    -0.269 OA
BRANCH  28  31
ATOM     31  C   UNL A   1      35.969  30.071  28.390  1.00  0.00     0.039 A 
ATOM     32  C   UNL A   1      36.929  30.146  27.377  1.00  0.00     0.014 A 
ATOM     33  C   UNL A   1      36.308  29.541  29.640  1.00  0.00     0.014 A 
ATOM     34  C   UNL A   1      38.241  29.741  27.633  1.00  0.00     0.010 A 
ATOM     35  C   UNL A   1      37.631  29.197  29.912  1.00  0.00     0.010 A 
ATOM     36  C   UNL A   1      38.610  29.288  28.911  1.00  0.00    -0.014 A 
BRANCH  36  37
ATOM     37  C   UNL A   1      40.012  28.904  29.219  1.00  0.00     0.031 A 
ATOM     38  C   UNL A   1      40.948  29.897  29.852  1.00  0.00     0.074 A 
ATOM     39  C   UNL A   1      40.458  27.681  28.871  1.00  0.00     0.049 A 
ATOM     40  N   UNL A   1      42.219  29.766  30.138  1.00  0.00    -0.248 NA
ATOM     41  C   UNL A   1      40.390  31.217  30.189  1.00  0.00     0.031 C 
ATOM     42  C   UNL A   1      39.660  26.641  28.216  1.00  0.00     0.029 A 
ATOM     43  N   UNL A   1      41.698  27.107  29.010  1.00  0.00    -0.354 N 
ATOM     44  C   UNL A   1      42.615  30.987  30.671  1.00  0.00     0.074 A 
ATOM     45  C   UNL A   1      41.463  31.861  30.627  1.00  0.00     0.031 C 
ATOM     46  C   UNL A   1      40.423  25.552  28.030  1.00  0.00     0.029 A 
ATOM     47  C   UNL A   1      41.772  25.827  28.515  1.00  0.00     0.049 A 
ATOM     48  H   UNL A   1      42.461  27.570  29.425  1.00  0.00     0.167 HD
ATOM     49  C   UNL A   1      43.824  31.344  31.167  1.00  0.00     0.031 A 
ATOM     50  C   UNL A   1      42.810  24.970  28.451  1.00  0.00     0.031 A 
ATOM     51  C   UNL A   1      44.967  30.471  31.217  1.00  0.00     0.049 A 
ATOM     52  C   UNL A   1      44.145  25.392  29.004  1.00  0.00     0.074 A 
ATOM     53  C   UNL A   1      46.221  30.723  31.746  1.00  0.00     0.029 A 
ATOM     54  N   UNL A   1      44.996  29.176  30.720  1.00  0.00    -0.354 N 
ATOM     55  N   UNL A   1      44.484  26.531  29.557  1.00  0.00    -0.248 NA
ATOM     56  C   UNL A   1      45.232  24.407  28.933  1.00  0.00     0.031 C 
ATOM     57  C   UNL A   1      47.022  29.597  31.527  1.00  0.00     0.029 A 
ATOM     58  C   UNL A   1      46.252  28.625  30.911  1.00  0.00     0.049 A 
ATOM     59  H   UNL A   1      44.236  28.718  30.293  1.00  0.00     0.167 HD
ATOM     60  C   UNL A   1      45.818  26.391  29.924  1.00  0.00     0.074 A 
ATOM     61  C   UNL A   1      46.218  25.052  29.543  1.00  0.00     0.031 C 
ATOM     62  C   UNL A   1      46.636  27.290  30.525  1.00  0.00     0.031 A 
BRANCH  49  63
ATOM     63  C   UNL A   1      43.972  32.749  31.694  1.00  0.00    -0.014 A 
ATOM     64  C   UNL A   1      43.588  33.075  33.006  1.00  0.00     0.010 A 
ATOM     65  C   UNL A   1      44.535  33.747  30.878  1.00  0.00     0.010 A 
ATOM     66  C   UNL A   1      43.721  34.384  33.479  1.00  0.00     0.020 A 
ATOM     67  C   UNL A   1      44.697  35.051  31.356  1.00  0.00     0.020 A 
ATOM     68  C   UNL A   1      44.272  35.364  32.649  1.00  0.00     0.054 A 
BRANCH  68  69
ATOM     69  S   UNL A   1      44.448  37.051  33.294  1.00  0.00     0.124 S 
ATOM     70  O   UNL A   1      45.185  37.709  32.217  1.00  0.00    -0.237 OA
ATOM     71  O   UNL A   1      43.061  37.479  33.458  1.00  0.00    -0.237 OA
ATOM     72  O   UNL A   1      45.193  36.870  34.538  1.00  0.00    -0.744 OA
ENDBRANCH  68  69
ENDBRANCH  49  63
BRANCH  50  73
ATOM     73  C   UNL A   1      42.623  23.621  27.852  1.00  0.00    -0.014 A 
ATOM     74  C   UNL A   1      43.094  23.344  26.556  1.00  0.00     0.010 A 
ATOM     75  C   UNL A   1      41.988  22.600  28.581  1.00  0.00     0.010 A 
ATOM     76  C   UNL A   1      42.920  22.077  25.995  1.00  0.00     0.020 A 
ATOM     77  C   UNL A   1      41.835  21.323  28.033  1.00  0.00     0.020 A 
ATOM     78  C   UNL A   1      42.293  21.072  26.738  1.00  0.00     0.054 A 
BRANCH  78  79
ATOM     79  S   UNL A   1      42.125  19.419  26.011  1.00  0.00     0.124 S 
ATOM     80  O   UNL A   1      42.682  18.569  27.058  1.00  0.00    -0.237 OA
ATOM     81  O   UNL A   1      40.682  19.309  25.806  1.00  0.00    -0.237 OA
ATOM     82  O   UNL A   1      42.914  19.503  24.785  1.00  0.00    -0.744 OA
ENDBRANCH  78  79
ENDBRANCH  50  73
BRANCH  62  83
ATOM     83  C   UNL A   1      48.039  26.847  30.838  1.00  0.00    -0.014 A 
ATOM     84  C   UNL A   1      49.107  27.139  29.972  1.00  0.00     0.010 A 
ATOM     85  C   UNL A   1      48.301  26.174  32.047  1.00  0.00     0.010 A 
ATOM     86  C   UNL A   1      50.408  26.741  30.295  1.00  0.00     0.020 A 
ATOM     87  C   UNL A   1      49.602  25.797  32.385  1.00  0.00     0.020 A 
ATOM     88  C   UNL A   1      50.647  26.071  31.500  1.00  0.00     0.054 A 
BRANCH  88  89
ATOM     89  S   UNL A   1      52.349  25.605  31.917  1.00  0.00     0.124 S 
ATOM     90  O   UNL A   1      52.207  24.185  32.227  1.00  0.00    -0.237 OA
ATOM     91  O   UNL A   1      53.077  25.910  30.688  1.00  0.00    -0.237 OA
ATOM     92  O   UNL A   1      52.673  26.463  33.056  1.00  0.00    -0.744 OA
ENDBRANCH  88  89
ENDBRANCH  62  83
ENDBRANCH  36  37
ENDBRANCH  28  31
ENDBRANCH  26  27
ENDBRANCH  25  26
ENDBRANCH  24  25
ENDBRANCH  23  24
ENDBRANCH   1  23
TORSDOF 21
ENDMDL
MODEL 3
REMARK VINA RESULT:      -9.7      4.272      5.382
REMARK SMILES CN(CC(C)(C)C)C(=O)N1CCO[C@@H](CC(=O)NCCCCCCNC(=O)c2ccc(-c3c4nc(c(-c5ccc(S(=O)(=O)[O-])cc5)c5ccc([nH]5)c(-c5ccc(S(=O)(=O)[O-])cc5)c5nc(c(-c6ccc(S(=O)(=O)[O-])cc6)c6ccc3[nH]6)C=C5)C=C4)cc2)C1
REMARK SMILES IDX 20 1 19 2 18 3 16 4 17 5 15 7 14 8 10 9 11 10 88 11 12 12
REMARK SMILES IDX 13 13 8 14 9 15 2 16 1 17 3 18 4 19 5 20 6 21 7 22 21 23
REMARK SMILES IDX 22 24 23 25 24 26 25 27 26 28 27 30 28 31 29 32 87 33 30 34
REMARK SMILES IDX 86 35 31 36 32 37 33 38 80 39 34 40 85 41 79 42 81 43 35 44
REMARK SMILES IDX 84 45 78 46 77 47 36 49 66 50 47 51 65 52 48 53 51 54 64 55
REMARK SMILES IDX 82 56 49 57 50 58 63 60 83 61 52 62 37 63 38 64 46 65 39 66
REMARK SMILES IDX 45 67 40 68 41 69 42 70 43 71 44 72 67 73 68 74 76 75 69 76
REMARK SMILES IDX 75 77 70 78 71 79 72 80 73 81 74 82 53 83 54 84 62 85 55 86
REMARK SMILES IDX 61 87 56 88 57 89 58 90 59 91 60 92
REMARK H PARENT 18 6 25 29 81 48 51 59
REMARK Flexibility Score: inf
ROOT
ATOM      1  C   UNL A   1      32.624  28.190  26.262  1.00  0.00     0.021 C 
ENDROOT
BRANCH   1   2
ATOM      2  C   UNL A   1      31.551  27.193  25.806  1.00  0.00     0.116 C 
BRANCH   2   3
ATOM      3  N   UNL A   1      31.013  27.594  24.509  1.00  0.00    -0.356 N 
ATOM      4  C   UNL A   1      31.570  27.541  23.262  1.00  0.00     0.222 C 
ATOM      5  O   UNL A   1      31.020  28.149  22.342  1.00  0.00    -0.275 OA
ATOM      6  H   UNL A   1      30.100  27.962  24.537  1.00  0.00     0.163 HD
BRANCH   4   7
ATOM      7  C   UNL A   1      32.821  26.732  23.014  1.00  0.00     0.133 C 
BRANCH   7   8
ATOM      8  C   UNL A   1      32.648  25.204  22.984  1.00  0.00     0.147 C 
ATOM      9  N   UNL A   1      32.792  23.311  24.684  1.00  0.00    -0.320 N 
ATOM     10  C   UNL A   1      31.356  23.480  24.838  1.00  0.00     0.150 C 
ATOM     11  C   UNL A   1      33.391  24.522  24.155  1.00  0.00     0.154 C 
ATOM     12  C   UNL A   1      30.776  23.747  23.458  1.00  0.00     0.182 C 
ATOM     13  O   UNL A   1      31.209  25.031  23.001  1.00  0.00    -0.374 OA
BRANCH   9  14
ATOM     14  C   UNL A   1      33.484  22.753  25.750  1.00  0.00     0.319 C 
ATOM     15  O   UNL A   1      33.442  23.262  26.871  1.00  0.00    -0.248 OA
BRANCH  14  16
ATOM     16  N   UNL A   1      34.309  21.685  25.437  1.00  0.00    -0.327 N 
ATOM     17  C   UNL A   1      33.739  20.657  24.580  1.00  0.00     0.148 C 
BRANCH  16  18
ATOM     18  C   UNL A   1      35.670  21.484  25.944  1.00  0.00     0.127 C 
BRANCH  18  19
ATOM     19  C   UNL A   1      36.771  22.377  25.291  1.00  0.00    -0.020 C 
ATOM     20  C   UNL A   1      38.169  21.773  25.456  1.00  0.00     0.012 C 
ATOM     21  C   UNL A   1      36.477  22.468  23.781  1.00  0.00     0.012 C 
ATOM     22  C   UNL A   1      36.800  23.798  25.873  1.00  0.00     0.012 C 
ENDBRANCH  18  19
ENDBRANCH  16  18
ENDBRANCH  14  16
ENDBRANCH   9  14
ENDBRANCH   7   8
ENDBRANCH   4   7
ENDBRANCH   2   3
ENDBRANCH   1   2
BRANCH   1  23
ATOM     23  C   UNL A   1      32.086  29.396  27.027  1.00  0.00     0.002 C 
BRANCH  23  24
ATOM     24  C   UNL A   1      31.799  30.619  26.154  1.00  0.00     0.002 C 
BRANCH  24  25
ATOM     25  C   UNL A   1      31.681  31.954  26.900  1.00  0.00     0.021 C 
BRANCH  25  26
ATOM     26  C   UNL A   1      33.003  32.553  27.378  1.00  0.00     0.116 C 
BRANCH  26  27
ATOM     27  N   UNL A   1      32.857  33.955  27.747  1.00  0.00    -0.352 N 
ATOM     28  C   UNL A   1      33.429  34.651  28.778  1.00  0.00     0.251 C 
ATOM     29  H   UNL A   1      32.256  34.479  27.170  1.00  0.00     0.163 HD
ATOM     30  O   UNL A   1      32.992  35.764  29.083  1.00  0.00    -0.269 OA
BRANCH  28  31
ATOM     31  C   UNL A   1      34.561  34.075  29.533  1.00  0.00     0.039 A 
ATOM     32  C   UNL A   1      34.307  33.370  30.712  1.00  0.00     0.014 A 
ATOM     33  C   UNL A   1      35.877  34.263  29.098  1.00  0.00     0.014 A 
ATOM     34  C   UNL A   1      35.367  32.806  31.425  1.00  0.00     0.010 A 
ATOM     35  C   UNL A   1      36.927  33.648  29.776  1.00  0.00     0.010 A 
ATOM     36  C   UNL A   1      36.684  32.917  30.950  1.00  0.00    -0.014 A 
BRANCH  36  37
ATOM     37  C   UNL A   1      37.819  32.278  31.665  1.00  0.00     0.031 A 
ATOM     38  C   UNL A   1      38.253  32.792  33.010  1.00  0.00     0.074 A 
ATOM     39  C   UNL A   1      38.498  31.275  31.074  1.00  0.00     0.049 A 
ATOM     40  N   UNL A   1      39.257  32.406  33.757  1.00  0.00    -0.248 NA
ATOM     41  C   UNL A   1      37.471  33.900  33.583  1.00  0.00     0.031 C 
ATOM     42  C   UNL A   1      38.201  30.712  29.754  1.00  0.00     0.029 A 
ATOM     43  N   UNL A   1      39.587  30.557  31.502  1.00  0.00    -0.354 N 
ATOM     44  C   UNL A   1      39.237  33.230  34.875  1.00  0.00     0.074 A 
ATOM     45  C   UNL A   1      38.150  34.168  34.689  1.00  0.00     0.031 C 
ATOM     46  C   UNL A   1      39.071  29.724  29.491  1.00  0.00     0.029 A 
ATOM     47  C   UNL A   1      40.011  29.608  30.602  1.00  0.00     0.049 A 
ATOM     48  H   UNL A   1      40.023  30.708  32.372  1.00  0.00     0.167 HD
ATOM     49  C   UNL A   1      40.039  33.201  35.967  1.00  0.00     0.031 A 
ATOM     50  C   UNL A   1      41.044  28.745  30.659  1.00  0.00     0.031 A 
ATOM     51  C   UNL A   1      41.114  32.262  36.153  1.00  0.00     0.049 A 
ATOM     52  C   UNL A   1      41.926  28.734  31.879  1.00  0.00     0.074 A 
ATOM     53  C   UNL A   1      41.952  32.119  37.245  1.00  0.00     0.029 A 
ATOM     54  N   UNL A   1      41.501  31.307  35.224  1.00  0.00    -0.354 N 
ATOM     55  N   UNL A   1      41.854  29.484  32.953  1.00  0.00    -0.248 NA
ATOM     56  C   UNL A   1      43.018  27.753  31.898  1.00  0.00     0.031 C 
ATOM     57  C   UNL A   1      42.875  31.107  36.958  1.00  0.00     0.029 A 
ATOM     58  C   UNL A   1      42.578  30.584  35.710  1.00  0.00     0.049 A 
ATOM     59  H   UNL A   1      41.073  31.165  34.349  1.00  0.00     0.167 HD
ATOM     60  C   UNL A   1      42.877  29.047  33.787  1.00  0.00     0.074 A 
ATOM     61  C   UNL A   1      43.542  27.959  33.099  1.00  0.00     0.031 C 
ATOM     62  C   UNL A   1      43.231  29.505  35.014  1.00  0.00     0.031 A 
BRANCH  49  63
ATOM     63  C   UNL A   1      39.784  34.222  37.045  1.00  0.00    -0.014 A 
ATOM     64  C   UNL A   1      40.108  35.576  36.852  1.00  0.00     0.010 A 
ATOM     65  C   UNL A   1      39.180  33.829  38.253  1.00  0.00     0.010 A 
ATOM     66  C   UNL A   1      39.875  36.512  37.864  1.00  0.00     0.020 A 
ATOM     67  C   UNL A   1      38.918  34.766  39.258  1.00  0.00     0.020 A 
ATOM     68  C   UNL A   1      39.285  36.099  39.062  1.00  0.00     0.054 A 
BRANCH  68  69
ATOM     69  S   UNL A   1      38.980  37.338  40.353  1.00  0.00     0.124 S 
ATOM     70  O   UNL A   1      38.257  38.370  39.614  1.00  0.00    -0.237 OA
ATOM     71  O   UNL A   1      38.189  36.595  41.330  1.00  0.00    -0.237 OA
ATOM     72  O   UNL A   1      40.321  37.713  40.797  1.00  0.00    -0.744 OA
ENDBRANCH  68  69
ENDBRANCH  49  63
BRANCH  50  73
ATOM     73  C   UNL A   1      41.292  27.809  29.529  1.00  0.00    -0.014 A 
ATOM     74  C   UNL A   1      42.417  27.974  28.700  1.00  0.00     0.010 A 
ATOM     75  C   UNL A   1      40.415  26.737  29.286  1.00  0.00     0.010 A 
ATOM     76  C   UNL A   1      42.650  27.093  27.641  1.00  0.00     0.020 A 
ATOM     77  C   UNL A   1      40.660  25.838  28.244  1.00  0.00     0.020 A 
ATOM     78  C   UNL A   1      41.771  26.029  27.420  1.00  0.00     0.054 A 
BRANCH  78  79
ATOM     79  S   UNL A   1      42.122  24.866  26.072  1.00  0.00     0.124 S 
ATOM     80  O   UNL A   1      41.981  25.715  24.894  1.00  0.00    -0.237 OA
ATOM     81  O   UNL A   1      43.483  24.430  26.379  1.00  0.00    -0.237 OA
ATOM     82  O   UNL A   1      41.097  23.838  26.233  1.00  0.00    -0.744 OA
ENDBRANCH  78  79
ENDBRANCH  50  73
BRANCH  62  83
ATOM     83  C   UNL A   1      44.371  28.811  35.708  1.00  0.00    -0.014 A 
ATOM     84  C   UNL A   1      44.166  27.633  36.448  1.00  0.00     0.010 A 
ATOM     85  C   UNL A   1      45.677  29.316  35.571  1.00  0.00     0.010 A 
ATOM     86  C   UNL A   1      45.244  26.990  37.064  1.00  0.00     0.020 A 
ATOM     87  C   UNL A   1      46.760  28.662  36.162  1.00  0.00     0.020 A 
ATOM     88  C   UNL A   1      46.534  27.509  36.917  1.00  0.00     0.054 A 
BRANCH  88  89
ATOM     89  S   UNL A   1      47.922  26.631  37.688  1.00  0.00     0.124 S 
ATOM     90  O   UNL A   1      47.669  26.852  39.109  1.00  0.00    -0.237 OA
ATOM     91  O   UNL A   1      47.732  25.259  37.223  1.00  0.00    -0.237 OA
ATOM     92  O   UNL A   1      49.100  27.308  37.150  1.00  0.00    -0.744 OA
ENDBRANCH  88  89
ENDBRANCH  62  83
ENDBRANCH  36  37
ENDBRANCH  28  31
ENDBRANCH  26  27
ENDBRANCH  25  26
ENDBRANCH  24  25
ENDBRANCH  23  24
ENDBRANCH   1  23
TORSDOF 21
ENDMDL
