MODEL 1
REMARK VINA RESULT:     -11.6      0.000      0.000
REMARK SMILES CC(=O)c1ccc(N2/C(=[NH+]/C(=O)CCC(=O)NCCCCCCNC(=O)c3ccc(-c4c5nc(c(-c6ccc(S(=O)(=O)[O-])cc6)c6ccc([nH]6)c(-c6ccc(S(=O)(=O)[O-])cc6)c6nc(c(-c7ccc(S(=O)(=O)[O-])cc7)c7ccc4[nH]7)C=C6)C=C5)cc3)S[C@H]3CS(=O)(=O)C[C@@H]32)cc1
REMARK SMILES IDX 20 1 19 2 18 3 17 4 15 5 16 6 14 8 13 9 11 10 8 11 9 12
REMARK SMILES IDX 94 13 10 14 87 15 88 16 93 17 89 19 90 20 12 21 91 22 92 23
REMARK SMILES IDX 7 24 4 25 5 26 96 27 6 28 95 29 2 30 1 31 3 32 21 33 22 34
REMARK SMILES IDX 23 35 24 36 25 37 26 39 27 40 28 41 86 42 29 43 85 44 30 45
REMARK SMILES IDX 31 46 32 47 79 48 33 49 84 50 78 51 80 52 34 53 83 54 77 55
REMARK SMILES IDX 76 56 35 58 65 59 46 60 64 61 47 62 50 63 63 64 81 65 48 66
REMARK SMILES IDX 49 67 62 69 82 70 51 71 36 72 37 73 45 74 38 75 44 76 39 77
REMARK SMILES IDX 40 78 41 79 42 80 43 81 66 82 67 83 75 84 68 85 74 86 69 87
REMARK SMILES IDX 70 88 71 89 72 90 73 91 52 92 53 93 61 94 54 95 60 96 55 97
REMARK SMILES IDX 56 98 57 99 58 100 59 101
REMARK H PARENT 17 7 10 18 24 38 80 57 50 68
REMARK Flexibility Score: inf
ROOT
ATOM      1  C   UNL A   1      34.134  28.842  27.335  1.00  0.00     0.002 C 
ENDROOT
BRANCH   1   2
ATOM      2  C   UNL A   1      33.576  27.819  26.373  1.00  0.00     0.021 C 
BRANCH   2   3
ATOM      3  C   UNL A   1      32.403  28.460  25.612  1.00  0.00     0.116 C 
BRANCH   3   4
ATOM      4  N   UNL A   1      31.946  27.667  24.473  1.00  0.00    -0.356 N 
ATOM      5  C   UNL A   1      31.173  26.548  24.439  1.00  0.00     0.220 C 
ATOM      6  O   UNL A   1      30.964  26.002  23.356  1.00  0.00    -0.275 OA
ATOM      7  H   UNL A   1      32.244  27.994  23.593  1.00  0.00     0.163 HD
BRANCH   5   8
ATOM      8  C   UNL A   1      30.555  26.038  25.718  1.00  0.00     0.112 C 
BRANCH   8   9
ATOM      9  C   UNL A   1      31.424  24.967  26.379  1.00  0.00     0.138 C 
BRANCH   9  10
ATOM     10  C   UNL A   1      31.745  23.830  25.424  1.00  0.00     0.308 C 
ATOM     11  N   UNL A   1      34.673  21.744  24.791  1.00  0.00    -0.217 N 
ATOM     12  C   UNL A   1      33.498  22.533  24.544  1.00  0.00     0.319 C 
ATOM     13  C   UNL A   1      34.569  20.382  24.250  1.00  0.00     0.212 C 
ATOM     14  N   UNL A   1      33.090  23.517  25.296  1.00  0.00    -0.204 N 
ATOM     15  S   UNL A   1      32.414  21.749  23.233  1.00  0.00    -0.029 SA
ATOM     16  C   UNL A   1      32.614  20.170  24.085  1.00  0.00     0.120 C 
ATOM     17  C   UNL A   1      35.479  18.639  24.709  1.00  0.00     0.188 C 
ATOM     18  H   UNL A   1      33.755  24.052  25.787  1.00  0.00     0.316 HD
ATOM     19  C   UNL A   1      32.062  18.275  23.889  1.00  0.00     0.156 C 
ATOM     20  S   UNL A   1      33.886  16.919  24.421  1.00  0.00     0.155 S 
ATOM     21  O   UNL A   1      30.794  23.160  25.020  1.00  0.00    -0.247 OA
ATOM     22  O   UNL A   1      33.596  16.227  25.670  1.00  0.00    -0.229 OA
ATOM     23  O   UNL A   1      34.258  16.042  23.337  1.00  0.00    -0.229 OA
BRANCH  11  24
ATOM     24  C   UNL A   1      35.980  22.177  25.082  1.00  0.00     0.128 A 
ATOM     25  C   UNL A   1      38.438  23.004  26.255  1.00  0.00     0.018 A 
ATOM     26  C   UNL A   1      38.322  21.747  25.643  1.00  0.00     0.016 A 
ATOM     27  C   UNL A   1      37.342  23.850  26.244  1.00  0.00     0.016 A 
ATOM     28  C   UNL A   1      37.096  21.328  25.078  1.00  0.00     0.052 A 
ATOM     29  C   UNL A   1      36.164  23.450  25.628  1.00  0.00     0.052 A 
BRANCH  25  30
ATOM     30  C   UNL A   1      39.709  23.452  26.890  1.00  0.00     0.159 C 
ATOM     31  C   UNL A   1      41.011  22.842  26.410  1.00  0.00     0.093 C 
ATOM     32  O   UNL A   1      39.685  24.312  27.765  1.00  0.00    -0.295 OA
ENDBRANCH  25  30
ENDBRANCH  11  24
ENDBRANCH   9  10
ENDBRANCH   8   9
ENDBRANCH   5   8
ENDBRANCH   3   4
ENDBRANCH   2   3
ENDBRANCH   1   2
BRANCH   1  33
ATOM     33  C   UNL A   1      34.124  30.320  27.004  1.00  0.00     0.002 C 
BRANCH  33  34
ATOM     34  C   UNL A   1      34.806  31.671  27.744  1.00  0.00     0.021 C 
BRANCH  34  35
ATOM     35  C   UNL A   1      34.471  33.791  28.036  1.00  0.00     0.116 C 
BRANCH  35  36
ATOM     36  N   UNL A   1      33.512  34.588  29.024  1.00  0.00    -0.352 N 
ATOM     37  C   UNL A   1      33.474  34.717  30.399  1.00  0.00     0.251 C 
ATOM     38  H   UNL A   1      32.801  35.090  28.563  1.00  0.00     0.163 HD
ATOM     39  O   UNL A   1      32.531  35.298  30.923  1.00  0.00    -0.269 OA
BRANCH  37  40
ATOM     40  C   UNL A   1      34.567  34.169  31.199  1.00  0.00     0.039 A 
ATOM     41  C   UNL A   1      34.570  32.812  31.539  1.00  0.00     0.014 A 
ATOM     42  C   UNL A   1      35.664  34.994  31.437  1.00  0.00     0.014 A 
ATOM     43  C   UNL A   1      35.740  32.256  32.045  1.00  0.00     0.010 A 
ATOM     44  C   UNL A   1      36.852  34.416  31.825  1.00  0.00     0.010 A 
ATOM     45  C   UNL A   1      36.885  33.056  32.172  1.00  0.00    -0.014 A 
BRANCH  45  46
ATOM     46  C   UNL A   1      38.096  32.556  32.845  1.00  0.00     0.031 A 
ATOM     47  C   UNL A   1      39.027  31.702  32.030  1.00  0.00     0.074 A 
ATOM     48  C   UNL A   1      38.317  32.806  34.147  1.00  0.00     0.049 A 
ATOM     49  N   UNL A   1      40.115  31.085  32.397  1.00  0.00    -0.248 NA
ATOM     50  C   UNL A   1      38.645  31.460  30.624  1.00  0.00     0.031 C 
ATOM     51  C   UNL A   1      37.443  33.580  35.032  1.00  0.00     0.029 A 
ATOM     52  N   UNL A   1      39.361  32.431  34.952  1.00  0.00    -0.354 N 
ATOM     53  C   UNL A   1      40.525  30.375  31.276  1.00  0.00     0.074 A 
ATOM     54  C   UNL A   1      39.511  30.531  30.264  1.00  0.00     0.031 C 
ATOM     55  C   UNL A   1      38.012  33.656  36.249  1.00  0.00     0.029 A 
ATOM     56  C   UNL A   1      39.273  32.919  36.233  1.00  0.00     0.049 A 
ATOM     57  H   UNL A   1      40.103  31.864  34.641  1.00  0.00     0.167 HD
ATOM     58  C   UNL A   1      41.679  29.701  31.081  1.00  0.00     0.031 A 
ATOM     59  C   UNL A   1      40.133  32.793  37.262  1.00  0.00     0.031 A 
ATOM     60  C   UNL A   1      42.691  29.591  32.088  1.00  0.00     0.049 A 
ATOM     61  C   UNL A   1      41.416  32.032  37.029  1.00  0.00     0.074 A 
ATOM     62  C   UNL A   1      43.928  28.985  32.003  1.00  0.00     0.029 A 
ATOM     63  N   UNL A   1      42.579  30.116  33.368  1.00  0.00    -0.354 N 
ATOM     64  N   UNL A   1      41.834  31.430  35.940  1.00  0.00    -0.248 NA
ATOM     65  C   UNL A   1      42.354  31.957  38.156  1.00  0.00     0.031 C 
ATOM     66  C   UNL A   1      44.541  29.090  33.255  1.00  0.00     0.029 A 
ATOM     67  C   UNL A   1      43.717  29.827  34.094  1.00  0.00     0.049 A 
ATOM     68  H   UNL A   1      41.803  30.619  33.707  1.00  0.00     0.167 HD
ATOM     69  C   UNL A   1      43.101  30.940  36.237  1.00  0.00     0.074 A 
ATOM     70  C   UNL A   1      43.382  31.326  37.606  1.00  0.00     0.031 C 
ATOM     71  C   UNL A   1      43.962  30.240  35.454  1.00  0.00     0.031 A 
BRANCH  58  72
ATOM     72  C   UNL A   1      41.882  29.059  29.735  1.00  0.00    -0.014 A 
ATOM     73  C   UNL A   1      42.314  29.814  28.626  1.00  0.00     0.010 A 
ATOM     74  C   UNL A   1      41.616  27.690  29.567  1.00  0.00     0.010 A 
ATOM     75  C   UNL A   1      42.418  29.226  27.364  1.00  0.00     0.020 A 
ATOM     76  C   UNL A   1      41.758  27.088  28.314  1.00  0.00     0.020 A 
ATOM     77  C   UNL A   1      42.139  27.865  27.217  1.00  0.00     0.054 A 
BRANCH  77  78
ATOM     78  S   UNL A   1      42.302  27.121  25.572  1.00  0.00     0.124 S 
ATOM     79  O   UNL A   1      42.375  28.302  24.715  1.00  0.00    -0.237 OA
ATOM     80  O   UNL A   1      43.540  26.355  25.692  1.00  0.00    -0.237 OA
ATOM     81  O   UNL A   1      41.088  26.323  25.430  1.00  0.00    -0.744 OA
ENDBRANCH  77  78
ENDBRANCH  58  72
BRANCH  59  82
ATOM     82  C   UNL A   1      39.844  33.444  38.571  1.00  0.00    -0.014 A 
ATOM     83  C   UNL A   1      40.448  34.669  38.908  1.00  0.00     0.010 A 
ATOM     84  C   UNL A   1      38.959  32.849  39.487  1.00  0.00     0.010 A 
ATOM     85  C   UNL A   1      40.194  35.273  40.145  1.00  0.00     0.020 A 
ATOM     86  C   UNL A   1      38.678  33.463  40.712  1.00  0.00     0.020 A 
ATOM     87  C   UNL A   1      39.307  34.667  41.038  1.00  0.00     0.054 A 
BRANCH  87  88
ATOM     88  S   UNL A   1      38.961  35.489  42.619  1.00  0.00     0.124 S 
ATOM     89  O   UNL A   1      39.316  36.874  42.326  1.00  0.00    -0.237 OA
ATOM     90  O   UNL A   1      37.536  35.227  42.804  1.00  0.00    -0.237 OA
ATOM     91  O   UNL A   1      39.842  34.805  43.562  1.00  0.00    -0.744 OA
ENDBRANCH  87  88
ENDBRANCH  59  82
BRANCH  71  92
ATOM     92  C   UNL A   1      45.305  29.891  36.035  1.00  0.00    -0.014 A 
ATOM     93  C   UNL A   1      45.522  28.672  36.698  1.00  0.00     0.010 A 
ATOM     94  C   UNL A   1      46.387  30.769  35.832  1.00  0.00     0.010 A 
ATOM     95  C   UNL A   1      46.794  28.351  37.177  1.00  0.00     0.020 A 
ATOM     96  C   UNL A   1      47.666  30.434  36.276  1.00  0.00     0.020 A 
ATOM     97  C   UNL A   1      47.858  29.232  36.957  1.00  0.00     0.054 A 
BRANCH  97  98
ATOM     98  S   UNL A   1      49.509  28.764  37.542  1.00  0.00     0.124 S 
ATOM     99  O   UNL A   1      49.252  28.430  38.941  1.00  0.00    -0.237 OA
ATOM    100  O   UNL A   1      49.845  27.636  36.678  1.00  0.00    -0.237 OA
ATOM    101  O   UNL A   1      50.309  29.968  37.325  1.00  0.00    -0.744 OA
ENDBRANCH  97  98
ENDBRANCH  71  92
ENDBRANCH  45  46
ENDBRANCH  37  40
ENDBRANCH  35  36
ENDBRANCH  34  35
ENDBRANCH  33  34
ENDBRANCH   1  33
TORSDOF 20
ENDMDL
MODEL 2
REMARK VINA RESULT:     -11.4      1.362      7.866
REMARK SMILES CC(=O)c1ccc(N2/C(=[NH+]/C(=O)CCC(=O)NCCCCCCNC(=O)c3ccc(-c4c5nc(c(-c6ccc(S(=O)(=O)[O-])cc6)c6ccc([nH]6)c(-c6ccc(S(=O)(=O)[O-])cc6)c6nc(c(-c7ccc(S(=O)(=O)[O-])cc7)c7ccc4[nH]7)C=C6)C=C5)cc3)S[C@H]3CS(=O)(=O)C[C@@H]32)cc1
REMARK SMILES IDX 20 1 19 2 18 3 17 4 15 5 16 6 14 8 13 9 11 10 8 11 9 12
REMARK SMILES IDX 94 13 10 14 87 15 88 16 93 17 89 19 90 20 12 21 91 22 92 23
REMARK SMILES IDX 7 24 4 25 5 26 96 27 6 28 95 29 2 30 1 31 3 32 21 33 22 34
REMARK SMILES IDX 23 35 24 36 25 37 26 39 27 40 28 41 86 42 29 43 85 44 30 45
REMARK SMILES IDX 31 46 32 47 79 48 33 49 84 50 78 51 80 52 34 53 83 54 77 55
REMARK SMILES IDX 76 56 35 58 65 59 46 60 64 61 47 62 50 63 63 64 81 65 48 66
REMARK SMILES IDX 49 67 62 69 82 70 51 71 36 72 37 73 45 74 38 75 44 76 39 77
REMARK SMILES IDX 40 78 41 79 42 80 43 81 66 82 67 83 75 84 68 85 74 86 69 87
REMARK SMILES IDX 70 88 71 89 72 90 73 91 52 92 53 93 61 94 54 95 60 96 55 97
REMARK SMILES IDX 56 98 57 99 58 100 59 101
REMARK H PARENT 17 7 10 18 24 38 80 57 50 68
REMARK Flexibility Score: inf
ROOT
ATOM      1  C   UNL A   1      31.108  29.470  24.097  1.00  0.00     0.002 C 
ENDROOT
BRANCH   1   2
ATOM      2  C   UNL A   1      32.180  28.850  23.230  1.00  0.00     0.021 C 
BRANCH   2   3
ATOM      3  C   UNL A   1      32.030  27.321  23.296  1.00  0.00     0.116 C 
BRANCH   3   4
ATOM      4  N   UNL A   1      30.727  26.885  23.793  1.00  0.00    -0.356 N 
ATOM      5  C   UNL A   1      30.392  26.296  24.972  1.00  0.00     0.220 C 
ATOM      6  O   UNL A   1      29.224  25.951  25.155  1.00  0.00    -0.275 OA
ATOM      7  H   UNL A   1      29.974  27.045  23.178  1.00  0.00     0.163 HD
BRANCH   5   8
ATOM      8  C   UNL A   1      31.446  26.125  26.039  1.00  0.00     0.112 C 
BRANCH   8   9
ATOM      9  C   UNL A   1      31.373  24.744  26.691  1.00  0.00     0.138 C 
BRANCH   9  10
ATOM     10  C   UNL A   1      31.688  23.634  25.702  1.00  0.00     0.308 C 
ATOM     11  N   UNL A   1      34.658  21.672  24.891  1.00  0.00    -0.217 N 
ATOM     12  C   UNL A   1      33.443  22.419  24.715  1.00  0.00     0.319 C 
ATOM     13  C   UNL A   1      34.578  20.315  24.332  1.00  0.00     0.212 C 
ATOM     14  N   UNL A   1      33.036  23.375  25.503  1.00  0.00    -0.204 N 
ATOM     15  S   UNL A   1      32.325  21.613  23.446  1.00  0.00    -0.029 SA
ATOM     16  C   UNL A   1      32.627  20.031  24.260  1.00  0.00     0.120 C 
ATOM     17  C   UNL A   1      35.575  18.602  24.715  1.00  0.00     0.188 C 
ATOM     18  H   UNL A   1      33.704  23.928  25.969  1.00  0.00     0.316 HD
ATOM     19  C   UNL A   1      32.138  18.119  24.058  1.00  0.00     0.156 C 
ATOM     20  S   UNL A   1      34.036  16.827  24.477  1.00  0.00     0.155 S 
ATOM     21  O   UNL A   1      30.744  22.934  25.333  1.00  0.00    -0.247 OA
ATOM     22  O   UNL A   1      33.834  16.105  25.727  1.00  0.00    -0.229 OA
ATOM     23  O   UNL A   1      34.386  15.981  23.361  1.00  0.00    -0.229 OA
BRANCH  11  24
ATOM     24  C   UNL A   1      35.960  22.150  25.124  1.00  0.00     0.128 A 
ATOM     25  C   UNL A   1      38.412  23.132  26.184  1.00  0.00     0.018 A 
ATOM     26  C   UNL A   1      38.310  21.813  25.716  1.00  0.00     0.016 A 
ATOM     27  C   UNL A   1      37.306  23.958  26.086  1.00  0.00     0.016 A 
ATOM     28  C   UNL A   1      37.086  21.320  25.208  1.00  0.00     0.052 A 
ATOM     29  C   UNL A   1      36.130  23.478  25.525  1.00  0.00     0.052 A 
BRANCH  25  30
ATOM     30  C   UNL A   1      39.681  23.663  26.759  1.00  0.00     0.159 C 
ATOM     31  C   UNL A   1      39.921  25.159  26.721  1.00  0.00     0.093 C 
ATOM     32  O   UNL A   1      40.490  22.893  27.267  1.00  0.00    -0.295 OA
ENDBRANCH  25  30
ENDBRANCH  11  24
ENDBRANCH   9  10
ENDBRANCH   8   9
ENDBRANCH   5   8
ENDBRANCH   3   4
ENDBRANCH   2   3
ENDBRANCH   1   2
BRANCH   1  33
ATOM     33  C   UNL A   1      31.424  29.995  25.482  1.00  0.00     0.002 C 
BRANCH  33  34
ATOM     34  C   UNL A   1      32.862  30.225  26.327  1.00  0.00     0.021 C 
BRANCH  34  35
ATOM     35  C   UNL A   1      33.823  31.609  27.689  1.00  0.00     0.116 C 
BRANCH  35  36
ATOM     36  N   UNL A   1      33.447  33.088  28.140  1.00  0.00    -0.352 N 
ATOM     37  C   UNL A   1      33.914  33.914  29.144  1.00  0.00     0.251 C 
ATOM     38  H   UNL A   1      32.737  33.497  27.594  1.00  0.00     0.163 HD
ATOM     39  O   UNL A   1      33.348  34.979  29.358  1.00  0.00    -0.269 OA
BRANCH  37  40
ATOM     40  C   UNL A   1      35.082  33.505  29.920  1.00  0.00     0.039 A 
ATOM     41  C   UNL A   1      34.992  32.419  30.797  1.00  0.00     0.014 A 
ATOM     42  C   UNL A   1      36.300  34.109  29.613  1.00  0.00     0.014 A 
ATOM     43  C   UNL A   1      36.167  31.873  31.302  1.00  0.00     0.010 A 
ATOM     44  C   UNL A   1      37.463  33.493  30.020  1.00  0.00     0.010 A 
ATOM     45  C   UNL A   1      37.402  32.400  30.900  1.00  0.00    -0.014 A 
BRANCH  45  46
ATOM     46  C   UNL A   1      38.661  31.960  31.524  1.00  0.00     0.031 A 
ATOM     47  C   UNL A   1      38.997  32.544  32.868  1.00  0.00     0.074 A 
ATOM     48  C   UNL A   1      39.495  31.121  30.885  1.00  0.00     0.049 A 
ATOM     49  N   UNL A   1      40.066  32.379  33.596  1.00  0.00    -0.248 NA
ATOM     50  C   UNL A   1      38.022  33.493  33.441  1.00  0.00     0.031 C 
ATOM     51  C   UNL A   1      39.277  30.545  29.556  1.00  0.00     0.029 A 
ATOM     52  N   UNL A   1      40.700  30.604  31.281  1.00  0.00    -0.354 N 
ATOM     53  C   UNL A   1      39.892  33.216  34.691  1.00  0.00     0.074 A 
ATOM     54  C   UNL A   1      38.688  33.977  34.473  1.00  0.00     0.031 C 
ATOM     55  C   UNL A   1      40.300  29.719  29.267  1.00  0.00     0.029 A 
ATOM     56  C   UNL A   1      41.249  29.728  30.376  1.00  0.00     0.049 A 
ATOM     57  H   UNL A   1      41.132  30.839  32.134  1.00  0.00     0.167 HD
ATOM     58  C   UNL A   1      40.637  33.299  35.814  1.00  0.00     0.031 A 
ATOM     59  C   UNL A   1      42.383  29.006  30.459  1.00  0.00     0.031 A 
ATOM     60  C   UNL A   1      41.809  32.504  36.027  1.00  0.00     0.049 A 
ATOM     61  C   UNL A   1      43.207  29.115  31.719  1.00  0.00     0.074 A 
ATOM     62  C   UNL A   1      42.623  32.450  37.140  1.00  0.00     0.029 A 
ATOM     63  N   UNL A   1      42.326  31.611  35.098  1.00  0.00    -0.354 N 
ATOM     64  N   UNL A   1      42.994  29.850  32.786  1.00  0.00    -0.248 NA
ATOM     65  C   UNL A   1      44.410  28.276  31.796  1.00  0.00     0.031 C 
ATOM     66  C   UNL A   1      43.670  31.568  36.860  1.00  0.00     0.029 A 
ATOM     67  C   UNL A   1      43.464  31.016  35.604  1.00  0.00     0.049 A 
ATOM     68  H   UNL A   1      41.938  31.430  34.211  1.00  0.00     0.167 HD
ATOM     69  C   UNL A   1      44.012  29.532  33.678  1.00  0.00     0.074 A 
ATOM     70  C   UNL A   1      44.834  28.531  33.026  1.00  0.00     0.031 C 
ATOM     71  C   UNL A   1      44.249  30.014  34.925  1.00  0.00     0.031 A 
BRANCH  58  72
ATOM     72  C   UNL A   1      40.183  34.270  36.870  1.00  0.00    -0.014 A 
ATOM     73  C   UNL A   1      40.529  35.635  36.802  1.00  0.00     0.010 A 
ATOM     74  C   UNL A   1      39.422  33.813  37.959  1.00  0.00     0.010 A 
ATOM     75  C   UNL A   1      40.174  36.509  37.831  1.00  0.00     0.020 A 
ATOM     76  C   UNL A   1      39.029  34.693  38.970  1.00  0.00     0.020 A 
ATOM     77  C   UNL A   1      39.426  36.031  38.909  1.00  0.00     0.054 A 
BRANCH  77  78
ATOM     78  S   UNL A   1      38.959  37.192  40.220  1.00  0.00     0.124 S 
ATOM     79  O   UNL A   1      38.372  38.290  39.455  1.00  0.00    -0.237 OA
ATOM     80  O   UNL A   1      38.019  36.410  41.018  1.00  0.00    -0.237 OA
ATOM     81  O   UNL A   1      40.227  37.500  40.878  1.00  0.00    -0.744 OA
ENDBRANCH  77  78
ENDBRANCH  58  72
BRANCH  59  82
ATOM     82  C   UNL A   1      42.771  28.083  29.356  1.00  0.00    -0.014 A 
ATOM     83  C   UNL A   1      42.551  26.699  29.472  1.00  0.00     0.010 A 
ATOM     84  C   UNL A   1      43.358  28.580  28.178  1.00  0.00     0.010 A 
ATOM     85  C   UNL A   1      42.932  25.827  28.446  1.00  0.00     0.020 A 
ATOM     86  C   UNL A   1      43.712  27.716  27.136  1.00  0.00     0.020 A 
ATOM     87  C   UNL A   1      43.508  26.342  27.282  1.00  0.00     0.054 A 
BRANCH  87  88
ATOM     88  S   UNL A   1      43.956  25.197  25.948  1.00  0.00     0.124 S 
ATOM     89  O   UNL A   1      45.319  25.612  25.634  1.00  0.00    -0.237 OA
ATOM     90  O   UNL A   1      43.826  23.894  26.596  1.00  0.00    -0.237 OA
ATOM     91  O   UNL A   1      42.965  25.472  24.911  1.00  0.00    -0.744 OA
ENDBRANCH  87  88
ENDBRANCH  59  82
BRANCH  71  92
ATOM     92  C   UNL A   1      45.409  29.433  35.688  1.00  0.00    -0.014 A 
ATOM     93  C   UNL A   1      46.668  30.056  35.694  1.00  0.00     0.010 A 
ATOM     94  C   UNL A   1      45.201  28.289  36.481  1.00  0.00     0.010 A 
ATOM     95  C   UNL A   1      47.710  29.524  36.456  1.00  0.00     0.020 A 
ATOM     96  C   UNL A   1      46.228  27.777  37.273  1.00  0.00     0.020 A 
ATOM     97  C   UNL A   1      47.481  28.392  37.245  1.00  0.00     0.054 A 
BRANCH  97  98
ATOM     98  S   UNL A   1      48.835  27.756  38.267  1.00  0.00     0.124 S 
ATOM     99  O   UNL A   1      49.654  28.950  38.464  1.00  0.00    -0.237 OA
ATOM    100  O   UNL A   1      48.138  27.270  39.455  1.00  0.00    -0.237 OA
ATOM    101  O   UNL A   1      49.440  26.716  37.436  1.00  0.00    -0.744 OA
ENDBRANCH  97  98
ENDBRANCH  71  92
ENDBRANCH  45  46
ENDBRANCH  37  40
ENDBRANCH  35  36
ENDBRANCH  34  35
ENDBRANCH  33  34
ENDBRANCH   1  33
TORSDOF 20
ENDMDL
MODEL 3
REMARK VINA RESULT:     -11.1      0.854      7.847
REMARK SMILES CC(=O)c1ccc(N2/C(=[NH+]/C(=O)CCC(=O)NCCCCCCNC(=O)c3ccc(-c4c5nc(c(-c6ccc(S(=O)(=O)[O-])cc6)c6ccc([nH]6)c(-c6ccc(S(=O)(=O)[O-])cc6)c6nc(c(-c7ccc(S(=O)(=O)[O-])cc7)c7ccc4[nH]7)C=C6)C=C5)cc3)S[C@H]3CS(=O)(=O)C[C@@H]32)cc1
REMARK SMILES IDX 20 1 19 2 18 3 17 4 15 5 16 6 14 8 13 9 11 10 8 11 9 12
REMARK SMILES IDX 94 13 10 14 87 15 88 16 93 17 89 19 90 20 12 21 91 22 92 23
REMARK SMILES IDX 7 24 4 25 5 26 96 27 6 28 95 29 2 30 1 31 3 32 21 33 22 34
REMARK SMILES IDX 23 35 24 36 25 37 26 39 27 40 28 41 86 42 29 43 85 44 30 45
REMARK SMILES IDX 31 46 32 47 79 48 33 49 84 50 78 51 80 52 34 53 83 54 77 55
REMARK SMILES IDX 76 56 35 58 65 59 46 60 64 61 47 62 50 63 63 64 81 65 48 66
REMARK SMILES IDX 49 67 62 69 82 70 51 71 36 72 37 73 45 74 38 75 44 76 39 77
REMARK SMILES IDX 40 78 41 79 42 80 43 81 66 82 67 83 75 84 68 85 74 86 69 87
REMARK SMILES IDX 70 88 71 89 72 90 73 91 52 92 53 93 61 94 54 95 60 96 55 97
REMARK SMILES IDX 56 98 57 99 58 100 59 101
REMARK H PARENT 17 7 10 18 24 38 80 57 50 68
REMARK Flexibility Score: inf
ROOT
ATOM      1  C   UNL A   1      32.698  30.242  26.323  1.00  0.00     0.002 C 
ENDROOT
BRANCH   1   2
ATOM      2  C   UNL A   1      34.036  29.588  26.574  1.00  0.00     0.021 C 
BRANCH   2   3
ATOM      3  C   UNL A   1      33.993  28.162  26.002  1.00  0.00     0.116 C 
BRANCH   3   4
ATOM      4  N   UNL A   1      32.830  27.911  25.153  1.00  0.00    -0.356 N 
ATOM      5  C   UNL A   1      31.902  26.919  25.210  1.00  0.00     0.220 C 
ATOM      6  O   UNL A   1      31.032  26.866  24.341  1.00  0.00    -0.275 OA
ATOM      7  H   UNL A   1      32.698  28.564  24.427  1.00  0.00     0.163 HD
BRANCH   5   8
ATOM      8  C   UNL A   1      31.934  25.942  26.360  1.00  0.00     0.112 C 
BRANCH   8   9
ATOM      9  C   UNL A   1      30.931  24.804  26.164  1.00  0.00     0.138 C 
BRANCH   9  10
ATOM     10  C   UNL A   1      31.435  23.772  25.170  1.00  0.00     0.308 C 
ATOM     11  N   UNL A   1      34.390  21.642  24.939  1.00  0.00    -0.217 N 
ATOM     12  C   UNL A   1      33.314  22.507  24.540  1.00  0.00     0.319 C 
ATOM     13  C   UNL A   1      34.383  20.358  24.224  1.00  0.00     0.212 C 
ATOM     14  N   UNL A   1      32.768  23.414  25.300  1.00  0.00    -0.204 N 
ATOM     15  S   UNL A   1      32.534  21.930  22.938  1.00  0.00    -0.029 SA
ATOM     16  C   UNL A   1      32.510  20.256  23.612  1.00  0.00     0.120 C 
ATOM     17  C   UNL A   1      35.135  18.533  24.652  1.00  0.00     0.188 C 
ATOM     18  H   UNL A   1      33.318  23.858  25.987  1.00  0.00     0.316 HD
ATOM     19  C   UNL A   1      31.980  18.424  23.068  1.00  0.00     0.156 C 
ATOM     20  S   UNL A   1      33.614  16.933  23.814  1.00  0.00     0.155 S 
ATOM     21  O   UNL A   1      30.585  23.197  24.488  1.00  0.00    -0.247 OA
ATOM     22  O   UNL A   1      33.040  16.115  24.875  1.00  0.00    -0.229 OA
ATOM     23  O   UNL A   1      34.200  16.172  22.737  1.00  0.00    -0.229 OA
BRANCH  11  24
ATOM     24  C   UNL A   1      35.608  21.978  25.558  1.00  0.00     0.128 A 
ATOM     25  C   UNL A   1      38.256  22.770  26.235  1.00  0.00     0.018 A 
ATOM     26  C   UNL A   1      37.163  23.601  26.525  1.00  0.00     0.016 A 
ATOM     27  C   UNL A   1      38.017  21.540  25.647  1.00  0.00     0.016 A 
ATOM     28  C   UNL A   1      35.850  23.216  26.170  1.00  0.00     0.052 A 
ATOM     29  C   UNL A   1      36.716  21.149  25.364  1.00  0.00     0.052 A 
BRANCH  25  30
ATOM     30  C   UNL A   1      39.653  23.171  26.565  1.00  0.00     0.159 C 
ATOM     31  C   UNL A   1      39.867  24.377  27.457  1.00  0.00     0.093 C 
ATOM     32  O   UNL A   1      40.596  22.515  26.132  1.00  0.00    -0.295 OA
ENDBRANCH  25  30
ENDBRANCH  11  24
ENDBRANCH   9  10
ENDBRANCH   8   9
ENDBRANCH   5   8
ENDBRANCH   3   4
ENDBRANCH   2   3
ENDBRANCH   1   2
BRANCH   1  33
ATOM     33  C   UNL A   1      32.212  31.395  27.178  1.00  0.00     0.002 C 
BRANCH  33  34
ATOM     34  C   UNL A   1      32.768  32.967  27.415  1.00  0.00     0.021 C 
BRANCH  34  35
ATOM     35  C   UNL A   1      33.525  34.280  28.963  1.00  0.00     0.116 C 
BRANCH  35  36
ATOM     36  N   UNL A   1      32.806  35.012  30.179  1.00  0.00    -0.352 N 
ATOM     37  C   UNL A   1      33.040  35.028  31.540  1.00  0.00     0.251 C 
ATOM     38  H   UNL A   1      32.038  35.565  29.906  1.00  0.00     0.163 HD
ATOM     39  O   UNL A   1      32.238  35.584  32.281  1.00  0.00    -0.269 OA
BRANCH  37  40
ATOM     40  C   UNL A   1      34.247  34.394  32.065  1.00  0.00     0.039 A 
ATOM     41  C   UNL A   1      34.299  33.003  32.205  1.00  0.00     0.014 A 
ATOM     42  C   UNL A   1      35.372  35.197  32.235  1.00  0.00     0.014 A 
ATOM     43  C   UNL A   1      35.533  32.403  32.430  1.00  0.00     0.010 A 
ATOM     44  C   UNL A   1      36.605  34.592  32.339  1.00  0.00     0.010 A 
ATOM     45  C   UNL A   1      36.687  33.197  32.480  1.00  0.00    -0.014 A 
BRANCH  45  46
ATOM     46  C   UNL A   1      37.989  32.630  32.869  1.00  0.00     0.031 A 
ATOM     47  C   UNL A   1      38.459  32.897  34.271  1.00  0.00     0.074 A 
ATOM     48  C   UNL A   1      38.743  31.955  31.983  1.00  0.00     0.049 A 
ATOM     49  N   UNL A   1      39.587  32.575  34.840  1.00  0.00    -0.248 NA
ATOM     50  C   UNL A   1      37.561  33.694  35.131  1.00  0.00     0.031 C 
ATOM     51  C   UNL A   1      38.393  31.692  30.585  1.00  0.00     0.029 A 
ATOM     52  N   UNL A   1      39.969  31.364  32.138  1.00  0.00    -0.354 N 
ATOM     53  C   UNL A   1      39.532  33.145  36.105  1.00  0.00     0.074 A 
ATOM     54  C   UNL A   1      38.329  33.935  36.177  1.00  0.00     0.031 C 
ATOM     55  C   UNL A   1      39.367  30.952  30.025  1.00  0.00     0.029 A 
ATOM     56  C   UNL A   1      40.415  30.714  31.013  1.00  0.00     0.049 A 
ATOM     57  H   UNL A   1      40.482  31.403  32.977  1.00  0.00     0.167 HD
ATOM     58  C   UNL A   1      40.379  32.975  37.143  1.00  0.00     0.031 A 
ATOM     59  C   UNL A   1      41.537  29.992  30.825  1.00  0.00     0.031 A 
ATOM     60  C   UNL A   1      41.549  32.154  37.062  1.00  0.00     0.049 A 
ATOM     61  C   UNL A   1      42.475  29.816  31.994  1.00  0.00     0.074 A 
ATOM     62  C   UNL A   1      42.461  31.852  38.053  1.00  0.00     0.029 A 
ATOM     63  N   UNL A   1      41.960  31.492  35.913  1.00  0.00    -0.354 N 
ATOM     64  N   UNL A   1      42.376  30.294  33.214  1.00  0.00    -0.248 NA
ATOM     65  C   UNL A   1      43.663  28.983  31.769  1.00  0.00     0.031 C 
ATOM     66  C   UNL A   1      43.460  31.056  37.486  1.00  0.00     0.029 A 
ATOM     67  C   UNL A   1      43.127  30.800  36.163  1.00  0.00     0.049 A 
ATOM     68  H   UNL A   1      41.488  31.513  35.049  1.00  0.00     0.167 HD
ATOM     69  C   UNL A   1      43.466  29.785  33.913  1.00  0.00     0.074 A 
ATOM     70  C   UNL A   1      44.203  28.956  32.979  1.00  0.00     0.031 C 
ATOM     71  C   UNL A   1      43.826  29.976  35.207  1.00  0.00     0.031 A 
BRANCH  58  72
ATOM     72  C   UNL A   1      40.044  33.684  38.427  1.00  0.00    -0.014 A 
ATOM     73  C   UNL A   1      40.637  34.921  38.753  1.00  0.00     0.010 A 
ATOM     74  C   UNL A   1      39.145  33.100  39.334  1.00  0.00     0.010 A 
ATOM     75  C   UNL A   1      40.384  35.528  39.984  1.00  0.00     0.020 A 
ATOM     76  C   UNL A   1      38.856  33.725  40.550  1.00  0.00     0.020 A 
ATOM     77  C   UNL A   1      39.493  34.924  40.875  1.00  0.00     0.054 A 
BRANCH  77  78
ATOM     78  S   UNL A   1      39.165  35.745  42.458  1.00  0.00     0.124 S 
ATOM     79  O   UNL A   1      39.359  37.151  42.113  1.00  0.00    -0.237 OA
ATOM     80  O   UNL A   1      37.787  35.352  42.739  1.00  0.00    -0.237 OA
ATOM     81  O   UNL A   1      40.169  35.180  43.356  1.00  0.00    -0.744 OA
ENDBRANCH  77  78
ENDBRANCH  58  72
BRANCH  59  82
ATOM     82  C   UNL A   1      41.803  29.340  29.512  1.00  0.00    -0.014 A 
ATOM     83  C   UNL A   1      41.138  28.152  29.158  1.00  0.00     0.010 A 
ATOM     84  C   UNL A   1      42.716  29.903  28.604  1.00  0.00     0.010 A 
ATOM     85  C   UNL A   1      41.400  27.527  27.934  1.00  0.00     0.020 A 
ATOM     86  C   UNL A   1      42.959  29.299  27.366  1.00  0.00     0.020 A 
ATOM     87  C   UNL A   1      42.307  28.106  27.044  1.00  0.00     0.054 A 
BRANCH  87  88
ATOM     88  S   UNL A   1      42.600  27.299  25.445  1.00  0.00     0.124 S 
ATOM     89  O   UNL A   1      41.558  26.278  25.423  1.00  0.00    -0.237 OA
ATOM     90  O   UNL A   1      42.427  28.400  24.501  1.00  0.00    -0.237 OA
ATOM     91  O   UNL A   1      43.966  26.794  25.560  1.00  0.00    -0.744 OA
ENDBRANCH  87  88
ENDBRANCH  59  82
BRANCH  71  92
ATOM     92  C   UNL A   1      45.039  29.240  35.708  1.00  0.00    -0.014 A 
ATOM     93  C   UNL A   1      44.955  27.917  36.171  1.00  0.00     0.010 A 
ATOM     94  C   UNL A   1      46.299  29.864  35.628  1.00  0.00     0.010 A 
ATOM     95  C   UNL A   1      46.107  27.240  36.577  1.00  0.00     0.020 A 
ATOM     96  C   UNL A   1      47.456  29.178  35.997  1.00  0.00     0.020 A 
ATOM     97  C   UNL A   1      47.350  27.874  36.481  1.00  0.00     0.054 A 
BRANCH  97  98
ATOM     98  S   UNL A   1      48.835  26.953  36.962  1.00  0.00     0.124 S 
ATOM     99  O   UNL A   1      48.327  26.094  38.030  1.00  0.00    -0.237 OA
ATOM    100  O   UNL A   1      49.200  26.268  35.725  1.00  0.00    -0.237 OA
ATOM    101  O   UNL A   1      49.767  27.994  37.391  1.00  0.00    -0.744 OA
ENDBRANCH  97  98
ENDBRANCH  71  92
ENDBRANCH  45  46
ENDBRANCH  37  40
ENDBRANCH  35  36
ENDBRANCH  34  35
ENDBRANCH  33  34
ENDBRANCH   1  33
TORSDOF 20
ENDMDL
