MODEL 1
REMARK VINA RESULT:     -12.8      0.000      0.000
REMARK SMILES NS(=O)(=O)c1ccc(-c2cc(Cl)cc3c2O[C@H](C(F)(F)F)C(C(=O)NCCCCCCNC(=O)c2ccc(-c4c5nc(c(-c6ccc(S(=O)(=O)[O-])cc6)c6ccc([nH]6)c(-c6ccc(S(=O)(=O)[O-])cc6)c6nc(c(-c7ccc(S(=O)(=O)[O-])cc7)c7ccc4[nH]7)C=C6)C=C5)cc2)=C3)cc1
REMARK SMILES IDX 28 1 27 2 26 3 25 4 23 5 24 6 22 8 9 9 10 10 15 11 11 12
REMARK SMILES IDX 14 13 16 14 12 15 13 16 95 17 17 18 8 19 5 20 6 21 97 22
REMARK SMILES IDX 7 23 96 24 2 25 3 26 4 27 1 28 18 31 19 32 20 33 21 34 29 35
REMARK SMILES IDX 30 36 31 37 32 38 33 39 34 41 35 42 36 43 94 44 37 45 93 46
REMARK SMILES IDX 38 47 39 48 40 49 87 50 41 51 92 52 86 53 88 54 42 55 91 56
REMARK SMILES IDX 85 57 84 58 43 60 73 61 54 62 72 63 55 64 58 65 71 66 89 67
REMARK SMILES IDX 56 68 57 69 70 71 90 72 59 73 44 74 45 75 53 76 46 77 52 78
REMARK SMILES IDX 47 79 48 80 49 81 50 82 51 83 74 84 75 85 83 86 76 87 82 88
REMARK SMILES IDX 77 89 78 90 79 91 80 92 81 93 60 94 61 95 69 96 62 97 68 98
REMARK SMILES IDX 63 99 64 100 65 101 66 102 67 103
REMARK H PARENT 25 7 1 29 1 30 32 40 88 59 58 70
REMARK Flexibility Score: inf
ROOT
ATOM      1  C   UNL A   1      37.499  22.433  25.695  1.00  0.00     0.002 C 
ENDROOT
BRANCH   1   2
ATOM      2  C   UNL A   1      36.320  21.498  25.376  1.00  0.00     0.021 C 
BRANCH   2   3
ATOM      3  C   UNL A   1      35.127  21.622  26.336  1.00  0.00     0.116 C 
BRANCH   3   4
ATOM      4  N   UNL A   1      34.769  23.016  26.490  1.00  0.00    -0.352 N 
ATOM      5  C   UNL A   1      34.289  23.807  25.500  1.00  0.00     0.251 C 
ATOM      6  O   UNL A   1      34.802  24.898  25.280  1.00  0.00    -0.270 OA
ATOM      7  H   UNL A   1      34.881  23.421  27.380  1.00  0.00     0.163 HD
BRANCH   5   8
ATOM      8  C   UNL A   1      33.019  23.354  24.862  1.00  0.00     0.067 C 
ATOM      9  C   UNL A   1      31.211  26.943  24.296  1.00  0.00     0.026 A 
ATOM     10  C   UNL A   1      31.457  27.689  25.479  1.00  0.00     0.033 A 
ATOM     11  C   UNL A   1      31.498  25.568  24.360  1.00  0.00     0.135 A 
ATOM     12  C   UNL A   1      31.745  27.081  26.700  1.00  0.00     0.042 A 
ATOM     13  C   UNL A   1      31.657  24.961  25.629  1.00  0.00     0.019 A 
ATOM     14  O   UNL A   1      31.705  24.772  23.238  1.00  0.00    -0.475 OA
ATOM     15  Cl  UNL A   1      32.039  28.051  28.087  1.00  0.00    -0.084 Cl
ATOM     16  C   UNL A   1      31.757  25.706  26.800  1.00  0.00     0.032 A 
ATOM     17  C   UNL A   1      31.948  23.512  25.663  1.00  0.00     0.025 C 
ATOM     18  C   UNL A   1      32.818  23.781  23.417  1.00  0.00     0.314 C 
BRANCH   9  19
ATOM     19  C   UNL A   1      30.404  27.662  23.268  1.00  0.00    -0.015 A 
ATOM     20  C   UNL A   1      28.904  29.825  22.225  1.00  0.00     0.082 A 
ATOM     21  C   UNL A   1      30.268  29.728  21.946  1.00  0.00     0.022 A 
ATOM     22  C   UNL A   1      28.261  28.806  22.931  1.00  0.00     0.022 A 
ATOM     23  C   UNL A   1      31.001  28.639  22.440  1.00  0.00     0.010 A 
ATOM     24  C   UNL A   1      29.006  27.725  23.431  1.00  0.00     0.010 A 
BRANCH  20  25
ATOM     25  S   UNL A   1      28.031  31.318  21.837  1.00  0.00     0.238 S 
ATOM     26  O   UNL A   1      27.131  31.647  22.916  1.00  0.00    -0.207 OA
ATOM     27  O   UNL A   1      27.590  31.265  20.459  1.00  0.00    -0.207 OA
BRANCH  25  28
ATOM     28  N   UNL A   1      29.243  32.475  21.889  1.00  0.00    -0.225 NA
ATOM     29  H   UNL A   1      28.896  33.349  21.495  1.00  0.00     0.137 HD
ATOM     30  H   UNL A   1      30.044  32.151  21.347  1.00  0.00     0.137 HD
ENDBRANCH  25  28
ENDBRANCH  20  25
ENDBRANCH   9  19
BRANCH  18  31
ATOM     31  C   UNL A   1      32.608  22.499  22.577  1.00  0.00     0.429 C 
ATOM     32  F   UNL A   1      33.030  22.638  21.300  1.00  0.00    -0.167 F 
ATOM     33  F   UNL A   1      33.264  21.444  23.116  1.00  0.00    -0.167 F 
ATOM     34  F   UNL A   1      31.299  22.132  22.511  1.00  0.00    -0.167 F 
ENDBRANCH  18  31
ENDBRANCH   5   8
ENDBRANCH   3   4
ENDBRANCH   2   3
ENDBRANCH   1   2
BRANCH   1  35
ATOM     35  C   UNL A   1      38.853  21.732  25.824  1.00  0.00     0.002 C 
BRANCH  35  36
ATOM     36  C   UNL A   1      39.781  22.345  26.872  1.00  0.00     0.021 C 
BRANCH  36  37
ATOM     37  C   UNL A   1      39.726  23.865  26.941  1.00  0.00     0.116 C 
BRANCH  37  38
ATOM     38  N   UNL A   1      40.592  24.490  25.956  1.00  0.00    -0.352 N 
ATOM     39  C   UNL A   1      41.107  25.760  25.948  1.00  0.00     0.251 C 
ATOM     40  H   UNL A   1      40.844  23.924  25.192  1.00  0.00     0.163 HD
ATOM     41  O   UNL A   1      41.663  26.189  24.942  1.00  0.00    -0.269 OA
BRANCH  39  42
ATOM     42  C   UNL A   1      40.973  26.612  27.149  1.00  0.00     0.039 A 
ATOM     43  C   UNL A   1      41.693  27.807  27.213  1.00  0.00     0.014 A 
ATOM     44  C   UNL A   1      40.158  26.225  28.217  1.00  0.00     0.014 A 
ATOM     45  C   UNL A   1      41.579  28.621  28.341  1.00  0.00     0.010 A 
ATOM     46  C   UNL A   1      39.974  27.081  29.298  1.00  0.00     0.010 A 
ATOM     47  C   UNL A   1      40.710  28.270  29.388  1.00  0.00    -0.014 A 
BRANCH  47  48
ATOM     48  C   UNL A   1      40.616  29.102  30.614  1.00  0.00     0.031 A 
ATOM     49  C   UNL A   1      39.563  30.178  30.707  1.00  0.00     0.074 A 
ATOM     50  C   UNL A   1      41.481  28.908  31.628  1.00  0.00     0.049 A 
ATOM     51  N   UNL A   1      39.323  31.014  31.684  1.00  0.00    -0.248 NA
ATOM     52  C   UNL A   1      38.681  30.354  29.541  1.00  0.00     0.031 C 
ATOM     53  C   UNL A   1      42.564  27.923  31.642  1.00  0.00     0.029 A 
ATOM     54  N   UNL A   1      41.583  29.530  32.847  1.00  0.00    -0.354 N 
ATOM     55  C   UNL A   1      38.277  31.818  31.245  1.00  0.00     0.074 A 
ATOM     56  C   UNL A   1      37.974  31.417  29.892  1.00  0.00     0.031 C 
ATOM     57  C   UNL A   1      43.193  27.978  32.827  1.00  0.00     0.029 A 
ATOM     58  C   UNL A   1      42.589  29.029  33.640  1.00  0.00     0.049 A 
ATOM     59  H   UNL A   1      40.991  30.264  33.128  1.00  0.00     0.167 HD
ATOM     60  C   UNL A   1      37.606  32.784  31.919  1.00  0.00     0.031 A 
ATOM     61  C   UNL A   1      42.978  29.376  34.883  1.00  0.00     0.031 A 
ATOM     62  C   UNL A   1      37.904  33.171  33.271  1.00  0.00     0.049 A 
ATOM     63  C   UNL A   1      42.228  30.464  35.605  1.00  0.00     0.074 A 
ATOM     64  C   UNL A   1      37.261  34.108  34.058  1.00  0.00     0.029 A 
ATOM     65  N   UNL A   1      38.931  32.640  34.038  1.00  0.00    -0.354 N 
ATOM     66  N   UNL A   1      41.205  31.176  35.192  1.00  0.00    -0.248 NA
ATOM     67  C   UNL A   1      42.672  30.782  36.968  1.00  0.00     0.031 C 
ATOM     68  C   UNL A   1      37.935  34.187  35.281  1.00  0.00     0.029 A 
ATOM     69  C   UNL A   1      38.951  33.243  35.283  1.00  0.00     0.049 A 
ATOM     70  H   UNL A   1      39.554  31.938  33.740  1.00  0.00     0.167 HD
ATOM     71  C   UNL A   1      40.856  31.993  36.263  1.00  0.00     0.074 A 
ATOM     72  C   UNL A   1      41.771  31.679  37.341  1.00  0.00     0.031 C 
ATOM     73  C   UNL A   1      39.864  32.914  36.349  1.00  0.00     0.031 A 
BRANCH  60  74
ATOM     74  C   UNL A   1      36.485  33.488  31.197  1.00  0.00    -0.014 A 
ATOM     75  C   UNL A   1      36.635  33.926  29.868  1.00  0.00     0.010 A 
ATOM     76  C   UNL A   1      35.250  33.683  31.844  1.00  0.00     0.010 A 
ATOM     77  C   UNL A   1      35.590  34.584  29.215  1.00  0.00     0.020 A 
ATOM     78  C   UNL A   1      34.190  34.309  31.182  1.00  0.00     0.020 A 
ATOM     79  C   UNL A   1      34.372  34.771  29.877  1.00  0.00     0.054 A 
BRANCH  79  80
ATOM     80  S   UNL A   1      33.024  35.603  28.995  1.00  0.00     0.124 S 
ATOM     81  O   UNL A   1      32.202  36.097  30.098  1.00  0.00    -0.237 OA
ATOM     82  O   UNL A   1      33.729  36.628  28.230  1.00  0.00    -0.237 OA
ATOM     83  O   UNL A   1      32.420  34.538  28.198  1.00  0.00    -0.744 OA
ENDBRANCH  79  80
ENDBRANCH  60  74
BRANCH  61  84
ATOM     84  C   UNL A   1      44.116  28.670  35.534  1.00  0.00    -0.014 A 
ATOM     85  C   UNL A   1      43.898  27.507  36.295  1.00  0.00     0.010 A 
ATOM     86  C   UNL A   1      45.428  29.160  35.400  1.00  0.00     0.010 A 
ATOM     87  C   UNL A   1      44.965  26.866  36.934  1.00  0.00     0.020 A 
ATOM     88  C   UNL A   1      46.501  28.504  36.008  1.00  0.00     0.020 A 
ATOM     89  C   UNL A   1      46.260  27.369  36.784  1.00  0.00     0.054 A 
BRANCH  89  90
ATOM     90  S   UNL A   1      47.634  26.501  37.593  1.00  0.00     0.124 S 
ATOM     91  O   UNL A   1      48.666  26.537  36.561  1.00  0.00    -0.237 OA
ATOM     92  O   UNL A   1      47.882  27.332  38.768  1.00  0.00    -0.237 OA
ATOM     93  O   UNL A   1      47.081  25.179  37.879  1.00  0.00    -0.744 OA
ENDBRANCH  89  90
ENDBRANCH  61  84
BRANCH  73  94
ATOM     94  C   UNL A   1      39.669  33.605  37.674  1.00  0.00    -0.014 A 
ATOM     95  C   UNL A   1      40.245  34.857  37.949  1.00  0.00     0.010 A 
ATOM     96  C   UNL A   1      38.853  32.997  38.649  1.00  0.00     0.010 A 
ATOM     97  C   UNL A   1      40.046  35.467  39.191  1.00  0.00     0.020 A 
ATOM     98  C   UNL A   1      38.624  33.621  39.876  1.00  0.00     0.020 A 
ATOM     99  C   UNL A   1      39.238  34.844  40.147  1.00  0.00     0.054 A 
BRANCH  99 100
ATOM    100  S   UNL A   1      38.976  35.668  41.741  1.00  0.00     0.124 S 
ATOM    101  O   UNL A   1      39.306  37.055  41.424  1.00  0.00    -0.237 OA
ATOM    102  O   UNL A   1      37.565  35.403  42.010  1.00  0.00    -0.237 OA
ATOM    103  O   UNL A   1      39.914  34.995  42.638  1.00  0.00    -0.744 OA
ENDBRANCH  99 100
ENDBRANCH  73  94
ENDBRANCH  47  48
ENDBRANCH  39  42
ENDBRANCH  37  38
ENDBRANCH  36  37
ENDBRANCH  35  36
ENDBRANCH   1  35
TORSDOF 20
ENDMDL
MODEL 2
REMARK VINA RESULT:     -12.6      6.709     12.216
REMARK SMILES NS(=O)(=O)c1ccc(-c2cc(Cl)cc3c2O[C@H](C(F)(F)F)C(C(=O)NCCCCCCNC(=O)c2ccc(-c4c5nc(c(-c6ccc(S(=O)(=O)[O-])cc6)c6ccc([nH]6)c(-c6ccc(S(=O)(=O)[O-])cc6)c6nc(c(-c7ccc(S(=O)(=O)[O-])cc7)c7ccc4[nH]7)C=C6)C=C5)cc2)=C3)cc1
REMARK SMILES IDX 28 1 27 2 26 3 25 4 23 5 24 6 22 8 9 9 10 10 15 11 11 12
REMARK SMILES IDX 14 13 16 14 12 15 13 16 95 17 17 18 8 19 5 20 6 21 97 22
REMARK SMILES IDX 7 23 96 24 2 25 3 26 4 27 1 28 18 31 19 32 20 33 21 34 29 35
REMARK SMILES IDX 30 36 31 37 32 38 33 39 34 41 35 42 36 43 94 44 37 45 93 46
REMARK SMILES IDX 38 47 39 48 40 49 87 50 41 51 92 52 86 53 88 54 42 55 91 56
REMARK SMILES IDX 85 57 84 58 43 60 73 61 54 62 72 63 55 64 58 65 71 66 89 67
REMARK SMILES IDX 56 68 57 69 70 71 90 72 59 73 44 74 45 75 53 76 46 77 52 78
REMARK SMILES IDX 47 79 48 80 49 81 50 82 51 83 74 84 75 85 83 86 76 87 82 88
REMARK SMILES IDX 77 89 78 90 79 91 80 92 81 93 60 94 61 95 69 96 62 97 68 98
REMARK SMILES IDX 63 99 64 100 65 101 66 102 67 103
REMARK H PARENT 25 7 1 29 1 30 32 40 88 59 58 70
REMARK Flexibility Score: inf
ROOT
ATOM      1  C   UNL A   1      31.979  29.590  26.212  1.00  0.00     0.002 C 
ENDROOT
BRANCH   1   2
ATOM      2  C   UNL A   1      31.100  30.146  25.079  1.00  0.00     0.021 C 
BRANCH   2   3
ATOM      3  C   UNL A   1      30.692  29.111  24.020  1.00  0.00     0.116 C 
BRANCH   3   4
ATOM      4  N   UNL A   1      30.265  27.890  24.671  1.00  0.00    -0.352 N 
ATOM      5  C   UNL A   1      30.652  26.642  24.309  1.00  0.00     0.251 C 
ATOM      6  O   UNL A   1      29.813  25.769  24.122  1.00  0.00    -0.270 OA
ATOM      7  H   UNL A   1      29.649  27.971  25.434  1.00  0.00     0.163 HD
BRANCH   5   8
ATOM      8  C   UNL A   1      32.118  26.377  24.351  1.00  0.00     0.067 C 
ATOM      9  C   UNL A   1      32.080  22.329  24.646  1.00  0.00     0.026 A 
ATOM     10  C   UNL A   1      31.040  22.020  25.562  1.00  0.00     0.033 A 
ATOM     11  C   UNL A   1      32.474  23.678  24.589  1.00  0.00     0.135 A 
ATOM     12  C   UNL A   1      30.584  22.932  26.512  1.00  0.00     0.042 A 
ATOM     13  C   UNL A   1      32.099  24.545  25.644  1.00  0.00     0.019 A 
ATOM     14  O   UNL A   1      33.160  24.234  23.516  1.00  0.00    -0.475 OA
ATOM     15  Cl  UNL A   1      29.316  22.487  27.582  1.00  0.00    -0.084 Cl
ATOM     16  C   UNL A   1      31.177  24.173  26.617  1.00  0.00     0.032 A 
ATOM     17  C   UNL A   1      32.536  25.954  25.560  1.00  0.00     0.025 C 
ATOM     18  C   UNL A   1      32.685  25.615  23.164  1.00  0.00     0.314 C 
BRANCH   9  19
ATOM     19  C   UNL A   1      32.804  21.142  24.108  1.00  0.00    -0.015 A 
ATOM     20  C   UNL A   1      33.566  18.417  24.018  1.00  0.00     0.082 A 
ATOM     21  C   UNL A   1      32.501  18.865  23.236  1.00  0.00     0.022 A 
ATOM     22  C   UNL A   1      34.317  19.327  24.764  1.00  0.00     0.022 A 
ATOM     23  C   UNL A   1      32.145  20.222  23.261  1.00  0.00     0.010 A 
ATOM     24  C   UNL A   1      33.947  20.682  24.792  1.00  0.00     0.010 A 
BRANCH  20  25
ATOM     25  S   UNL A   1      33.853  16.676  24.199  1.00  0.00     0.238 S 
ATOM     26  O   UNL A   1      34.802  16.449  25.261  1.00  0.00    -0.207 OA
ATOM     27  O   UNL A   1      34.011  16.083  22.888  1.00  0.00    -0.207 OA
BRANCH  25  28
ATOM     28  N   UNL A   1      32.382  16.122  24.781  1.00  0.00    -0.225 NA
ATOM     29  H   UNL A   1      32.191  15.196  24.398  1.00  0.00     0.137 HD
ATOM     30  H   UNL A   1      31.642  16.765  24.500  1.00  0.00     0.137 HD
ENDBRANCH  25  28
ENDBRANCH  20  25
ENDBRANCH   9  19
BRANCH  18  31
ATOM     31  C   UNL A   1      33.804  26.484  22.543  1.00  0.00     0.429 C 
ATOM     32  F   UNL A   1      33.516  26.879  21.283  1.00  0.00    -0.167 F 
ATOM     33  F   UNL A   1      34.032  27.595  23.283  1.00  0.00    -0.167 F 
ATOM     34  F   UNL A   1      34.994  25.827  22.477  1.00  0.00    -0.167 F 
ENDBRANCH  18  31
ENDBRANCH   5   8
ENDBRANCH   3   4
ENDBRANCH   2   3
ENDBRANCH   1   2
BRANCH   1  35
ATOM     35  C   UNL A   1      33.484  29.654  25.941  1.00  0.00     0.002 C 
BRANCH  35  36
ATOM     36  C   UNL A   1      34.331  28.811  26.894  1.00  0.00     0.021 C 
BRANCH  36  37
ATOM     37  C   UNL A   1      35.545  29.537  27.459  1.00  0.00     0.116 C 
BRANCH  37  38
ATOM     38  N   UNL A   1      35.422  29.779  28.886  1.00  0.00    -0.352 N 
ATOM     39  C   UNL A   1      36.371  29.638  29.866  1.00  0.00     0.251 C 
ATOM     40  H   UNL A   1      34.539  30.088  29.191  1.00  0.00     0.163 HD
ATOM     41  O   UNL A   1      36.046  29.699  31.047  1.00  0.00    -0.269 OA
BRANCH  39  42
ATOM     42  C   UNL A   1      37.781  29.397  29.490  1.00  0.00     0.039 A 
ATOM     43  C   UNL A   1      38.163  29.571  28.158  1.00  0.00     0.014 A 
ATOM     44  C   UNL A   1      38.717  28.981  30.441  1.00  0.00     0.014 A 
ATOM     45  C   UNL A   1      39.489  29.345  27.787  1.00  0.00     0.010 A 
ATOM     46  C   UNL A   1      40.055  28.847  30.089  1.00  0.00     0.010 A 
ATOM     47  C   UNL A   1      40.449  28.992  28.752  1.00  0.00    -0.014 A 
BRANCH  47  48
ATOM     48  C   UNL A   1      41.852  28.702  28.363  1.00  0.00     0.031 A 
ATOM     49  C   UNL A   1      42.240  27.303  27.956  1.00  0.00     0.074 A 
ATOM     50  C   UNL A   1      42.777  29.682  28.395  1.00  0.00     0.049 A 
ATOM     51  N   UNL A   1      43.410  26.845  27.591  1.00  0.00    -0.248 NA
ATOM     52  C   UNL A   1      41.181  26.280  27.985  1.00  0.00     0.031 C 
ATOM     53  C   UNL A   1      42.532  31.066  28.804  1.00  0.00     0.029 A 
ATOM     54  N   UNL A   1      44.110  29.662  28.072  1.00  0.00    -0.354 N 
ATOM     55  C   UNL A   1      43.229  25.485  27.362  1.00  0.00     0.074 A 
ATOM     56  C   UNL A   1      41.857  25.179  27.694  1.00  0.00     0.031 C 
ATOM     57  C   UNL A   1      43.666  31.772  28.668  1.00  0.00     0.029 A 
ATOM     58  C   UNL A   1      44.728  30.884  28.204  1.00  0.00     0.049 A 
ATOM     59  H   UNL A   1      44.580  28.851  27.774  1.00  0.00     0.167 HD
ATOM     60  C   UNL A   1      44.116  24.577  26.888  1.00  0.00     0.031 A 
ATOM     61  C   UNL A   1      46.005  31.248  27.974  1.00  0.00     0.031 A 
ATOM     62  C   UNL A   1      45.477  24.889  26.549  1.00  0.00     0.049 A 
ATOM     63  C   UNL A   1      46.977  30.216  27.464  1.00  0.00     0.074 A 
ATOM     64  C   UNL A   1      46.446  24.054  26.023  1.00  0.00     0.029 A 
ATOM     65  N   UNL A   1      46.063  26.138  26.698  1.00  0.00    -0.354 N 
ATOM     66  N   UNL A   1      46.772  28.947  27.202  1.00  0.00    -0.248 NA
ATOM     67  C   UNL A   1      48.348  30.673  27.200  1.00  0.00     0.031 C 
ATOM     68  C   UNL A   1      47.635  24.782  25.910  1.00  0.00     0.029 A 
ATOM     69  C   UNL A   1      47.385  26.091  26.293  1.00  0.00     0.049 A 
ATOM     70  H   UNL A   1      45.606  26.940  27.042  1.00  0.00     0.167 HD
ATOM     71  C   UNL A   1      47.976  28.465  26.699  1.00  0.00     0.074 A 
ATOM     72  C   UNL A   1      48.898  29.583  26.686  1.00  0.00     0.031 C 
ATOM     73  C   UNL A   1      48.289  27.214  26.278  1.00  0.00     0.031 A 
BRANCH  60  74
ATOM     74  C   UNL A   1      43.636  23.158  26.714  1.00  0.00    -0.014 A 
ATOM     75  C   UNL A   1      43.739  22.500  25.474  1.00  0.00     0.010 A 
ATOM     76  C   UNL A   1      43.106  22.459  27.815  1.00  0.00     0.010 A 
ATOM     77  C   UNL A   1      43.283  21.188  25.327  1.00  0.00     0.020 A 
ATOM     78  C   UNL A   1      42.681  21.134  27.680  1.00  0.00     0.020 A 
ATOM     79  C   UNL A   1      42.757  20.513  26.433  1.00  0.00     0.054 A 
BRANCH  79  80
ATOM     80  S   UNL A   1      42.198  18.800  26.218  1.00  0.00     0.124 S 
ATOM     81  O   UNL A   1      43.135  18.302  25.212  1.00  0.00    -0.237 OA
ATOM     82  O   UNL A   1      42.361  18.242  27.557  1.00  0.00    -0.237 OA
ATOM     83  O   UNL A   1      40.816  18.940  25.766  1.00  0.00    -0.744 OA
ENDBRANCH  79  80
ENDBRANCH  60  74
BRANCH  61  84
ATOM     84  C   UNL A   1      46.433  32.656  28.198  1.00  0.00    -0.014 A 
ATOM     85  C   UNL A   1      47.020  33.043  29.417  1.00  0.00     0.010 A 
ATOM     86  C   UNL A   1      46.255  33.623  27.192  1.00  0.00     0.010 A 
ATOM     87  C   UNL A   1      47.390  34.374  29.636  1.00  0.00     0.020 A 
ATOM     88  C   UNL A   1      46.654  34.947  27.394  1.00  0.00     0.020 A 
ATOM     89  C   UNL A   1      47.205  35.317  28.622  1.00  0.00     0.054 A 
BRANCH  89  90
ATOM     90  S   UNL A   1      47.724  37.031  28.916  1.00  0.00     0.124 S 
ATOM     91  O   UNL A   1      49.045  37.059  28.296  1.00  0.00    -0.237 OA
ATOM     92  O   UNL A   1      46.685  37.796  28.232  1.00  0.00    -0.237 OA
ATOM     93  O   UNL A   1      47.714  37.145  30.373  1.00  0.00    -0.744 OA
ENDBRANCH  89  90
ENDBRANCH  61  84
BRANCH  73  94
ATOM     94  C   UNL A   1      49.665  26.996  25.706  1.00  0.00    -0.014 A 
ATOM     95  C   UNL A   1      49.931  27.153  24.334  1.00  0.00     0.010 A 
ATOM     96  C   UNL A   1      50.724  26.669  26.575  1.00  0.00     0.010 A 
ATOM     97  C   UNL A   1      51.220  26.940  23.837  1.00  0.00     0.020 A 
ATOM     98  C   UNL A   1      52.020  26.491  26.086  1.00  0.00     0.020 A 
ATOM     99  C   UNL A   1      52.256  26.609  24.716  1.00  0.00     0.054 A 
BRANCH  99 100
ATOM    100  S   UNL A   1      53.924  26.362  24.049  1.00  0.00     0.124 S 
ATOM    101  O   UNL A   1      54.316  25.100  24.671  1.00  0.00    -0.237 OA
ATOM    102  O   UNL A   1      53.687  26.308  22.609  1.00  0.00    -0.237 OA
ATOM    103  O   UNL A   1      54.659  27.538  24.510  1.00  0.00    -0.744 OA
ENDBRANCH  99 100
ENDBRANCH  73  94
ENDBRANCH  47  48
ENDBRANCH  39  42
ENDBRANCH  37  38
ENDBRANCH  36  37
ENDBRANCH  35  36
ENDBRANCH   1  35
TORSDOF 20
ENDMDL
MODEL 3
REMARK VINA RESULT:     -12.3      6.502     11.696
REMARK SMILES NS(=O)(=O)c1ccc(-c2cc(Cl)cc3c2O[C@H](C(F)(F)F)C(C(=O)NCCCCCCNC(=O)c2ccc(-c4c5nc(c(-c6ccc(S(=O)(=O)[O-])cc6)c6ccc([nH]6)c(-c6ccc(S(=O)(=O)[O-])cc6)c6nc(c(-c7ccc(S(=O)(=O)[O-])cc7)c7ccc4[nH]7)C=C6)C=C5)cc2)=C3)cc1
REMARK SMILES IDX 28 1 27 2 26 3 25 4 23 5 24 6 22 8 9 9 10 10 15 11 11 12
REMARK SMILES IDX 14 13 16 14 12 15 13 16 95 17 17 18 8 19 5 20 6 21 97 22
REMARK SMILES IDX 7 23 96 24 2 25 3 26 4 27 1 28 18 31 19 32 20 33 21 34 29 35
REMARK SMILES IDX 30 36 31 37 32 38 33 39 34 41 35 42 36 43 94 44 37 45 93 46
REMARK SMILES IDX 38 47 39 48 40 49 87 50 41 51 92 52 86 53 88 54 42 55 91 56
REMARK SMILES IDX 85 57 84 58 43 60 73 61 54 62 72 63 55 64 58 65 71 66 89 67
REMARK SMILES IDX 56 68 57 69 70 71 90 72 59 73 44 74 45 75 53 76 46 77 52 78
REMARK SMILES IDX 47 79 48 80 49 81 50 82 51 83 74 84 75 85 83 86 76 87 82 88
REMARK SMILES IDX 77 89 78 90 79 91 80 92 81 93 60 94 61 95 69 96 62 97 68 98
REMARK SMILES IDX 63 99 64 100 65 101 66 102 67 103
REMARK H PARENT 25 7 1 29 1 30 32 40 88 59 58 70
REMARK Flexibility Score: inf
ROOT
ATOM      1  C   UNL A   1      32.475  30.096  27.003  1.00  0.00     0.002 C 
ENDROOT
BRANCH   1   2
ATOM      2  C   UNL A   1      31.915  29.735  25.617  1.00  0.00     0.021 C 
BRANCH   2   3
ATOM      3  C   UNL A   1      32.969  29.263  24.605  1.00  0.00     0.116 C 
BRANCH   3   4
ATOM      4  N   UNL A   1      33.667  28.108  25.131  1.00  0.00    -0.352 N 
ATOM      5  C   UNL A   1      33.090  26.914  25.409  1.00  0.00     0.251 C 
ATOM      6  O   UNL A   1      33.263  26.388  26.503  1.00  0.00    -0.270 OA
ATOM      7  H   UNL A   1      34.633  28.196  25.298  1.00  0.00     0.163 HD
BRANCH   5   8
ATOM      8  C   UNL A   1      32.426  26.228  24.264  1.00  0.00     0.067 C 
ATOM      9  C   UNL A   1      33.542  22.398  25.010  1.00  0.00     0.026 A 
ATOM     10  C   UNL A   1      34.904  22.464  25.406  1.00  0.00     0.033 A 
ATOM     11  C   UNL A   1      33.008  23.563  24.431  1.00  0.00     0.135 A 
ATOM     12  C   UNL A   1      35.736  23.523  25.049  1.00  0.00     0.042 A 
ATOM     13  C   UNL A   1      33.896  24.562  23.962  1.00  0.00     0.019 A 
ATOM     14  O   UNL A   1      31.646  23.829  24.353  1.00  0.00    -0.475 OA
ATOM     15  Cl  UNL A   1      37.373  23.537  25.573  1.00  0.00    -0.084 Cl
ATOM     16  C   UNL A   1      35.257  24.537  24.245  1.00  0.00     0.032 A 
ATOM     17  C   UNL A   1      33.304  25.771  23.351  1.00  0.00     0.025 C 
ATOM     18  C   UNL A   1      31.308  25.265  24.630  1.00  0.00     0.314 C 
BRANCH   9  19
ATOM     19  C   UNL A   1      32.972  21.020  24.982  1.00  0.00    -0.015 A 
ATOM     20  C   UNL A   1      33.067  18.201  24.741  1.00  0.00     0.082 A 
ATOM     21  C   UNL A   1      33.130  18.791  26.004  1.00  0.00     0.022 A 
ATOM     22  C   UNL A   1      32.857  18.991  23.610  1.00  0.00     0.022 A 
ATOM     23  C   UNL A   1      33.052  20.188  26.121  1.00  0.00     0.010 A 
ATOM     24  C   UNL A   1      32.792  20.389  23.735  1.00  0.00     0.010 A 
BRANCH  20  25
ATOM     25  S   UNL A   1      33.430  16.475  24.559  1.00  0.00     0.238 S 
ATOM     26  O   UNL A   1      34.439  16.088  25.513  1.00  0.00    -0.207 OA
ATOM     27  O   UNL A   1      33.545  16.162  23.150  1.00  0.00    -0.207 OA
BRANCH  25  28
ATOM     28  N   UNL A   1      32.012  15.746  25.077  1.00  0.00    -0.225 NA
ATOM     29  H   UNL A   1      31.525  16.369  25.722  1.00  0.00     0.137 HD
ATOM     30  H   UNL A   1      32.234  14.872  25.552  1.00  0.00     0.137 HD
ENDBRANCH  25  28
ENDBRANCH  20  25
ENDBRANCH   9  19
BRANCH  18  31
ATOM     31  C   UNL A   1      30.033  25.727  23.886  1.00  0.00     0.429 C 
ATOM     32  F   UNL A   1      30.230  26.851  23.162  1.00  0.00    -0.167 F 
ATOM     33  F   UNL A   1      29.579  24.767  23.045  1.00  0.00    -0.167 F 
ATOM     34  F   UNL A   1      29.005  25.994  24.738  1.00  0.00    -0.167 F 
ENDBRANCH  18  31
ENDBRANCH   5   8
ENDBRANCH   3   4
ENDBRANCH   2   3
ENDBRANCH   1   2
BRANCH   1  35
ATOM     35  C   UNL A   1      33.912  30.622  26.994  1.00  0.00     0.002 C 
BRANCH  35  36
ATOM     36  C   UNL A   1      34.820  29.992  28.049  1.00  0.00     0.021 C 
BRANCH  36  37
ATOM     37  C   UNL A   1      35.697  30.989  28.794  1.00  0.00     0.116 C 
BRANCH  37  38
ATOM     38  N   UNL A   1      35.654  30.789  30.232  1.00  0.00    -0.352 N 
ATOM     39  C   UNL A   1      36.588  30.200  31.046  1.00  0.00     0.251 C 
ATOM     40  H   UNL A   1      34.846  31.121  30.684  1.00  0.00     0.163 HD
ATOM     41  O   UNL A   1      36.307  29.939  32.211  1.00  0.00    -0.269 OA
BRANCH  39  42
ATOM     42  C   UNL A   1      37.924  29.870  30.506  1.00  0.00     0.039 A 
ATOM     43  C   UNL A   1      38.205  30.166  29.170  1.00  0.00     0.014 A 
ATOM     44  C   UNL A   1      38.890  29.251  31.306  1.00  0.00     0.014 A 
ATOM     45  C   UNL A   1      39.461  29.858  28.645  1.00  0.00     0.010 A 
ATOM     46  C   UNL A   1      40.169  29.031  30.809  1.00  0.00     0.010 A 
ATOM     47  C   UNL A   1      40.457  29.298  29.464  1.00  0.00    -0.014 A 
BRANCH  47  48
ATOM     48  C   UNL A   1      41.780  28.922  28.906  1.00  0.00     0.031 A 
ATOM     49  C   UNL A   1      42.871  29.958  28.806  1.00  0.00     0.074 A 
ATOM     50  C   UNL A   1      41.996  27.664  28.473  1.00  0.00     0.049 A 
ATOM     51  N   UNL A   1      44.088  29.833  28.343  1.00  0.00    -0.248 NA
ATOM     52  C   UNL A   1      42.544  31.320  29.263  1.00  0.00     0.031 C 
ATOM     53  C   UNL A   1      41.010  26.582  28.486  1.00  0.00     0.029 A 
ATOM     54  N   UNL A   1      43.120  27.083  27.942  1.00  0.00    -0.354 N 
ATOM     55  C   UNL A   1      44.662  31.096  28.441  1.00  0.00     0.074 A 
ATOM     56  C   UNL A   1      43.643  31.987  28.942  1.00  0.00     0.031 C 
ATOM     57  C   UNL A   1      41.585  25.459  28.025  1.00  0.00     0.029 A 
ATOM     58  C   UNL A   1      42.963  25.749  27.644  1.00  0.00     0.049 A 
ATOM     59  H   UNL A   1      43.959  27.574  27.789  1.00  0.00     0.167 HD
ATOM     60  C   UNL A   1      45.934  31.475  28.169  1.00  0.00     0.031 A 
ATOM     61  C   UNL A   1      43.834  24.860  27.126  1.00  0.00     0.031 A 
ATOM     62  C   UNL A   1      46.949  30.582  27.680  1.00  0.00     0.049 A 
ATOM     63  C   UNL A   1      45.237  25.311  26.815  1.00  0.00     0.074 A 
ATOM     64  C   UNL A   1      48.278  30.855  27.411  1.00  0.00     0.029 A 
ATOM     65  N   UNL A   1      46.748  29.239  27.392  1.00  0.00    -0.354 N 
ATOM     66  N   UNL A   1      45.777  26.497  26.966  1.00  0.00    -0.248 NA
ATOM     67  C   UNL A   1      46.155  24.295  26.282  1.00  0.00     0.031 C 
ATOM     68  C   UNL A   1      48.867  29.693  26.903  1.00  0.00     0.029 A 
ATOM     69  C   UNL A   1      47.925  28.676  26.929  1.00  0.00     0.049 A 
ATOM     70  H   UNL A   1      45.896  28.759  27.500  1.00  0.00     0.167 HD
ATOM     71  C   UNL A   1      47.109  26.358  26.590  1.00  0.00     0.074 A 
ATOM     72  C   UNL A   1      47.292  24.971  26.213  1.00  0.00     0.031 C 
ATOM     73  C   UNL A   1      48.094  27.291  26.565  1.00  0.00     0.031 A 
BRANCH  60  74
ATOM     74  C   UNL A   1      46.293  32.923  28.391  1.00  0.00    -0.014 A 
ATOM     75  C   UNL A   1      46.745  33.378  29.644  1.00  0.00     0.010 A 
ATOM     76  C   UNL A   1      46.212  33.836  27.323  1.00  0.00     0.010 A 
ATOM     77  C   UNL A   1      47.067  34.724  29.836  1.00  0.00     0.020 A 
ATOM     78  C   UNL A   1      46.566  35.176  27.502  1.00  0.00     0.020 A 
ATOM     79  C   UNL A   1      46.976  35.615  28.762  1.00  0.00     0.054 A 
BRANCH  79  80
ATOM     80  S   UNL A   1      47.427  37.350  29.035  1.00  0.00     0.124 S 
ATOM     81  O   UNL A   1      47.320  37.905  27.686  1.00  0.00    -0.237 OA
ATOM     82  O   UNL A   1      46.408  37.799  29.980  1.00  0.00    -0.237 OA
ATOM     83  O   UNL A   1      48.784  37.277  29.571  1.00  0.00    -0.744 OA
ENDBRANCH  79  80
ENDBRANCH  60  74
BRANCH  61  84
ATOM     84  C   UNL A   1      43.414  23.451  26.893  1.00  0.00    -0.014 A 
ATOM     85  C   UNL A   1      43.141  22.595  27.976  1.00  0.00     0.010 A 
ATOM     86  C   UNL A   1      43.286  22.954  25.583  1.00  0.00     0.010 A 
ATOM     87  C   UNL A   1      42.780  21.262  27.753  1.00  0.00     0.020 A 
ATOM     88  C   UNL A   1      42.892  21.632  25.356  1.00  0.00     0.020 A 
ATOM     89  C   UNL A   1      42.656  20.791  26.443  1.00  0.00     0.054 A 
BRANCH  89  90
ATOM     90  S   UNL A   1      42.152  19.067  26.178  1.00  0.00     0.124 S 
ATOM     91  O   UNL A   1      40.737  19.211  25.850  1.00  0.00    -0.237 OA
ATOM     92  O   UNL A   1      43.019  18.652  25.079  1.00  0.00    -0.237 OA
ATOM     93  O   UNL A   1      42.435  18.428  27.462  1.00  0.00    -0.744 OA
ENDBRANCH  89  90
ENDBRANCH  61  84
BRANCH  73  94
ATOM     94  C   UNL A   1      49.476  26.833  26.180  1.00  0.00    -0.014 A 
ATOM     95  C   UNL A   1      50.295  26.116  27.069  1.00  0.00     0.010 A 
ATOM     96  C   UNL A   1      49.945  27.094  24.877  1.00  0.00     0.010 A 
ATOM     97  C   UNL A   1      51.573  25.709  26.679  1.00  0.00     0.020 A 
ATOM     98  C   UNL A   1      51.208  26.658  24.473  1.00  0.00     0.020 A 
ATOM     99  C   UNL A   1      52.022  25.984  25.383  1.00  0.00     0.054 A 
BRANCH  99 100
ATOM    100  S   UNL A   1      53.676  25.424  24.894  1.00  0.00     0.124 S 
ATOM    101  O   UNL A   1      54.536  26.410  25.545  1.00  0.00    -0.237 OA
ATOM    102  O   UNL A   1      53.734  24.074  25.450  1.00  0.00    -0.237 OA
ATOM    103  O   UNL A   1      53.647  25.490  23.434  1.00  0.00    -0.744 OA
ENDBRANCH  99 100
ENDBRANCH  73  94
ENDBRANCH  47  48
ENDBRANCH  39  42
ENDBRANCH  37  38
ENDBRANCH  36  37
ENDBRANCH  35  36
ENDBRANCH   1  35
TORSDOF 20
ENDMDL
