MODEL 1
REMARK VINA RESULT:     -10.7      0.000      0.000
REMARK SMILES O=C(/C=C/c1ccc(O)c(O)c1)NCCCCCCNC(=O)c1ccc(-c2c3nc(c(-c4ccc(S(=O)(=O)[O-])cc4)c4ccc([nH]4)c(-c4ccc(S(=O)(=O)[O-])cc4)c4nc(c(-c5ccc(S(=O)(=O)[O-])cc5)c5ccc2[nH]5)C=C4)C=C3)cc1
REMARK SMILES IDX 17 1 16 2 15 3 14 4 13 5 1 6 2 7 3 9 4 10 5 11 6 12 12 13
REMARK SMILES IDX 7 14 10 15 8 16 11 17 9 19 18 21 19 22 20 23 21 24 22 26
REMARK SMILES IDX 23 27 24 28 82 29 25 30 81 31 26 32 27 33 28 34 75 35 29 36
REMARK SMILES IDX 80 37 74 38 76 39 30 40 79 41 73 42 72 43 31 45 61 46 42 47
REMARK SMILES IDX 60 48 43 49 46 50 59 51 77 52 44 53 45 54 58 56 78 57 47 58
REMARK SMILES IDX 32 59 33 60 41 61 34 62 40 63 35 64 36 65 37 66 38 67 39 68
REMARK SMILES IDX 62 69 63 70 71 71 64 72 70 73 65 74 66 75 67 76 68 77 69 78
REMARK SMILES IDX 48 79 49 80 57 81 50 82 56 83 51 84 52 85 53 86 54 87 55 88
REMARK H PARENT 13 8 11 18 9 20 20 25 76 44 46 55
REMARK Flexibility Score: inf
ROOT
ATOM      1  C   UNL A   1      39.823  22.269  26.034  1.00  0.00     0.002 C 
ENDROOT
BRANCH   1   2
ATOM      2  C   UNL A   1      38.295  22.308  26.126  1.00  0.00     0.002 C 
BRANCH   2   3
ATOM      3  C   UNL A   1      37.655  23.681  25.877  1.00  0.00     0.021 C 
BRANCH   3   4
ATOM      4  C   UNL A   1      36.126  23.674  25.845  1.00  0.00     0.116 C 
BRANCH   4   5
ATOM      5  N   UNL A   1      35.601  22.323  25.790  1.00  0.00    -0.353 N 
ATOM      6  O   UNL A   1      33.889  22.768  24.326  1.00  0.00    -0.270 OA
ATOM      7  C   UNL A   1      34.488  21.997  25.068  1.00  0.00     0.243 C 
ATOM      8  H   UNL A   1      36.065  21.614  26.292  1.00  0.00     0.163 HD
BRANCH   7   9
ATOM      9  C   UNL A   1      34.007  20.596  25.186  1.00  0.00     0.072 C 
ATOM     10  C   UNL A   1      34.541  19.517  24.590  1.00  0.00     0.014 C 
BRANCH  10  11
ATOM     11  C   UNL A   1      34.059  18.151  24.839  1.00  0.00    -0.022 A 
ATOM     12  C   UNL A   1      32.695  17.858  25.018  1.00  0.00     0.012 A 
ATOM     13  C   UNL A   1      34.989  17.103  24.871  1.00  0.00     0.058 A 
ATOM     14  C   UNL A   1      32.267  16.548  25.260  1.00  0.00     0.051 A 
ATOM     15  C   UNL A   1      34.556  15.806  25.113  1.00  0.00     0.157 A 
ATOM     16  C   UNL A   1      33.207  15.528  25.311  1.00  0.00     0.157 A 
BRANCH  15  17
ATOM     17  O   UNL A   1      35.473  14.796  25.158  1.00  0.00    -0.504 OA
ATOM     18  H   UNL A   1      35.493  14.150  24.480  1.00  0.00     0.293 HD
ENDBRANCH  15  17
BRANCH  16  19
ATOM     19  O   UNL A   1      32.853  14.229  25.552  1.00  0.00    -0.504 OA
ATOM     20  H   UNL A   1      32.725  13.934  26.432  1.00  0.00     0.293 HD
ENDBRANCH  16  19
ENDBRANCH  10  11
ENDBRANCH   7   9
ENDBRANCH   4   5
ENDBRANCH   3   4
ENDBRANCH   2   3
ENDBRANCH   1   2
BRANCH   1  21
ATOM     21  C   UNL A   1      40.560  22.361  27.371  1.00  0.00     0.021 C 
BRANCH  21  22
ATOM     22  C   UNL A   1      41.829  23.208  27.350  1.00  0.00     0.116 C 
BRANCH  22  23
ATOM     23  N   UNL A   1      41.901  24.070  26.179  1.00  0.00    -0.352 N 
ATOM     24  C   UNL A   1      41.715  25.428  26.085  1.00  0.00     0.251 C 
ATOM     25  H   UNL A   1      42.114  23.615  25.333  1.00  0.00     0.163 HD
ATOM     26  O   UNL A   1      41.644  25.961  24.979  1.00  0.00    -0.269 OA
BRANCH  24  27
ATOM     27  C   UNL A   1      41.577  26.243  27.312  1.00  0.00     0.039 A 
ATOM     28  C   UNL A   1      42.570  27.177  27.620  1.00  0.00     0.014 A 
ATOM     29  C   UNL A   1      40.472  26.093  28.154  1.00  0.00     0.014 A 
ATOM     30  C   UNL A   1      42.419  28.004  28.737  1.00  0.00     0.010 A 
ATOM     31  C   UNL A   1      40.287  26.970  29.220  1.00  0.00     0.010 A 
ATOM     32  C   UNL A   1      41.260  27.934  29.525  1.00  0.00    -0.014 A 
BRANCH  32  33
ATOM     33  C   UNL A   1      41.041  28.865  30.663  1.00  0.00     0.031 A 
ATOM     34  C   UNL A   1      41.875  28.754  31.909  1.00  0.00     0.074 A 
ATOM     35  C   UNL A   1      40.044  29.773  30.599  1.00  0.00     0.049 A 
ATOM     36  N   UNL A   1      41.797  29.444  33.019  1.00  0.00    -0.248 NA
ATOM     37  C   UNL A   1      42.917  27.715  31.922  1.00  0.00     0.031 C 
ATOM     38  C   UNL A   1      39.137  29.954  29.464  1.00  0.00     0.029 A 
ATOM     39  N   UNL A   1      39.623  30.707  31.512  1.00  0.00    -0.354 N 
ATOM     40  C   UNL A   1      42.765  28.914  33.865  1.00  0.00     0.074 A 
ATOM     41  C   UNL A   1      43.379  27.810  33.160  1.00  0.00     0.031 C 
ATOM     42  C   UNL A   1      38.286  30.956  29.737  1.00  0.00     0.029 A 
ATOM     43  C   UNL A   1      38.555  31.457  31.081  1.00  0.00     0.049 A 
ATOM     44  H   UNL A   1      40.046  30.827  32.393  1.00  0.00     0.167 HD
ATOM     45  C   UNL A   1      43.124  29.319  35.107  1.00  0.00     0.031 A 
ATOM     46  C   UNL A   1      37.860  32.433  31.698  1.00  0.00     0.031 A 
ATOM     47  C   UNL A   1      42.506  30.416  35.806  1.00  0.00     0.049 A 
ATOM     48  C   UNL A   1      38.260  32.855  33.084  1.00  0.00     0.074 A 
ATOM     49  C   UNL A   1      42.832  30.939  37.045  1.00  0.00     0.029 A 
ATOM     50  N   UNL A   1      41.429  31.152  35.333  1.00  0.00    -0.354 N 
ATOM     51  N   UNL A   1      39.227  32.389  33.841  1.00  0.00    -0.248 NA
ATOM     52  C   UNL A   1      37.486  33.943  33.697  1.00  0.00     0.031 C 
ATOM     53  C   UNL A   1      41.913  31.949  37.349  1.00  0.00     0.029 A 
ATOM     54  C   UNL A   1      41.058  32.105  36.269  1.00  0.00     0.049 A 
ATOM     55  H   UNL A   1      40.993  31.018  34.461  1.00  0.00     0.167 HD
ATOM     56  C   UNL A   1      39.194  33.146  35.007  1.00  0.00     0.074 A 
ATOM     57  C   UNL A   1      38.122  34.108  34.850  1.00  0.00     0.031 C 
ATOM     58  C   UNL A   1      39.984  33.053  36.106  1.00  0.00     0.031 A 
BRANCH  45  59
ATOM     59  C   UNL A   1      44.226  28.554  35.796  1.00  0.00    -0.014 A 
ATOM     60  C   UNL A   1      45.566  28.981  35.727  1.00  0.00     0.010 A 
ATOM     61  C   UNL A   1      43.917  27.400  36.539  1.00  0.00     0.010 A 
ATOM     62  C   UNL A   1      46.579  28.237  36.337  1.00  0.00     0.020 A 
ATOM     63  C   UNL A   1      44.924  26.672  37.180  1.00  0.00     0.020 A 
ATOM     64  C   UNL A   1      46.252  27.084  37.056  1.00  0.00     0.054 A 
BRANCH  64  65
ATOM     65  S   UNL A   1      47.589  26.138  37.835  1.00  0.00     0.124 S 
ATOM     66  O   UNL A   1      46.855  25.038  38.458  1.00  0.00    -0.237 OA
ATOM     67  O   UNL A   1      48.426  25.768  36.697  1.00  0.00    -0.237 OA
ATOM     68  O   UNL A   1      48.191  27.090  38.765  1.00  0.00    -0.744 OA
ENDBRANCH  64  65
ENDBRANCH  45  59
BRANCH  46  69
ATOM     69  C   UNL A   1      36.722  33.086  30.992  1.00  0.00    -0.014 A 
ATOM     70  C   UNL A   1      35.399  32.862  31.408  1.00  0.00     0.010 A 
ATOM     71  C   UNL A   1      36.962  33.967  29.922  1.00  0.00     0.010 A 
ATOM     72  C   UNL A   1      34.335  33.503  30.764  1.00  0.00     0.020 A 
ATOM     73  C   UNL A   1      35.904  34.633  29.295  1.00  0.00     0.020 A 
ATOM     74  C   UNL A   1      34.596  34.390  29.717  1.00  0.00     0.054 A 
BRANCH  74  75
ATOM     75  S   UNL A   1      33.206  35.268  28.949  1.00  0.00     0.124 S 
ATOM     76  O   UNL A   1      32.409  35.653  30.109  1.00  0.00    -0.237 OA
ATOM     77  O   UNL A   1      33.874  36.362  28.249  1.00  0.00    -0.237 OA
ATOM     78  O   UNL A   1      32.602  34.259  28.080  1.00  0.00    -0.744 OA
ENDBRANCH  74  75
ENDBRANCH  46  69
BRANCH  58  79
ATOM     79  C   UNL A   1      39.746  34.041  37.219  1.00  0.00    -0.014 A 
ATOM     80  C   UNL A   1      38.980  33.704  38.349  1.00  0.00     0.010 A 
ATOM     81  C   UNL A   1      40.350  35.310  37.157  1.00  0.00     0.010 A 
ATOM     82  C   UNL A   1      38.797  34.628  39.381  1.00  0.00     0.020 A 
ATOM     83  C   UNL A   1      40.197  36.226  38.202  1.00  0.00     0.020 A 
ATOM     84  C   UNL A   1      39.409  35.883  39.302  1.00  0.00     0.054 A 
BRANCH  84  85
ATOM     85  S   UNL A   1      39.195  37.048  40.676  1.00  0.00     0.124 S 
ATOM     86  O   UNL A   1      40.568  37.473  40.929  1.00  0.00    -0.237 OA
ATOM     87  O   UNL A   1      38.318  38.065  40.099  1.00  0.00    -0.237 OA
ATOM     88  O   UNL A   1      38.590  36.236  41.729  1.00  0.00    -0.744 OA
ENDBRANCH  84  85
ENDBRANCH  58  79
ENDBRANCH  32  33
ENDBRANCH  24  27
ENDBRANCH  22  23
ENDBRANCH  21  22
ENDBRANCH   1  21
TORSDOF 19
ENDMDL
MODEL 2
REMARK VINA RESULT:     -10.7      3.445      4.453
REMARK SMILES O=C(/C=C/c1ccc(O)c(O)c1)NCCCCCCNC(=O)c1ccc(-c2c3nc(c(-c4ccc(S(=O)(=O)[O-])cc4)c4ccc([nH]4)c(-c4ccc(S(=O)(=O)[O-])cc4)c4nc(c(-c5ccc(S(=O)(=O)[O-])cc5)c5ccc2[nH]5)C=C4)C=C3)cc1
REMARK SMILES IDX 17 1 16 2 15 3 14 4 13 5 1 6 2 7 3 9 4 10 5 11 6 12 12 13
REMARK SMILES IDX 7 14 10 15 8 16 11 17 9 19 18 21 19 22 20 23 21 24 22 26
REMARK SMILES IDX 23 27 24 28 82 29 25 30 81 31 26 32 27 33 28 34 75 35 29 36
REMARK SMILES IDX 80 37 74 38 76 39 30 40 79 41 73 42 72 43 31 45 61 46 42 47
REMARK SMILES IDX 60 48 43 49 46 50 59 51 77 52 44 53 45 54 58 56 78 57 47 58
REMARK SMILES IDX 32 59 33 60 41 61 34 62 40 63 35 64 36 65 37 66 38 67 39 68
REMARK SMILES IDX 62 69 63 70 71 71 64 72 70 73 65 74 66 75 67 76 68 77 69 78
REMARK SMILES IDX 48 79 49 80 57 81 50 82 56 83 51 84 52 85 53 86 54 87 55 88
REMARK H PARENT 13 8 11 18 9 20 20 25 76 44 46 55
REMARK Flexibility Score: inf
ROOT
ATOM      1  C   UNL A   1      34.732  24.652  24.435  1.00  0.00     0.002 C 
ENDROOT
BRANCH   1   2
ATOM      2  C   UNL A   1      34.036  25.044  25.742  1.00  0.00     0.002 C 
BRANCH   2   3
ATOM      3  C   UNL A   1      32.561  25.447  25.607  1.00  0.00     0.021 C 
BRANCH   3   4
ATOM      4  C   UNL A   1      31.578  24.502  26.301  1.00  0.00     0.116 C 
BRANCH   4   5
ATOM      5  N   UNL A   1      32.030  23.126  26.241  1.00  0.00    -0.353 N 
ATOM      6  O   UNL A   1      31.352  22.724  24.084  1.00  0.00    -0.270 OA
ATOM      7  C   UNL A   1      31.830  22.335  25.145  1.00  0.00     0.243 C 
ATOM      8  H   UNL A   1      32.499  22.747  27.020  1.00  0.00     0.163 HD
BRANCH   7   9
ATOM      9  C   UNL A   1      32.256  20.916  25.264  1.00  0.00     0.072 C 
ATOM     10  C   UNL A   1      32.876  20.189  24.320  1.00  0.00     0.014 C 
BRANCH  10  11
ATOM     11  C   UNL A   1      33.349  18.817  24.556  1.00  0.00    -0.022 A 
ATOM     12  C   UNL A   1      34.710  18.472  24.490  1.00  0.00     0.012 A 
ATOM     13  C   UNL A   1      32.412  17.829  24.887  1.00  0.00     0.058 A 
ATOM     14  C   UNL A   1      35.129  17.155  24.713  1.00  0.00     0.051 A 
ATOM     15  C   UNL A   1      32.836  16.525  25.107  1.00  0.00     0.157 A 
ATOM     16  C   UNL A   1      34.182  16.186  25.017  1.00  0.00     0.157 A 
BRANCH  15  17
ATOM     17  O   UNL A   1      31.912  15.567  25.412  1.00  0.00    -0.504 OA
ATOM     18  H   UNL A   1      31.036  15.641  25.088  1.00  0.00     0.293 HD
ENDBRANCH  15  17
BRANCH  16  19
ATOM     19  O   UNL A   1      34.528  14.882  25.237  1.00  0.00    -0.504 OA
ATOM     20  H   UNL A   1      35.274  14.677  25.763  1.00  0.00     0.293 HD
ENDBRANCH  16  19
ENDBRANCH  10  11
ENDBRANCH   7   9
ENDBRANCH   4   5
ENDBRANCH   3   4
ENDBRANCH   2   3
ENDBRANCH   1   2
BRANCH   1  21
ATOM     21  C   UNL A   1      35.799  23.564  24.565  1.00  0.00     0.021 C 
BRANCH  21  22
ATOM     22  C   UNL A   1      36.461  23.473  25.936  1.00  0.00     0.116 C 
BRANCH  22  23
ATOM     23  N   UNL A   1      37.625  22.598  25.933  1.00  0.00    -0.352 N 
ATOM     24  C   UNL A   1      38.927  22.881  26.271  1.00  0.00     0.251 C 
ATOM     25  H   UNL A   1      37.455  21.672  25.649  1.00  0.00     0.163 HD
ATOM     26  O   UNL A   1      39.811  22.058  26.040  1.00  0.00    -0.269 OA
BRANCH  24  27
ATOM     27  C   UNL A   1      39.266  24.181  26.890  1.00  0.00     0.039 A 
ATOM     28  C   UNL A   1      38.872  24.428  28.208  1.00  0.00     0.014 A 
ATOM     29  C   UNL A   1      39.974  25.152  26.178  1.00  0.00     0.014 A 
ATOM     30  C   UNL A   1      39.246  25.622  28.830  1.00  0.00     0.010 A 
ATOM     31  C   UNL A   1      40.412  26.305  26.824  1.00  0.00     0.010 A 
ATOM     32  C   UNL A   1      40.051  26.554  28.157  1.00  0.00    -0.014 A 
BRANCH  32  33
ATOM     33  C   UNL A   1      40.534  27.788  28.831  1.00  0.00     0.031 A 
ATOM     34  C   UNL A   1      41.918  27.843  29.419  1.00  0.00     0.074 A 
ATOM     35  C   UNL A   1      39.701  28.840  28.971  1.00  0.00     0.049 A 
ATOM     36  N   UNL A   1      42.493  28.813  30.083  1.00  0.00    -0.248 NA
ATOM     37  C   UNL A   1      42.755  26.644  29.261  1.00  0.00     0.031 C 
ATOM     38  C   UNL A   1      38.321  28.898  28.484  1.00  0.00     0.029 A 
ATOM     39  N   UNL A   1      39.891  30.060  29.572  1.00  0.00    -0.354 N 
ATOM     40  C   UNL A   1      43.751  28.336  30.437  1.00  0.00     0.074 A 
ATOM     41  C   UNL A   1      43.832  26.972  29.960  1.00  0.00     0.031 C 
ATOM     42  C   UNL A   1      37.800  30.099  28.780  1.00  0.00     0.029 A 
ATOM     43  C   UNL A   1      38.789  30.880  29.517  1.00  0.00     0.049 A 
ATOM     44  H   UNL A   1      40.737  30.322  30.002  1.00  0.00     0.167 HD
ATOM     45  C   UNL A   1      44.754  28.978  31.082  1.00  0.00     0.031 A 
ATOM     46  C   UNL A   1      38.588  32.117  30.012  1.00  0.00     0.031 A 
ATOM     47  C   UNL A   1      44.667  30.334  31.558  1.00  0.00     0.049 A 
ATOM     48  C   UNL A   1      39.707  32.806  30.743  1.00  0.00     0.074 A 
ATOM     49  C   UNL A   1      45.645  31.093  32.177  1.00  0.00     0.029 A 
ATOM     50  N   UNL A   1      43.534  31.131  31.480  1.00  0.00    -0.354 N 
ATOM     51  N   UNL A   1      40.915  32.364  31.004  1.00  0.00    -0.248 NA
ATOM     52  C   UNL A   1      39.441  34.164  31.235  1.00  0.00     0.031 C 
ATOM     53  C   UNL A   1      45.085  32.325  32.529  1.00  0.00     0.029 A 
ATOM     54  C   UNL A   1      43.778  32.362  32.067  1.00  0.00     0.049 A 
ATOM     55  H   UNL A   1      42.681  30.862  31.068  1.00  0.00     0.167 HD
ATOM     56  C   UNL A   1      41.563  33.401  31.666  1.00  0.00     0.074 A 
ATOM     57  C   UNL A   1      40.617  34.496  31.753  1.00  0.00     0.031 C 
ATOM     58  C   UNL A   1      42.827  33.443  32.155  1.00  0.00     0.031 A 
BRANCH  45  59
ATOM     59  C   UNL A   1      46.028  28.209  31.327  1.00  0.00    -0.014 A 
ATOM     60  C   UNL A   1      46.232  27.492  32.522  1.00  0.00     0.010 A 
ATOM     61  C   UNL A   1      47.032  28.186  30.341  1.00  0.00     0.010 A 
ATOM     62  C   UNL A   1      47.435  26.818  32.748  1.00  0.00     0.020 A 
ATOM     63  C   UNL A   1      48.222  27.484  30.549  1.00  0.00     0.020 A 
ATOM     64  C   UNL A   1      48.426  26.824  31.762  1.00  0.00     0.054 A 
BRANCH  64  65
ATOM     65  S   UNL A   1      49.978  25.943  32.086  1.00  0.00     0.124 S 
ATOM     66  O   UNL A   1      50.781  26.977  32.733  1.00  0.00    -0.237 OA
ATOM     67  O   UNL A   1      49.549  24.847  32.952  1.00  0.00    -0.237 OA
ATOM     68  O   UNL A   1      50.433  25.542  30.757  1.00  0.00    -0.744 OA
ENDBRANCH  64  65
ENDBRANCH  45  59
BRANCH  46  69
ATOM     69  C   UNL A   1      37.272  32.785  29.812  1.00  0.00    -0.014 A 
ATOM     70  C   UNL A   1      36.289  32.744  30.815  1.00  0.00     0.010 A 
ATOM     71  C   UNL A   1      37.010  33.500  28.628  1.00  0.00     0.010 A 
ATOM     72  C   UNL A   1      35.066  33.401  30.637  1.00  0.00     0.020 A 
ATOM     73  C   UNL A   1      35.802  34.182  28.459  1.00  0.00     0.020 A 
ATOM     74  C   UNL A   1      34.835  34.122  29.464  1.00  0.00     0.054 A 
BRANCH  74  75
ATOM     75  S   UNL A   1      33.273  35.029  29.289  1.00  0.00     0.124 S 
ATOM     76  O   UNL A   1      33.727  36.332  28.815  1.00  0.00    -0.237 OA
ATOM     77  O   UNL A   1      32.547  34.218  28.314  1.00  0.00    -0.237 OA
ATOM     78  O   UNL A   1      32.714  35.013  30.640  1.00  0.00    -0.744 OA
ENDBRANCH  74  75
ENDBRANCH  46  69
BRANCH  58  79
ATOM     79  C   UNL A   1      43.283  34.727  32.799  1.00  0.00    -0.014 A 
ATOM     80  C   UNL A   1      43.820  35.780  32.038  1.00  0.00     0.010 A 
ATOM     81  C   UNL A   1      43.115  34.902  34.185  1.00  0.00     0.010 A 
ATOM     82  C   UNL A   1      44.210  36.972  32.655  1.00  0.00     0.020 A 
ATOM     83  C   UNL A   1      43.473  36.104  34.802  1.00  0.00     0.020 A 
ATOM     84  C   UNL A   1      44.032  37.127  34.033  1.00  0.00     0.054 A 
BRANCH  84  85
ATOM     85  S   UNL A   1      44.502  38.701  34.803  1.00  0.00     0.124 S 
ATOM     86  O   UNL A   1      43.779  39.668  33.982  1.00  0.00    -0.237 OA
ATOM     87  O   UNL A   1      44.011  38.547  36.171  1.00  0.00    -0.237 OA
ATOM     88  O   UNL A   1      45.956  38.734  34.669  1.00  0.00    -0.744 OA
ENDBRANCH  84  85
ENDBRANCH  58  79
ENDBRANCH  32  33
ENDBRANCH  24  27
ENDBRANCH  22  23
ENDBRANCH  21  22
ENDBRANCH   1  21
TORSDOF 19
ENDMDL
MODEL 3
REMARK VINA RESULT:     -10.6      7.354     13.386
REMARK SMILES O=C(/C=C/c1ccc(O)c(O)c1)NCCCCCCNC(=O)c1ccc(-c2c3nc(c(-c4ccc(S(=O)(=O)[O-])cc4)c4ccc([nH]4)c(-c4ccc(S(=O)(=O)[O-])cc4)c4nc(c(-c5ccc(S(=O)(=O)[O-])cc5)c5ccc2[nH]5)C=C4)C=C3)cc1
REMARK SMILES IDX 17 1 16 2 15 3 14 4 13 5 1 6 2 7 3 9 4 10 5 11 6 12 12 13
REMARK SMILES IDX 7 14 10 15 8 16 11 17 9 19 18 21 19 22 20 23 21 24 22 26
REMARK SMILES IDX 23 27 24 28 82 29 25 30 81 31 26 32 27 33 28 34 75 35 29 36
REMARK SMILES IDX 80 37 74 38 76 39 30 40 79 41 73 42 72 43 31 45 61 46 42 47
REMARK SMILES IDX 60 48 43 49 46 50 59 51 77 52 44 53 45 54 58 56 78 57 47 58
REMARK SMILES IDX 32 59 33 60 41 61 34 62 40 63 35 64 36 65 37 66 38 67 39 68
REMARK SMILES IDX 62 69 63 70 71 71 64 72 70 73 65 74 66 75 67 76 68 77 69 78
REMARK SMILES IDX 48 79 49 80 57 81 50 82 56 83 51 84 52 85 53 86 54 87 55 88
REMARK H PARENT 13 8 11 18 9 20 20 25 76 44 46 55
REMARK Flexibility Score: inf
ROOT
ATOM      1  C   UNL A   1      33.316  28.188  26.220  1.00  0.00     0.002 C 
ENDROOT
BRANCH   1   2
ATOM      2  C   UNL A   1      31.942  27.859  26.811  1.00  0.00     0.002 C 
BRANCH   2   3
ATOM      3  C   UNL A   1      31.541  26.378  26.758  1.00  0.00     0.021 C 
BRANCH   3   4
ATOM      4  C   UNL A   1      31.179  25.866  25.363  1.00  0.00     0.116 C 
BRANCH   4   5
ATOM      5  N   UNL A   1      30.459  26.866  24.599  1.00  0.00    -0.353 N 
ATOM      6  O   UNL A   1      31.821  26.815  22.752  1.00  0.00    -0.270 OA
ATOM      7  C   UNL A   1      30.876  27.293  23.370  1.00  0.00     0.243 C 
ATOM      8  H   UNL A   1      29.637  27.253  24.981  1.00  0.00     0.163 HD
BRANCH   7   9
ATOM      9  C   UNL A   1      30.096  28.396  22.750  1.00  0.00     0.072 C 
ATOM     10  C   UNL A   1      29.925  29.630  23.253  1.00  0.00     0.014 C 
BRANCH  10  11
ATOM     11  C   UNL A   1      29.216  30.693  22.525  1.00  0.00    -0.022 A 
ATOM     12  C   UNL A   1      28.621  30.473  21.271  1.00  0.00     0.012 A 
ATOM     13  C   UNL A   1      29.108  31.958  23.117  1.00  0.00     0.058 A 
ATOM     14  C   UNL A   1      27.958  31.507  20.599  1.00  0.00     0.051 A 
ATOM     15  C   UNL A   1      28.449  32.978  22.444  1.00  0.00     0.157 A 
ATOM     16  C   UNL A   1      27.882  32.760  21.193  1.00  0.00     0.157 A 
BRANCH  15  17
ATOM     17  O   UNL A   1      28.364  34.212  23.024  1.00  0.00    -0.504 OA
ATOM     18  H   UNL A   1      29.094  34.558  23.499  1.00  0.00     0.293 HD
ENDBRANCH  15  17
BRANCH  16  19
ATOM     19  O   UNL A   1      27.256  33.812  20.583  1.00  0.00    -0.504 OA
ATOM     20  H   UNL A   1      26.632  34.324  21.057  1.00  0.00     0.293 HD
ENDBRANCH  16  19
ENDBRANCH  10  11
ENDBRANCH   7   9
ENDBRANCH   4   5
ENDBRANCH   3   4
ENDBRANCH   2   3
ENDBRANCH   1   2
BRANCH   1  21
ATOM     21  C   UNL A   1      33.978  29.451  26.773  1.00  0.00     0.021 C 
BRANCH  21  22
ATOM     22  C   UNL A   1      35.218  29.207  27.628  1.00  0.00     0.116 C 
BRANCH  22  23
ATOM     23  N   UNL A   1      35.287  30.101  28.775  1.00  0.00    -0.352 N 
ATOM     24  C   UNL A   1      36.344  30.363  29.611  1.00  0.00     0.251 C 
ATOM     25  H   UNL A   1      34.456  30.587  28.980  1.00  0.00     0.163 HD
ATOM     26  O   UNL A   1      36.166  31.019  30.636  1.00  0.00    -0.269 OA
BRANCH  24  27
ATOM     27  C   UNL A   1      37.690  29.839  29.291  1.00  0.00     0.039 A 
ATOM     28  C   UNL A   1      38.129  29.865  27.964  1.00  0.00     0.014 A 
ATOM     29  C   UNL A   1      38.519  29.328  30.293  1.00  0.00     0.014 A 
ATOM     30  C   UNL A   1      39.424  29.439  27.656  1.00  0.00     0.010 A 
ATOM     31  C   UNL A   1      39.834  28.979  29.995  1.00  0.00     0.010 A 
ATOM     32  C   UNL A   1      40.300  29.028  28.673  1.00  0.00    -0.014 A 
BRANCH  32  33
ATOM     33  C   UNL A   1      41.710  28.657  28.376  1.00  0.00     0.031 A 
ATOM     34  C   UNL A   1      42.785  29.708  28.352  1.00  0.00     0.074 A 
ATOM     35  C   UNL A   1      42.011  27.379  28.065  1.00  0.00     0.049 A 
ATOM     36  N   UNL A   1      44.056  29.581  28.067  1.00  0.00    -0.248 NA
ATOM     37  C   UNL A   1      42.375  31.086  28.663  1.00  0.00     0.031 C 
ATOM     38  C   UNL A   1      41.052  26.273  28.012  1.00  0.00     0.029 A 
ATOM     39  N   UNL A   1      43.207  26.798  27.726  1.00  0.00    -0.354 N 
ATOM     40  C   UNL A   1      44.593  30.861  28.149  1.00  0.00     0.074 A 
ATOM     41  C   UNL A   1      43.498  31.757  28.456  1.00  0.00     0.031 C 
ATOM     42  C   UNL A   1      41.702  25.143  27.690  1.00  0.00     0.029 A 
ATOM     43  C   UNL A   1      43.112  25.450  27.468  1.00  0.00     0.049 A 
ATOM     44  H   UNL A   1      44.053  27.298  27.673  1.00  0.00     0.167 HD
ATOM     45  C   UNL A   1      45.881  31.255  28.001  1.00  0.00     0.031 A 
ATOM     46  C   UNL A   1      44.048  24.560  27.085  1.00  0.00     0.031 A 
ATOM     47  C   UNL A   1      46.966  30.360  27.690  1.00  0.00     0.049 A 
ATOM     48  C   UNL A   1      45.468  25.020  26.906  1.00  0.00     0.074 A 
ATOM     49  C   UNL A   1      48.314  30.652  27.572  1.00  0.00     0.029 A 
ATOM     50  N   UNL A   1      46.828  29.003  27.439  1.00  0.00    -0.354 N 
ATOM     51  N   UNL A   1      45.970  26.224  27.058  1.00  0.00    -0.248 NA
ATOM     52  C   UNL A   1      46.452  24.001  26.516  1.00  0.00     0.031 C 
ATOM     53  C   UNL A   1      48.981  29.485  27.187  1.00  0.00     0.029 A 
ATOM     54  C   UNL A   1      48.060  28.449  27.135  1.00  0.00     0.049 A 
ATOM     55  H   UNL A   1      45.978  28.506  27.472  1.00  0.00     0.167 HD
ATOM     56  C   UNL A   1      47.333  26.101  26.810  1.00  0.00     0.074 A 
ATOM     57  C   UNL A   1      47.578  24.704  26.511  1.00  0.00     0.031 C 
ATOM     58  C   UNL A   1      48.293  27.058  26.832  1.00  0.00     0.031 A 
BRANCH  45  59
ATOM     59  C   UNL A   1      46.180  32.725  28.154  1.00  0.00    -0.014 A 
ATOM     60  C   UNL A   1      46.487  33.283  29.410  1.00  0.00     0.010 A 
ATOM     61  C   UNL A   1      46.171  33.562  27.023  1.00  0.00     0.010 A 
ATOM     62  C   UNL A   1      46.722  34.654  29.539  1.00  0.00     0.020 A 
ATOM     63  C   UNL A   1      46.439  34.929  27.142  1.00  0.00     0.020 A 
ATOM     64  C   UNL A   1      46.690  35.470  28.404  1.00  0.00     0.054 A 
BRANCH  64  65
ATOM     65  S   UNL A   1      46.996  37.247  28.604  1.00  0.00     0.124 S 
ATOM     66  O   UNL A   1      46.571  37.471  29.984  1.00  0.00    -0.237 OA
ATOM     67  O   UNL A   1      48.433  37.353  28.365  1.00  0.00    -0.237 OA
ATOM     68  O   UNL A   1      46.150  37.861  27.584  1.00  0.00    -0.744 OA
ENDBRANCH  64  65
ENDBRANCH  45  59
BRANCH  46  69
ATOM     69  C   UNL A   1      43.665  23.138  26.863  1.00  0.00    -0.014 A 
ATOM     70  C   UNL A   1      42.997  22.412  27.864  1.00  0.00     0.010 A 
ATOM     71  C   UNL A   1      43.934  22.514  25.630  1.00  0.00     0.010 A 
ATOM     72  C   UNL A   1      42.608  21.087  27.639  1.00  0.00     0.020 A 
ATOM     73  C   UNL A   1      43.521  21.199  25.392  1.00  0.00     0.020 A 
ATOM     74  C   UNL A   1      42.867  20.493  26.401  1.00  0.00     0.054 A 
BRANCH  74  75
ATOM     75  S   UNL A   1      42.285  18.799  26.108  1.00  0.00     0.124 S 
ATOM     76  O   UNL A   1      43.170  18.354  25.036  1.00  0.00    -0.237 OA
ATOM     77  O   UNL A   1      42.497  18.165  27.407  1.00  0.00    -0.237 OA
ATOM     78  O   UNL A   1      40.885  18.977  25.731  1.00  0.00    -0.744 OA
ENDBRANCH  74  75
ENDBRANCH  46  69
BRANCH  58  79
ATOM     79  C   UNL A   1      49.711  26.628  26.559  1.00  0.00    -0.014 A 
ATOM     80  C   UNL A   1      50.263  26.695  25.267  1.00  0.00     0.010 A 
ATOM     81  C   UNL A   1      50.522  26.203  27.627  1.00  0.00     0.010 A 
ATOM     82  C   UNL A   1      51.590  26.316  25.045  1.00  0.00     0.020 A 
ATOM     83  C   UNL A   1      51.859  25.854  27.415  1.00  0.00     0.020 A 
ATOM     84  C   UNL A   1      52.380  25.900  26.120  1.00  0.00     0.054 A 
BRANCH  84  85
ATOM     85  S   UNL A   1      54.113  25.458  25.813  1.00  0.00     0.124 S 
ATOM     86  O   UNL A   1      54.579  26.593  25.022  1.00  0.00    -0.237 OA
ATOM     87  O   UNL A   1      54.663  25.364  27.163  1.00  0.00    -0.237 OA
ATOM     88  O   UNL A   1      54.026  24.191  25.091  1.00  0.00    -0.744 OA
ENDBRANCH  84  85
ENDBRANCH  58  79
ENDBRANCH  32  33
ENDBRANCH  24  27
ENDBRANCH  22  23
ENDBRANCH  21  22
ENDBRANCH   1  21
TORSDOF 19
ENDMDL
