MODEL 1
REMARK VINA RESULT:     -10.0      0.000      0.000
REMARK SMILES [NH3+][C@H](CC1=c2cccc(O)c2=NC1)C(=O)NCCCCCCNC(=O)c1ccc(-c2c3nc(c(-c4ccc(S(=O)(=O)[O-])cc4)c4ccc([nH]4)c(-c4ccc(S(=O)(=O)[O-])cc4)c4nc(c(-c5ccc(S(=O)(=O)[O-])cc5)c5ccc2[nH]5)C=C4)C=C3)cc1
REMARK SMILES IDX 19 1 18 2 17 3 16 4 14 5 15 6 2 8 1 9 3 13 4 14 5 15 13 16
REMARK SMILES IDX 6 17 11 18 12 19 7 20 9 21 8 22 10 23 20 25 21 26 22 27
REMARK SMILES IDX 23 28 24 29 25 31 26 32 27 33 85 34 28 35 84 36 29 37 30 38
REMARK SMILES IDX 31 39 78 40 32 41 83 42 77 43 79 44 33 45 82 46 76 47 75 48
REMARK SMILES IDX 34 50 64 51 45 52 63 53 46 54 49 55 62 56 80 57 47 58 48 59
REMARK SMILES IDX 61 61 81 62 50 63 35 64 36 65 44 66 37 67 43 68 38 69 39 70
REMARK SMILES IDX 40 71 41 72 42 73 65 74 66 75 74 76 67 77 73 78 68 79 69 80
REMARK SMILES IDX 70 81 71 82 72 83 51 84 52 85 60 86 53 87 59 88 54 89 55 90
REMARK SMILES IDX 56 91 57 92 58 93
REMARK H PARENT 16 7 1 10 1 11 1 12 10 24 23 30 79 49 49 60
REMARK Flexibility Score: inf
ROOT
ATOM      1  C   UNL A   1      34.140  25.503  25.391  1.00  0.00     0.002 C 
ENDROOT
BRANCH   1   2
ATOM      2  C   UNL A   1      33.650  26.856  24.854  1.00  0.00     0.021 C 
BRANCH   2   3
ATOM      3  C   UNL A   1      32.206  27.170  25.252  1.00  0.00     0.116 C 
BRANCH   3   4
ATOM      4  N   UNL A   1      31.442  27.518  24.070  1.00  0.00    -0.351 N 
ATOM      5  C   UNL A   1      31.247  26.855  22.895  1.00  0.00     0.278 C 
ATOM      6  O   UNL A   1      30.776  27.497  21.953  1.00  0.00    -0.268 OA
ATOM      7  H   UNL A   1      30.983  28.387  24.126  1.00  0.00     0.163 HD
BRANCH   5   8
ATOM      8  C   UNL A   1      31.533  25.344  22.764  1.00  0.00     0.275 C 
BRANCH   8   9
ATOM      9  N   UNL A   1      31.884  25.068  21.353  1.00  0.00    -0.347 N 
ATOM     10  H   UNL A   1      32.790  25.486  21.139  1.00  0.00     0.345 HD
ATOM     11  H   UNL A   1      31.173  25.470  20.741  1.00  0.00     0.345 HD
ATOM     12  H   UNL A   1      31.931  24.060  21.205  1.00  0.00     0.345 HD
ENDBRANCH   8   9
BRANCH   8  13
ATOM     13  C   UNL A   1      30.445  24.446  23.402  1.00  0.00     0.109 C 
BRANCH  13  14
ATOM     14  C   UNL A   1      30.960  23.550  24.489  1.00  0.00    -0.033 C 
ATOM     15  C   UNL A   1      31.660  22.423  24.378  1.00  0.00     0.005 A 
ATOM     16  C   UNL A   1      30.759  23.899  25.931  1.00  0.00     0.175 C 
ATOM     17  C   UNL A   1      32.122  21.630  23.283  1.00  0.00     0.010 A 
ATOM     18  C   UNL A   1      32.056  22.140  25.771  1.00  0.00     0.107 A 
ATOM     19  N   UNL A   1      31.566  22.920  26.690  1.00  0.00    -0.276 NA
ATOM     20  C   UNL A   1      32.996  20.641  23.523  1.00  0.00     0.005 A 
ATOM     21  C   UNL A   1      33.034  21.021  25.957  1.00  0.00     0.141 A 
ATOM     22  C   UNL A   1      33.466  20.357  24.868  1.00  0.00     0.048 A 
BRANCH  21  23
ATOM     23  O   UNL A   1      33.493  20.753  27.230  1.00  0.00    -0.506 OA
ATOM     24  H   UNL A   1      33.738  21.457  27.797  1.00  0.00     0.293 HD
ENDBRANCH  21  23
ENDBRANCH  13  14
ENDBRANCH   8  13
ENDBRANCH   5   8
ENDBRANCH   3   4
ENDBRANCH   2   3
ENDBRANCH   1   2
BRANCH   1  25
ATOM     25  C   UNL A   1      34.576  24.510  24.308  1.00  0.00     0.002 C 
BRANCH  25  26
ATOM     26  C   UNL A   1      35.550  23.432  24.790  1.00  0.00     0.021 C 
BRANCH  26  27
ATOM     27  C   UNL A   1      36.931  23.961  25.159  1.00  0.00     0.116 C 
BRANCH  27  28
ATOM     28  N   UNL A   1      37.854  22.879  25.463  1.00  0.00    -0.352 N 
ATOM     29  C   UNL A   1      39.064  22.951  26.106  1.00  0.00     0.251 C 
ATOM     30  H   UNL A   1      37.576  21.981  25.170  1.00  0.00     0.163 HD
ATOM     31  O   UNL A   1      39.835  21.997  26.105  1.00  0.00    -0.269 OA
BRANCH  29  32
ATOM     32  C   UNL A   1      39.426  24.207  26.789  1.00  0.00     0.039 A 
ATOM     33  C   UNL A   1      39.031  24.403  28.113  1.00  0.00     0.014 A 
ATOM     34  C   UNL A   1      40.183  25.172  26.115  1.00  0.00     0.014 A 
ATOM     35  C   UNL A   1      39.438  25.556  28.784  1.00  0.00     0.010 A 
ATOM     36  C   UNL A   1      40.622  26.300  26.799  1.00  0.00     0.010 A 
ATOM     37  C   UNL A   1      40.252  26.500  28.138  1.00  0.00    -0.014 A 
BRANCH  37  38
ATOM     38  C   UNL A   1      40.705  27.726  28.834  1.00  0.00     0.031 A 
ATOM     39  C   UNL A   1      42.105  27.795  29.374  1.00  0.00     0.074 A 
ATOM     40  C   UNL A   1      39.852  28.754  29.008  1.00  0.00     0.049 A 
ATOM     41  N   UNL A   1      42.667  28.745  30.074  1.00  0.00    -0.248 NA
ATOM     42  C   UNL A   1      42.985  26.645  29.102  1.00  0.00     0.031 C 
ATOM     43  C   UNL A   1      38.472  28.806  28.520  1.00  0.00     0.029 A 
ATOM     44  N   UNL A   1      40.025  29.959  29.641  1.00  0.00    -0.354 N 
ATOM     45  C   UNL A   1      43.962  28.310  30.325  1.00  0.00     0.074 A 
ATOM     46  C   UNL A   1      44.095  26.995  29.738  1.00  0.00     0.031 C 
ATOM     47  C   UNL A   1      37.935  29.994  28.845  1.00  0.00     0.029 A 
ATOM     48  C   UNL A   1      38.917  30.772  29.594  1.00  0.00     0.049 A 
ATOM     49  H   UNL A   1      40.864  30.218  30.087  1.00  0.00     0.167 HD
ATOM     50  C   UNL A   1      44.957  28.959  30.971  1.00  0.00     0.031 A 
ATOM     51  C   UNL A   1      38.716  32.005  30.099  1.00  0.00     0.031 A 
ATOM     52  C   UNL A   1      44.831  30.272  31.540  1.00  0.00     0.049 A 
ATOM     53  C   UNL A   1      39.827  32.682  30.854  1.00  0.00     0.074 A 
ATOM     54  C   UNL A   1      45.793  31.013  32.204  1.00  0.00     0.029 A 
ATOM     55  N   UNL A   1      43.683  31.044  31.499  1.00  0.00    -0.354 N 
ATOM     56  N   UNL A   1      41.041  32.247  31.093  1.00  0.00    -0.248 NA
ATOM     57  C   UNL A   1      39.543  34.015  31.406  1.00  0.00     0.031 C 
ATOM     58  C   UNL A   1      45.217  32.225  32.592  1.00  0.00     0.029 A 
ATOM     59  C   UNL A   1      43.911  32.254  32.129  1.00  0.00     0.049 A 
ATOM     60  H   UNL A   1      42.833  30.774  31.083  1.00  0.00     0.167 HD
ATOM     61  C   UNL A   1      41.676  33.268  31.791  1.00  0.00     0.074 A 
ATOM     62  C   UNL A   1      40.713  34.339  31.942  1.00  0.00     0.031 C 
ATOM     63  C   UNL A   1      42.946  33.314  32.258  1.00  0.00     0.031 A 
BRANCH  50  64
ATOM     64  C   UNL A   1      46.290  28.275  31.085  1.00  0.00    -0.014 A 
ATOM     65  C   UNL A   1      46.510  27.313  32.086  1.00  0.00     0.010 A 
ATOM     66  C   UNL A   1      47.282  28.505  30.115  1.00  0.00     0.010 A 
ATOM     67  C   UNL A   1      47.702  26.585  32.110  1.00  0.00     0.020 A 
ATOM     68  C   UNL A   1      48.468  27.766  30.127  1.00  0.00     0.020 A 
ATOM     69  C   UNL A   1      48.667  26.807  31.123  1.00  0.00     0.054 A 
BRANCH  69  70
ATOM     70  S   UNL A   1      50.167  25.788  31.140  1.00  0.00     0.124 S 
ATOM     71  O   UNL A   1      49.942  24.934  32.305  1.00  0.00    -0.237 OA
ATOM     72  O   UNL A   1      50.104  25.115  29.846  1.00  0.00    -0.237 OA
ATOM     73  O   UNL A   1      51.247  26.761  31.287  1.00  0.00    -0.744 OA
ENDBRANCH  69  70
ENDBRANCH  50  64
BRANCH  51  74
ATOM     74  C   UNL A   1      37.420  32.698  29.878  1.00  0.00    -0.014 A 
ATOM     75  C   UNL A   1      37.205  33.427  28.695  1.00  0.00     0.010 A 
ATOM     76  C   UNL A   1      36.396  32.629  30.838  1.00  0.00     0.010 A 
ATOM     77  C   UNL A   1      35.991  34.085  28.481  1.00  0.00     0.020 A 
ATOM     78  C   UNL A   1      35.173  33.269  30.619  1.00  0.00     0.020 A 
ATOM     79  C   UNL A   1      34.980  33.997  29.442  1.00  0.00     0.054 A 
BRANCH  79  80
ATOM     80  S   UNL A   1      33.402  34.833  29.121  1.00  0.00     0.124 S 
ATOM     81  O   UNL A   1      32.786  34.845  30.443  1.00  0.00    -0.237 OA
ATOM     82  O   UNL A   1      33.840  36.130  28.612  1.00  0.00    -0.237 OA
ATOM     83  O   UNL A   1      32.751  33.971  28.136  1.00  0.00    -0.744 OA
ENDBRANCH  79  80
ENDBRANCH  51  74
BRANCH  63  84
ATOM     84  C   UNL A   1      43.401  34.574  32.937  1.00  0.00    -0.014 A 
ATOM     85  C   UNL A   1      43.340  34.705  34.334  1.00  0.00     0.010 A 
ATOM     86  C   UNL A   1      44.000  35.590  32.171  1.00  0.00     0.010 A 
ATOM     87  C   UNL A   1      43.869  35.840  34.955  1.00  0.00     0.020 A 
ATOM     88  C   UNL A   1      44.548  36.716  32.790  1.00  0.00     0.020 A 
ATOM     89  C   UNL A   1      44.478  36.833  34.179  1.00  0.00     0.054 A 
BRANCH  89  90
ATOM     90  S   UNL A   1      45.210  38.263  35.023  1.00  0.00     0.124 S 
ATOM     91  O   UNL A   1      45.912  37.634  36.138  1.00  0.00    -0.237 OA
ATOM     92  O   UNL A   1      46.064  38.835  33.985  1.00  0.00    -0.237 OA
ATOM     93  O   UNL A   1      44.055  39.076  35.395  1.00  0.00    -0.744 OA
ENDBRANCH  89  90
ENDBRANCH  63  84
ENDBRANCH  37  38
ENDBRANCH  29  32
ENDBRANCH  27  28
ENDBRANCH  26  27
ENDBRANCH  25  26
ENDBRANCH   1  25
TORSDOF 20
ENDMDL
MODEL 2
REMARK VINA RESULT:     -10.0      2.569      8.842
REMARK SMILES [NH3+][C@H](CC1=c2cccc(O)c2=NC1)C(=O)NCCCCCCNC(=O)c1ccc(-c2c3nc(c(-c4ccc(S(=O)(=O)[O-])cc4)c4ccc([nH]4)c(-c4ccc(S(=O)(=O)[O-])cc4)c4nc(c(-c5ccc(S(=O)(=O)[O-])cc5)c5ccc2[nH]5)C=C4)C=C3)cc1
REMARK SMILES IDX 19 1 18 2 17 3 16 4 14 5 15 6 2 8 1 9 3 13 4 14 5 15 13 16
REMARK SMILES IDX 6 17 11 18 12 19 7 20 9 21 8 22 10 23 20 25 21 26 22 27
REMARK SMILES IDX 23 28 24 29 25 31 26 32 27 33 85 34 28 35 84 36 29 37 30 38
REMARK SMILES IDX 31 39 78 40 32 41 83 42 77 43 79 44 33 45 82 46 76 47 75 48
REMARK SMILES IDX 34 50 64 51 45 52 63 53 46 54 49 55 62 56 80 57 47 58 48 59
REMARK SMILES IDX 61 61 81 62 50 63 35 64 36 65 44 66 37 67 43 68 38 69 39 70
REMARK SMILES IDX 40 71 41 72 42 73 65 74 66 75 74 76 67 77 73 78 68 79 69 80
REMARK SMILES IDX 70 81 71 82 72 83 51 84 52 85 60 86 53 87 59 88 54 89 55 90
REMARK SMILES IDX 56 91 57 92 58 93
REMARK H PARENT 16 7 1 10 1 11 1 12 10 24 23 30 79 49 49 60
REMARK Flexibility Score: inf
ROOT
ATOM      1  C   UNL A   1      31.391  28.900  24.854  1.00  0.00     0.002 C 
ENDROOT
BRANCH   1   2
ATOM      2  C   UNL A   1      30.923  27.728  23.979  1.00  0.00     0.021 C 
BRANCH   2   3
ATOM      3  C   UNL A   1      29.977  26.775  24.713  1.00  0.00     0.116 C 
BRANCH   3   4
ATOM      4  N   UNL A   1      29.926  25.507  24.013  1.00  0.00    -0.351 N 
ATOM      5  C   UNL A   1      30.525  24.310  24.272  1.00  0.00     0.278 C 
ATOM      6  O   UNL A   1      30.530  23.471  23.366  1.00  0.00    -0.268 OA
ATOM      7  H   UNL A   1      29.360  25.511  23.208  1.00  0.00     0.163 HD
BRANCH   5   8
ATOM      8  C   UNL A   1      31.110  23.983  25.662  1.00  0.00     0.275 C 
BRANCH   8   9
ATOM      9  N   UNL A   1      30.006  24.045  26.645  1.00  0.00    -0.347 N 
ATOM     10  H   UNL A   1      29.456  23.187  26.595  1.00  0.00     0.345 HD
ATOM     11  H   UNL A   1      29.407  24.844  26.435  1.00  0.00     0.345 HD
ATOM     12  H   UNL A   1      30.392  24.147  27.584  1.00  0.00     0.345 HD
ENDBRANCH   8   9
BRANCH   8  13
ATOM     13  C   UNL A   1      32.393  24.779  26.001  1.00  0.00     0.109 C 
BRANCH  13  14
ATOM     14  C   UNL A   1      33.515  24.563  25.029  1.00  0.00    -0.033 C 
ATOM     15  C   UNL A   1      34.547  23.726  25.119  1.00  0.00     0.005 A 
ATOM     16  C   UNL A   1      33.554  25.300  23.726  1.00  0.00     0.175 C 
ATOM     17  C   UNL A   1      35.014  22.810  26.111  1.00  0.00     0.010 A 
ATOM     18  C   UNL A   1      35.158  23.809  23.779  1.00  0.00     0.107 A 
ATOM     19  N   UNL A   1      34.660  24.687  22.960  1.00  0.00    -0.276 NA
ATOM     20  C   UNL A   1      35.994  21.953  25.790  1.00  0.00     0.005 A 
ATOM     21  C   UNL A   1      36.247  22.819  23.497  1.00  0.00     0.141 A 
ATOM     22  C   UNL A   1      36.592  21.950  24.466  1.00  0.00     0.048 A 
BRANCH  21  23
ATOM     23  O   UNL A   1      36.811  22.803  22.239  1.00  0.00    -0.506 OA
ATOM     24  H   UNL A   1      37.715  23.025  22.129  1.00  0.00     0.293 HD
ENDBRANCH  21  23
ENDBRANCH  13  14
ENDBRANCH   8  13
ENDBRANCH   5   8
ENDBRANCH   3   4
ENDBRANCH   2   3
ENDBRANCH   1   2
BRANCH   1  25
ATOM     25  C   UNL A   1      32.897  29.179  24.789  1.00  0.00     0.002 C 
BRANCH  25  26
ATOM     26  C   UNL A   1      33.759  28.206  25.597  1.00  0.00     0.021 C 
BRANCH  26  27
ATOM     27  C   UNL A   1      33.713  28.438  27.104  1.00  0.00     0.116 C 
BRANCH  27  28
ATOM     28  N   UNL A   1      33.547  29.848  27.421  1.00  0.00    -0.352 N 
ATOM     29  C   UNL A   1      34.414  30.674  28.090  1.00  0.00     0.251 C 
ATOM     30  H   UNL A   1      32.706  30.261  27.120  1.00  0.00     0.163 HD
ATOM     31  O   UNL A   1      34.056  31.782  28.475  1.00  0.00    -0.269 OA
BRANCH  29  32
ATOM     32  C   UNL A   1      35.786  30.198  28.346  1.00  0.00     0.039 A 
ATOM     33  C   UNL A   1      36.750  30.321  27.346  1.00  0.00     0.014 A 
ATOM     34  C   UNL A   1      36.111  29.657  29.596  1.00  0.00     0.014 A 
ATOM     35  C   UNL A   1      38.066  29.942  27.615  1.00  0.00     0.010 A 
ATOM     36  C   UNL A   1      37.431  29.319  29.874  1.00  0.00     0.010 A 
ATOM     37  C   UNL A   1      38.417  29.458  28.885  1.00  0.00    -0.014 A 
BRANCH  37  38
ATOM     38  C   UNL A   1      39.809  29.059  29.196  1.00  0.00     0.031 A 
ATOM     39  C   UNL A   1      40.718  30.031  29.893  1.00  0.00     0.074 A 
ATOM     40  C   UNL A   1      40.260  27.846  28.823  1.00  0.00     0.049 A 
ATOM     41  N   UNL A   1      41.985  29.902  30.187  1.00  0.00    -0.248 NA
ATOM     42  C   UNL A   1      40.132  31.319  30.304  1.00  0.00     0.031 C 
ATOM     43  C   UNL A   1      39.467  26.816  28.149  1.00  0.00     0.029 A 
ATOM     44  N   UNL A   1      41.498  27.273  28.964  1.00  0.00    -0.354 N 
ATOM     45  C   UNL A   1      42.347  31.086  30.816  1.00  0.00     0.074 A 
ATOM     46  C   UNL A   1      41.180  31.940  30.829  1.00  0.00     0.031 C 
ATOM     47  C   UNL A   1      40.230  25.725  27.964  1.00  0.00     0.029 A 
ATOM     48  C   UNL A   1      41.574  25.992  28.471  1.00  0.00     0.049 A 
ATOM     49  H   UNL A   1      42.262  27.735  29.380  1.00  0.00     0.167 HD
ATOM     50  C   UNL A   1      43.542  31.422  31.353  1.00  0.00     0.031 A 
ATOM     51  C   UNL A   1      42.608  25.130  28.432  1.00  0.00     0.031 A 
ATOM     52  C   UNL A   1      44.697  30.567  31.356  1.00  0.00     0.049 A 
ATOM     53  C   UNL A   1      43.938  25.550  28.994  1.00  0.00     0.074 A 
ATOM     54  C   UNL A   1      45.949  30.822  31.889  1.00  0.00     0.029 A 
ATOM     55  N   UNL A   1      44.739  29.293  30.816  1.00  0.00    -0.354 N 
ATOM     56  N   UNL A   1      44.265  26.681  29.573  1.00  0.00    -0.248 NA
ATOM     57  C   UNL A   1      45.039  24.579  28.901  1.00  0.00     0.031 C 
ATOM     58  C   UNL A   1      46.759  29.710  31.645  1.00  0.00     0.029 A 
ATOM     59  C   UNL A   1      45.997  28.748  31.001  1.00  0.00     0.049 A 
ATOM     60  H   UNL A   1      43.986  28.841  30.370  1.00  0.00     0.167 HD
ATOM     61  C   UNL A   1      45.597  26.543  29.944  1.00  0.00     0.074 A 
ATOM     62  C   UNL A   1      46.020  25.224  29.521  1.00  0.00     0.031 C 
ATOM     63  C   UNL A   1      46.395  27.429  30.586  1.00  0.00     0.031 A 
BRANCH  50  64
ATOM     64  C   UNL A   1      43.668  32.767  32.010  1.00  0.00    -0.014 A 
ATOM     65  C   UNL A   1      44.012  33.898  31.249  1.00  0.00     0.010 A 
ATOM     66  C   UNL A   1      43.325  32.921  33.364  1.00  0.00     0.010 A 
ATOM     67  C   UNL A   1      44.002  35.166  31.833  1.00  0.00     0.020 A 
ATOM     68  C   UNL A   1      43.298  34.191  33.947  1.00  0.00     0.020 A 
ATOM     69  C   UNL A   1      43.632  35.306  33.174  1.00  0.00     0.054 A 
BRANCH  69  70
ATOM     70  S   UNL A   1      43.554  36.976  33.877  1.00  0.00     0.124 S 
ATOM     71  O   UNL A   1      42.259  36.963  34.552  1.00  0.00    -0.237 OA
ATOM     72  O   UNL A   1      44.721  37.002  34.754  1.00  0.00    -0.237 OA
ATOM     73  O   UNL A   1      43.632  37.849  32.708  1.00  0.00    -0.744 OA
ENDBRANCH  69  70
ENDBRANCH  50  64
BRANCH  51  74
ATOM     74  C   UNL A   1      42.422  23.766  27.870  1.00  0.00    -0.014 A 
ATOM     75  C   UNL A   1      42.584  23.546  26.491  1.00  0.00     0.010 A 
ATOM     76  C   UNL A   1      42.089  22.685  28.704  1.00  0.00     0.010 A 
ATOM     77  C   UNL A   1      42.407  22.269  25.954  1.00  0.00     0.020 A 
ATOM     78  C   UNL A   1      41.930  21.402  28.173  1.00  0.00     0.020 A 
ATOM     79  C   UNL A   1      42.087  21.203  26.800  1.00  0.00     0.054 A 
BRANCH  79  80
ATOM     80  S   UNL A   1      41.897  19.549  26.078  1.00  0.00     0.124 S 
ATOM     81  O   UNL A   1      42.310  18.684  27.178  1.00  0.00    -0.237 OA
ATOM     82  O   UNL A   1      40.474  19.521  25.747  1.00  0.00    -0.237 OA
ATOM     83  O   UNL A   1      42.798  19.571  24.927  1.00  0.00    -0.744 OA
ENDBRANCH  79  80
ENDBRANCH  51  74
BRANCH  63  84
ATOM     84  C   UNL A   1      47.795  27.002  30.919  1.00  0.00    -0.014 A 
ATOM     85  C   UNL A   1      48.860  27.262  30.041  1.00  0.00     0.010 A 
ATOM     86  C   UNL A   1      48.060  26.434  32.179  1.00  0.00     0.010 A 
ATOM     87  C   UNL A   1      50.171  26.956  30.418  1.00  0.00     0.020 A 
ATOM     88  C   UNL A   1      49.370  26.145  32.567  1.00  0.00     0.020 A 
ATOM     89  C   UNL A   1      50.417  26.408  31.683  1.00  0.00     0.054 A 
BRANCH  89  90
ATOM     90  S   UNL A   1      52.135  26.080  32.163  1.00  0.00     0.124 S 
ATOM     91  O   UNL A   1      52.283  24.667  31.828  1.00  0.00    -0.237 OA
ATOM     92  O   UNL A   1      52.880  27.008  31.316  1.00  0.00    -0.237 OA
ATOM     93  O   UNL A   1      52.162  26.386  33.591  1.00  0.00    -0.744 OA
ENDBRANCH  89  90
ENDBRANCH  63  84
ENDBRANCH  37  38
ENDBRANCH  29  32
ENDBRANCH  27  28
ENDBRANCH  26  27
ENDBRANCH  25  26
ENDBRANCH   1  25
TORSDOF 20
ENDMDL
MODEL 3
REMARK VINA RESULT:      -9.9      2.605      8.961
REMARK SMILES [NH3+][C@H](CC1=c2cccc(O)c2=NC1)C(=O)NCCCCCCNC(=O)c1ccc(-c2c3nc(c(-c4ccc(S(=O)(=O)[O-])cc4)c4ccc([nH]4)c(-c4ccc(S(=O)(=O)[O-])cc4)c4nc(c(-c5ccc(S(=O)(=O)[O-])cc5)c5ccc2[nH]5)C=C4)C=C3)cc1
REMARK SMILES IDX 19 1 18 2 17 3 16 4 14 5 15 6 2 8 1 9 3 13 4 14 5 15 13 16
REMARK SMILES IDX 6 17 11 18 12 19 7 20 9 21 8 22 10 23 20 25 21 26 22 27
REMARK SMILES IDX 23 28 24 29 25 31 26 32 27 33 85 34 28 35 84 36 29 37 30 38
REMARK SMILES IDX 31 39 78 40 32 41 83 42 77 43 79 44 33 45 82 46 76 47 75 48
REMARK SMILES IDX 34 50 64 51 45 52 63 53 46 54 49 55 62 56 80 57 47 58 48 59
REMARK SMILES IDX 61 61 81 62 50 63 35 64 36 65 44 66 37 67 43 68 38 69 39 70
REMARK SMILES IDX 40 71 41 72 42 73 65 74 66 75 74 76 67 77 73 78 68 79 69 80
REMARK SMILES IDX 70 81 71 82 72 83 51 84 52 85 60 86 53 87 59 88 54 89 55 90
REMARK SMILES IDX 56 91 57 92 58 93
REMARK H PARENT 16 7 1 10 1 11 1 12 10 24 23 30 79 49 49 60
REMARK Flexibility Score: inf
ROOT
ATOM      1  C   UNL A   1      31.056  27.718  24.318  1.00  0.00     0.002 C 
ENDROOT
BRANCH   1   2
ATOM      2  C   UNL A   1      29.905  26.736  24.579  1.00  0.00     0.021 C 
BRANCH   2   3
ATOM      3  C   UNL A   1      30.357  25.273  24.589  1.00  0.00     0.116 C 
BRANCH   3   4
ATOM      4  N   UNL A   1      29.972  24.655  25.842  1.00  0.00    -0.351 N 
ATOM      5  C   UNL A   1      30.501  23.603  26.528  1.00  0.00     0.278 C 
ATOM      6  O   UNL A   1      29.816  23.112  27.430  1.00  0.00    -0.268 OA
ATOM      7  H   UNL A   1      29.189  25.068  26.273  1.00  0.00     0.163 HD
BRANCH   5   8
ATOM      8  C   UNL A   1      31.929  23.090  26.244  1.00  0.00     0.275 C 
BRANCH   8   9
ATOM      9  N   UNL A   1      32.877  24.178  26.568  1.00  0.00    -0.347 N 
ATOM     10  H   UNL A   1      32.721  24.492  27.527  1.00  0.00     0.345 HD
ATOM     11  H   UNL A   1      32.730  24.959  25.929  1.00  0.00     0.345 HD
ATOM     12  H   UNL A   1      33.833  23.836  26.474  1.00  0.00     0.345 HD
ENDBRANCH   8   9
BRANCH   8  13
ATOM     13  C   UNL A   1      32.085  22.417  24.858  1.00  0.00     0.109 C 
BRANCH  13  14
ATOM     14  C   UNL A   1      33.285  21.524  24.750  1.00  0.00    -0.033 C 
ATOM     15  C   UNL A   1      34.552  21.857  24.510  1.00  0.00     0.005 A 
ATOM     16  C   UNL A   1      33.168  20.048  24.973  1.00  0.00     0.175 C 
ATOM     17  C   UNL A   1      35.232  23.079  24.219  1.00  0.00     0.010 A 
ATOM     18  C   UNL A   1      35.277  20.595  24.750  1.00  0.00     0.107 A 
ATOM     19  N   UNL A   1      34.556  19.541  24.994  1.00  0.00    -0.276 NA
ATOM     20  C   UNL A   1      36.573  23.093  24.233  1.00  0.00     0.005 A 
ATOM     21  C   UNL A   1      36.772  20.692  24.750  1.00  0.00     0.141 A 
ATOM     22  C   UNL A   1      37.338  21.893  24.523  1.00  0.00     0.048 A 
BRANCH  21  23
ATOM     23  O   UNL A   1      37.505  19.559  25.035  1.00  0.00    -0.506 OA
ATOM     24  H   UNL A   1      37.552  18.862  24.410  1.00  0.00     0.293 HD
ENDBRANCH  21  23
ENDBRANCH  13  14
ENDBRANCH   8  13
ENDBRANCH   5   8
ENDBRANCH   3   4
ENDBRANCH   2   3
ENDBRANCH   1   2
BRANCH   1  25
ATOM     25  C   UNL A   1      32.348  27.399  25.078  1.00  0.00     0.002 C 
BRANCH  25  26
ATOM     26  C   UNL A   1      32.302  27.723  26.574  1.00  0.00     0.021 C 
BRANCH  26  27
ATOM     27  C   UNL A   1      33.594  28.320  27.121  1.00  0.00     0.116 C 
BRANCH  27  28
ATOM     28  N   UNL A   1      33.487  29.762  27.286  1.00  0.00    -0.352 N 
ATOM     29  C   UNL A   1      34.381  30.615  27.880  1.00  0.00     0.251 C 
ATOM     30  H   UNL A   1      32.670  30.177  26.927  1.00  0.00     0.163 HD
ATOM     31  O   UNL A   1      34.068  31.772  28.141  1.00  0.00    -0.269 OA
BRANCH  29  32
ATOM     32  C   UNL A   1      35.726  30.109  28.212  1.00  0.00     0.039 A 
ATOM     33  C   UNL A   1      36.737  30.175  27.252  1.00  0.00     0.014 A 
ATOM     34  C   UNL A   1      35.981  29.598  29.490  1.00  0.00     0.014 A 
ATOM     35  C   UNL A   1      38.028  29.767  27.590  1.00  0.00     0.010 A 
ATOM     36  C   UNL A   1      37.276  29.232  29.836  1.00  0.00     0.010 A 
ATOM     37  C   UNL A   1      38.309  29.313  28.888  1.00  0.00    -0.014 A 
BRANCH  37  38
ATOM     38  C   UNL A   1      39.673  28.886  29.273  1.00  0.00     0.031 A 
ATOM     39  C   UNL A   1      40.552  29.826  30.049  1.00  0.00     0.074 A 
ATOM     40  C   UNL A   1      40.130  27.676  28.895  1.00  0.00     0.049 A 
ATOM     41  N   UNL A   1      41.796  29.670  30.416  1.00  0.00    -0.248 NA
ATOM     42  C   UNL A   1      39.959  31.111  30.458  1.00  0.00     0.031 C 
ATOM     43  C   UNL A   1      39.366  26.675  28.148  1.00  0.00     0.029 A 
ATOM     44  N   UNL A   1      41.350  27.080  29.097  1.00  0.00    -0.354 N 
ATOM     45  C   UNL A   1      42.135  30.832  31.097  1.00  0.00     0.074 A 
ATOM     46  C   UNL A   1      40.981  31.702  31.062  1.00  0.00     0.031 C 
ATOM     47  C   UNL A   1      40.125  25.579  27.980  1.00  0.00     0.029 A 
ATOM     48  C   UNL A   1      41.438  25.812  28.575  1.00  0.00     0.049 A 
ATOM     49  H   UNL A   1      42.093  27.521  29.570  1.00  0.00     0.167 HD
ATOM     50  C   UNL A   1      43.299  31.136  31.715  1.00  0.00     0.031 A 
ATOM     51  C   UNL A   1      42.461  24.935  28.577  1.00  0.00     0.031 A 
ATOM     52  C   UNL A   1      44.440  30.264  31.764  1.00  0.00     0.049 A 
ATOM     53  C   UNL A   1      43.760  25.321  29.229  1.00  0.00     0.074 A 
ATOM     54  C   UNL A   1      45.661  30.486  32.379  1.00  0.00     0.029 A 
ATOM     55  N   UNL A   1      44.498  29.003  31.195  1.00  0.00    -0.354 N 
ATOM     56  N   UNL A   1      44.066  26.431  29.856  1.00  0.00    -0.248 NA
ATOM     57  C   UNL A   1      44.851  24.337  29.177  1.00  0.00     0.031 C 
ATOM     58  C   UNL A   1      46.469  29.369  32.155  1.00  0.00     0.029 A 
ATOM     59  C   UNL A   1      45.735  28.436  31.441  1.00  0.00     0.049 A 
ATOM     60  H   UNL A   1      43.768  28.575  30.692  1.00  0.00     0.167 HD
ATOM     61  C   UNL A   1      45.371  26.264  30.304  1.00  0.00     0.074 A 
ATOM     62  C   UNL A   1      45.801  24.950  29.872  1.00  0.00     0.031 C 
ATOM     63  C   UNL A   1      46.140  27.122  31.016  1.00  0.00     0.031 A 
BRANCH  50  64
ATOM     64  C   UNL A   1      43.404  32.461  32.413  1.00  0.00    -0.014 A 
ATOM     65  C   UNL A   1      43.988  33.562  31.762  1.00  0.00     0.010 A 
ATOM     66  C   UNL A   1      42.808  32.639  33.674  1.00  0.00     0.010 A 
ATOM     67  C   UNL A   1      43.967  34.823  32.360  1.00  0.00     0.020 A 
ATOM     68  C   UNL A   1      42.771  33.903  34.268  1.00  0.00     0.020 A 
ATOM     69  C   UNL A   1      43.347  34.988  33.603  1.00  0.00     0.054 A 
BRANCH  69  70
ATOM     70  S   UNL A   1      43.270  36.655  34.312  1.00  0.00     0.124 S 
ATOM     71  O   UNL A   1      44.438  36.668  35.189  1.00  0.00    -0.237 OA
ATOM     72  O   UNL A   1      43.364  37.505  33.128  1.00  0.00    -0.237 OA
ATOM     73  O   UNL A   1      41.981  36.683  35.000  1.00  0.00    -0.744 OA
ENDBRANCH  69  70
ENDBRANCH  50  64
BRANCH  51  74
ATOM     74  C   UNL A   1      42.291  23.590  27.968  1.00  0.00    -0.014 A 
ATOM     75  C   UNL A   1      42.794  23.331  26.681  1.00  0.00     0.010 A 
ATOM     76  C   UNL A   1      41.636  22.563  28.669  1.00  0.00     0.010 A 
ATOM     77  C   UNL A   1      42.635  22.071  26.100  1.00  0.00     0.020 A 
ATOM     78  C   UNL A   1      41.492  21.295  28.099  1.00  0.00     0.020 A 
ATOM     79  C   UNL A   1      41.990  21.058  26.815  1.00  0.00     0.054 A 
BRANCH  79  80
ATOM     80  S   UNL A   1      41.829  19.421  26.049  1.00  0.00     0.124 S 
ATOM     81  O   UNL A   1      42.659  19.557  24.857  1.00  0.00    -0.237 OA
ATOM     82  O   UNL A   1      42.352  18.542  27.091  1.00  0.00    -0.237 OA
ATOM     83  O   UNL A   1      40.394  19.298  25.800  1.00  0.00    -0.744 OA
ENDBRANCH  79  80
ENDBRANCH  51  74
BRANCH  63  84
ATOM     84  C   UNL A   1      47.512  26.665  31.422  1.00  0.00    -0.014 A 
ATOM     85  C   UNL A   1      47.702  25.877  32.570  1.00  0.00     0.010 A 
ATOM     86  C   UNL A   1      48.605  26.935  30.579  1.00  0.00     0.010 A 
ATOM     87  C   UNL A   1      48.969  25.370  32.870  1.00  0.00     0.020 A 
ATOM     88  C   UNL A   1      49.868  26.414  30.865  1.00  0.00     0.020 A 
ATOM     89  C   UNL A   1      50.042  25.634  32.010  1.00  0.00     0.054 A 
BRANCH  89  90
ATOM     90  S   UNL A   1      51.659  24.909  32.397  1.00  0.00     0.124 S 
ATOM     91  O   UNL A   1      52.556  25.690  31.549  1.00  0.00    -0.237 OA
ATOM     92  O   UNL A   1      51.778  25.156  33.832  1.00  0.00    -0.237 OA
ATOM     93  O   UNL A   1      51.511  23.506  32.019  1.00  0.00    -0.744 OA
ENDBRANCH  89  90
ENDBRANCH  63  84
ENDBRANCH  37  38
ENDBRANCH  29  32
ENDBRANCH  27  28
ENDBRANCH  26  27
ENDBRANCH  25  26
ENDBRANCH   1  25
TORSDOF 20
ENDMDL
