MODEL 1
REMARK VINA RESULT:     -11.8      0.000      0.000
REMARK SMILES Cc1c(Cl)cc2c(c1C)O[C@@H](C(F)(F)F)C(C(=O)NCCCCCCNC(=O)c1ccc(-c3c4nc(c(-c5ccc(S(=O)(=O)[O-])cc5)c5ccc([nH]5)c(-c5ccc(S(=O)(=O)[O-])cc5)c5nc(c(-c6ccc(S(=O)(=O)[O-])cc6)c6ccc3[nH]6)C=C5)C=C4)cc1)=C2
REMARK SMILES IDX 23 1 22 2 21 3 20 4 19 5 17 6 18 7 16 9 1 10 2 11 3 12 8 13
REMARK SMILES IDX 4 14 5 15 7 16 9 17 6 18 10 19 89 20 11 21 12 22 13 23 14 24
REMARK SMILES IDX 15 25 24 26 25 27 26 28 27 29 28 31 29 32 30 33 88 34 31 35
REMARK SMILES IDX 87 36 32 37 33 38 34 39 81 40 35 41 86 42 80 43 82 44 36 45
REMARK SMILES IDX 85 46 79 47 78 48 37 50 67 51 48 52 66 53 49 54 52 55 65 56
REMARK SMILES IDX 83 57 50 58 51 59 64 61 84 62 53 63 38 64 39 65 47 66 40 67
REMARK SMILES IDX 46 68 41 69 42 70 43 71 44 72 45 73 68 74 69 75 77 76 70 77
REMARK SMILES IDX 76 78 71 79 72 80 73 81 74 82 75 83 54 84 55 85 63 86 56 87
REMARK SMILES IDX 62 88 57 89 58 90 59 91 60 92 61 93
REMARK H PARENT 19 8 26 30 82 49 52 60
REMARK Flexibility Score: inf
ROOT
ATOM      1  C   UNL A   1      38.294  23.913  26.294  1.00  0.00     0.002 C 
ENDROOT
BRANCH   1   2
ATOM      2  C   UNL A   1      37.086  23.419  25.491  1.00  0.00     0.002 C 
BRANCH   2   3
ATOM      3  C   UNL A   1      37.246  22.032  24.863  1.00  0.00     0.021 C 
BRANCH   3   4
ATOM      4  C   UNL A   1      35.930  21.279  24.683  1.00  0.00     0.116 C 
BRANCH   4   5
ATOM      5  N   UNL A   1      35.221  21.136  25.943  1.00  0.00    -0.352 N 
ATOM      6  C   UNL A   1      34.162  21.709  26.560  1.00  0.00     0.251 C 
ATOM      7  O   UNL A   1      33.890  21.242  27.672  1.00  0.00    -0.270 OA
ATOM      8  H   UNL A   1      35.619  20.429  26.499  1.00  0.00     0.163 HD
BRANCH   6   9
ATOM      9  C   UNL A   1      33.331  22.822  26.006  1.00  0.00     0.067 C 
ATOM     10  C   UNL A   1      30.806  28.563  24.143  1.00  0.00     0.046 C 
ATOM     11  C   UNL A   1      31.584  27.404  24.711  1.00  0.00    -0.026 A 
ATOM     12  C   UNL A   1      32.820  27.587  25.365  1.00  0.00     0.045 A 
ATOM     13  C   UNL A   1      31.059  26.092  24.616  1.00  0.00    -0.004 A 
ATOM     14  Cl  UNL A   1      33.531  29.150  25.584  1.00  0.00    -0.084 Cl
ATOM     15  C   UNL A   1      33.536  26.499  25.880  1.00  0.00     0.032 A 
ATOM     16  C   UNL A   1      31.803  25.013  25.133  1.00  0.00     0.131 A 
ATOM     17  C   UNL A   1      29.742  25.783  23.945  1.00  0.00     0.049 C 
ATOM     18  C   UNL A   1      33.034  25.206  25.759  1.00  0.00     0.019 A 
ATOM     19  O   UNL A   1      31.235  23.774  25.038  1.00  0.00    -0.475 OA
ATOM     20  C   UNL A   1      33.760  24.064  26.297  1.00  0.00     0.025 C 
ATOM     21  C   UNL A   1      32.117  22.629  25.144  1.00  0.00     0.314 C 
BRANCH  21  22
ATOM     22  C   UNL A   1      32.444  22.105  23.733  1.00  0.00     0.429 C 
ATOM     23  F   UNL A   1      33.585  22.631  23.233  1.00  0.00    -0.167 F 
ATOM     24  F   UNL A   1      32.586  20.761  23.692  1.00  0.00    -0.167 F 
ATOM     25  F   UNL A   1      31.444  22.416  22.870  1.00  0.00    -0.167 F 
ENDBRANCH  21  22
ENDBRANCH   6   9
ENDBRANCH   4   5
ENDBRANCH   3   4
ENDBRANCH   2   3
ENDBRANCH   1   2
BRANCH   1  26
ATOM     26  C   UNL A   1      39.361  22.856  26.592  1.00  0.00     0.021 C 
BRANCH  26  27
ATOM     27  C   UNL A   1      40.665  23.412  27.157  1.00  0.00     0.116 C 
BRANCH  27  28
ATOM     28  N   UNL A   1      41.440  24.097  26.136  1.00  0.00    -0.352 N 
ATOM     29  C   UNL A   1      41.727  25.432  26.015  1.00  0.00     0.251 C 
ATOM     30  H   UNL A   1      41.812  23.521  25.430  1.00  0.00     0.163 HD
ATOM     31  O   UNL A   1      42.175  25.869  24.957  1.00  0.00    -0.269 OA
BRANCH  29  32
ATOM     32  C   UNL A   1      41.494  26.342  27.155  1.00  0.00     0.039 A 
ATOM     33  C   UNL A   1      40.482  26.039  28.069  1.00  0.00     0.014 A 
ATOM     34  C   UNL A   1      42.252  27.507  27.303  1.00  0.00     0.014 A 
ATOM     35  C   UNL A   1      40.259  26.886  29.157  1.00  0.00     0.010 A 
ATOM     36  C   UNL A   1      42.073  28.315  28.422  1.00  0.00     0.010 A 
ATOM     37  C   UNL A   1      41.065  28.019  29.351  1.00  0.00    -0.014 A 
BRANCH  37  38
ATOM     38  C   UNL A   1      40.847  28.926  30.505  1.00  0.00     0.031 A 
ATOM     39  C   UNL A   1      41.710  28.799  31.730  1.00  0.00     0.074 A 
ATOM     40  C   UNL A   1      39.854  29.836  30.463  1.00  0.00     0.049 A 
ATOM     41  N   UNL A   1      41.646  29.466  32.855  1.00  0.00    -0.248 NA
ATOM     42  C   UNL A   1      42.772  27.780  31.696  1.00  0.00     0.031 C 
ATOM     43  C   UNL A   1      38.941  30.042  29.336  1.00  0.00     0.029 A 
ATOM     44  N   UNL A   1      39.448  30.760  31.392  1.00  0.00    -0.354 N 
ATOM     45  C   UNL A   1      42.652  28.944  33.659  1.00  0.00     0.074 A 
ATOM     46  C   UNL A   1      43.276  27.871  32.918  1.00  0.00     0.031 C 
ATOM     47  C   UNL A   1      38.105  31.051  29.627  1.00  0.00     0.029 A 
ATOM     48  C   UNL A   1      38.393  31.536  30.973  1.00  0.00     0.049 A 
ATOM     49  H   UNL A   1      39.873  30.859  32.275  1.00  0.00     0.167 HD
ATOM     50  C   UNL A   1      43.039  29.340  34.895  1.00  0.00     0.031 A 
ATOM     51  C   UNL A   1      37.731  32.526  31.604  1.00  0.00     0.031 A 
ATOM     52  C   UNL A   1      42.420  30.414  35.626  1.00  0.00     0.049 A 
ATOM     53  C   UNL A   1      38.153  32.920  32.993  1.00  0.00     0.074 A 
ATOM     54  C   UNL A   1      42.760  30.912  36.873  1.00  0.00     0.029 A 
ATOM     55  N   UNL A   1      41.340  31.158  35.178  1.00  0.00    -0.354 N 
ATOM     56  N   UNL A   1      39.130  32.437  33.724  1.00  0.00    -0.248 NA
ATOM     57  C   UNL A   1      37.388  33.995  33.639  1.00  0.00     0.031 C 
ATOM     58  C   UNL A   1      41.852  31.924  37.199  1.00  0.00     0.029 A 
ATOM     59  C   UNL A   1      40.984  32.095  36.132  1.00  0.00     0.049 A 
ATOM     60  H   UNL A   1      40.892  31.036  34.310  1.00  0.00     0.167 HD
ATOM     61  C   UNL A   1      39.109  33.165  34.909  1.00  0.00     0.074 A 
ATOM     62  C   UNL A   1      38.035  34.131  34.789  1.00  0.00     0.031 C 
ATOM     63  C   UNL A   1      39.907  33.043  35.999  1.00  0.00     0.031 A 
BRANCH  50  64
ATOM     64  C   UNL A   1      44.190  28.611  35.534  1.00  0.00    -0.014 A 
ATOM     65  C   UNL A   1      45.511  29.067  35.372  1.00  0.00     0.010 A 
ATOM     66  C   UNL A   1      43.948  27.489  36.348  1.00  0.00     0.010 A 
ATOM     67  C   UNL A   1      46.571  28.397  35.988  1.00  0.00     0.020 A 
ATOM     68  C   UNL A   1      45.003  26.832  36.988  1.00  0.00     0.020 A 
ATOM     69  C   UNL A   1      46.310  27.284  36.794  1.00  0.00     0.054 A 
BRANCH  69  70
ATOM     70  S   UNL A   1      47.704  26.460  37.610  1.00  0.00     0.124 S 
ATOM     71  O   UNL A   1      48.571  26.141  36.477  1.00  0.00    -0.237 OA
ATOM     72  O   UNL A   1      48.204  27.495  38.511  1.00  0.00    -0.237 OA
ATOM     73  O   UNL A   1      47.092  25.308  38.266  1.00  0.00    -0.744 OA
ENDBRANCH  69  70
ENDBRANCH  50  64
BRANCH  51  74
ATOM     74  C   UNL A   1      36.611  33.226  30.916  1.00  0.00    -0.014 A 
ATOM     75  C   UNL A   1      35.286  33.029  31.338  1.00  0.00     0.010 A 
ATOM     76  C   UNL A   1      36.866  34.110  29.852  1.00  0.00     0.010 A 
ATOM     77  C   UNL A   1      34.233  33.694  30.702  1.00  0.00     0.020 A 
ATOM     78  C   UNL A   1      35.819  34.797  29.231  1.00  0.00     0.020 A 
ATOM     79  C   UNL A   1      34.508  34.579  29.655  1.00  0.00     0.054 A 
BRANCH  79  80
ATOM     80  S   UNL A   1      33.131  35.475  28.886  1.00  0.00     0.124 S 
ATOM     81  O   UNL A   1      33.828  36.466  28.074  1.00  0.00    -0.237 OA
ATOM     82  O   UNL A   1      32.443  34.420  28.147  1.00  0.00    -0.237 OA
ATOM     83  O   UNL A   1      32.390  36.009  30.027  1.00  0.00    -0.744 OA
ENDBRANCH  79  80
ENDBRANCH  51  74
BRANCH  63  84
ATOM     84  C   UNL A   1      39.661  33.984  37.148  1.00  0.00    -0.014 A 
ATOM     85  C   UNL A   1      38.861  33.603  38.238  1.00  0.00     0.010 A 
ATOM     86  C   UNL A   1      40.297  35.239  37.168  1.00  0.00     0.010 A 
ATOM     87  C   UNL A   1      38.681  34.470  39.318  1.00  0.00     0.020 A 
ATOM     88  C   UNL A   1      40.142  36.098  38.259  1.00  0.00     0.020 A 
ATOM     89  C   UNL A   1      39.326  35.712  39.323  1.00  0.00     0.054 A 
BRANCH  89  90
ATOM     90  S   UNL A   1      39.115  36.794  40.762  1.00  0.00     0.124 S 
ATOM     91  O   UNL A   1      38.372  35.937  41.682  1.00  0.00    -0.237 OA
ATOM     92  O   UNL A   1      40.493  37.084  41.149  1.00  0.00    -0.237 OA
ATOM     93  O   UNL A   1      38.369  37.934  40.233  1.00  0.00    -0.744 OA
ENDBRANCH  89  90
ENDBRANCH  63  84
ENDBRANCH  37  38
ENDBRANCH  29  32
ENDBRANCH  27  28
ENDBRANCH  26  27
ENDBRANCH   1  26
TORSDOF 17
ENDMDL
MODEL 2
REMARK VINA RESULT:     -11.5      0.937      8.139
REMARK SMILES Cc1c(Cl)cc2c(c1C)O[C@@H](C(F)(F)F)C(C(=O)NCCCCCCNC(=O)c1ccc(-c3c4nc(c(-c5ccc(S(=O)(=O)[O-])cc5)c5ccc([nH]5)c(-c5ccc(S(=O)(=O)[O-])cc5)c5nc(c(-c6ccc(S(=O)(=O)[O-])cc6)c6ccc3[nH]6)C=C5)C=C4)cc1)=C2
REMARK SMILES IDX 23 1 22 2 21 3 20 4 19 5 17 6 18 7 16 9 1 10 2 11 3 12 8 13
REMARK SMILES IDX 4 14 5 15 7 16 9 17 6 18 10 19 89 20 11 21 12 22 13 23 14 24
REMARK SMILES IDX 15 25 24 26 25 27 26 28 27 29 28 31 29 32 30 33 88 34 31 35
REMARK SMILES IDX 87 36 32 37 33 38 34 39 81 40 35 41 86 42 80 43 82 44 36 45
REMARK SMILES IDX 85 46 79 47 78 48 37 50 67 51 48 52 66 53 49 54 52 55 65 56
REMARK SMILES IDX 83 57 50 58 51 59 64 61 84 62 53 63 38 64 39 65 47 66 40 67
REMARK SMILES IDX 46 68 41 69 42 70 43 71 44 72 45 73 68 74 69 75 77 76 70 77
REMARK SMILES IDX 76 78 71 79 72 80 73 81 74 82 75 83 54 84 55 85 63 86 56 87
REMARK SMILES IDX 62 88 57 89 58 90 59 91 60 92 61 93
REMARK H PARENT 19 8 26 30 82 49 52 60
REMARK Flexibility Score: inf
ROOT
ATOM      1  C   UNL A   1      37.656  24.079  26.228  1.00  0.00     0.002 C 
ENDROOT
BRANCH   1   2
ATOM      2  C   UNL A   1      36.581  23.630  25.231  1.00  0.00     0.002 C 
BRANCH   2   3
ATOM      3  C   UNL A   1      35.617  22.561  25.753  1.00  0.00     0.021 C 
BRANCH   3   4
ATOM      4  C   UNL A   1      35.076  21.633  24.667  1.00  0.00     0.116 C 
BRANCH   4   5
ATOM      5  N   UNL A   1      33.732  21.176  24.978  1.00  0.00    -0.352 N 
ATOM      6  C   UNL A   1      32.483  21.696  24.996  1.00  0.00     0.251 C 
ATOM      7  O   UNL A   1      31.592  20.906  25.327  1.00  0.00    -0.270 OA
ATOM      8  H   UNL A   1      33.729  20.230  25.248  1.00  0.00     0.163 HD
BRANCH   6   9
ATOM      9  C   UNL A   1      32.124  23.107  24.653  1.00  0.00     0.067 C 
ATOM     10  C   UNL A   1      30.927  29.539  24.600  1.00  0.00     0.046 C 
ATOM     11  C   UNL A   1      31.241  28.095  24.898  1.00  0.00    -0.026 A 
ATOM     12  C   UNL A   1      31.712  27.682  26.161  1.00  0.00     0.045 A 
ATOM     13  C   UNL A   1      31.038  27.112  23.899  1.00  0.00    -0.004 A 
ATOM     14  Cl  UNL A   1      31.949  28.789  27.470  1.00  0.00    -0.084 Cl
ATOM     15  C   UNL A   1      32.010  26.339  26.420  1.00  0.00     0.032 A 
ATOM     16  C   UNL A   1      31.354  25.769  24.181  1.00  0.00     0.131 A 
ATOM     17  C   UNL A   1      30.530  27.442  22.515  1.00  0.00     0.049 C 
ATOM     18  C   UNL A   1      31.839  25.377  25.428  1.00  0.00     0.019 A 
ATOM     19  O   UNL A   1      31.112  24.859  23.190  1.00  0.00    -0.475 OA
ATOM     20  C   UNL A   1      32.133  23.973  25.683  1.00  0.00     0.025 C 
ATOM     21  C   UNL A   1      31.808  23.591  23.267  1.00  0.00     0.314 C 
BRANCH  21  22
ATOM     22  C   UNL A   1      33.033  23.624  22.335  1.00  0.00     0.429 C 
ATOM     23  F   UNL A   1      32.861  24.449  21.277  1.00  0.00    -0.167 F 
ATOM     24  F   UNL A   1      34.160  24.030  22.962  1.00  0.00    -0.167 F 
ATOM     25  F   UNL A   1      33.287  22.385  21.844  1.00  0.00    -0.167 F 
ENDBRANCH  21  22
ENDBRANCH   6   9
ENDBRANCH   4   5
ENDBRANCH   3   4
ENDBRANCH   2   3
ENDBRANCH   1   2
BRANCH   1  26
ATOM     26  C   UNL A   1      38.741  23.043  26.534  1.00  0.00     0.021 C 
BRANCH  26  27
ATOM     27  C   UNL A   1      40.026  23.623  27.118  1.00  0.00     0.116 C 
BRANCH  27  28
ATOM     28  N   UNL A   1      40.805  24.319  26.107  1.00  0.00    -0.352 N 
ATOM     29  C   UNL A   1      41.168  25.639  26.049  1.00  0.00     0.251 C 
ATOM     30  H   UNL A   1      41.117  23.763  25.357  1.00  0.00     0.163 HD
ATOM     31  O   UNL A   1      41.605  26.109  25.000  1.00  0.00    -0.269 OA
BRANCH  29  32
ATOM     32  C   UNL A   1      41.031  26.494  27.245  1.00  0.00     0.039 A 
ATOM     33  C   UNL A   1      40.017  26.217  28.165  1.00  0.00     0.014 A 
ATOM     34  C   UNL A   1      41.883  27.585  27.442  1.00  0.00     0.014 A 
ATOM     35  C   UNL A   1      39.883  27.012  29.305  1.00  0.00     0.010 A 
ATOM     36  C   UNL A   1      41.790  28.336  28.610  1.00  0.00     0.010 A 
ATOM     37  C   UNL A   1      40.781  28.065  29.546  1.00  0.00    -0.014 A 
BRANCH  37  38
ATOM     38  C   UNL A   1      40.658  28.915  30.755  1.00  0.00     0.031 A 
ATOM     39  C   UNL A   1      39.635  30.016  30.796  1.00  0.00     0.074 A 
ATOM     40  C   UNL A   1      41.490  28.719  31.798  1.00  0.00     0.049 A 
ATOM     41  N   UNL A   1      39.405  30.892  31.741  1.00  0.00    -0.248 NA
ATOM     42  C   UNL A   1      38.767  30.164  29.616  1.00  0.00     0.031 C 
ATOM     43  C   UNL A   1      42.534  27.694  31.868  1.00  0.00     0.029 A 
ATOM     44  N   UNL A   1      41.585  29.373  33.000  1.00  0.00    -0.354 N 
ATOM     45  C   UNL A   1      38.373  31.695  31.267  1.00  0.00     0.074 A 
ATOM     46  C   UNL A   1      38.058  31.238  29.932  1.00  0.00     0.031 C 
ATOM     47  C   UNL A   1      43.141  27.768  33.063  1.00  0.00     0.029 A 
ATOM     48  C   UNL A   1      42.560  28.867  33.827  1.00  0.00     0.049 A 
ATOM     49  H   UNL A   1      41.009  30.133  33.247  1.00  0.00     0.167 HD
ATOM     50  C   UNL A   1      37.729  32.705  31.898  1.00  0.00     0.031 A 
ATOM     51  C   UNL A   1      42.944  29.248  35.062  1.00  0.00     0.031 A 
ATOM     52  C   UNL A   1      38.041  33.151  33.230  1.00  0.00     0.049 A 
ATOM     53  C   UNL A   1      42.240  30.400  35.724  1.00  0.00     0.074 A 
ATOM     54  C   UNL A   1      37.425  34.147  33.968  1.00  0.00     0.029 A 
ATOM     55  N   UNL A   1      39.051  32.629  34.023  1.00  0.00    -0.354 N 
ATOM     56  N   UNL A   1      41.243  31.125  35.274  1.00  0.00    -0.248 NA
ATOM     57  C   UNL A   1      42.708  30.783  37.064  1.00  0.00     0.031 C 
ATOM     58  C   UNL A   1      38.095  34.260  35.190  1.00  0.00     0.029 A 
ATOM     59  C   UNL A   1      39.091  33.297  35.235  1.00  0.00     0.049 A 
ATOM     60  H   UNL A   1      39.650  31.893  33.763  1.00  0.00     0.167 HD
ATOM     61  C   UNL A   1      40.952  32.036  36.284  1.00  0.00     0.074 A 
ATOM     62  C   UNL A   1      41.866  31.759  37.374  1.00  0.00     0.031 C 
ATOM     63  C   UNL A   1      40.013  33.014  36.305  1.00  0.00     0.031 A 
BRANCH  50  64
ATOM     64  C   UNL A   1      36.617  33.395  31.155  1.00  0.00    -0.014 A 
ATOM     65  C   UNL A   1      36.822  33.902  29.859  1.00  0.00     0.010 A 
ATOM     66  C   UNL A   1      35.338  33.493  31.733  1.00  0.00     0.010 A 
ATOM     67  C   UNL A   1      35.777  34.520  29.167  1.00  0.00     0.020 A 
ATOM     68  C   UNL A   1      34.283  34.086  31.034  1.00  0.00     0.020 A 
ATOM     69  C   UNL A   1      34.513  34.607  29.758  1.00  0.00     0.054 A 
BRANCH  69  70
ATOM     70  S   UNL A   1      33.170  35.381  28.819  1.00  0.00     0.124 S 
ATOM     71  O   UNL A   1      32.315  35.899  29.886  1.00  0.00    -0.237 OA
ATOM     72  O   UNL A   1      33.872  36.391  28.031  1.00  0.00    -0.237 OA
ATOM     73  O   UNL A   1      32.602  34.277  28.050  1.00  0.00    -0.744 OA
ENDBRANCH  69  70
ENDBRANCH  50  64
BRANCH  51  74
ATOM     74  C   UNL A   1      44.039  28.517  35.757  1.00  0.00    -0.014 A 
ATOM     75  C   UNL A   1      45.375  28.921  35.598  1.00  0.00     0.010 A 
ATOM     76  C   UNL A   1      43.749  27.428  36.599  1.00  0.00     0.010 A 
ATOM     77  C   UNL A   1      46.404  28.245  36.259  1.00  0.00     0.020 A 
ATOM     78  C   UNL A   1      44.773  26.765  37.283  1.00  0.00     0.020 A 
ATOM     79  C   UNL A   1      46.095  27.173  37.102  1.00  0.00     0.054 A 
BRANCH  79  80
ATOM     80  S   UNL A   1      47.442  26.349  37.996  1.00  0.00     0.124 S 
ATOM     81  O   UNL A   1      48.253  27.480  38.433  1.00  0.00    -0.237 OA
ATOM     82  O   UNL A   1      46.727  25.635  39.051  1.00  0.00    -0.237 OA
ATOM     83  O   UNL A   1      48.053  25.494  36.981  1.00  0.00    -0.744 OA
ENDBRANCH  79  80
ENDBRANCH  51  74
BRANCH  63  84
ATOM     84  C   UNL A   1      39.913  33.853  37.551  1.00  0.00    -0.014 A 
ATOM     85  C   UNL A   1      40.695  35.010  37.710  1.00  0.00     0.010 A 
ATOM     86  C   UNL A   1      38.974  33.516  38.543  1.00  0.00     0.010 A 
ATOM     87  C   UNL A   1      40.556  35.803  38.851  1.00  0.00     0.020 A 
ATOM     88  C   UNL A   1      38.813  34.323  39.673  1.00  0.00     0.020 A 
ATOM     89  C   UNL A   1      39.613  35.456  39.824  1.00  0.00     0.054 A 
BRANCH  89  90
ATOM     90  S   UNL A   1      39.420  36.533  41.270  1.00  0.00     0.124 S 
ATOM     91  O   UNL A   1      40.800  36.677  41.729  1.00  0.00    -0.237 OA
ATOM     92  O   UNL A   1      38.822  37.735  40.695  1.00  0.00    -0.237 OA
ATOM     93  O   UNL A   1      38.545  35.771  42.157  1.00  0.00    -0.744 OA
ENDBRANCH  89  90
ENDBRANCH  63  84
ENDBRANCH  37  38
ENDBRANCH  29  32
ENDBRANCH  27  28
ENDBRANCH  26  27
ENDBRANCH   1  26
TORSDOF 17
ENDMDL
MODEL 3
REMARK VINA RESULT:     -11.2      6.144     10.833
REMARK SMILES Cc1c(Cl)cc2c(c1C)O[C@@H](C(F)(F)F)C(C(=O)NCCCCCCNC(=O)c1ccc(-c3c4nc(c(-c5ccc(S(=O)(=O)[O-])cc5)c5ccc([nH]5)c(-c5ccc(S(=O)(=O)[O-])cc5)c5nc(c(-c6ccc(S(=O)(=O)[O-])cc6)c6ccc3[nH]6)C=C5)C=C4)cc1)=C2
REMARK SMILES IDX 23 1 22 2 21 3 20 4 19 5 17 6 18 7 16 9 1 10 2 11 3 12 8 13
REMARK SMILES IDX 4 14 5 15 7 16 9 17 6 18 10 19 89 20 11 21 12 22 13 23 14 24
REMARK SMILES IDX 15 25 24 26 25 27 26 28 27 29 28 31 29 32 30 33 88 34 31 35
REMARK SMILES IDX 87 36 32 37 33 38 34 39 81 40 35 41 86 42 80 43 82 44 36 45
REMARK SMILES IDX 85 46 79 47 78 48 37 50 67 51 48 52 66 53 49 54 52 55 65 56
REMARK SMILES IDX 83 57 50 58 51 59 64 61 84 62 53 63 38 64 39 65 47 66 40 67
REMARK SMILES IDX 46 68 41 69 42 70 43 71 44 72 45 73 68 74 69 75 77 76 70 77
REMARK SMILES IDX 76 78 71 79 72 80 73 81 74 82 75 83 54 84 55 85 63 86 56 87
REMARK SMILES IDX 62 88 57 89 58 90 59 91 60 92 61 93
REMARK H PARENT 19 8 26 30 82 49 52 60
REMARK Flexibility Score: inf
ROOT
ATOM      1  C   UNL A   1      37.585  20.257  24.598  1.00  0.00     0.002 C 
ENDROOT
BRANCH   1   2
ATOM      2  C   UNL A   1      37.285  21.553  25.361  1.00  0.00     0.002 C 
BRANCH   2   3
ATOM      3  C   UNL A   1      36.879  22.742  24.487  1.00  0.00     0.021 C 
BRANCH   3   4
ATOM      4  C   UNL A   1      36.021  23.778  25.212  1.00  0.00     0.116 C 
BRANCH   4   5
ATOM      5  N   UNL A   1      34.878  23.161  25.862  1.00  0.00    -0.352 N 
ATOM      6  C   UNL A   1      33.551  23.400  25.980  1.00  0.00     0.251 C 
ATOM      7  O   UNL A   1      32.928  22.568  26.649  1.00  0.00    -0.270 OA
ATOM      8  H   UNL A   1      35.139  22.348  26.350  1.00  0.00     0.163 HD
BRANCH   6   9
ATOM      9  C   UNL A   1      32.818  24.556  25.377  1.00  0.00     0.067 C 
ATOM     10  C   UNL A   1      30.182  30.365  23.926  1.00  0.00     0.046 C 
ATOM     11  C   UNL A   1      30.871  29.157  24.507  1.00  0.00    -0.026 A 
ATOM     12  C   UNL A   1      31.651  29.237  25.679  1.00  0.00     0.045 A 
ATOM     13  C   UNL A   1      30.718  27.894  23.884  1.00  0.00    -0.004 A 
ATOM     14  Cl  UNL A   1      31.864  30.717  26.551  1.00  0.00    -0.084 Cl
ATOM     15  C   UNL A   1      32.293  28.109  26.202  1.00  0.00     0.032 A 
ATOM     16  C   UNL A   1      31.381  26.775  24.424  1.00  0.00     0.131 A 
ATOM     17  C   UNL A   1      29.899  27.692  22.631  1.00  0.00     0.049 C 
ATOM     18  C   UNL A   1      32.167  26.874  25.572  1.00  0.00     0.019 A 
ATOM     19  O   UNL A   1      31.176  25.578  23.798  1.00  0.00    -0.475 OA
ATOM     20  C   UNL A   1      32.819  25.686  26.107  1.00  0.00     0.025 C 
ATOM     21  C   UNL A   1      32.148  24.529  24.034  1.00  0.00     0.314 C 
BRANCH  21  22
ATOM     22  C   UNL A   1      33.137  24.477  22.855  1.00  0.00     0.429 C 
ATOM     23  F   UNL A   1      33.775  23.288  22.762  1.00  0.00    -0.167 F 
ATOM     24  F   UNL A   1      32.541  24.691  21.660  1.00  0.00    -0.167 F 
ATOM     25  F   UNL A   1      34.087  25.435  22.992  1.00  0.00    -0.167 F 
ENDBRANCH  21  22
ENDBRANCH   6   9
ENDBRANCH   4   5
ENDBRANCH   3   4
ENDBRANCH   2   3
ENDBRANCH   1   2
BRANCH   1  26
ATOM     26  C   UNL A   1      38.508  19.269  25.318  1.00  0.00     0.021 C 
BRANCH  26  27
ATOM     27  C   UNL A   1      39.694  19.913  26.029  1.00  0.00     0.116 C 
BRANCH  27  28
ATOM     28  N   UNL A   1      40.789  18.973  26.198  1.00  0.00    -0.352 N 
ATOM     29  C   UNL A   1      42.136  19.213  26.263  1.00  0.00     0.251 C 
ATOM     30  H   UNL A   1      40.526  18.028  26.278  1.00  0.00     0.163 HD
ATOM     31  O   UNL A   1      42.932  18.282  26.150  1.00  0.00    -0.269 OA
BRANCH  29  32
ATOM     32  C   UNL A   1      42.630  20.590  26.464  1.00  0.00     0.039 A 
ATOM     33  C   UNL A   1      42.579  21.149  27.744  1.00  0.00     0.014 A 
ATOM     34  C   UNL A   1      43.115  21.338  25.387  1.00  0.00     0.014 A 
ATOM     35  C   UNL A   1      43.052  22.447  27.950  1.00  0.00     0.010 A 
ATOM     36  C   UNL A   1      43.646  22.606  25.605  1.00  0.00     0.010 A 
ATOM     37  C   UNL A   1      43.607  23.177  26.886  1.00  0.00    -0.014 A 
BRANCH  37  38
ATOM     38  C   UNL A   1      44.121  24.554  27.087  1.00  0.00     0.031 A 
ATOM     39  C   UNL A   1      43.180  25.652  27.498  1.00  0.00     0.074 A 
ATOM     40  C   UNL A   1      45.424  24.821  26.867  1.00  0.00     0.049 A 
ATOM     41  N   UNL A   1      43.427  26.924  27.680  1.00  0.00    -0.248 NA
ATOM     42  C   UNL A   1      41.773  25.277  27.718  1.00  0.00     0.031 C 
ATOM     43  C   UNL A   1      46.430  23.842  26.450  1.00  0.00     0.029 A 
ATOM     44  N   UNL A   1      46.125  25.996  26.966  1.00  0.00    -0.354 N 
ATOM     45  C   UNL A   1      42.211  27.499  28.028  1.00  0.00     0.074 A 
ATOM     46  C   UNL A   1      41.216  26.451  27.980  1.00  0.00     0.031 C 
ATOM     47  C   UNL A   1      47.624  24.450  26.361  1.00  0.00     0.029 A 
ATOM     48  C   UNL A   1      47.462  25.866  26.674  1.00  0.00     0.049 A 
ATOM     49  H   UNL A   1      45.709  26.851  27.223  1.00  0.00     0.167 HD
ATOM     50  C   UNL A   1      41.950  28.780  28.381  1.00  0.00     0.031 A 
ATOM     51  C   UNL A   1      48.447  26.786  26.659  1.00  0.00     0.031 A 
ATOM     52  C   UNL A   1      42.944  29.819  28.435  1.00  0.00     0.049 A 
ATOM     53  C   UNL A   1      48.123  28.211  27.015  1.00  0.00     0.074 A 
ATOM     54  C   UNL A   1      42.785  31.142  28.810  1.00  0.00     0.029 A 
ATOM     55  N   UNL A   1      44.281  29.652  28.107  1.00  0.00    -0.354 N 
ATOM     56  N   UNL A   1      46.973  28.729  27.375  1.00  0.00    -0.248 NA
ATOM     57  C   UNL A   1      49.231  29.175  26.967  1.00  0.00     0.031 C 
ATOM     58  C   UNL A   1      44.017  31.787  28.663  1.00  0.00     0.029 A 
ATOM     59  C   UNL A   1      44.955  30.853  28.250  1.00  0.00     0.049 A 
ATOM     60  H   UNL A   1      44.690  28.806  27.817  1.00  0.00     0.167 HD
ATOM     61  C   UNL A   1      47.223  30.075  27.618  1.00  0.00     0.074 A 
ATOM     62  C   UNL A   1      48.637  30.287  27.379  1.00  0.00     0.031 C 
ATOM     63  C   UNL A   1      46.360  31.048  28.001  1.00  0.00     0.031 A 
BRANCH  50  64
ATOM     64  C   UNL A   1      40.531  29.130  28.742  1.00  0.00    -0.014 A 
ATOM     65  C   UNL A   1      40.133  29.226  30.089  1.00  0.00     0.010 A 
ATOM     66  C   UNL A   1      39.597  29.417  27.731  1.00  0.00     0.010 A 
ATOM     67  C   UNL A   1      38.820  29.574  30.415  1.00  0.00     0.020 A 
ATOM     68  C   UNL A   1      38.290  29.792  28.053  1.00  0.00     0.020 A 
ATOM     69  C   UNL A   1      37.906  29.857  29.395  1.00  0.00     0.054 A 
BRANCH  69  70
ATOM     70  S   UNL A   1      36.221  30.342  29.853  1.00  0.00     0.124 S 
ATOM     71  O   UNL A   1      35.435  29.774  28.759  1.00  0.00    -0.237 OA
ATOM     72  O   UNL A   1      36.045  29.698  31.152  1.00  0.00    -0.237 OA
ATOM     73  O   UNL A   1      36.275  31.801  29.885  1.00  0.00    -0.744 OA
ENDBRANCH  69  70
ENDBRANCH  50  64
BRANCH  51  74
ATOM     74  C   UNL A   1      49.836  26.380  26.311  1.00  0.00    -0.014 A 
ATOM     75  C   UNL A   1      50.290  26.467  24.984  1.00  0.00     0.010 A 
ATOM     76  C   UNL A   1      50.719  25.926  27.307  1.00  0.00     0.010 A 
ATOM     77  C   UNL A   1      51.598  26.098  24.657  1.00  0.00     0.020 A 
ATOM     78  C   UNL A   1      52.036  25.581  26.989  1.00  0.00     0.020 A 
ATOM     79  C   UNL A   1      52.465  25.662  25.663  1.00  0.00     0.054 A 
BRANCH  79  80
ATOM     80  S   UNL A   1      54.176  25.246  25.222  1.00  0.00     0.124 S 
ATOM     81  O   UNL A   1      54.899  25.611  26.435  1.00  0.00    -0.237 OA
ATOM     82  O   UNL A   1      54.088  23.815  24.942  1.00  0.00    -0.237 OA
ATOM     83  O   UNL A   1      54.441  26.086  24.056  1.00  0.00    -0.744 OA
ENDBRANCH  79  80
ENDBRANCH  51  74
BRANCH  63  84
ATOM     84  C   UNL A   1      46.918  32.431  28.202  1.00  0.00    -0.014 A 
ATOM     85  C   UNL A   1      47.285  32.885  29.481  1.00  0.00     0.010 A 
ATOM     86  C   UNL A   1      47.143  33.260  27.088  1.00  0.00     0.010 A 
ATOM     87  C   UNL A   1      47.845  34.154  29.644  1.00  0.00     0.020 A 
ATOM     88  C   UNL A   1      47.729  34.519  27.244  1.00  0.00     0.020 A 
ATOM     89  C   UNL A   1      48.067  34.962  28.524  1.00  0.00     0.054 A 
BRANCH  89  90
ATOM     90  S   UNL A   1      48.843  36.583  28.762  1.00  0.00     0.124 S 
ATOM     91  O   UNL A   1      48.123  37.098  29.924  1.00  0.00    -0.237 OA
ATOM     92  O   UNL A   1      50.243  36.237  28.993  1.00  0.00    -0.237 OA
ATOM     93  O   UNL A   1      48.579  37.283  27.506  1.00  0.00    -0.744 OA
ENDBRANCH  89  90
ENDBRANCH  63  84
ENDBRANCH  37  38
ENDBRANCH  29  32
ENDBRANCH  27  28
ENDBRANCH  26  27
ENDBRANCH   1  26
TORSDOF 17
ENDMDL
