MODEL 1
REMARK VINA RESULT:      -9.8      0.000      0.000
REMARK SMILES COc1ccc(NC2=[NH+]C(=O)/C(=C\c3ccccc3C(=O)NCCCCCCNC(=O)c3ccc(-c4c5nc(c(-c6ccc(S(=O)(=O)[O-])cc6)c6ccc([nH]6)c(-c6ccc(S(=O)(=O)[O-])cc6)c6nc(c(-c7ccc(S(=O)(=O)[O-])cc7)c7ccc4[nH]7)C=C6)C=C5)cc3)S2)cc1
REMARK SMILES IDX 25 1 24 2 23 3 22 4 20 5 21 6 19 8 14 9 15 10 16 11 18 12
REMARK SMILES IDX 17 13 13 14 7 15 8 16 9 18 92 19 10 20 12 22 11 23 6 24 3 25
REMARK SMILES IDX 4 26 94 27 5 28 93 29 2 30 1 31 26 32 27 33 28 34 29 35
REMARK SMILES IDX 30 36 31 38 32 39 33 40 91 41 34 42 90 43 35 44 36 45 37 46
REMARK SMILES IDX 84 47 38 48 89 49 83 50 85 51 39 52 88 53 82 54 81 55 40 57
REMARK SMILES IDX 70 58 51 59 69 60 52 61 55 62 68 63 86 64 53 65 54 66 67 68
REMARK SMILES IDX 87 69 56 70 41 71 42 72 50 73 43 74 49 75 44 76 45 77 46 78
REMARK SMILES IDX 47 79 48 80 71 81 72 82 80 83 73 84 79 85 74 86 75 87 76 88
REMARK SMILES IDX 77 89 78 90 57 91 58 92 66 93 59 94 65 95 60 96 61 97 62 98
REMARK SMILES IDX 63 99 64 100
REMARK H PARENT 22 7 7 17 9 21 29 37 85 56 55 67
REMARK Flexibility Score: inf
ROOT
ATOM      1  C   UNL A   1      43.100  22.988  29.661  1.00  0.00     0.002 C 
ENDROOT
BRANCH   1   2
ATOM      2  C   UNL A   1      44.314  23.883  29.936  1.00  0.00     0.021 C 
BRANCH   2   3
ATOM      3  C   UNL A   1      44.141  24.943  31.020  1.00  0.00     0.116 C 
BRANCH   3   4
ATOM      4  N   UNL A   1      45.270  25.056  31.918  1.00  0.00    -0.352 N 
ATOM      5  C   UNL A   1      45.293  25.174  33.287  1.00  0.00     0.251 C 
ATOM      6  O   UNL A   1      46.368  25.424  33.832  1.00  0.00    -0.269 OA
ATOM      7  H   UNL A   1      46.154  25.047  31.483  1.00  0.00     0.163 HD
BRANCH   5   8
ATOM      8  C   UNL A   1      44.047  25.125  34.101  1.00  0.00     0.047 A 
ATOM      9  C   UNL A   1      43.459  23.972  34.661  1.00  0.00    -0.011 A 
ATOM     10  C   UNL A   1      42.192  24.106  35.270  1.00  0.00     0.009 A 
ATOM     11  C   UNL A   1      41.573  25.349  35.412  1.00  0.00     0.001 A 
ATOM     12  C   UNL A   1      43.440  26.380  34.304  1.00  0.00     0.014 A 
ATOM     13  C   UNL A   1      42.213  26.492  34.958  1.00  0.00     0.001 A 
BRANCH   9  14
ATOM     14  C   UNL A   1      43.987  22.596  34.656  1.00  0.00     0.032 C 
ATOM     15  N   UNL A   1      47.946  19.867  35.963  1.00  0.00    -0.235 N 
ATOM     16  C   UNL A   1      46.988  20.833  36.031  1.00  0.00     0.322 C 
ATOM     17  H   UNL A   1      47.663  18.956  36.206  1.00  0.00     0.313 HD
ATOM     18  N   UNL A   1      47.009  21.992  36.597  1.00  0.00    -0.199 N 
ATOM     19  S   UNL A   1      45.502  20.430  35.181  1.00  0.00     0.006 SA
ATOM     20  C   UNL A   1      45.817  22.674  36.457  1.00  0.00     0.346 C 
ATOM     21  H   UNL A   1      47.790  22.352  37.077  1.00  0.00     0.316 HD
ATOM     22  C   UNL A   1      44.965  22.057  35.399  1.00  0.00     0.110 C 
ATOM     23  O   UNL A   1      45.460  23.621  37.141  1.00  0.00    -0.240 OA
BRANCH  15  24
ATOM     24  C   UNL A   1      49.293  20.020  35.586  1.00  0.00     0.125 A 
ATOM     25  C   UNL A   1      52.046  19.971  34.964  1.00  0.00     0.119 A 
ATOM     26  C   UNL A   1      51.093  20.098  33.954  1.00  0.00     0.051 A 
ATOM     27  C   UNL A   1      51.630  19.993  36.292  1.00  0.00     0.051 A 
ATOM     28  C   UNL A   1      49.726  20.142  34.264  1.00  0.00     0.055 A 
ATOM     29  C   UNL A   1      50.265  20.022  36.596  1.00  0.00     0.055 A 
BRANCH  25  30
ATOM     30  O   UNL A   1      53.343  19.845  34.550  1.00  0.00    -0.497 OA
ATOM     31  C   UNL A   1      53.511  19.531  33.167  1.00  0.00     0.278 C 
ENDBRANCH  25  30
ENDBRANCH  15  24
ENDBRANCH   9  14
ENDBRANCH   5   8
ENDBRANCH   3   4
ENDBRANCH   2   3
ENDBRANCH   1   2
BRANCH   1  32
ATOM     32  C   UNL A   1      42.592  22.947  28.220  1.00  0.00     0.002 C 
BRANCH  32  33
ATOM     33  C   UNL A   1      41.592  21.851  27.865  1.00  0.00     0.021 C 
BRANCH  33  34
ATOM     34  C   UNL A   1      41.248  21.726  26.387  1.00  0.00     0.116 C 
BRANCH  34  35
ATOM     35  N   UNL A   1      39.827  21.864  26.112  1.00  0.00    -0.352 N 
ATOM     36  C   UNL A   1      38.982  22.933  26.296  1.00  0.00     0.251 C 
ATOM     37  H   UNL A   1      39.401  21.062  25.732  1.00  0.00     0.163 HD
ATOM     38  O   UNL A   1      37.777  22.789  26.099  1.00  0.00    -0.269 OA
BRANCH  36  39
ATOM     39  C   UNL A   1      39.499  24.240  26.770  1.00  0.00     0.039 A 
ATOM     40  C   UNL A   1      39.332  24.574  28.119  1.00  0.00     0.014 A 
ATOM     41  C   UNL A   1      40.132  25.139  25.910  1.00  0.00     0.014 A 
ATOM     42  C   UNL A   1      39.861  25.771  28.613  1.00  0.00     0.010 A 
ATOM     43  C   UNL A   1      40.740  26.284  26.421  1.00  0.00     0.010 A 
ATOM     44  C   UNL A   1      40.604  26.619  27.776  1.00  0.00    -0.014 A 
BRANCH  44  45
ATOM     45  C   UNL A   1      41.230  27.863  28.297  1.00  0.00     0.031 A 
ATOM     46  C   UNL A   1      42.728  28.016  28.293  1.00  0.00     0.074 A 
ATOM     47  C   UNL A   1      40.454  28.829  28.829  1.00  0.00     0.049 A 
ATOM     48  N   UNL A   1      43.458  29.003  28.750  1.00  0.00    -0.248 NA
ATOM     49  C   UNL A   1      43.512  26.903  27.734  1.00  0.00     0.031 C 
ATOM     50  C   UNL A   1      38.995  28.779  28.945  1.00  0.00     0.029 A 
ATOM     51  N   UNL A   1      40.786  30.044  29.376  1.00  0.00    -0.354 N 
ATOM     52  C   UNL A   1      44.780  28.618  28.555  1.00  0.00     0.074 A 
ATOM     53  C   UNL A   1      44.753  27.287  27.992  1.00  0.00     0.031 C 
ATOM     54  C   UNL A   1      38.555  29.925  29.490  1.00  0.00     0.029 A 
ATOM     55  C   UNL A   1      39.701  30.776  29.798  1.00  0.00     0.049 A 
ATOM     56  H   UNL A   1      41.713  30.363  29.456  1.00  0.00     0.167 HD
ATOM     57  C   UNL A   1      45.915  29.317  28.799  1.00  0.00     0.031 A 
ATOM     58  C   UNL A   1      39.632  31.995  30.366  1.00  0.00     0.031 A 
ATOM     59  C   UNL A   1      45.938  30.652  29.332  1.00  0.00     0.049 A 
ATOM     60  C   UNL A   1      40.902  32.763  30.602  1.00  0.00     0.074 A 
ATOM     61  C   UNL A   1      47.031  31.472  29.553  1.00  0.00     0.029 A 
ATOM     62  N   UNL A   1      44.816  31.366  29.724  1.00  0.00    -0.354 N 
ATOM     63  N   UNL A   1      42.140  32.407  30.349  1.00  0.00    -0.248 NA
ATOM     64  C   UNL A   1      40.767  34.104  31.188  1.00  0.00     0.031 C 
ATOM     65  C   UNL A   1      46.571  32.667  30.120  1.00  0.00     0.029 A 
ATOM     66  C   UNL A   1      45.189  32.610  30.203  1.00  0.00     0.049 A 
ATOM     67  H   UNL A   1      43.890  31.037  29.670  1.00  0.00     0.167 HD
ATOM     68  C   UNL A   1      42.928  33.488  30.726  1.00  0.00     0.074 A 
ATOM     69  C   UNL A   1      42.027  34.517  31.204  1.00  0.00     0.031 C 
ATOM     70  C   UNL A   1      44.278  33.617  30.683  1.00  0.00     0.031 A 
BRANCH  57  71
ATOM     71  C   UNL A   1      47.225  28.642  28.485  1.00  0.00    -0.014 A 
ATOM     72  C   UNL A   1      47.887  27.858  29.448  1.00  0.00     0.010 A 
ATOM     73  C   UNL A   1      47.793  28.774  27.206  1.00  0.00     0.010 A 
ATOM     74  C   UNL A   1      49.116  27.261  29.155  1.00  0.00     0.020 A 
ATOM     75  C   UNL A   1      49.009  28.154  26.897  1.00  0.00     0.020 A 
ATOM     76  C   UNL A   1      49.672  27.418  27.883  1.00  0.00     0.054 A 
BRANCH  76  77
ATOM     77  S   UNL A   1      51.263  26.624  27.525  1.00  0.00     0.124 S 
ATOM     78  O   UNL A   1      51.444  26.940  26.111  1.00  0.00    -0.237 OA
ATOM     79  O   UNL A   1      52.175  27.303  28.442  1.00  0.00    -0.237 OA
ATOM     80  O   UNL A   1      51.021  25.214  27.822  1.00  0.00    -0.744 OA
ENDBRANCH  76  77
ENDBRANCH  57  71
BRANCH  58  81
ATOM     81  C   UNL A   1      38.310  32.576  30.725  1.00  0.00    -0.014 A 
ATOM     82  C   UNL A   1      37.817  32.467  32.038  1.00  0.00     0.010 A 
ATOM     83  C   UNL A   1      37.544  33.257  29.762  1.00  0.00     0.010 A 
ATOM     84  C   UNL A   1      36.577  33.013  32.377  1.00  0.00     0.020 A 
ATOM     85  C   UNL A   1      36.315  33.828  30.104  1.00  0.00     0.020 A 
ATOM     86  C   UNL A   1      35.834  33.693  31.408  1.00  0.00     0.054 A 
BRANCH  86  87
ATOM     87  S   UNL A   1      34.255  34.450  31.884  1.00  0.00     0.124 S 
ATOM     88  O   UNL A   1      34.691  35.682  32.531  1.00  0.00    -0.237 OA
ATOM     89  O   UNL A   1      33.581  34.612  30.598  1.00  0.00    -0.237 OA
ATOM     90  O   UNL A   1      33.654  33.454  32.770  1.00  0.00    -0.744 OA
ENDBRANCH  86  87
ENDBRANCH  58  81
BRANCH  70  91
ATOM     91  C   UNL A   1      44.857  34.926  31.148  1.00  0.00    -0.014 A 
ATOM     92  C   UNL A   1      45.043  35.996  30.256  1.00  0.00     0.010 A 
ATOM     93  C   UNL A   1      45.188  35.097  32.504  1.00  0.00     0.010 A 
ATOM     94  C   UNL A   1      45.587  37.201  30.704  1.00  0.00     0.020 A 
ATOM     95  C   UNL A   1      45.707  36.311  32.962  1.00  0.00     0.020 A 
ATOM     96  C   UNL A   1      45.921  37.349  32.054  1.00  0.00     0.054 A 
BRANCH  96  97
ATOM     97  S   UNL A   1      46.603  38.931  32.617  1.00  0.00     0.124 S 
ATOM     98  O   UNL A   1      47.380  39.356  31.455  1.00  0.00    -0.237 OA
ATOM     99  O   UNL A   1      45.405  39.719  32.895  1.00  0.00    -0.237 OA
ATOM    100  O   UNL A   1      47.390  38.569  33.794  1.00  0.00    -0.744 OA
ENDBRANCH  96  97
ENDBRANCH  70  91
ENDBRANCH  44  45
ENDBRANCH  36  39
ENDBRANCH  34  35
ENDBRANCH  33  34
ENDBRANCH  32  33
ENDBRANCH   1  32
TORSDOF 19
ENDMDL
MODEL 2
REMARK VINA RESULT:      -9.4      4.310     10.472
REMARK SMILES COc1ccc(NC2=[NH+]C(=O)/C(=C\c3ccccc3C(=O)NCCCCCCNC(=O)c3ccc(-c4c5nc(c(-c6ccc(S(=O)(=O)[O-])cc6)c6ccc([nH]6)c(-c6ccc(S(=O)(=O)[O-])cc6)c6nc(c(-c7ccc(S(=O)(=O)[O-])cc7)c7ccc4[nH]7)C=C6)C=C5)cc3)S2)cc1
REMARK SMILES IDX 25 1 24 2 23 3 22 4 20 5 21 6 19 8 14 9 15 10 16 11 18 12
REMARK SMILES IDX 17 13 13 14 7 15 8 16 9 18 92 19 10 20 12 22 11 23 6 24 3 25
REMARK SMILES IDX 4 26 94 27 5 28 93 29 2 30 1 31 26 32 27 33 28 34 29 35
REMARK SMILES IDX 30 36 31 38 32 39 33 40 91 41 34 42 90 43 35 44 36 45 37 46
REMARK SMILES IDX 84 47 38 48 89 49 83 50 85 51 39 52 88 53 82 54 81 55 40 57
REMARK SMILES IDX 70 58 51 59 69 60 52 61 55 62 68 63 86 64 53 65 54 66 67 68
REMARK SMILES IDX 87 69 56 70 41 71 42 72 50 73 43 74 49 75 44 76 45 77 46 78
REMARK SMILES IDX 47 79 48 80 71 81 72 82 80 83 73 84 79 85 74 86 75 87 76 88
REMARK SMILES IDX 77 89 78 90 57 91 58 92 66 93 59 94 65 95 60 96 61 97 62 98
REMARK SMILES IDX 63 99 64 100
REMARK H PARENT 22 7 7 17 9 21 29 37 85 56 55 67
REMARK Flexibility Score: inf
ROOT
ATOM      1  C   UNL A   1      36.312  33.768  31.581  1.00  0.00     0.002 C 
ENDROOT
BRANCH   1   2
ATOM      2  C   UNL A   1      37.169  32.530  31.299  1.00  0.00     0.021 C 
BRANCH   2   3
ATOM      3  C   UNL A   1      37.843  31.884  32.507  1.00  0.00     0.116 C 
BRANCH   3   4
ATOM      4  N   UNL A   1      37.338  30.566  32.827  1.00  0.00    -0.352 N 
ATOM      5  C   UNL A   1      38.006  29.464  33.304  1.00  0.00     0.251 C 
ATOM      6  O   UNL A   1      37.404  28.392  33.348  1.00  0.00    -0.269 OA
ATOM      7  H   UNL A   1      36.372  30.440  32.681  1.00  0.00     0.163 HD
BRANCH   5   8
ATOM      8  C   UNL A   1      39.453  29.512  33.651  1.00  0.00     0.047 A 
ATOM      9  C   UNL A   1      40.048  30.303  34.655  1.00  0.00    -0.011 A 
ATOM     10  C   UNL A   1      41.457  30.328  34.731  1.00  0.00     0.009 A 
ATOM     11  C   UNL A   1      42.250  29.524  33.911  1.00  0.00     0.001 A 
ATOM     12  C   UNL A   1      40.262  28.660  32.872  1.00  0.00     0.014 A 
ATOM     13  C   UNL A   1      41.651  28.664  33.003  1.00  0.00     0.001 A 
BRANCH   9  14
ATOM     14  C   UNL A   1      39.372  31.169  35.639  1.00  0.00     0.032 C 
ATOM     15  N   UNL A   1      39.444  35.752  37.593  1.00  0.00    -0.235 N 
ATOM     16  C   UNL A   1      39.537  34.767  36.658  1.00  0.00     0.322 C 
ATOM     17  H   UNL A   1      38.533  36.025  37.849  1.00  0.00     0.313 HD
ATOM     18  N   UNL A   1      40.230  34.708  35.571  1.00  0.00    -0.199 N 
ATOM     19  S   UNL A   1      38.574  33.340  37.022  1.00  0.00     0.006 SA
ATOM     20  C   UNL A   1      40.032  33.532  34.877  1.00  0.00     0.346 C 
ATOM     21  H   UNL A   1      40.833  35.424  35.269  1.00  0.00     0.316 HD
ATOM     22  C   UNL A   1      39.365  32.507  35.732  1.00  0.00     0.110 C 
ATOM     23  O   UNL A   1      40.301  33.352  33.699  1.00  0.00    -0.240 OA
BRANCH  15  24
ATOM     24  C   UNL A   1      40.498  36.426  38.237  1.00  0.00     0.125 A 
ATOM     25  C   UNL A   1      42.600  38.024  39.234  1.00  0.00     0.119 A 
ATOM     26  C   UNL A   1      41.413  37.885  39.952  1.00  0.00     0.051 A 
ATOM     27  C   UNL A   1      42.785  37.268  38.081  1.00  0.00     0.051 A 
ATOM     28  C   UNL A   1      40.375  37.076  39.467  1.00  0.00     0.055 A 
ATOM     29  C   UNL A   1      41.742  36.473  37.592  1.00  0.00     0.055 A 
BRANCH  25  30
ATOM     30  O   UNL A   1      43.510  38.906  39.748  1.00  0.00    -0.497 OA
ATOM     31  C   UNL A   1      43.047  40.251  39.873  1.00  0.00     0.278 C 
ENDBRANCH  25  30
ENDBRANCH  15  24
ENDBRANCH   9  14
ENDBRANCH   5   8
ENDBRANCH   3   4
ENDBRANCH   2   3
ENDBRANCH   1   2
BRANCH   1  32
ATOM     32  C   UNL A   1      35.089  33.972  30.687  1.00  0.00     0.002 C 
BRANCH  32  33
ATOM     33  C   UNL A   1      34.443  32.723  30.094  1.00  0.00     0.021 C 
BRANCH  33  34
ATOM     34  C   UNL A   1      34.574  32.567  28.585  1.00  0.00     0.116 C 
BRANCH  34  35
ATOM     35  N   UNL A   1      33.896  31.390  28.066  1.00  0.00    -0.352 N 
ATOM     36  C   UNL A   1      34.382  30.137  27.774  1.00  0.00     0.251 C 
ATOM     37  H   UNL A   1      32.934  31.509  27.896  1.00  0.00     0.163 HD
ATOM     38  O   UNL A   1      33.647  29.318  27.229  1.00  0.00    -0.269 OA
BRANCH  36  39
ATOM     39  C   UNL A   1      35.791  29.779  28.068  1.00  0.00     0.039 A 
ATOM     40  C   UNL A   1      36.743  29.924  27.053  1.00  0.00     0.014 A 
ATOM     41  C   UNL A   1      36.185  29.295  29.317  1.00  0.00     0.014 A 
ATOM     42  C   UNL A   1      38.090  29.654  27.314  1.00  0.00     0.010 A 
ATOM     43  C   UNL A   1      37.537  29.117  29.604  1.00  0.00     0.010 A 
ATOM     44  C   UNL A   1      38.505  29.285  28.603  1.00  0.00    -0.014 A 
BRANCH  44  45
ATOM     45  C   UNL A   1      39.940  29.057  28.917  1.00  0.00     0.031 A 
ATOM     46  C   UNL A   1      40.590  27.741  28.581  1.00  0.00     0.074 A 
ATOM     47  C   UNL A   1      40.645  30.013  29.557  1.00  0.00     0.049 A 
ATOM     48  N   UNL A   1      41.812  27.339  28.821  1.00  0.00    -0.248 NA
ATOM     49  C   UNL A   1      39.748  26.731  27.920  1.00  0.00     0.031 C 
ATOM     50  C   UNL A   1      40.118  31.311  29.988  1.00  0.00     0.029 A 
ATOM     51  N   UNL A   1      41.957  30.041  29.959  1.00  0.00    -0.354 N 
ATOM     52  C   UNL A   1      41.877  26.028  28.364  1.00  0.00     0.074 A 
ATOM     53  C   UNL A   1      40.558  25.683  27.884  1.00  0.00     0.031 C 
ATOM     54  C   UNL A   1      41.105  32.020  30.560  1.00  0.00     0.029 A 
ATOM     55  C   UNL A   1      42.324  31.217  30.571  1.00  0.00     0.049 A 
ATOM     56  H   UNL A   1      42.578  29.290  29.822  1.00  0.00     0.167 HD
ATOM     57  C   UNL A   1      42.942  25.191  28.322  1.00  0.00     0.031 A 
ATOM     58  C   UNL A   1      43.507  31.607  31.081  1.00  0.00     0.031 A 
ATOM     59  C   UNL A   1      44.261  25.546  28.773  1.00  0.00     0.049 A 
ATOM     60  C   UNL A   1      44.683  30.674  31.000  1.00  0.00     0.074 A 
ATOM     61  C   UNL A   1      45.423  24.796  28.713  1.00  0.00     0.029 A 
ATOM     62  N   UNL A   1      44.595  26.755  29.363  1.00  0.00    -0.354 N 
ATOM     63  N   UNL A   1      44.738  29.460  30.502  1.00  0.00    -0.248 NA
ATOM     64  C   UNL A   1      45.959  31.166  31.535  1.00  0.00     0.031 C 
ATOM     65  C   UNL A   1      46.451  25.537  29.307  1.00  0.00     0.029 A 
ATOM     66  C   UNL A   1      45.940  26.767  29.690  1.00  0.00     0.049 A 
ATOM     67  H   UNL A   1      43.969  27.497  29.527  1.00  0.00     0.167 HD
ATOM     68  C   UNL A   1      46.058  29.053  30.647  1.00  0.00     0.074 A 
ATOM     69  C   UNL A   1      46.772  30.156  31.259  1.00  0.00     0.031 C 
ATOM     70  C   UNL A   1      46.631  27.871  30.307  1.00  0.00     0.031 A 
BRANCH  57  71
ATOM     71  C   UNL A   1      42.718  23.809  27.765  1.00  0.00    -0.014 A 
ATOM     72  C   UNL A   1      42.693  23.581  26.376  1.00  0.00     0.010 A 
ATOM     73  C   UNL A   1      42.552  22.720  28.638  1.00  0.00     0.010 A 
ATOM     74  C   UNL A   1      42.456  22.300  25.871  1.00  0.00     0.020 A 
ATOM     75  C   UNL A   1      42.343  21.430  28.138  1.00  0.00     0.020 A 
ATOM     76  C   UNL A   1      42.276  21.234  26.756  1.00  0.00     0.054 A 
BRANCH  76  77
ATOM     77  S   UNL A   1      41.980  19.579  26.075  1.00  0.00     0.124 S 
ATOM     78  O   UNL A   1      42.902  19.552  24.942  1.00  0.00    -0.237 OA
ATOM     79  O   UNL A   1      42.330  18.704  27.190  1.00  0.00    -0.237 OA
ATOM     80  O   UNL A   1      40.562  19.598  25.722  1.00  0.00    -0.744 OA
ENDBRANCH  76  77
ENDBRANCH  57  71
BRANCH  58  81
ATOM     81  C   UNL A   1      43.645  32.959  31.689  1.00  0.00    -0.014 A 
ATOM     82  C   UNL A   1      43.517  33.130  33.080  1.00  0.00     0.010 A 
ATOM     83  C   UNL A   1      43.924  34.079  30.886  1.00  0.00     0.010 A 
ATOM     84  C   UNL A   1      43.649  34.398  33.653  1.00  0.00     0.020 A 
ATOM     85  C   UNL A   1      44.083  35.344  31.458  1.00  0.00     0.020 A 
ATOM     86  C   UNL A   1      43.934  35.497  32.838  1.00  0.00     0.054 A 
BRANCH  86  87
ATOM     87  S   UNL A   1      44.164  37.124  33.609  1.00  0.00     0.124 S 
ATOM     88  O   UNL A   1      45.207  37.710  32.776  1.00  0.00    -0.237 OA
ATOM     89  O   UNL A   1      42.837  37.724  33.482  1.00  0.00    -0.237 OA
ATOM     90  O   UNL A   1      44.560  36.798  34.978  1.00  0.00    -0.744 OA
ENDBRANCH  86  87
ENDBRANCH  58  81
BRANCH  70  91
ATOM     91  C   UNL A   1      48.104  27.720  30.572  1.00  0.00    -0.014 A 
ATOM     92  C   UNL A   1      49.050  27.933  29.556  1.00  0.00     0.010 A 
ATOM     93  C   UNL A   1      48.547  27.393  31.866  1.00  0.00     0.010 A 
ATOM     94  C   UNL A   1      50.414  27.782  29.818  1.00  0.00     0.020 A 
ATOM     95  C   UNL A   1      49.912  27.269  32.140  1.00  0.00     0.020 A 
ATOM     96  C   UNL A   1      50.835  27.446  31.108  1.00  0.00     0.054 A 
BRANCH  96  97
ATOM     97  S   UNL A   1      52.612  27.280  31.432  1.00  0.00     0.124 S 
ATOM     98  O   UNL A   1      53.156  28.437  30.725  1.00  0.00    -0.237 OA
ATOM     99  O   UNL A   1      52.682  27.344  32.889  1.00  0.00    -0.237 OA
ATOM    100  O   UNL A   1      52.949  25.981  30.854  1.00  0.00    -0.744 OA
ENDBRANCH  96  97
ENDBRANCH  70  91
ENDBRANCH  44  45
ENDBRANCH  36  39
ENDBRANCH  34  35
ENDBRANCH  33  34
ENDBRANCH  32  33
ENDBRANCH   1  32
TORSDOF 19
ENDMDL
MODEL 3
REMARK VINA RESULT:      -9.3      4.085     11.666
REMARK SMILES COc1ccc(NC2=[NH+]C(=O)/C(=C\c3ccccc3C(=O)NCCCCCCNC(=O)c3ccc(-c4c5nc(c(-c6ccc(S(=O)(=O)[O-])cc6)c6ccc([nH]6)c(-c6ccc(S(=O)(=O)[O-])cc6)c6nc(c(-c7ccc(S(=O)(=O)[O-])cc7)c7ccc4[nH]7)C=C6)C=C5)cc3)S2)cc1
REMARK SMILES IDX 25 1 24 2 23 3 22 4 20 5 21 6 19 8 14 9 15 10 16 11 18 12
REMARK SMILES IDX 17 13 13 14 7 15 8 16 9 18 92 19 10 20 12 22 11 23 6 24 3 25
REMARK SMILES IDX 4 26 94 27 5 28 93 29 2 30 1 31 26 32 27 33 28 34 29 35
REMARK SMILES IDX 30 36 31 38 32 39 33 40 91 41 34 42 90 43 35 44 36 45 37 46
REMARK SMILES IDX 84 47 38 48 89 49 83 50 85 51 39 52 88 53 82 54 81 55 40 57
REMARK SMILES IDX 70 58 51 59 69 60 52 61 55 62 68 63 86 64 53 65 54 66 67 68
REMARK SMILES IDX 87 69 56 70 41 71 42 72 50 73 43 74 49 75 44 76 45 77 46 78
REMARK SMILES IDX 47 79 48 80 71 81 72 82 80 83 73 84 79 85 74 86 75 87 76 88
REMARK SMILES IDX 77 89 78 90 57 91 58 92 66 93 59 94 65 95 60 96 61 97 62 98
REMARK SMILES IDX 63 99 64 100
REMARK H PARENT 22 7 7 17 9 21 29 37 85 56 55 67
REMARK Flexibility Score: inf
ROOT
ATOM      1  C   UNL A   1      36.272  33.732  31.573  1.00  0.00     0.002 C 
ENDROOT
BRANCH   1   2
ATOM      2  C   UNL A   1      37.164  32.519  31.286  1.00  0.00     0.021 C 
BRANCH   2   3
ATOM      3  C   UNL A   1      37.817  31.858  32.497  1.00  0.00     0.116 C 
BRANCH   3   4
ATOM      4  N   UNL A   1      37.313  30.533  32.788  1.00  0.00    -0.352 N 
ATOM      5  C   UNL A   1      37.971  29.435  33.288  1.00  0.00     0.251 C 
ATOM      6  O   UNL A   1      37.379  28.357  33.300  1.00  0.00    -0.269 OA
ATOM      7  H   UNL A   1      36.355  30.398  32.598  1.00  0.00     0.163 HD
BRANCH   5   8
ATOM      8  C   UNL A   1      39.401  29.496  33.699  1.00  0.00     0.047 A 
ATOM      9  C   UNL A   1      39.933  30.242  34.771  1.00  0.00    -0.011 A 
ATOM     10  C   UNL A   1      41.336  30.295  34.908  1.00  0.00     0.009 A 
ATOM     11  C   UNL A   1      42.183  29.557  34.078  1.00  0.00     0.001 A 
ATOM     12  C   UNL A   1      40.263  28.710  32.908  1.00  0.00     0.014 A 
ATOM     13  C   UNL A   1      41.644  28.737  33.099  1.00  0.00     0.001 A 
BRANCH   9  14
ATOM     14  C   UNL A   1      39.195  31.034  35.772  1.00  0.00     0.032 C 
ATOM     15  N   UNL A   1      39.014  35.527  37.918  1.00  0.00    -0.235 N 
ATOM     16  C   UNL A   1      39.173  34.588  36.945  1.00  0.00     0.322 C 
ATOM     17  H   UNL A   1      38.085  35.749  38.161  1.00  0.00     0.313 HD
ATOM     18  N   UNL A   1      39.895  34.607  35.876  1.00  0.00    -0.199 N 
ATOM     19  S   UNL A   1      38.267  33.107  37.223  1.00  0.00     0.006 SA
ATOM     20  C   UNL A   1      39.767  33.454  35.127  1.00  0.00     0.346 C 
ATOM     21  H   UNL A   1      40.473  35.361  35.620  1.00  0.00     0.316 HD
ATOM     22  C   UNL A   1      39.126  32.365  35.921  1.00  0.00     0.110 C 
ATOM     23  O   UNL A   1      40.073  33.337  33.951  1.00  0.00    -0.240 OA
BRANCH  15  24
ATOM     24  C   UNL A   1      40.020  36.218  38.617  1.00  0.00     0.125 A 
ATOM     25  C   UNL A   1      42.015  37.868  39.743  1.00  0.00     0.119 A 
ATOM     26  C   UNL A   1      40.834  37.608  40.437  1.00  0.00     0.051 A 
ATOM     27  C   UNL A   1      42.252  37.206  38.543  1.00  0.00     0.051 A 
ATOM     28  C   UNL A   1      39.851  36.773  39.887  1.00  0.00     0.055 A 
ATOM     29  C   UNL A   1      41.264  36.385  37.990  1.00  0.00     0.055 A 
BRANCH  25  30
ATOM     30  O   UNL A   1      42.866  38.767  40.325  1.00  0.00    -0.497 OA
ATOM     31  C   UNL A   1      42.319  40.068  40.541  1.00  0.00     0.278 C 
ENDBRANCH  25  30
ENDBRANCH  15  24
ENDBRANCH   9  14
ENDBRANCH   5   8
ENDBRANCH   3   4
ENDBRANCH   2   3
ENDBRANCH   1   2
BRANCH   1  32
ATOM     32  C   UNL A   1      35.042  33.904  30.682  1.00  0.00     0.002 C 
BRANCH  32  33
ATOM     33  C   UNL A   1      34.434  32.639  30.083  1.00  0.00     0.021 C 
BRANCH  33  34
ATOM     34  C   UNL A   1      34.535  32.513  28.569  1.00  0.00     0.116 C 
BRANCH  34  35
ATOM     35  N   UNL A   1      33.981  31.270  28.056  1.00  0.00    -0.352 N 
ATOM     36  C   UNL A   1      34.589  30.065  27.791  1.00  0.00     0.251 C 
ATOM     37  H   UNL A   1      33.016  31.295  27.867  1.00  0.00     0.163 HD
ATOM     38  O   UNL A   1      33.944  29.172  27.245  1.00  0.00    -0.269 OA
BRANCH  36  39
ATOM     39  C   UNL A   1      36.019  29.846  28.115  1.00  0.00     0.039 A 
ATOM     40  C   UNL A   1      36.350  29.368  29.389  1.00  0.00     0.014 A 
ATOM     41  C   UNL A   1      37.035  30.110  27.195  1.00  0.00     0.014 A 
ATOM     42  C   UNL A   1      37.683  29.092  29.708  1.00  0.00     0.010 A 
ATOM     43  C   UNL A   1      38.349  29.746  27.479  1.00  0.00     0.010 A 
ATOM     44  C   UNL A   1      38.690  29.242  28.742  1.00  0.00    -0.014 A 
BRANCH  44  45
ATOM     45  C   UNL A   1      40.104  28.891  29.042  1.00  0.00     0.031 A 
ATOM     46  C   UNL A   1      41.011  29.894  29.704  1.00  0.00     0.074 A 
ATOM     47  C   UNL A   1      40.589  27.690  28.665  1.00  0.00     0.049 A 
ATOM     48  N   UNL A   1      42.282  29.790  29.999  1.00  0.00    -0.248 NA
ATOM     49  C   UNL A   1      40.422  31.199  30.050  1.00  0.00     0.031 C 
ATOM     50  C   UNL A   1      39.831  26.649  27.966  1.00  0.00     0.029 A 
ATOM     51  N   UNL A   1      41.838  27.141  28.815  1.00  0.00    -0.354 N 
ATOM     52  C   UNL A   1      42.647  31.018  30.540  1.00  0.00     0.074 A 
ATOM     53  C   UNL A   1      41.480  31.869  30.481  1.00  0.00     0.031 C 
ATOM     54  C   UNL A   1      40.618  25.577  27.781  1.00  0.00     0.029 A 
ATOM     55  C   UNL A   1      41.947  25.865  28.314  1.00  0.00     0.049 A 
ATOM     56  H   UNL A   1      42.587  27.616  29.242  1.00  0.00     0.167 HD
ATOM     57  C   UNL A   1      43.838  31.398  31.063  1.00  0.00     0.031 A 
ATOM     58  C   UNL A   1      42.994  25.019  28.288  1.00  0.00     0.031 A 
ATOM     59  C   UNL A   1      44.989  30.540  31.147  1.00  0.00     0.049 A 
ATOM     60  C   UNL A   1      44.298  25.452  28.898  1.00  0.00     0.074 A 
ATOM     61  C   UNL A   1      46.222  30.806  31.718  1.00  0.00     0.029 A 
ATOM     62  N   UNL A   1      45.049  29.247  30.650  1.00  0.00    -0.354 N 
ATOM     63  N   UNL A   1      44.604  26.595  29.464  1.00  0.00    -0.248 NA
ATOM     64  C   UNL A   1      45.396  24.475  28.877  1.00  0.00     0.031 C 
ATOM     65  C   UNL A   1      47.041  29.687  31.527  1.00  0.00     0.029 A 
ATOM     66  C   UNL A   1      46.302  28.707  30.884  1.00  0.00     0.049 A 
ATOM     67  H   UNL A   1      44.310  28.781  30.197  1.00  0.00     0.167 HD
ATOM     68  C   UNL A   1      45.922  26.468  29.885  1.00  0.00     0.074 A 
ATOM     69  C   UNL A   1      46.348  25.129  29.527  1.00  0.00     0.031 C 
ATOM     70  C   UNL A   1      46.711  27.377  30.511  1.00  0.00     0.031 A 
BRANCH  57  71
ATOM     71  C   UNL A   1      43.949  32.807  31.586  1.00  0.00    -0.014 A 
ATOM     72  C   UNL A   1      43.160  33.244  32.666  1.00  0.00     0.010 A 
ATOM     73  C   UNL A   1      44.867  33.700  31.006  1.00  0.00     0.010 A 
ATOM     74  C   UNL A   1      43.250  34.562  33.123  1.00  0.00     0.020 A 
ATOM     75  C   UNL A   1      44.983  35.011  31.479  1.00  0.00     0.020 A 
ATOM     76  C   UNL A   1      44.158  35.438  32.522  1.00  0.00     0.054 A 
BRANCH  76  77
ATOM     77  S   UNL A   1      44.263  37.140  33.142  1.00  0.00     0.124 S 
ATOM     78  O   UNL A   1      43.906  36.969  34.548  1.00  0.00    -0.237 OA
ATOM     79  O   UNL A   1      45.658  37.490  32.887  1.00  0.00    -0.237 OA
ATOM     80  O   UNL A   1      43.283  37.864  32.335  1.00  0.00    -0.744 OA
ENDBRANCH  76  77
ENDBRANCH  57  71
BRANCH  58  81
ATOM     81  C   UNL A   1      42.843  23.666  27.686  1.00  0.00    -0.014 A 
ATOM     82  C   UNL A   1      43.218  23.435  26.351  1.00  0.00     0.010 A 
ATOM     83  C   UNL A   1      42.342  22.597  28.450  1.00  0.00     0.010 A 
ATOM     84  C   UNL A   1      43.079  22.165  25.784  1.00  0.00     0.020 A 
ATOM     85  C   UNL A   1      42.226  21.319  27.896  1.00  0.00     0.020 A 
ATOM     86  C   UNL A   1      42.586  21.113  26.562  1.00  0.00     0.054 A 
BRANCH  86  87
ATOM     87  S   UNL A   1      42.473  19.458  25.828  1.00  0.00     0.124 S 
ATOM     88  O   UNL A   1      42.824  18.601  26.954  1.00  0.00    -0.237 OA
ATOM     89  O   UNL A   1      41.078  19.399  25.396  1.00  0.00    -0.237 OA
ATOM     90  O   UNL A   1      43.450  19.501  24.741  1.00  0.00    -0.744 OA
ENDBRANCH  86  87
ENDBRANCH  58  81
BRANCH  70  91
ATOM     91  C   UNL A   1      48.108  26.945  30.864  1.00  0.00    -0.014 A 
ATOM     92  C   UNL A   1      48.358  26.141  31.989  1.00  0.00     0.010 A 
ATOM     93  C   UNL A   1      49.182  27.322  30.038  1.00  0.00     0.010 A 
ATOM     94  C   UNL A   1      49.662  25.755  32.306  1.00  0.00     0.020 A 
ATOM     95  C   UNL A   1      50.485  26.914  30.334  1.00  0.00     0.020 A 
ATOM     96  C   UNL A   1      50.718  26.149  31.478  1.00  0.00     0.054 A 
BRANCH  96  97
ATOM     97  S   UNL A   1      52.400  25.614  31.894  1.00  0.00     0.124 S 
ATOM     98  O   UNL A   1      52.191  24.214  32.256  1.00  0.00    -0.237 OA
ATOM     99  O   UNL A   1      53.128  25.840  30.649  1.00  0.00    -0.237 OA
ATOM    100  O   UNL A   1      52.779  26.493  32.999  1.00  0.00    -0.744 OA
ENDBRANCH  96  97
ENDBRANCH  70  91
ENDBRANCH  44  45
ENDBRANCH  36  39
ENDBRANCH  34  35
ENDBRANCH  33  34
ENDBRANCH  32  33
ENDBRANCH   1  32
TORSDOF 19
ENDMDL
