MODEL 1
REMARK VINA RESULT:     -11.7      0.000      0.000
REMARK SMILES O=C(CC1(CC(=O)Nc2ccc3ccccc3n2)CCCCC1)NCCCCCCNC(=O)c1ccc(-c2c3nc(c(-c4ccc(S(=O)(=O)[O-])cc4)c4ccc([nH]4)c(-c4ccc(S(=O)(=O)[O-])cc4)c4nc(c(-c5ccc(S(=O)(=O)[O-])cc5)c5ccc2[nH]5)C=C4)C=C3)cc1
REMARK SMILES IDX 27 1 26 2 25 3 24 4 1 5 2 6 3 8 4 9 19 10 23 11 20 12 22 13
REMARK SMILES IDX 21 14 5 15 6 16 7 17 8 18 9 20 10 21 18 22 11 23 17 24 12 25
REMARK SMILES IDX 16 26 13 27 15 28 14 29 28 30 29 31 30 32 31 33 32 34 33 36
REMARK SMILES IDX 34 37 35 38 93 39 36 40 92 41 37 42 38 43 39 44 86 45 40 46
REMARK SMILES IDX 91 47 85 48 87 49 41 50 90 51 84 52 83 53 42 55 72 56 53 57
REMARK SMILES IDX 71 58 54 59 57 60 70 61 88 62 55 63 56 64 69 66 89 67 58 68
REMARK SMILES IDX 43 69 44 70 52 71 45 72 51 73 46 74 47 75 48 76 49 77 50 78
REMARK SMILES IDX 73 79 74 80 82 81 75 82 81 83 76 84 77 85 78 86 79 87 80 88
REMARK SMILES IDX 59 89 60 90 68 91 61 92 67 93 62 94 63 95 64 96 65 97 66 98
REMARK H PARENT 24 7 8 19 31 35 87 54 57 65
REMARK Flexibility Score: inf
ROOT
ATOM      1  C   UNL A   1      36.812  22.274  23.637  1.00  0.00     0.002 C 
ENDROOT
BRANCH   1   2
ATOM      2  C   UNL A   1      35.923  23.516  23.506  1.00  0.00     0.021 C 
BRANCH   2   3
ATOM      3  C   UNL A   1      34.573  23.298  22.819  1.00  0.00     0.116 C 
BRANCH   3   4
ATOM      4  N   UNL A   1      33.598  24.325  23.133  1.00  0.00    -0.356 N 
ATOM      5  O   UNL A   1      31.757  23.016  22.737  1.00  0.00    -0.275 OA
ATOM      6  C   UNL A   1      32.251  24.061  23.157  1.00  0.00     0.220 C 
ATOM      7  H   UNL A   1      33.911  25.237  23.337  1.00  0.00     0.163 HD
BRANCH   6   8
ATOM      8  C   UNL A   1      31.382  25.161  23.766  1.00  0.00     0.107 C 
BRANCH   8   9
ATOM      9  C   UNL A   1      31.831  25.685  25.168  1.00  0.00    -0.012 C 
ATOM     10  C   UNL A   1      33.046  26.655  24.964  1.00  0.00     0.008 C 
ATOM     11  C   UNL A   1      30.767  26.597  25.787  1.00  0.00     0.008 C 
ATOM     12  C   UNL A   1      33.510  27.364  26.250  1.00  0.00     0.001 C 
ATOM     13  C   UNL A   1      31.155  27.113  27.171  1.00  0.00     0.001 C 
ATOM     14  C   UNL A   1      32.382  28.000  27.064  1.00  0.00     0.000 C 
BRANCH   9  15
ATOM     15  C   UNL A   1      32.277  24.519  26.104  1.00  0.00     0.108 C 
BRANCH  15  16
ATOM     16  C   UNL A   1      31.348  23.405  26.591  1.00  0.00     0.226 C 
ATOM     17  O   UNL A   1      30.535  23.674  27.485  1.00  0.00    -0.275 OA
ATOM     18  N   UNL A   1      31.190  22.246  25.886  1.00  0.00    -0.311 N 
ATOM     19  H   UNL A   1      30.260  21.994  25.684  1.00  0.00     0.171 HD
BRANCH  18  20
ATOM     20  C   UNL A   1      32.170  21.367  25.413  1.00  0.00     0.133 A 
ATOM     21  C   UNL A   1      33.460  21.485  25.899  1.00  0.00     0.048 A 
ATOM     22  N   UNL A   1      31.862  20.479  24.463  1.00  0.00    -0.231 NA
ATOM     23  C   UNL A   1      34.383  20.490  25.575  1.00  0.00     0.014 A 
ATOM     24  C   UNL A   1      32.749  19.515  24.127  1.00  0.00     0.073 A 
ATOM     25  C   UNL A   1      34.005  19.429  24.742  1.00  0.00     0.000 A 
ATOM     26  C   UNL A   1      32.380  18.501  23.243  1.00  0.00     0.029 A 
ATOM     27  C   UNL A   1      34.801  18.280  24.555  1.00  0.00     0.010 A 
ATOM     28  C   UNL A   1      33.136  17.337  23.098  1.00  0.00     0.002 A 
ATOM     29  C   UNL A   1      34.340  17.217  23.777  1.00  0.00     0.001 A 
ENDBRANCH  18  20
ENDBRANCH  15  16
ENDBRANCH   9  15
ENDBRANCH   8   9
ENDBRANCH   6   8
ENDBRANCH   3   4
ENDBRANCH   2   3
ENDBRANCH   1   2
BRANCH   1  30
ATOM     30  C   UNL A   1      37.432  22.048  25.019  1.00  0.00     0.002 C 
BRANCH  30  31
ATOM     31  C   UNL A   1      38.222  20.751  25.182  1.00  0.00     0.021 C 
BRANCH  31  32
ATOM     32  C   UNL A   1      39.391  20.825  26.155  1.00  0.00     0.116 C 
BRANCH  32  33
ATOM     33  N   UNL A   1      40.253  19.653  26.100  1.00  0.00    -0.352 N 
ATOM     34  C   UNL A   1      41.628  19.600  26.155  1.00  0.00     0.251 C 
ATOM     35  H   UNL A   1      39.795  18.786  26.011  1.00  0.00     0.163 HD
ATOM     36  O   UNL A   1      42.219  18.541  25.957  1.00  0.00    -0.269 OA
BRANCH  34  37
ATOM     37  C   UNL A   1      42.387  20.842  26.421  1.00  0.00     0.039 A 
ATOM     38  C   UNL A   1      42.828  21.617  25.345  1.00  0.00     0.014 A 
ATOM     39  C   UNL A   1      42.619  21.261  27.734  1.00  0.00     0.014 A 
ATOM     40  C   UNL A   1      43.431  22.855  25.588  1.00  0.00     0.010 A 
ATOM     41  C   UNL A   1      43.147  22.526  27.969  1.00  0.00     0.010 A 
ATOM     42  C   UNL A   1      43.559  23.338  26.901  1.00  0.00    -0.014 A 
BRANCH  42  43
ATOM     43  C   UNL A   1      44.122  24.682  27.192  1.00  0.00     0.031 A 
ATOM     44  C   UNL A   1      43.206  25.795  27.629  1.00  0.00     0.074 A 
ATOM     45  C   UNL A   1      45.431  24.928  26.974  1.00  0.00     0.049 A 
ATOM     46  N   UNL A   1      43.475  27.063  27.804  1.00  0.00    -0.248 NA
ATOM     47  C   UNL A   1      41.797  25.443  27.872  1.00  0.00     0.031 C 
ATOM     48  C   UNL A   1      46.418  23.947  26.516  1.00  0.00     0.029 A 
ATOM     49  N   UNL A   1      46.155  26.089  27.094  1.00  0.00    -0.354 N 
ATOM     50  C   UNL A   1      42.267  27.663  28.143  1.00  0.00     0.074 A 
ATOM     51  C   UNL A   1      41.258  26.629  28.115  1.00  0.00     0.031 C 
ATOM     52  C   UNL A   1      47.617  24.542  26.408  1.00  0.00     0.029 A 
ATOM     53  C   UNL A   1      47.480  25.956  26.744  1.00  0.00     0.049 A 
ATOM     54  H   UNL A   1      45.763  26.938  27.402  1.00  0.00     0.167 HD
ATOM     55  C   UNL A   1      42.024  28.955  28.462  1.00  0.00     0.031 A 
ATOM     56  C   UNL A   1      48.468  26.871  26.683  1.00  0.00     0.031 A 
ATOM     57  C   UNL A   1      43.037  29.973  28.527  1.00  0.00     0.049 A 
ATOM     58  C   UNL A   1      48.167  28.303  27.047  1.00  0.00     0.074 A 
ATOM     59  C   UNL A   1      42.900  31.294  28.917  1.00  0.00     0.029 A 
ATOM     60  N   UNL A   1      44.371  29.787  28.201  1.00  0.00    -0.354 N 
ATOM     61  N   UNL A   1      47.031  28.832  27.436  1.00  0.00    -0.248 NA
ATOM     62  C   UNL A   1      49.283  29.258  26.975  1.00  0.00     0.031 C 
ATOM     63  C   UNL A   1      44.141  31.920  28.778  1.00  0.00     0.029 A 
ATOM     64  C   UNL A   1      45.063  30.974  28.359  1.00  0.00     0.049 A 
ATOM     65  H   UNL A   1      44.766  28.937  27.900  1.00  0.00     0.167 HD
ATOM     66  C   UNL A   1      47.308  30.171  27.693  1.00  0.00     0.074 A 
ATOM     67  C   UNL A   1      48.717  30.370  27.424  1.00  0.00     0.031 C 
ATOM     68  C   UNL A   1      46.471  31.148  28.116  1.00  0.00     0.031 A 
BRANCH  55  69
ATOM     69  C   UNL A   1      40.606  29.353  28.772  1.00  0.00    -0.014 A 
ATOM     70  C   UNL A   1      39.638  29.447  27.757  1.00  0.00     0.010 A 
ATOM     71  C   UNL A   1      40.217  29.548  30.111  1.00  0.00     0.010 A 
ATOM     72  C   UNL A   1      38.311  29.747  28.072  1.00  0.00     0.020 A 
ATOM     73  C   UNL A   1      38.885  29.823  30.433  1.00  0.00     0.020 A 
ATOM     74  C   UNL A   1      37.941  29.927  29.408  1.00  0.00     0.054 A 
BRANCH  74  75
ATOM     75  S   UNL A   1      36.198  30.246  29.792  1.00  0.00     0.124 S 
ATOM     76  O   UNL A   1      35.532  29.782  28.577  1.00  0.00    -0.237 OA
ATOM     77  O   UNL A   1      35.977  29.427  30.980  1.00  0.00    -0.237 OA
ATOM     78  O   UNL A   1      36.148  31.689  30.015  1.00  0.00    -0.744 OA
ENDBRANCH  74  75
ENDBRANCH  55  69
BRANCH  56  79
ATOM     79  C   UNL A   1      49.840  26.478  26.255  1.00  0.00    -0.014 A 
ATOM     80  C   UNL A   1      50.729  25.881  27.167  1.00  0.00     0.010 A 
ATOM     81  C   UNL A   1      50.280  26.733  24.943  1.00  0.00     0.010 A 
ATOM     82  C   UNL A   1      52.044  25.589  26.791  1.00  0.00     0.020 A 
ATOM     83  C   UNL A   1      51.584  26.412  24.553  1.00  0.00     0.020 A 
ATOM     84  C   UNL A   1      52.464  25.862  25.486  1.00  0.00     0.054 A 
BRANCH  84  85
ATOM     85  S   UNL A   1      54.172  25.470  25.016  1.00  0.00     0.124 S 
ATOM     86  O   UNL A   1      54.939  26.213  26.012  1.00  0.00    -0.237 OA
ATOM     87  O   UNL A   1      54.210  24.016  25.143  1.00  0.00    -0.237 OA
ATOM     88  O   UNL A   1      54.272  25.971  23.647  1.00  0.00    -0.744 OA
ENDBRANCH  84  85
ENDBRANCH  56  79
BRANCH  68  89
ATOM     89  C   UNL A   1      47.057  32.510  28.381  1.00  0.00    -0.014 A 
ATOM     90  C   UNL A   1      47.143  33.481  27.370  1.00  0.00     0.010 A 
ATOM     91  C   UNL A   1      47.449  32.844  29.690  1.00  0.00     0.010 A 
ATOM     92  C   UNL A   1      47.632  34.757  27.659  1.00  0.00     0.020 A 
ATOM     93  C   UNL A   1      47.911  34.127  29.990  1.00  0.00     0.020 A 
ATOM     94  C   UNL A   1      48.009  35.074  28.968  1.00  0.00     0.054 A 
BRANCH  94  95
ATOM     95  S   UNL A   1      48.578  36.757  29.331  1.00  0.00     0.124 S 
ATOM     96  O   UNL A   1      47.710  37.564  28.479  1.00  0.00    -0.237 OA
ATOM     97  O   UNL A   1      48.335  36.876  30.767  1.00  0.00    -0.237 OA
ATOM     98  O   UNL A   1      49.987  36.739  28.944  1.00  0.00    -0.744 OA
ENDBRANCH  94  95
ENDBRANCH  68  89
ENDBRANCH  42  43
ENDBRANCH  34  37
ENDBRANCH  32  33
ENDBRANCH  31  32
ENDBRANCH  30  31
ENDBRANCH   1  30
TORSDOF 20
ENDMDL
MODEL 2
REMARK VINA RESULT:     -11.5      0.586      7.885
REMARK SMILES O=C(CC1(CC(=O)Nc2ccc3ccccc3n2)CCCCC1)NCCCCCCNC(=O)c1ccc(-c2c3nc(c(-c4ccc(S(=O)(=O)[O-])cc4)c4ccc([nH]4)c(-c4ccc(S(=O)(=O)[O-])cc4)c4nc(c(-c5ccc(S(=O)(=O)[O-])cc5)c5ccc2[nH]5)C=C4)C=C3)cc1
REMARK SMILES IDX 27 1 26 2 25 3 24 4 1 5 2 6 3 8 4 9 19 10 23 11 20 12 22 13
REMARK SMILES IDX 21 14 5 15 6 16 7 17 8 18 9 20 10 21 18 22 11 23 17 24 12 25
REMARK SMILES IDX 16 26 13 27 15 28 14 29 28 30 29 31 30 32 31 33 32 34 33 36
REMARK SMILES IDX 34 37 35 38 93 39 36 40 92 41 37 42 38 43 39 44 86 45 40 46
REMARK SMILES IDX 91 47 85 48 87 49 41 50 90 51 84 52 83 53 42 55 72 56 53 57
REMARK SMILES IDX 71 58 54 59 57 60 70 61 88 62 55 63 56 64 69 66 89 67 58 68
REMARK SMILES IDX 43 69 44 70 52 71 45 72 51 73 46 74 47 75 48 76 49 77 50 78
REMARK SMILES IDX 73 79 74 80 82 81 75 82 81 83 76 84 77 85 78 86 79 87 80 88
REMARK SMILES IDX 59 89 60 90 68 91 61 92 67 93 62 94 63 95 64 96 65 97 66 98
REMARK H PARENT 24 7 8 19 31 35 87 54 57 65
REMARK Flexibility Score: inf
ROOT
ATOM      1  C   UNL A   1      36.959  22.149  23.645  1.00  0.00     0.002 C 
ENDROOT
BRANCH   1   2
ATOM      2  C   UNL A   1      36.092  23.409  23.538  1.00  0.00     0.021 C 
BRANCH   2   3
ATOM      3  C   UNL A   1      34.740  23.230  22.845  1.00  0.00     0.116 C 
BRANCH   3   4
ATOM      4  N   UNL A   1      33.807  24.306  23.123  1.00  0.00    -0.356 N 
ATOM      5  O   UNL A   1      31.918  23.094  22.648  1.00  0.00    -0.275 OA
ATOM      6  C   UNL A   1      32.448  24.112  23.091  1.00  0.00     0.220 C 
ATOM      7  H   UNL A   1      34.158  25.200  23.341  1.00  0.00     0.163 HD
BRANCH   6   8
ATOM      8  C   UNL A   1      31.613  25.255  23.667  1.00  0.00     0.107 C 
BRANCH   8   9
ATOM      9  C   UNL A   1      32.034  25.758  25.084  1.00  0.00    -0.012 C 
ATOM     10  C   UNL A   1      33.285  26.690  24.924  1.00  0.00     0.008 C 
ATOM     11  C   UNL A   1      30.981  26.701  25.675  1.00  0.00     0.008 C 
ATOM     12  C   UNL A   1      33.731  27.379  26.227  1.00  0.00     0.001 C 
ATOM     13  C   UNL A   1      31.341  27.198  27.074  1.00  0.00     0.001 C 
ATOM     14  C   UNL A   1      32.598  28.046  27.009  1.00  0.00     0.000 C 
BRANCH   9  15
ATOM     15  C   UNL A   1      32.415  24.575  26.027  1.00  0.00     0.108 C 
BRANCH  15  16
ATOM     16  C   UNL A   1      31.434  23.494  26.488  1.00  0.00     0.226 C 
ATOM     17  O   UNL A   1      30.601  23.794  27.352  1.00  0.00    -0.275 OA
ATOM     18  N   UNL A   1      31.263  22.336  25.783  1.00  0.00    -0.311 N 
ATOM     19  H   UNL A   1      30.332  22.113  25.551  1.00  0.00     0.171 HD
BRANCH  18  20
ATOM     20  C   UNL A   1      32.229  21.424  25.347  1.00  0.00     0.133 A 
ATOM     21  C   UNL A   1      33.507  21.508  25.870  1.00  0.00     0.048 A 
ATOM     22  N   UNL A   1      31.922  20.535  24.398  1.00  0.00    -0.231 NA
ATOM     23  C   UNL A   1      34.409  20.483  25.582  1.00  0.00     0.014 A 
ATOM     24  C   UNL A   1      32.788  19.541  24.097  1.00  0.00     0.073 A 
ATOM     25  C   UNL A   1      34.022  19.425  24.749  1.00  0.00     0.000 A 
ATOM     26  C   UNL A   1      32.414  18.529  23.213  1.00  0.00     0.029 A 
ATOM     27  C   UNL A   1      34.789  18.251  24.597  1.00  0.00     0.010 A 
ATOM     28  C   UNL A   1      33.139  17.342  23.102  1.00  0.00     0.002 A 
ATOM     29  C   UNL A   1      34.318  17.194  23.816  1.00  0.00     0.001 A 
ENDBRANCH  18  20
ENDBRANCH  15  16
ENDBRANCH   9  15
ENDBRANCH   8   9
ENDBRANCH   6   8
ENDBRANCH   3   4
ENDBRANCH   2   3
ENDBRANCH   1   2
BRANCH   1  30
ATOM     30  C   UNL A   1      37.533  21.857  25.035  1.00  0.00     0.002 C 
BRANCH  30  31
ATOM     31  C   UNL A   1      38.379  20.591  25.144  1.00  0.00     0.021 C 
BRANCH  31  32
ATOM     32  C   UNL A   1      39.461  20.627  26.215  1.00  0.00     0.116 C 
BRANCH  32  33
ATOM     33  N   UNL A   1      40.434  19.552  26.079  1.00  0.00    -0.352 N 
ATOM     34  C   UNL A   1      41.806  19.642  26.038  1.00  0.00     0.251 C 
ATOM     35  H   UNL A   1      40.062  18.643  26.008  1.00  0.00     0.163 HD
ATOM     36  O   UNL A   1      42.488  18.653  25.781  1.00  0.00    -0.269 OA
BRANCH  34  37
ATOM     37  C   UNL A   1      42.451  20.954  26.272  1.00  0.00     0.039 A 
ATOM     38  C   UNL A   1      42.771  21.762  25.178  1.00  0.00     0.014 A 
ATOM     39  C   UNL A   1      42.691  21.401  27.573  1.00  0.00     0.014 A 
ATOM     40  C   UNL A   1      43.259  23.054  25.395  1.00  0.00     0.010 A 
ATOM     41  C   UNL A   1      43.102  22.713  27.786  1.00  0.00     0.010 A 
ATOM     42  C   UNL A   1      43.390  23.555  26.701  1.00  0.00    -0.014 A 
BRANCH  42  43
ATOM     43  C   UNL A   1      43.830  24.950  26.967  1.00  0.00     0.031 A 
ATOM     44  C   UNL A   1      45.277  25.322  26.779  1.00  0.00     0.074 A 
ATOM     45  C   UNL A   1      42.958  25.851  27.465  1.00  0.00     0.049 A 
ATOM     46  N   UNL A   1      45.886  26.440  27.079  1.00  0.00    -0.248 NA
ATOM     47  C   UNL A   1      46.162  24.293  26.206  1.00  0.00     0.031 C 
ATOM     48  C   UNL A   1      41.537  25.607  27.728  1.00  0.00     0.029 A 
ATOM     49  N   UNL A   1      43.144  27.154  27.855  1.00  0.00    -0.354 N 
ATOM     50  C   UNL A   1      47.226  26.238  26.765  1.00  0.00     0.074 A 
ATOM     51  C   UNL A   1      47.349  24.880  26.283  1.00  0.00     0.031 C 
ATOM     52  C   UNL A   1      40.980  26.725  28.221  1.00  0.00     0.029 A 
ATOM     53  C   UNL A   1      42.008  27.752  28.353  1.00  0.00     0.049 A 
ATOM     54  H   UNL A   1      44.009  27.619  27.786  1.00  0.00     0.167 HD
ATOM     55  C   UNL A   1      48.257  27.108  26.855  1.00  0.00     0.031 A 
ATOM     56  C   UNL A   1      41.820  28.981  28.874  1.00  0.00     0.031 A 
ATOM     57  C   UNL A   1      48.126  28.470  27.297  1.00  0.00     0.049 A 
ATOM     58  C   UNL A   1      42.987  29.931  28.959  1.00  0.00     0.074 A 
ATOM     59  C   UNL A   1      49.100  29.452  27.348  1.00  0.00     0.029 A 
ATOM     60  N   UNL A   1      46.952  29.045  27.756  1.00  0.00    -0.354 N 
ATOM     61  N   UNL A   1      44.231  29.741  28.587  1.00  0.00    -0.248 NA
ATOM     62  C   UNL A   1      42.724  31.262  29.524  1.00  0.00     0.031 C 
ATOM     63  C   UNL A   1      48.527  30.606  27.887  1.00  0.00     0.029 A 
ATOM     64  C   UNL A   1      47.182  30.361  28.115  1.00  0.00     0.049 A 
ATOM     65  H   UNL A   1      46.084  28.585  27.820  1.00  0.00     0.167 HD
ATOM     66  C   UNL A   1      44.886  30.943  28.836  1.00  0.00     0.074 A 
ATOM     67  C   UNL A   1      43.902  31.854  29.382  1.00  0.00     0.031 C 
ATOM     68  C   UNL A   1      46.185  31.264  28.629  1.00  0.00     0.031 A 
BRANCH  55  69
ATOM     69  C   UNL A   1      49.629  26.625  26.467  1.00  0.00    -0.014 A 
ATOM     70  C   UNL A   1      50.449  25.948  27.386  1.00  0.00     0.010 A 
ATOM     71  C   UNL A   1      50.065  26.771  25.137  1.00  0.00     0.010 A 
ATOM     72  C   UNL A   1      51.689  25.443  26.988  1.00  0.00     0.020 A 
ATOM     73  C   UNL A   1      51.293  26.243  24.728  1.00  0.00     0.020 A 
ATOM     74  C   UNL A   1      52.100  25.588  25.660  1.00  0.00     0.054 A 
BRANCH  74  75
ATOM     75  S   UNL A   1      53.684  24.860  25.156  1.00  0.00     0.124 S 
ATOM     76  O   UNL A   1      53.334  23.450  25.010  1.00  0.00    -0.237 OA
ATOM     77  O   UNL A   1      53.979  25.566  23.913  1.00  0.00    -0.237 OA
ATOM     78  O   UNL A   1      54.578  25.166  26.271  1.00  0.00    -0.744 OA
ENDBRANCH  74  75
ENDBRANCH  55  69
BRANCH  56  79
ATOM     79  C   UNL A   1      40.476  29.398  29.366  1.00  0.00    -0.014 A 
ATOM     80  C   UNL A   1      39.502  29.873  28.469  1.00  0.00     0.010 A 
ATOM     81  C   UNL A   1      40.175  29.360  30.740  1.00  0.00     0.010 A 
ATOM     82  C   UNL A   1      38.272  30.342  28.938  1.00  0.00     0.020 A 
ATOM     83  C   UNL A   1      38.934  29.799  31.210  1.00  0.00     0.020 A 
ATOM     84  C   UNL A   1      37.998  30.308  30.308  1.00  0.00     0.054 A 
BRANCH  84  85
ATOM     85  S   UNL A   1      36.393  30.917  30.896  1.00  0.00     0.124 S 
ATOM     86  O   UNL A   1      35.934  31.708  29.759  1.00  0.00    -0.237 OA
ATOM     87  O   UNL A   1      35.657  29.682  31.147  1.00  0.00    -0.237 OA
ATOM     88  O   UNL A   1      36.737  31.682  32.093  1.00  0.00    -0.744 OA
ENDBRANCH  84  85
ENDBRANCH  56  79
BRANCH  68  89
ATOM     89  C   UNL A   1      46.618  32.675  28.928  1.00  0.00    -0.014 A 
ATOM     90  C   UNL A   1      46.547  33.685  27.955  1.00  0.00     0.010 A 
ATOM     91  C   UNL A   1      47.022  33.006  30.234  1.00  0.00     0.010 A 
ATOM     92  C   UNL A   1      46.895  35.000  28.277  1.00  0.00     0.020 A 
ATOM     93  C   UNL A   1      47.343  34.323  30.569  1.00  0.00     0.020 A 
ATOM     94  C   UNL A   1      47.287  35.311  29.584  1.00  0.00     0.054 A 
BRANCH  94  95
ATOM     95  S   UNL A   1      47.669  37.036  29.994  1.00  0.00     0.124 S 
ATOM     96  O   UNL A   1      48.262  37.521  28.751  1.00  0.00    -0.237 OA
ATOM     97  O   UNL A   1      46.356  37.587  30.320  1.00  0.00    -0.237 OA
ATOM     98  O   UNL A   1      48.590  36.928  31.123  1.00  0.00    -0.744 OA
ENDBRANCH  94  95
ENDBRANCH  68  89
ENDBRANCH  42  43
ENDBRANCH  34  37
ENDBRANCH  32  33
ENDBRANCH  31  32
ENDBRANCH  30  31
ENDBRANCH   1  30
TORSDOF 20
ENDMDL
MODEL 3
REMARK VINA RESULT:     -11.4      5.956      8.237
REMARK SMILES O=C(CC1(CC(=O)Nc2ccc3ccccc3n2)CCCCC1)NCCCCCCNC(=O)c1ccc(-c2c3nc(c(-c4ccc(S(=O)(=O)[O-])cc4)c4ccc([nH]4)c(-c4ccc(S(=O)(=O)[O-])cc4)c4nc(c(-c5ccc(S(=O)(=O)[O-])cc5)c5ccc2[nH]5)C=C4)C=C3)cc1
REMARK SMILES IDX 27 1 26 2 25 3 24 4 1 5 2 6 3 8 4 9 19 10 23 11 20 12 22 13
REMARK SMILES IDX 21 14 5 15 6 16 7 17 8 18 9 20 10 21 18 22 11 23 17 24 12 25
REMARK SMILES IDX 16 26 13 27 15 28 14 29 28 30 29 31 30 32 31 33 32 34 33 36
REMARK SMILES IDX 34 37 35 38 93 39 36 40 92 41 37 42 38 43 39 44 86 45 40 46
REMARK SMILES IDX 91 47 85 48 87 49 41 50 90 51 84 52 83 53 42 55 72 56 53 57
REMARK SMILES IDX 71 58 54 59 57 60 70 61 88 62 55 63 56 64 69 66 89 67 58 68
REMARK SMILES IDX 43 69 44 70 52 71 45 72 51 73 46 74 47 75 48 76 49 77 50 78
REMARK SMILES IDX 73 79 74 80 82 81 75 82 81 83 76 84 77 85 78 86 79 87 80 88
REMARK SMILES IDX 59 89 60 90 68 91 61 92 67 93 62 94 63 95 64 96 65 97 66 98
REMARK H PARENT 24 7 8 19 31 35 87 54 57 65
REMARK Flexibility Score: inf
ROOT
ATOM      1  C   UNL A   1      37.247  22.516  24.863  1.00  0.00     0.002 C 
ENDROOT
BRANCH   1   2
ATOM      2  C   UNL A   1      36.697  23.358  23.705  1.00  0.00     0.021 C 
BRANCH   2   3
ATOM      3  C   UNL A   1      35.313  22.958  23.191  1.00  0.00     0.116 C 
BRANCH   3   4
ATOM      4  N   UNL A   1      34.306  23.982  23.401  1.00  0.00    -0.356 N 
ATOM      5  O   UNL A   1      32.641  22.897  22.255  1.00  0.00    -0.275 OA
ATOM      6  C   UNL A   1      33.007  23.815  22.988  1.00  0.00     0.220 C 
ATOM      7  H   UNL A   1      34.561  24.818  23.854  1.00  0.00     0.163 HD
BRANCH   6   8
ATOM      8  C   UNL A   1      32.017  24.850  23.519  1.00  0.00     0.107 C 
BRANCH   8   9
ATOM      9  C   UNL A   1      32.361  25.469  24.911  1.00  0.00    -0.012 C 
ATOM     10  C   UNL A   1      33.539  26.486  24.720  1.00  0.00     0.008 C 
ATOM     11  C   UNL A   1      31.223  26.360  25.420  1.00  0.00     0.008 C 
ATOM     12  C   UNL A   1      33.896  27.285  25.987  1.00  0.00     0.001 C 
ATOM     13  C   UNL A   1      31.507  26.967  26.792  1.00  0.00     0.001 C 
ATOM     14  C   UNL A   1      32.695  27.907  26.702  1.00  0.00     0.000 C 
BRANCH   9  15
ATOM     15  C   UNL A   1      32.808  24.379  25.933  1.00  0.00     0.108 C 
BRANCH  15  16
ATOM     16  C   UNL A   1      31.867  23.337  26.543  1.00  0.00     0.226 C 
ATOM     17  O   UNL A   1      31.150  23.683  27.491  1.00  0.00    -0.275 OA
ATOM     18  N   UNL A   1      31.589  22.163  25.902  1.00  0.00    -0.311 N 
ATOM     19  H   UNL A   1      30.632  21.956  25.790  1.00  0.00     0.171 HD
BRANCH  18  20
ATOM     20  C   UNL A   1      32.477  21.214  25.385  1.00  0.00     0.133 A 
ATOM     21  C   UNL A   1      33.768  21.173  25.879  1.00  0.00     0.048 A 
ATOM     22  N   UNL A   1      32.086  20.413  24.389  1.00  0.00    -0.231 NA
ATOM     23  C   UNL A   1      34.587  20.107  25.503  1.00  0.00     0.014 A 
ATOM     24  C   UNL A   1      32.871  19.383  24.004  1.00  0.00     0.073 A 
ATOM     25  C   UNL A   1      34.108  19.136  24.615  1.00  0.00     0.000 A 
ATOM     26  C   UNL A   1      32.407  18.460  23.067  1.00  0.00     0.029 A 
ATOM     27  C   UNL A   1      34.783  17.923  24.369  1.00  0.00     0.010 A 
ATOM     28  C   UNL A   1      33.041  17.233  22.862  1.00  0.00     0.002 A 
ATOM     29  C   UNL A   1      34.221  16.956  23.535  1.00  0.00     0.001 A 
ENDBRANCH  18  20
ENDBRANCH  15  16
ENDBRANCH   9  15
ENDBRANCH   8   9
ENDBRANCH   6   8
ENDBRANCH   3   4
ENDBRANCH   2   3
ENDBRANCH   1   2
BRANCH   1  30
ATOM     30  C   UNL A   1      37.912  23.303  25.995  1.00  0.00     0.002 C 
BRANCH  30  31
ATOM     31  C   UNL A   1      39.171  22.671  26.585  1.00  0.00     0.021 C 
BRANCH  31  32
ATOM     32  C   UNL A   1      40.209  23.658  27.101  1.00  0.00     0.116 C 
BRANCH  32  33
ATOM     33  N   UNL A   1      40.897  24.370  26.033  1.00  0.00    -0.352 N 
ATOM     34  C   UNL A   1      41.173  25.716  25.943  1.00  0.00     0.251 C 
ATOM     35  H   UNL A   1      41.206  23.819  25.278  1.00  0.00     0.163 HD
ATOM     36  O   UNL A   1      41.643  26.187  24.911  1.00  0.00    -0.269 OA
BRANCH  34  37
ATOM     37  C   UNL A   1      40.863  26.594  27.093  1.00  0.00     0.039 A 
ATOM     38  C   UNL A   1      39.949  26.161  28.056  1.00  0.00     0.014 A 
ATOM     39  C   UNL A   1      41.514  27.822  27.240  1.00  0.00     0.014 A 
ATOM     40  C   UNL A   1      39.748  26.925  29.210  1.00  0.00     0.010 A 
ATOM     41  C   UNL A   1      41.370  28.540  28.423  1.00  0.00     0.010 A 
ATOM     42  C   UNL A   1      40.488  28.101  29.422  1.00  0.00    -0.014 A 
BRANCH  42  43
ATOM     43  C   UNL A   1      40.359  28.896  30.671  1.00  0.00     0.031 A 
ATOM     44  C   UNL A   1      39.297  29.960  30.769  1.00  0.00     0.074 A 
ATOM     45  C   UNL A   1      41.247  28.731  31.672  1.00  0.00     0.049 A 
ATOM     46  N   UNL A   1      39.103  30.845  31.712  1.00  0.00    -0.248 NA
ATOM     47  C   UNL A   1      38.348  30.062  29.648  1.00  0.00     0.031 C 
ATOM     48  C   UNL A   1      42.345  27.760  31.687  1.00  0.00     0.029 A 
ATOM     49  N   UNL A   1      41.377  29.389  32.871  1.00  0.00    -0.354 N 
ATOM     50  C   UNL A   1      38.036  31.628  31.283  1.00  0.00     0.074 A 
ATOM     51  C   UNL A   1      37.646  31.136  29.981  1.00  0.00     0.031 C 
ATOM     52  C   UNL A   1      43.024  27.877  32.839  1.00  0.00     0.029 A 
ATOM     53  C   UNL A   1      42.443  28.959  33.628  1.00  0.00     0.049 A 
ATOM     54  H   UNL A   1      40.765  30.103  33.161  1.00  0.00     0.167 HD
ATOM     55  C   UNL A   1      37.427  32.652  31.922  1.00  0.00     0.031 A 
ATOM     56  C   UNL A   1      42.911  29.398  34.814  1.00  0.00     0.031 A 
ATOM     57  C   UNL A   1      37.791  33.114  33.234  1.00  0.00     0.049 A 
ATOM     58  C   UNL A   1      42.210  30.540  35.504  1.00  0.00     0.074 A 
ATOM     59  C   UNL A   1      37.182  34.095  33.997  1.00  0.00     0.029 A 
ATOM     60  N   UNL A   1      38.852  32.626  33.980  1.00  0.00    -0.354 N 
ATOM     61  N   UNL A   1      41.157  31.216  35.112  1.00  0.00    -0.248 NA
ATOM     62  C   UNL A   1      42.754  30.971  36.800  1.00  0.00     0.031 C 
ATOM     63  C   UNL A   1      37.906  34.236  35.184  1.00  0.00     0.029 A 
ATOM     64  C   UNL A   1      38.929  33.302  35.185  1.00  0.00     0.049 A 
ATOM     65  H   UNL A   1      39.461  31.907  33.695  1.00  0.00     0.167 HD
ATOM     66  C   UNL A   1      40.890  32.123  36.133  1.00  0.00     0.074 A 
ATOM     67  C   UNL A   1      41.885  31.905  37.161  1.00  0.00     0.031 C 
ATOM     68  C   UNL A   1      39.907  33.052  36.212  1.00  0.00     0.031 A 
BRANCH  55  69
ATOM     69  C   UNL A   1      36.295  33.354  31.220  1.00  0.00    -0.014 A 
ATOM     70  C   UNL A   1      35.252  33.956  31.944  1.00  0.00     0.010 A 
ATOM     71  C   UNL A   1      36.326  33.489  29.820  1.00  0.00     0.010 A 
ATOM     72  C   UNL A   1      34.248  34.665  31.280  1.00  0.00     0.020 A 
ATOM     73  C   UNL A   1      35.338  34.220  29.153  1.00  0.00     0.020 A 
ATOM     74  C   UNL A   1      34.301  34.798  29.889  1.00  0.00     0.054 A 
BRANCH  74  75
ATOM     75  S   UNL A   1      33.022  35.783  29.061  1.00  0.00     0.124 S 
ATOM     76  O   UNL A   1      32.214  36.236  30.190  1.00  0.00    -0.237 OA
ATOM     77  O   UNL A   1      33.802  36.820  28.392  1.00  0.00    -0.237 OA
ATOM     78  O   UNL A   1      32.367  34.827  28.172  1.00  0.00    -0.744 OA
ENDBRANCH  74  75
ENDBRANCH  55  69
BRANCH  56  79
ATOM     79  C   UNL A   1      44.110  28.767  35.436  1.00  0.00    -0.014 A 
ATOM     80  C   UNL A   1      43.967  27.699  36.340  1.00  0.00     0.010 A 
ATOM     81  C   UNL A   1      45.399  29.256  35.157  1.00  0.00     0.010 A 
ATOM     82  C   UNL A   1      45.084  27.163  36.988  1.00  0.00     0.020 A 
ATOM     83  C   UNL A   1      46.522  28.701  35.779  1.00  0.00     0.020 A 
ATOM     84  C   UNL A   1      46.355  27.672  36.707  1.00  0.00     0.054 A 
BRANCH  84  85
ATOM     85  S   UNL A   1      47.792  26.958  37.554  1.00  0.00     0.124 S 
ATOM     86  O   UNL A   1      47.296  25.637  37.931  1.00  0.00    -0.237 OA
ATOM     87  O   UNL A   1      48.816  26.977  36.514  1.00  0.00    -0.237 OA
ATOM     88  O   UNL A   1      48.025  27.879  38.664  1.00  0.00    -0.744 OA
ENDBRANCH  84  85
ENDBRANCH  56  79
BRANCH  68  89
ATOM     89  C   UNL A   1      39.808  33.865  37.475  1.00  0.00    -0.014 A 
ATOM     90  C   UNL A   1      40.561  35.037  37.654  1.00  0.00     0.010 A 
ATOM     91  C   UNL A   1      38.879  33.488  38.462  1.00  0.00     0.010 A 
ATOM     92  C   UNL A   1      40.403  35.806  38.810  1.00  0.00     0.020 A 
ATOM     93  C   UNL A   1      38.696  34.269  39.605  1.00  0.00     0.020 A 
ATOM     94  C   UNL A   1      39.468  35.420  39.776  1.00  0.00     0.054 A 
BRANCH  94  95
ATOM     95  S   UNL A   1      39.233  36.470  41.235  1.00  0.00     0.124 S 
ATOM     96  O   UNL A   1      40.597  36.603  41.739  1.00  0.00    -0.237 OA
ATOM     97  O   UNL A   1      38.653  37.685  40.667  1.00  0.00    -0.237 OA
ATOM     98  O   UNL A   1      38.330  35.694  42.081  1.00  0.00    -0.744 OA
ENDBRANCH  94  95
ENDBRANCH  68  89
ENDBRANCH  42  43
ENDBRANCH  34  37
ENDBRANCH  32  33
ENDBRANCH  31  32
ENDBRANCH  30  31
ENDBRANCH   1  30
TORSDOF 20
ENDMDL
