MODEL 1
REMARK VINA RESULT:     -11.3      0.000      0.000
REMARK SMILES CC[NH+]1CCC2(CC1)OC[C@H](C(=O)NCCCCCCNC(=O)c1ccc(-c3c4nc(c(-c5ccc(S(=O)(=O)[O-])cc5)c5ccc([nH]5)c(-c5ccc(S(=O)(=O)[O-])cc5)c5nc(c(-c6ccc(S(=O)(=O)[O-])cc6)c6ccc3[nH]6)C=C5)C=C4)cc1)N2C(=O)c1ccc(F)cc1
REMARK SMILES IDX 18 1 17 2 16 3 15 4 14 5 12 6 13 7 11 9 3 10 4 11 8 12 5 14
REMARK SMILES IDX 7 15 6 16 9 17 84 18 10 19 2 20 1 21 85 22 86 23 87 24 88 25
REMARK SMILES IDX 93 26 89 27 92 28 90 29 91 30 19 31 20 32 21 33 22 34 23 36
REMARK SMILES IDX 24 37 25 38 83 39 26 40 82 41 27 42 28 43 29 44 76 45 30 46
REMARK SMILES IDX 81 47 75 48 77 49 31 50 80 51 74 52 73 53 32 55 62 56 43 57
REMARK SMILES IDX 61 58 44 59 47 60 60 61 78 62 45 63 46 64 59 66 79 67 48 68
REMARK SMILES IDX 33 69 34 70 42 71 35 72 41 73 36 74 37 75 38 76 39 77 40 78
REMARK SMILES IDX 63 79 64 80 72 81 65 82 71 83 66 84 67 85 68 86 69 87 70 88
REMARK SMILES IDX 49 89 50 90 58 91 51 92 57 93 52 94 53 95 54 96 55 97 56 98
REMARK H PARENT 14 8 3 13 21 35 77 54 47 65
REMARK Flexibility Score: inf
ROOT
ATOM      1  C   UNL A   1      32.541  28.609  24.769  1.00  0.00     0.002 C 
ENDROOT
BRANCH   1   2
ATOM      2  C   UNL A   1      32.231  28.011  23.394  1.00  0.00     0.002 C 
BRANCH   2   3
ATOM      3  C   UNL A   1      33.404  27.328  22.693  1.00  0.00     0.021 C 
BRANCH   3   4
ATOM      4  C   UNL A   1      33.026  26.209  21.718  1.00  0.00     0.116 C 
BRANCH   4   5
ATOM      5  N   UNL A   1      31.838  25.507  22.155  1.00  0.00    -0.354 N 
ATOM      6  C   UNL A   1      31.593  24.629  23.163  1.00  0.00     0.245 C 
ATOM      7  O   UNL A   1      30.415  24.248  23.241  1.00  0.00    -0.273 OA
ATOM      8  H   UNL A   1      31.043  25.706  21.609  1.00  0.00     0.163 HD
BRANCH   6   9
ATOM      9  C   UNL A   1      32.603  24.194  24.262  1.00  0.00     0.203 C 
ATOM     10  N   UNL A   1      33.232  19.004  24.329  1.00  0.00    -0.335 N 
ATOM     11  C   UNL A   1      32.575  19.873  23.358  1.00  0.00     0.267 C 
ATOM     12  C   UNL A   1      34.007  19.718  25.339  1.00  0.00     0.267 C 
ATOM     13  H   UNL A   1      33.985  18.510  23.850  1.00  0.00     0.348 HD
ATOM     14  C   UNL A   1      31.799  20.999  24.009  1.00  0.00     0.120 C 
ATOM     15  C   UNL A   1      33.425  21.014  25.905  1.00  0.00     0.120 C 
ATOM     16  C   UNL A   1      32.669  21.887  24.899  1.00  0.00     0.155 C 
ATOM     17  O   UNL A   1      31.675  22.599  25.709  1.00  0.00    -0.352 OA
ATOM     18  N   UNL A   1      33.394  22.973  24.197  1.00  0.00    -0.295 N 
ATOM     19  C   UNL A   1      31.863  24.010  25.567  1.00  0.00     0.198 C 
BRANCH  10  20
ATOM     20  C   UNL A   1      32.366  17.910  24.768  1.00  0.00     0.258 C 
ATOM     21  C   UNL A   1      33.034  16.812  25.584  1.00  0.00     0.071 C 
ENDBRANCH  10  20
BRANCH  18  22
ATOM     22  C   UNL A   1      34.652  23.109  23.621  1.00  0.00     0.256 C 
ATOM     23  O   UNL A   1      34.802  23.310  22.414  1.00  0.00    -0.269 OA
BRANCH  22  24
ATOM     24  C   UNL A   1      35.901  23.001  24.380  1.00  0.00     0.040 A 
ATOM     25  C   UNL A   1      36.691  21.850  24.271  1.00  0.00     0.017 A 
ATOM     26  C   UNL A   1      36.198  23.973  25.345  1.00  0.00     0.017 A 
ATOM     27  C   UNL A   1      37.855  21.745  25.038  1.00  0.00     0.040 A 
ATOM     28  C   UNL A   1      37.369  23.873  26.094  1.00  0.00     0.040 A 
ATOM     29  C   UNL A   1      38.196  22.768  25.922  1.00  0.00     0.123 A 
ATOM     30  F   UNL A   1      39.335  22.684  26.619  1.00  0.00    -0.207 F 
ENDBRANCH  22  24
ENDBRANCH  18  22
ENDBRANCH   6   9
ENDBRANCH   4   5
ENDBRANCH   3   4
ENDBRANCH   2   3
ENDBRANCH   1   2
BRANCH   1  31
ATOM     31  C   UNL A   1      33.499  27.809  25.658  1.00  0.00     0.021 C 
BRANCH  31  32
ATOM     32  C   UNL A   1      33.536  28.215  27.130  1.00  0.00     0.116 C 
BRANCH  32  33
ATOM     33  N   UNL A   1      33.437  29.653  27.310  1.00  0.00    -0.352 N 
ATOM     34  C   UNL A   1      34.316  30.533  27.885  1.00  0.00     0.251 C 
ATOM     35  H   UNL A   1      32.609  30.058  26.965  1.00  0.00     0.163 HD
ATOM     36  O   UNL A   1      33.946  31.686  28.122  1.00  0.00    -0.269 OA
BRANCH  34  37
ATOM     37  C   UNL A   1      35.691  30.117  28.233  1.00  0.00     0.039 A 
ATOM     38  C   UNL A   1      36.667  30.115  27.232  1.00  0.00     0.014 A 
ATOM     39  C   UNL A   1      36.012  29.682  29.523  1.00  0.00     0.014 A 
ATOM     40  C   UNL A   1      37.974  29.724  27.535  1.00  0.00     0.010 A 
ATOM     41  C   UNL A   1      37.331  29.352  29.838  1.00  0.00     0.010 A 
ATOM     42  C   UNL A   1      38.324  29.363  28.846  1.00  0.00    -0.014 A 
BRANCH  42  43
ATOM     43  C   UNL A   1      39.719  28.980  29.194  1.00  0.00     0.031 A 
ATOM     44  C   UNL A   1      40.625  29.969  29.879  1.00  0.00     0.074 A 
ATOM     45  C   UNL A   1      40.185  27.762  28.853  1.00  0.00     0.049 A 
ATOM     46  N   UNL A   1      41.891  29.849  30.191  1.00  0.00    -0.248 NA
ATOM     47  C   UNL A   1      40.039  31.269  30.244  1.00  0.00     0.031 C 
ATOM     48  C   UNL A   1      39.415  26.720  28.170  1.00  0.00     0.029 A 
ATOM     49  N   UNL A   1      41.424  27.196  29.028  1.00  0.00    -0.354 N 
ATOM     50  C   UNL A   1      42.254  31.057  30.776  1.00  0.00     0.074 A 
ATOM     51  C   UNL A   1      41.088  31.913  30.735  1.00  0.00     0.031 C 
ATOM     52  C   UNL A   1      40.192  25.637  28.001  1.00  0.00     0.029 A 
ATOM     53  C   UNL A   1      41.525  25.921  28.523  1.00  0.00     0.049 A 
ATOM     54  H   UNL A   1      42.169  27.661  29.472  1.00  0.00     0.167 HD
ATOM     55  C   UNL A   1      43.443  31.415  31.316  1.00  0.00     0.031 A 
ATOM     56  C   UNL A   1      42.575  25.078  28.477  1.00  0.00     0.031 A 
ATOM     57  C   UNL A   1      44.599  30.559  31.369  1.00  0.00     0.049 A 
ATOM     58  C   UNL A   1      43.894  25.511  29.062  1.00  0.00     0.074 A 
ATOM     59  C   UNL A   1      45.840  30.823  31.923  1.00  0.00     0.029 A 
ATOM     60  N   UNL A   1      44.656  29.273  30.854  1.00  0.00    -0.354 N 
ATOM     61  N   UNL A   1      44.204  26.644  29.646  1.00  0.00    -0.248 NA
ATOM     62  C   UNL A   1      45.001  24.546  28.991  1.00  0.00     0.031 C 
ATOM     63  C   UNL A   1      46.660  29.711  31.710  1.00  0.00     0.029 A 
ATOM     64  C   UNL A   1      45.914  28.735  31.069  1.00  0.00     0.049 A 
ATOM     65  H   UNL A   1      43.913  28.811  30.405  1.00  0.00     0.167 HD
ATOM     66  C   UNL A   1      45.531  26.513  30.043  1.00  0.00     0.074 A 
ATOM     67  C   UNL A   1      45.960  25.189  29.643  1.00  0.00     0.031 C 
ATOM     68  C   UNL A   1      46.322  27.409  30.681  1.00  0.00     0.031 A 
BRANCH  55  69
ATOM     69  C   UNL A   1      43.557  32.797  31.905  1.00  0.00    -0.014 A 
ATOM     70  C   UNL A   1      43.303  33.023  33.270  1.00  0.00     0.010 A 
ATOM     71  C   UNL A   1      43.986  33.870  31.101  1.00  0.00     0.010 A 
ATOM     72  C   UNL A   1      43.448  34.301  33.814  1.00  0.00     0.020 A 
ATOM     73  C   UNL A   1      44.156  35.146  31.648  1.00  0.00     0.020 A 
ATOM     74  C   UNL A   1      43.874  35.355  33.000  1.00  0.00     0.054 A 
BRANCH  74  75
ATOM     75  S   UNL A   1      44.091  36.995  33.745  1.00  0.00     0.124 S 
ATOM     76  O   UNL A   1      44.995  36.703  34.855  1.00  0.00    -0.237 OA
ATOM     77  O   UNL A   1      44.670  37.769  32.651  1.00  0.00    -0.237 OA
ATOM     78  O   UNL A   1      42.737  37.382  34.131  1.00  0.00    -0.744 OA
ENDBRANCH  74  75
ENDBRANCH  55  69
BRANCH  56  79
ATOM     79  C   UNL A   1      42.432  23.732  27.857  1.00  0.00    -0.014 A 
ATOM     80  C   UNL A   1      42.135  22.608  28.649  1.00  0.00     0.010 A 
ATOM     81  C   UNL A   1      42.616  23.562  26.472  1.00  0.00     0.010 A 
ATOM     82  C   UNL A   1      42.062  21.336  28.076  1.00  0.00     0.020 A 
ATOM     83  C   UNL A   1      42.513  22.295  25.891  1.00  0.00     0.020 A 
ATOM     84  C   UNL A   1      42.256  21.186  26.700  1.00  0.00     0.054 A 
BRANCH  84  85
ATOM     85  S   UNL A   1      42.141  19.529  25.972  1.00  0.00     0.124 S 
ATOM     86  O   UNL A   1      40.729  19.453  25.616  1.00  0.00    -0.237 OA
ATOM     87  O   UNL A   1      43.075  19.608  24.852  1.00  0.00    -0.237 OA
ATOM     88  O   UNL A   1      42.562  18.649  27.061  1.00  0.00    -0.744 OA
ENDBRANCH  84  85
ENDBRANCH  56  79
BRANCH  68  89
ATOM     89  C   UNL A   1      47.718  26.975  31.037  1.00  0.00    -0.014 A 
ATOM     90  C   UNL A   1      47.994  26.330  32.255  1.00  0.00     0.010 A 
ATOM     91  C   UNL A   1      48.758  27.166  30.110  1.00  0.00     0.010 A 
ATOM     92  C   UNL A   1      49.293  25.909  32.551  1.00  0.00     0.020 A 
ATOM     93  C   UNL A   1      50.053  26.724  30.391  1.00  0.00     0.020 A 
ATOM     94  C   UNL A   1      50.315  26.108  31.617  1.00  0.00     0.054 A 
BRANCH  94  95
ATOM     95  S   UNL A   1      51.983  25.509  32.004  1.00  0.00     0.124 S 
ATOM     96  O   UNL A   1      52.737  25.925  30.826  1.00  0.00    -0.237 OA
ATOM     97  O   UNL A   1      52.301  26.220  33.239  1.00  0.00    -0.237 OA
ATOM     98  O   UNL A   1      51.806  24.065  32.153  1.00  0.00    -0.744 OA
ENDBRANCH  94  95
ENDBRANCH  68  89
ENDBRANCH  42  43
ENDBRANCH  34  37
ENDBRANCH  32  33
ENDBRANCH  31  32
ENDBRANCH   1  31
TORSDOF 19
ENDMDL
MODEL 2
REMARK VINA RESULT:     -11.1      1.220      2.680
REMARK SMILES CC[NH+]1CCC2(CC1)OC[C@H](C(=O)NCCCCCCNC(=O)c1ccc(-c3c4nc(c(-c5ccc(S(=O)(=O)[O-])cc5)c5ccc([nH]5)c(-c5ccc(S(=O)(=O)[O-])cc5)c5nc(c(-c6ccc(S(=O)(=O)[O-])cc6)c6ccc3[nH]6)C=C5)C=C4)cc1)N2C(=O)c1ccc(F)cc1
REMARK SMILES IDX 18 1 17 2 16 3 15 4 14 5 12 6 13 7 11 9 3 10 4 11 8 12 5 14
REMARK SMILES IDX 7 15 6 16 9 17 84 18 10 19 2 20 1 21 85 22 86 23 87 24 88 25
REMARK SMILES IDX 93 26 89 27 92 28 90 29 91 30 19 31 20 32 21 33 22 34 23 36
REMARK SMILES IDX 24 37 25 38 83 39 26 40 82 41 27 42 28 43 29 44 76 45 30 46
REMARK SMILES IDX 81 47 75 48 77 49 31 50 80 51 74 52 73 53 32 55 62 56 43 57
REMARK SMILES IDX 61 58 44 59 47 60 60 61 78 62 45 63 46 64 59 66 79 67 48 68
REMARK SMILES IDX 33 69 34 70 42 71 35 72 41 73 36 74 37 75 38 76 39 77 40 78
REMARK SMILES IDX 63 79 64 80 72 81 65 82 71 83 66 84 67 85 68 86 69 87 70 88
REMARK SMILES IDX 49 89 50 90 58 91 51 92 57 93 52 94 53 95 54 96 55 97 56 98
REMARK H PARENT 14 8 3 13 21 35 77 54 47 65
REMARK Flexibility Score: inf
ROOT
ATOM      1  C   UNL A   1      31.865  28.889  24.872  1.00  0.00     0.002 C 
ENDROOT
BRANCH   1   2
ATOM      2  C   UNL A   1      31.960  28.513  23.391  1.00  0.00     0.002 C 
BRANCH   2   3
ATOM      3  C   UNL A   1      33.128  27.603  23.016  1.00  0.00     0.021 C 
BRANCH   3   4
ATOM      4  C   UNL A   1      32.748  26.320  22.270  1.00  0.00     0.116 C 
BRANCH   4   5
ATOM      5  N   UNL A   1      31.671  25.621  22.936  1.00  0.00    -0.354 N 
ATOM      6  C   UNL A   1      31.417  24.306  23.169  1.00  0.00     0.245 C 
ATOM      7  O   UNL A   1      30.378  24.086  23.810  1.00  0.00    -0.273 OA
ATOM      8  H   UNL A   1      30.978  26.221  23.296  1.00  0.00     0.163 HD
BRANCH   6   9
ATOM      9  C   UNL A   1      32.362  23.119  22.828  1.00  0.00     0.203 C 
ATOM     10  N   UNL A   1      36.363  22.838  26.181  1.00  0.00    -0.335 N 
ATOM     11  C   UNL A   1      35.135  23.625  26.226  1.00  0.00     0.267 C 
ATOM     12  C   UNL A   1      36.383  21.823  25.133  1.00  0.00     0.267 C 
ATOM     13  H   UNL A   1      36.380  22.237  27.006  1.00  0.00     0.348 HD
ATOM     14  C   UNL A   1      34.738  24.170  24.869  1.00  0.00     0.120 C 
ATOM     15  C   UNL A   1      35.786  22.185  23.773  1.00  0.00     0.120 C 
ATOM     16  C   UNL A   1      34.541  23.076  23.820  1.00  0.00     0.155 C 
ATOM     17  O   UNL A   1      34.582  23.827  22.562  1.00  0.00    -0.352 OA
ATOM     18  N   UNL A   1      33.200  22.443  23.808  1.00  0.00    -0.295 N 
ATOM     19  C   UNL A   1      33.386  23.580  21.816  1.00  0.00     0.198 C 
BRANCH  10  20
ATOM     20  C   UNL A   1      37.555  23.665  26.367  1.00  0.00     0.258 C 
ATOM     21  C   UNL A   1      38.894  22.951  26.226  1.00  0.00     0.071 C 
ENDBRANCH  10  20
BRANCH  18  22
ATOM     22  C   UNL A   1      32.628  21.328  24.410  1.00  0.00     0.256 C 
ATOM     23  O   UNL A   1      31.809  21.425  25.327  1.00  0.00    -0.269 OA
BRANCH  22  24
ATOM     24  C   UNL A   1      32.961  19.951  24.034  1.00  0.00     0.040 A 
ATOM     25  C   UNL A   1      32.285  19.331  22.975  1.00  0.00     0.017 A 
ATOM     26  C   UNL A   1      33.822  19.209  24.852  1.00  0.00     0.017 A 
ATOM     27  C   UNL A   1      32.583  18.002  22.660  1.00  0.00     0.040 A 
ATOM     28  C   UNL A   1      34.131  17.891  24.523  1.00  0.00     0.040 A 
ATOM     29  C   UNL A   1      33.522  17.304  23.419  1.00  0.00     0.123 A 
ATOM     30  F   UNL A   1      33.837  16.048  23.085  1.00  0.00    -0.207 F 
ENDBRANCH  22  24
ENDBRANCH  18  22
ENDBRANCH   6   9
ENDBRANCH   4   5
ENDBRANCH   3   4
ENDBRANCH   2   3
ENDBRANCH   1   2
BRANCH   1  31
ATOM     31  C   UNL A   1      32.538  27.930  25.861  1.00  0.00     0.021 C 
BRANCH  31  32
ATOM     32  C   UNL A   1      33.780  28.467  26.569  1.00  0.00     0.116 C 
BRANCH  32  33
ATOM     33  N   UNL A   1      33.615  29.841  27.009  1.00  0.00    -0.352 N 
ATOM     34  C   UNL A   1      34.418  30.615  27.805  1.00  0.00     0.251 C 
ATOM     35  H   UNL A   1      32.799  30.286  26.685  1.00  0.00     0.163 HD
ATOM     36  O   UNL A   1      33.990  31.693  28.228  1.00  0.00    -0.269 OA
BRANCH  34  37
ATOM     37  C   UNL A   1      35.780  30.172  28.173  1.00  0.00     0.039 A 
ATOM     38  C   UNL A   1      36.787  30.219  27.204  1.00  0.00     0.014 A 
ATOM     39  C   UNL A   1      36.059  29.665  29.446  1.00  0.00     0.014 A 
ATOM     40  C   UNL A   1      38.082  29.804  27.525  1.00  0.00     0.010 A 
ATOM     41  C   UNL A   1      37.365  29.309  29.782  1.00  0.00     0.010 A 
ATOM     42  C   UNL A   1      38.389  29.369  28.824  1.00  0.00    -0.014 A 
BRANCH  42  43
ATOM     43  C   UNL A   1      39.770  28.959  29.194  1.00  0.00     0.031 A 
ATOM     44  C   UNL A   1      40.685  29.929  29.895  1.00  0.00     0.074 A 
ATOM     45  C   UNL A   1      40.219  27.733  28.857  1.00  0.00     0.049 A 
ATOM     46  N   UNL A   1      41.942  29.784  30.228  1.00  0.00    -0.248 NA
ATOM     47  C   UNL A   1      40.117  31.239  30.255  1.00  0.00     0.031 C 
ATOM     48  C   UNL A   1      39.440  26.707  28.158  1.00  0.00     0.029 A 
ATOM     49  N   UNL A   1      41.444  27.143  29.050  1.00  0.00    -0.354 N 
ATOM     50  C   UNL A   1      42.319  30.983  30.822  1.00  0.00     0.074 A 
ATOM     51  C   UNL A   1      41.171  31.861  30.765  1.00  0.00     0.031 C 
ATOM     52  C   UNL A   1      40.199  25.610  27.999  1.00  0.00     0.029 A 
ATOM     53  C   UNL A   1      41.529  25.867  28.544  1.00  0.00     0.049 A 
ATOM     54  H   UNL A   1      42.191  27.592  29.507  1.00  0.00     0.167 HD
ATOM     55  C   UNL A   1      43.506  31.316  31.382  1.00  0.00     0.031 A 
ATOM     56  C   UNL A   1      42.563  25.004  28.512  1.00  0.00     0.031 A 
ATOM     57  C   UNL A   1      44.644  30.439  31.451  1.00  0.00     0.049 A 
ATOM     58  C   UNL A   1      43.880  25.410  29.119  1.00  0.00     0.074 A 
ATOM     59  C   UNL A   1      45.881  30.678  32.026  1.00  0.00     0.029 A 
ATOM     60  N   UNL A   1      44.685  29.153  30.934  1.00  0.00    -0.354 N 
ATOM     61  N   UNL A   1      44.202  26.536  29.711  1.00  0.00    -0.248 NA
ATOM     62  C   UNL A   1      44.970  24.425  29.064  1.00  0.00     0.031 C 
ATOM     63  C   UNL A   1      46.683  29.551  31.823  1.00  0.00     0.029 A 
ATOM     64  C   UNL A   1      45.929  28.591  31.167  1.00  0.00     0.049 A 
ATOM     65  H   UNL A   1      43.941  28.707  30.471  1.00  0.00     0.167 HD
ATOM     66  C   UNL A   1      45.520  26.379  30.129  1.00  0.00     0.074 A 
ATOM     67  C   UNL A   1      45.930  25.048  29.733  1.00  0.00     0.031 C 
ATOM     68  C   UNL A   1      46.318  27.259  30.782  1.00  0.00     0.031 A 
BRANCH  55  69
ATOM     69  C   UNL A   1      43.637  32.695  31.977  1.00  0.00    -0.014 A 
ATOM     70  C   UNL A   1      43.364  32.922  33.337  1.00  0.00     0.010 A 
ATOM     71  C   UNL A   1      44.100  33.762  31.183  1.00  0.00     0.010 A 
ATOM     72  C   UNL A   1      43.524  34.196  33.888  1.00  0.00     0.020 A 
ATOM     73  C   UNL A   1      44.285  35.032  31.736  1.00  0.00     0.020 A 
ATOM     74  C   UNL A   1      43.984  35.243  33.084  1.00  0.00     0.054 A 
BRANCH  74  75
ATOM     75  S   UNL A   1      44.220  36.877  33.837  1.00  0.00     0.124 S 
ATOM     76  O   UNL A   1      45.622  36.820  34.243  1.00  0.00    -0.237 OA
ATOM     77  O   UNL A   1      43.924  37.785  32.732  1.00  0.00    -0.237 OA
ATOM     78  O   UNL A   1      43.254  36.897  34.932  1.00  0.00    -0.744 OA
ENDBRANCH  74  75
ENDBRANCH  55  69
BRANCH  56  79
ATOM     79  C   UNL A   1      42.404  23.663  27.886  1.00  0.00    -0.014 A 
ATOM     80  C   UNL A   1      41.987  22.561  28.654  1.00  0.00     0.010 A 
ATOM     81  C   UNL A   1      42.693  23.474  26.521  1.00  0.00     0.010 A 
ATOM     82  C   UNL A   1      41.898  21.289  28.080  1.00  0.00     0.020 A 
ATOM     83  C   UNL A   1      42.576  22.210  25.937  1.00  0.00     0.020 A 
ATOM     84  C   UNL A   1      42.197  21.121  26.725  1.00  0.00     0.054 A 
BRANCH  84  85
ATOM     85  S   UNL A   1      42.060  19.466  25.995  1.00  0.00     0.124 S 
ATOM     86  O   UNL A   1      42.919  19.581  24.822  1.00  0.00    -0.237 OA
ATOM     87  O   UNL A   1      42.558  18.605  27.065  1.00  0.00    -0.237 OA
ATOM     88  O   UNL A   1      40.631  19.335  25.717  1.00  0.00    -0.744 OA
ENDBRANCH  84  85
ENDBRANCH  56  79
BRANCH  68  89
ATOM     89  C   UNL A   1      47.699  26.796  31.160  1.00  0.00    -0.014 A 
ATOM     90  C   UNL A   1      47.949  26.172  32.394  1.00  0.00     0.010 A 
ATOM     91  C   UNL A   1      48.751  26.940  30.237  1.00  0.00     0.010 A 
ATOM     92  C   UNL A   1      49.234  25.725  32.710  1.00  0.00     0.020 A 
ATOM     93  C   UNL A   1      50.032  26.471  30.539  1.00  0.00     0.020 A 
ATOM     94  C   UNL A   1      50.268  25.877  31.780  1.00  0.00     0.054 A 
BRANCH  94  95
ATOM     95  S   UNL A   1      51.917  25.244  32.195  1.00  0.00     0.124 S 
ATOM     96  O   UNL A   1      52.187  25.908  33.466  1.00  0.00    -0.237 OA
ATOM     97  O   UNL A   1      51.698  23.802  32.272  1.00  0.00    -0.237 OA
ATOM     98  O   UNL A   1      52.748  25.682  31.074  1.00  0.00    -0.744 OA
ENDBRANCH  94  95
ENDBRANCH  68  89
ENDBRANCH  42  43
ENDBRANCH  34  37
ENDBRANCH  32  33
ENDBRANCH  31  32
ENDBRANCH   1  31
TORSDOF 19
ENDMDL
MODEL 3
REMARK VINA RESULT:     -11.1      3.043      9.593
REMARK SMILES CC[NH+]1CCC2(CC1)OC[C@H](C(=O)NCCCCCCNC(=O)c1ccc(-c3c4nc(c(-c5ccc(S(=O)(=O)[O-])cc5)c5ccc([nH]5)c(-c5ccc(S(=O)(=O)[O-])cc5)c5nc(c(-c6ccc(S(=O)(=O)[O-])cc6)c6ccc3[nH]6)C=C5)C=C4)cc1)N2C(=O)c1ccc(F)cc1
REMARK SMILES IDX 18 1 17 2 16 3 15 4 14 5 12 6 13 7 11 9 3 10 4 11 8 12 5 14
REMARK SMILES IDX 7 15 6 16 9 17 84 18 10 19 2 20 1 21 85 22 86 23 87 24 88 25
REMARK SMILES IDX 93 26 89 27 92 28 90 29 91 30 19 31 20 32 21 33 22 34 23 36
REMARK SMILES IDX 24 37 25 38 83 39 26 40 82 41 27 42 28 43 29 44 76 45 30 46
REMARK SMILES IDX 81 47 75 48 77 49 31 50 80 51 74 52 73 53 32 55 62 56 43 57
REMARK SMILES IDX 61 58 44 59 47 60 60 61 78 62 45 63 46 64 59 66 79 67 48 68
REMARK SMILES IDX 33 69 34 70 42 71 35 72 41 73 36 74 37 75 38 76 39 77 40 78
REMARK SMILES IDX 63 79 64 80 72 81 65 82 71 83 66 84 67 85 68 86 69 87 70 88
REMARK SMILES IDX 49 89 50 90 58 91 51 92 57 93 52 94 53 95 54 96 55 97 56 98
REMARK H PARENT 14 8 3 13 21 35 77 54 47 65
REMARK Flexibility Score: inf
ROOT
ATOM      1  C   UNL A   1      35.147  22.102  26.672  1.00  0.00     0.002 C 
ENDROOT
BRANCH   1   2
ATOM      2  C   UNL A   1      33.737  21.708  27.120  1.00  0.00     0.002 C 
BRANCH   2   3
ATOM      3  C   UNL A   1      32.757  22.865  27.303  1.00  0.00     0.021 C 
BRANCH   3   4
ATOM      4  C   UNL A   1      31.466  22.768  26.484  1.00  0.00     0.116 C 
BRANCH   4   5
ATOM      5  N   UNL A   1      31.727  22.913  25.068  1.00  0.00    -0.354 N 
ATOM      6  C   UNL A   1      31.355  23.835  24.141  1.00  0.00     0.245 C 
ATOM      7  O   UNL A   1      31.804  23.633  23.002  1.00  0.00    -0.273 OA
ATOM      8  H   UNL A   1      32.292  22.195  24.699  1.00  0.00     0.163 HD
BRANCH   6   9
ATOM      9  C   UNL A   1      30.558  25.140  24.420  1.00  0.00     0.203 C 
ATOM     10  N   UNL A   1      33.754  29.120  25.552  1.00  0.00    -0.335 N 
ATOM     11  C   UNL A   1      34.037  27.792  25.019  1.00  0.00     0.267 C 
ATOM     12  C   UNL A   1      32.335  29.458  25.588  1.00  0.00     0.267 C 
ATOM     13  H   UNL A   1      34.079  29.807  24.872  1.00  0.00     0.348 HD
ATOM     14  C   UNL A   1      33.190  26.711  25.657  1.00  0.00     0.120 C 
ATOM     15  C   UNL A   1      31.347  28.364  25.994  1.00  0.00     0.120 C 
ATOM     16  C   UNL A   1      31.689  26.956  25.497  1.00  0.00     0.155 C 
ATOM     17  O   UNL A   1      31.110  26.063  26.505  1.00  0.00    -0.352 OA
ATOM     18  N   UNL A   1      31.101  26.477  24.223  1.00  0.00    -0.295 N 
ATOM     19  C   UNL A   1      30.173  25.180  25.882  1.00  0.00     0.198 C 
BRANCH  10  20
ATOM     20  C   UNL A   1      34.569  29.429  26.727  1.00  0.00     0.258 C 
ATOM     21  C   UNL A   1      34.307  30.775  27.390  1.00  0.00     0.071 C 
ENDBRANCH  10  20
BRANCH  18  22
ATOM     22  C   UNL A   1      30.857  27.038  22.975  1.00  0.00     0.256 C 
ATOM     23  O   UNL A   1      31.453  26.667  21.962  1.00  0.00    -0.269 OA
BRANCH  22  24
ATOM     24  C   UNL A   1      29.901  28.128  22.755  1.00  0.00     0.040 A 
ATOM     25  C   UNL A   1      30.351  29.375  22.306  1.00  0.00     0.017 A 
ATOM     26  C   UNL A   1      28.573  27.963  23.168  1.00  0.00     0.017 A 
ATOM     27  C   UNL A   1      29.432  30.417  22.147  1.00  0.00     0.040 A 
ATOM     28  C   UNL A   1      27.656  28.997  22.989  1.00  0.00     0.040 A 
ATOM     29  C   UNL A   1      28.090  30.210  22.464  1.00  0.00     0.123 A 
ATOM     30  F   UNL A   1      27.206  31.194  22.265  1.00  0.00    -0.207 F 
ENDBRANCH  22  24
ENDBRANCH  18  22
ENDBRANCH   6   9
ENDBRANCH   4   5
ENDBRANCH   3   4
ENDBRANCH   2   3
ENDBRANCH   1   2
BRANCH   1  31
ATOM     31  C   UNL A   1      35.256  23.355  25.795  1.00  0.00     0.021 C 
BRANCH  31  32
ATOM     32  C   UNL A   1      36.666  23.729  25.341  1.00  0.00     0.116 C 
BRANCH  32  33
ATOM     33  N   UNL A   1      37.650  22.726  25.709  1.00  0.00    -0.352 N 
ATOM     34  C   UNL A   1      38.875  22.869  26.305  1.00  0.00     0.251 C 
ATOM     35  H   UNL A   1      37.397  21.799  25.497  1.00  0.00     0.163 HD
ATOM     36  O   UNL A   1      39.645  21.906  26.342  1.00  0.00    -0.269 OA
BRANCH  34  37
ATOM     37  C   UNL A   1      39.290  24.162  26.892  1.00  0.00     0.039 A 
ATOM     38  C   UNL A   1      38.899  24.463  28.199  1.00  0.00     0.014 A 
ATOM     39  C   UNL A   1      40.016  25.096  26.147  1.00  0.00     0.014 A 
ATOM     40  C   UNL A   1      39.277  25.679  28.777  1.00  0.00     0.010 A 
ATOM     41  C   UNL A   1      40.444  26.282  26.745  1.00  0.00     0.010 A 
ATOM     42  C   UNL A   1      40.074  26.589  28.063  1.00  0.00    -0.014 A 
BRANCH  42  43
ATOM     43  C   UNL A   1      40.516  27.870  28.675  1.00  0.00     0.031 A 
ATOM     44  C   UNL A   1      41.912  28.004  29.223  1.00  0.00     0.074 A 
ATOM     45  C   UNL A   1      39.649  28.897  28.781  1.00  0.00     0.049 A 
ATOM     46  N   UNL A   1      42.455  29.010  29.860  1.00  0.00    -0.248 NA
ATOM     47  C   UNL A   1      42.811  26.851  29.047  1.00  0.00     0.031 C 
ATOM     48  C   UNL A   1      38.262  28.889  28.308  1.00  0.00     0.029 A 
ATOM     49  N   UNL A   1      39.803  30.147  29.329  1.00  0.00    -0.354 N 
ATOM     50  C   UNL A   1      43.750  28.609  30.171  1.00  0.00     0.074 A 
ATOM     51  C   UNL A   1      43.897  27.252  29.693  1.00  0.00     0.031 C 
ATOM     52  C   UNL A   1      37.700  30.081  28.570  1.00  0.00     0.029 A 
ATOM     53  C   UNL A   1      38.669  30.923  29.265  1.00  0.00     0.049 A 
ATOM     54  H   UNL A   1      40.646  30.457  29.731  1.00  0.00     0.167 HD
ATOM     55  C   UNL A   1      44.733  29.313  30.783  1.00  0.00     0.031 A 
ATOM     56  C   UNL A   1      38.432  32.167  29.723  1.00  0.00     0.031 A 
ATOM     57  C   UNL A   1      44.590  30.667  31.247  1.00  0.00     0.049 A 
ATOM     58  C   UNL A   1      39.535  32.918  30.421  1.00  0.00     0.074 A 
ATOM     59  C   UNL A   1      45.540  31.473  31.852  1.00  0.00     0.029 A 
ATOM     60  N   UNL A   1      43.429  31.418  31.155  1.00  0.00    -0.354 N 
ATOM     61  N   UNL A   1      40.764  32.532  30.670  1.00  0.00    -0.248 NA
ATOM     62  C   UNL A   1      39.222  34.275  30.891  1.00  0.00     0.031 C 
ATOM     63  C   UNL A   1      44.942  32.698  32.160  1.00  0.00     0.029 A 
ATOM     64  C   UNL A   1      43.635  32.674  31.700  1.00  0.00     0.049 A 
ATOM     65  H   UNL A   1      42.584  31.106  30.759  1.00  0.00     0.167 HD
ATOM     66  C   UNL A   1      41.379  33.613  31.294  1.00  0.00     0.074 A 
ATOM     67  C   UNL A   1      40.392  34.670  31.373  1.00  0.00     0.031 C 
ATOM     68  C   UNL A   1      42.648  33.721  31.758  1.00  0.00     0.031 A 
BRANCH  55  69
ATOM     69  C   UNL A   1      46.062  28.631  30.981  1.00  0.00    -0.014 A 
ATOM     70  C   UNL A   1      47.081  28.745  30.019  1.00  0.00     0.010 A 
ATOM     71  C   UNL A   1      46.318  27.922  32.170  1.00  0.00     0.010 A 
ATOM     72  C   UNL A   1      48.323  28.141  30.229  1.00  0.00     0.020 A 
ATOM     73  C   UNL A   1      47.567  27.337  32.394  1.00  0.00     0.020 A 
ATOM     74  C   UNL A   1      48.558  27.440  31.416  1.00  0.00     0.054 A 
BRANCH  74  75
ATOM     75  S   UNL A   1      50.194  26.700  31.677  1.00  0.00     0.124 S 
ATOM     76  O   UNL A   1      50.293  25.782  30.544  1.00  0.00    -0.237 OA
ATOM     77  O   UNL A   1      51.082  27.858  31.625  1.00  0.00    -0.237 OA
ATOM     78  O   UNL A   1      50.081  26.063  32.986  1.00  0.00    -0.744 OA
ENDBRANCH  74  75
ENDBRANCH  55  69
BRANCH  56  79
ATOM     79  C   UNL A   1      37.095  32.795  29.537  1.00  0.00    -0.014 A 
ATOM     80  C   UNL A   1      36.843  33.627  28.431  1.00  0.00     0.010 A 
ATOM     81  C   UNL A   1      36.071  32.583  30.479  1.00  0.00     0.010 A 
ATOM     82  C   UNL A   1      35.608  34.265  28.290  1.00  0.00     0.020 A 
ATOM     83  C   UNL A   1      34.824  33.195  30.324  1.00  0.00     0.020 A 
ATOM     84  C   UNL A   1      34.606  34.049  29.241  1.00  0.00     0.054 A 
BRANCH  84  85
ATOM     85  S   UNL A   1      33.005  34.873  29.031  1.00  0.00     0.124 S 
ATOM     86  O   UNL A   1      32.330  33.988  28.088  1.00  0.00    -0.237 OA
ATOM     87  O   UNL A   1      32.470  34.879  30.391  1.00  0.00    -0.237 OA
ATOM     88  O   UNL A   1      33.365  36.189  28.508  1.00  0.00    -0.744 OA
ENDBRANCH  84  85
ENDBRANCH  56  79
BRANCH  68  89
ATOM     89  C   UNL A   1      43.063  35.042  32.346  1.00  0.00    -0.014 A 
ATOM     90  C   UNL A   1      43.707  36.019  31.569  1.00  0.00     0.010 A 
ATOM     91  C   UNL A   1      42.751  35.329  33.688  1.00  0.00     0.010 A 
ATOM     92  C   UNL A   1      44.057  37.250  32.130  1.00  0.00     0.020 A 
ATOM     93  C   UNL A   1      43.075  36.568  34.246  1.00  0.00     0.020 A 
ATOM     94  C   UNL A   1      43.738  37.517  33.465  1.00  0.00     0.054 A 
BRANCH  94  95
ATOM     95  S   UNL A   1      44.159  39.141  34.157  1.00  0.00     0.124 S 
ATOM     96  O   UNL A   1      42.942  39.905  33.901  1.00  0.00    -0.237 OA
ATOM     97  O   UNL A   1      44.425  38.834  35.560  1.00  0.00    -0.237 OA
ATOM     98  O   UNL A   1      45.329  39.554  33.384  1.00  0.00    -0.744 OA
ENDBRANCH  94  95
ENDBRANCH  68  89
ENDBRANCH  42  43
ENDBRANCH  34  37
ENDBRANCH  32  33
ENDBRANCH  31  32
ENDBRANCH   1  31
TORSDOF 19
ENDMDL
