MODEL 1
REMARK VINA RESULT:     -10.0      0.000      0.000
REMARK SMILES CC[C@@H](C)[C@H](C(=O)NCCCCCCNC(=O)c1ccc(-c2c3nc(c(-c4ccc(S(=O)(=O)[O-])cc4)c4ccc([nH]4)c(-c4ccc(S(=O)(=O)[O-])cc4)c4nc(c(-c5ccc(S(=O)(=O)[O-])cc5)c5ccc2[nH]5)C=C4)C=C3)cc1)S(=O)(=O)c1cccc(OC)c1
REMARK SMILES IDX 11 1 10 2 9 3 8 4 6 5 7 6 5 8 3 9 4 10 2 11 1 12 78 13 79 14
REMARK SMILES IDX 80 15 81 16 82 17 88 18 83 19 85 20 84 21 86 22 87 23 12 24
REMARK SMILES IDX 13 25 14 26 15 27 16 28 17 30 18 31 19 32 77 33 20 34 76 35
REMARK SMILES IDX 21 36 22 37 23 38 70 39 24 40 75 41 69 42 71 43 25 44 74 45
REMARK SMILES IDX 68 46 67 47 26 49 56 50 37 51 55 52 38 53 41 54 54 55 72 56
REMARK SMILES IDX 39 57 40 58 53 60 73 61 42 62 27 63 28 64 36 65 29 66 35 67
REMARK SMILES IDX 30 68 31 69 32 70 33 71 34 72 57 73 58 74 66 75 59 76 65 77
REMARK SMILES IDX 60 78 61 79 62 80 63 81 64 82 43 83 44 84 52 85 45 86 51 87
REMARK SMILES IDX 46 88 47 89 48 90 49 91 50 92
REMARK H PARENT 8 7 15 29 71 48 41 59
REMARK Flexibility Score: inf
ROOT
ATOM      1  C   UNL A   1      38.712  22.152  26.041  1.00  0.00     0.002 C 
ENDROOT
BRANCH   1   2
ATOM      2  C   UNL A   1      37.826  21.379  25.059  1.00  0.00     0.021 C 
BRANCH   2   3
ATOM      3  C   UNL A   1      36.932  22.253  24.178  1.00  0.00     0.116 C 
BRANCH   3   4
ATOM      4  N   UNL A   1      36.571  23.501  24.838  1.00  0.00    -0.355 N 
ATOM      5  C   UNL A   1      35.340  23.990  25.196  1.00  0.00     0.239 C 
ATOM      6  O   UNL A   1      35.310  25.051  25.817  1.00  0.00    -0.274 OA
ATOM      7  H   UNL A   1      37.331  24.085  25.064  1.00  0.00     0.163 HD
BRANCH   5   8
ATOM      8  C   UNL A   1      34.106  23.170  24.900  1.00  0.00     0.205 C 
BRANCH   8   9
ATOM      9  C   UNL A   1      33.311  22.899  26.208  1.00  0.00     0.014 C 
ATOM     10  C   UNL A   1      34.132  22.103  27.228  1.00  0.00     0.009 C 
BRANCH   9  11
ATOM     11  C   UNL A   1      31.908  22.304  26.008  1.00  0.00     0.002 C 
ATOM     12  C   UNL A   1      30.800  23.056  26.734  1.00  0.00     0.004 C 
ENDBRANCH   9  11
ENDBRANCH   8   9
BRANCH   8  13
ATOM     13  S   UNL A   1      33.271  23.758  23.448  1.00  0.00     0.190 S 
ATOM     14  O   UNL A   1      34.248  24.437  22.611  1.00  0.00    -0.223 OA
ATOM     15  O   UNL A   1      32.558  22.631  22.866  1.00  0.00    -0.223 OA
BRANCH  13  16
ATOM     16  C   UNL A   1      32.019  24.960  23.846  1.00  0.00     0.071 A 
ATOM     17  C   UNL A   1      30.711  24.767  23.385  1.00  0.00     0.020 A 
ATOM     18  C   UNL A   1      32.368  26.164  24.462  1.00  0.00     0.066 A 
ATOM     19  C   UNL A   1      29.712  25.685  23.706  1.00  0.00     0.005 A 
ATOM     20  C   UNL A   1      31.377  27.121  24.691  1.00  0.00     0.120 A 
ATOM     21  C   UNL A   1      30.044  26.857  24.379  1.00  0.00     0.046 A 
BRANCH  20  22
ATOM     22  O   UNL A   1      31.652  28.348  25.230  1.00  0.00    -0.497 OA
ATOM     23  C   UNL A   1      32.457  29.130  24.344  1.00  0.00     0.278 C 
ENDBRANCH  20  22
ENDBRANCH  13  16
ENDBRANCH   8  13
ENDBRANCH   5   8
ENDBRANCH   3   4
ENDBRANCH   2   3
ENDBRANCH   1   2
BRANCH   1  24
ATOM     24  C   UNL A   1      40.080  21.524  26.333  1.00  0.00     0.002 C 
BRANCH  24  25
ATOM     25  C   UNL A   1      40.801  22.057  27.574  1.00  0.00     0.021 C 
BRANCH  25  26
ATOM     26  C   UNL A   1      42.027  22.924  27.296  1.00  0.00     0.116 C 
BRANCH  26  27
ATOM     27  N   UNL A   1      41.860  23.774  26.128  1.00  0.00    -0.352 N 
ATOM     28  C   UNL A   1      41.548  25.111  26.062  1.00  0.00     0.251 C 
ATOM     29  H   UNL A   1      41.990  23.328  25.260  1.00  0.00     0.163 HD
ATOM     30  O   UNL A   1      41.297  25.630  24.977  1.00  0.00    -0.269 OA
BRANCH  28  31
ATOM     31  C   UNL A   1      41.484  25.916  27.301  1.00  0.00     0.039 A 
ATOM     32  C   UNL A   1      42.537  26.785  27.599  1.00  0.00     0.014 A 
ATOM     33  C   UNL A   1      40.386  25.824  28.161  1.00  0.00     0.014 A 
ATOM     34  C   UNL A   1      42.454  27.619  28.717  1.00  0.00     0.010 A 
ATOM     35  C   UNL A   1      40.275  26.701  29.239  1.00  0.00     0.010 A 
ATOM     36  C   UNL A   1      41.303  27.613  29.522  1.00  0.00    -0.014 A 
BRANCH  36  37
ATOM     37  C   UNL A   1      41.139  28.576  30.643  1.00  0.00     0.031 A 
ATOM     38  C   UNL A   1      42.001  28.469  31.871  1.00  0.00     0.074 A 
ATOM     39  C   UNL A   1      40.158  29.500  30.588  1.00  0.00     0.049 A 
ATOM     40  N   UNL A   1      41.945  29.163  32.979  1.00  0.00    -0.248 NA
ATOM     41  C   UNL A   1      43.047  27.433  31.861  1.00  0.00     0.031 C 
ATOM     42  C   UNL A   1      39.229  29.683  29.469  1.00  0.00     0.029 A 
ATOM     43  N   UNL A   1      39.767  30.449  31.499  1.00  0.00    -0.354 N 
ATOM     44  C   UNL A   1      42.935  28.640  33.804  1.00  0.00     0.074 A 
ATOM     45  C   UNL A   1      43.546  27.543  33.085  1.00  0.00     0.031 C 
ATOM     46  C   UNL A   1      38.393  30.695  29.752  1.00  0.00     0.029 A 
ATOM     47  C   UNL A   1      38.693  31.202  31.087  1.00  0.00     0.049 A 
ATOM     48  H   UNL A   1      40.215  30.578  32.366  1.00  0.00     0.167 HD
ATOM     49  C   UNL A   1      43.310  29.045  35.041  1.00  0.00     0.031 A 
ATOM     50  C   UNL A   1      38.014  32.181  31.717  1.00  0.00     0.031 A 
ATOM     51  C   UNL A   1      42.705  30.141  35.751  1.00  0.00     0.049 A 
ATOM     52  C   UNL A   1      38.435  32.598  33.098  1.00  0.00     0.074 A 
ATOM     53  C   UNL A   1      43.056  30.664  36.984  1.00  0.00     0.029 A 
ATOM     54  N   UNL A   1      41.624  30.880  35.297  1.00  0.00    -0.354 N 
ATOM     55  N   UNL A   1      39.415  32.133  33.834  1.00  0.00    -0.248 NA
ATOM     56  C   UNL A   1      37.660  33.674  33.733  1.00  0.00     0.031 C 
ATOM     57  C   UNL A   1      42.152  31.684  37.299  1.00  0.00     0.029 A 
ATOM     58  C   UNL A   1      41.274  31.834  36.238  1.00  0.00     0.049 A 
ATOM     59  H   UNL A   1      41.170  30.745  34.434  1.00  0.00     0.167 HD
ATOM     60  C   UNL A   1      39.389  32.875  35.010  1.00  0.00     0.074 A 
ATOM     61  C   UNL A   1      38.306  33.828  34.881  1.00  0.00     0.031 C 
ATOM     62  C   UNL A   1      40.191  32.773  36.099  1.00  0.00     0.031 A 
BRANCH  49  63
ATOM     63  C   UNL A   1      44.427  28.289  35.712  1.00  0.00    -0.014 A 
ATOM     64  C   UNL A   1      44.158  27.222  36.587  1.00  0.00     0.010 A 
ATOM     65  C   UNL A   1      45.765  28.622  35.429  1.00  0.00     0.010 A 
ATOM     66  C   UNL A   1      45.204  26.529  37.201  1.00  0.00     0.020 A 
ATOM     67  C   UNL A   1      46.815  27.913  36.020  1.00  0.00     0.020 A 
ATOM     68  C   UNL A   1      46.527  26.882  36.917  1.00  0.00     0.054 A 
BRANCH  68  69
ATOM     69  S   UNL A   1      47.865  25.952  37.714  1.00  0.00     0.124 S 
ATOM     70  O   UNL A   1      48.702  27.026  38.246  1.00  0.00    -0.237 OA
ATOM     71  O   UNL A   1      47.154  25.157  38.711  1.00  0.00    -0.237 OA
ATOM     72  O   UNL A   1      48.457  25.188  36.618  1.00  0.00    -0.744 OA
ENDBRANCH  68  69
ENDBRANCH  49  63
BRANCH  50  73
ATOM     73  C   UNL A   1      36.862  32.837  31.039  1.00  0.00    -0.014 A 
ATOM     74  C   UNL A   1      35.543  32.492  31.378  1.00  0.00     0.010 A 
ATOM     75  C   UNL A   1      37.080  33.825  30.061  1.00  0.00     0.010 A 
ATOM     76  C   UNL A   1      34.462  33.110  30.743  1.00  0.00     0.020 A 
ATOM     77  C   UNL A   1      36.002  34.465  29.442  1.00  0.00     0.020 A 
ATOM     78  C   UNL A   1      34.699  34.096  29.780  1.00  0.00     0.054 A 
BRANCH  78  79
ATOM     79  S   UNL A   1      33.282  34.928  29.010  1.00  0.00     0.124 S 
ATOM     80  O   UNL A   1      32.438  35.218  30.165  1.00  0.00    -0.237 OA
ATOM     81  O   UNL A   1      33.904  36.086  28.374  1.00  0.00    -0.237 OA
ATOM     82  O   UNL A   1      32.759  33.925  28.086  1.00  0.00    -0.744 OA
ENDBRANCH  78  79
ENDBRANCH  50  73
BRANCH  62  83
ATOM     83  C   UNL A   1      39.944  33.730  37.234  1.00  0.00    -0.014 A 
ATOM     84  C   UNL A   1      40.477  35.031  37.215  1.00  0.00     0.010 A 
ATOM     85  C   UNL A   1      39.112  33.345  38.302  1.00  0.00     0.010 A 
ATOM     86  C   UNL A   1      40.199  35.923  38.254  1.00  0.00     0.020 A 
ATOM     87  C   UNL A   1      38.810  34.242  39.329  1.00  0.00     0.020 A 
ATOM     88  C   UNL A   1      39.365  35.523  39.304  1.00  0.00     0.054 A 
BRANCH  88  89
ATOM     89  S   UNL A   1      38.972  36.719  40.611  1.00  0.00     0.124 S 
ATOM     90  O   UNL A   1      38.485  37.860  39.841  1.00  0.00    -0.237 OA
ATOM     91  O   UNL A   1      37.962  36.015  41.396  1.00  0.00    -0.237 OA
ATOM     92  O   UNL A   1      40.249  36.923  41.289  1.00  0.00    -0.744 OA
ENDBRANCH  88  89
ENDBRANCH  62  83
ENDBRANCH  36  37
ENDBRANCH  28  31
ENDBRANCH  26  27
ENDBRANCH  25  26
ENDBRANCH  24  25
ENDBRANCH   1  24
TORSDOF 21
ENDMDL
MODEL 2
REMARK VINA RESULT:      -9.9      6.137     11.893
REMARK SMILES CC[C@@H](C)[C@H](C(=O)NCCCCCCNC(=O)c1ccc(-c2c3nc(c(-c4ccc(S(=O)(=O)[O-])cc4)c4ccc([nH]4)c(-c4ccc(S(=O)(=O)[O-])cc4)c4nc(c(-c5ccc(S(=O)(=O)[O-])cc5)c5ccc2[nH]5)C=C4)C=C3)cc1)S(=O)(=O)c1cccc(OC)c1
REMARK SMILES IDX 11 1 10 2 9 3 8 4 6 5 7 6 5 8 3 9 4 10 2 11 1 12 78 13 79 14
REMARK SMILES IDX 80 15 81 16 82 17 88 18 83 19 85 20 84 21 86 22 87 23 12 24
REMARK SMILES IDX 13 25 14 26 15 27 16 28 17 30 18 31 19 32 77 33 20 34 76 35
REMARK SMILES IDX 21 36 22 37 23 38 70 39 24 40 75 41 69 42 71 43 25 44 74 45
REMARK SMILES IDX 68 46 67 47 26 49 56 50 37 51 55 52 38 53 41 54 54 55 72 56
REMARK SMILES IDX 39 57 40 58 53 60 73 61 42 62 27 63 28 64 36 65 29 66 35 67
REMARK SMILES IDX 30 68 31 69 32 70 33 71 34 72 57 73 58 74 66 75 59 76 65 77
REMARK SMILES IDX 60 78 61 79 62 80 63 81 64 82 43 83 44 84 52 85 45 86 51 87
REMARK SMILES IDX 46 88 47 89 48 90 49 91 50 92
REMARK H PARENT 8 7 15 29 71 48 41 59
REMARK Flexibility Score: inf
ROOT
ATOM      1  C   UNL A   1      33.610  30.432  27.660  1.00  0.00     0.002 C 
ENDROOT
BRANCH   1   2
ATOM      2  C   UNL A   1      34.659  29.553  26.971  1.00  0.00     0.021 C 
BRANCH   2   3
ATOM      3  C   UNL A   1      34.087  28.473  26.053  1.00  0.00     0.116 C 
BRANCH   3   4
ATOM      4  N   UNL A   1      33.891  28.960  24.694  1.00  0.00    -0.355 N 
ATOM      5  C   UNL A   1      33.192  28.413  23.648  1.00  0.00     0.239 C 
ATOM      6  O   UNL A   1      33.118  29.068  22.611  1.00  0.00    -0.274 OA
ATOM      7  H   UNL A   1      34.329  29.820  24.495  1.00  0.00     0.163 HD
BRANCH   5   8
ATOM      8  C   UNL A   1      32.477  27.097  23.847  1.00  0.00     0.205 C 
BRANCH   8   9
ATOM      9  C   UNL A   1      31.009  27.342  24.296  1.00  0.00     0.014 C 
ATOM     10  C   UNL A   1      30.408  26.119  24.997  1.00  0.00     0.009 C 
BRANCH   9  11
ATOM     11  C   UNL A   1      30.077  27.896  23.208  1.00  0.00     0.002 C 
ATOM     12  C   UNL A   1      29.699  29.360  23.393  1.00  0.00     0.004 C 
ENDBRANCH   9  11
ENDBRANCH   8   9
BRANCH   8  13
ATOM     13  S   UNL A   1      32.834  25.960  22.532  1.00  0.00     0.190 S 
ATOM     14  O   UNL A   1      31.668  25.894  21.664  1.00  0.00    -0.223 OA
ATOM     15  O   UNL A   1      34.094  26.368  21.930  1.00  0.00    -0.223 OA
BRANCH  13  16
ATOM     16  C   UNL A   1      33.109  24.310  23.141  1.00  0.00     0.071 A 
ATOM     17  C   UNL A   1      32.246  23.280  22.746  1.00  0.00     0.020 A 
ATOM     18  C   UNL A   1      34.066  24.074  24.131  1.00  0.00     0.066 A 
ATOM     19  C   UNL A   1      32.459  21.976  23.194  1.00  0.00     0.005 A 
ATOM     20  C   UNL A   1      34.205  22.783  24.645  1.00  0.00     0.120 A 
ATOM     21  C   UNL A   1      33.456  21.725  24.133  1.00  0.00     0.046 A 
BRANCH  20  22
ATOM     22  O   UNL A   1      35.073  22.487  25.660  1.00  0.00    -0.497 OA
ATOM     23  C   UNL A   1      36.224  21.796  25.169  1.00  0.00     0.278 C 
ENDBRANCH  20  22
ENDBRANCH  13  16
ENDBRANCH   8  13
ENDBRANCH   5   8
ENDBRANCH   3   4
ENDBRANCH   2   3
ENDBRANCH   1   2
BRANCH   1  24
ATOM     24  C   UNL A   1      34.016  31.893  27.887  1.00  0.00     0.002 C 
BRANCH  24  25
ATOM     25  C   UNL A   1      35.522  32.169  27.880  1.00  0.00     0.021 C 
BRANCH  25  26
ATOM     26  C   UNL A   1      36.139  32.464  29.246  1.00  0.00     0.116 C 
BRANCH  26  27
ATOM     27  N   UNL A   1      35.802  31.459  30.242  1.00  0.00    -0.352 N 
ATOM     28  C   UNL A   1      36.525  30.364  30.651  1.00  0.00     0.251 C 
ATOM     29  H   UNL A   1      34.932  31.581  30.687  1.00  0.00     0.163 HD
ATOM     30  O   UNL A   1      36.013  29.535  31.400  1.00  0.00    -0.269 OA
BRANCH  28  31
ATOM     31  C   UNL A   1      37.909  30.169  30.166  1.00  0.00     0.039 A 
ATOM     32  C   UNL A   1      38.958  30.192  31.088  1.00  0.00     0.014 A 
ATOM     33  C   UNL A   1      38.171  29.953  28.811  1.00  0.00     0.014 A 
ATOM     34  C   UNL A   1      40.262  29.921  30.663  1.00  0.00     0.010 A 
ATOM     35  C   UNL A   1      39.460  29.620  28.398  1.00  0.00     0.010 A 
ATOM     36  C   UNL A   1      40.516  29.591  29.322  1.00  0.00    -0.014 A 
BRANCH  36  37
ATOM     37  C   UNL A   1      41.872  29.180  28.870  1.00  0.00     0.031 A 
ATOM     38  C   UNL A   1      42.975  30.195  28.749  1.00  0.00     0.074 A 
ATOM     39  C   UNL A   1      42.088  27.903  28.494  1.00  0.00     0.049 A 
ATOM     40  N   UNL A   1      44.191  30.039  28.294  1.00  0.00    -0.248 NA
ATOM     41  C   UNL A   1      42.663  31.570  29.173  1.00  0.00     0.031 C 
ATOM     42  C   UNL A   1      41.091  26.829  28.528  1.00  0.00     0.029 A 
ATOM     43  N   UNL A   1      43.211  27.294  27.994  1.00  0.00    -0.354 N 
ATOM     44  C   UNL A   1      44.786  31.294  28.362  1.00  0.00     0.074 A 
ATOM     45  C   UNL A   1      43.782  32.209  28.861  1.00  0.00     0.031 C 
ATOM     46  C   UNL A   1      41.654  25.692  28.090  1.00  0.00     0.029 A 
ATOM     47  C   UNL A   1      43.034  25.962  27.699  1.00  0.00     0.049 A 
ATOM     48  H   UNL A   1      44.065  27.766  27.859  1.00  0.00     0.167 HD
ATOM     49  C   UNL A   1      46.055  31.650  28.050  1.00  0.00     0.031 A 
ATOM     50  C   UNL A   1      43.879  25.061  27.163  1.00  0.00     0.031 A 
ATOM     51  C   UNL A   1      47.054  30.736  27.560  1.00  0.00     0.049 A 
ATOM     52  C   UNL A   1      45.277  25.484  26.804  1.00  0.00     0.074 A 
ATOM     53  C   UNL A   1      48.384  30.991  27.273  1.00  0.00     0.029 A 
ATOM     54  N   UNL A   1      46.834  29.397  27.280  1.00  0.00    -0.354 N 
ATOM     55  N   UNL A   1      45.838  26.662  26.937  1.00  0.00    -0.248 NA
ATOM     56  C   UNL A   1      46.155  24.457  26.227  1.00  0.00     0.031 C 
ATOM     57  C   UNL A   1      48.954  29.817  26.769  1.00  0.00     0.029 A 
ATOM     58  C   UNL A   1      47.995  28.818  26.795  1.00  0.00     0.049 A 
ATOM     59  H   UNL A   1      45.979  28.927  27.407  1.00  0.00     0.167 HD
ATOM     60  C   UNL A   1      47.143  26.512  26.480  1.00  0.00     0.074 A 
ATOM     61  C   UNL A   1      47.291  25.128  26.081  1.00  0.00     0.031 C 
ATOM     62  C   UNL A   1      48.128  27.440  26.397  1.00  0.00     0.031 A 
BRANCH  49  63
ATOM     63  C   UNL A   1      46.435  33.097  28.223  1.00  0.00    -0.014 A 
ATOM     64  C   UNL A   1      47.006  33.560  29.422  1.00  0.00     0.010 A 
ATOM     65  C   UNL A   1      46.259  33.998  27.156  1.00  0.00     0.010 A 
ATOM     66  C   UNL A   1      47.355  34.904  29.568  1.00  0.00     0.020 A 
ATOM     67  C   UNL A   1      46.632  35.339  27.288  1.00  0.00     0.020 A 
ATOM     68  C   UNL A   1      47.161  35.787  28.500  1.00  0.00     0.054 A 
BRANCH  68  69
ATOM     69  S   UNL A   1      47.641  37.524  28.712  1.00  0.00     0.124 S 
ATOM     70  O   UNL A   1      49.013  37.520  28.209  1.00  0.00    -0.237 OA
ATOM     71  O   UNL A   1      46.670  38.229  27.880  1.00  0.00    -0.237 OA
ATOM     72  O   UNL A   1      47.507  37.748  30.149  1.00  0.00    -0.744 OA
ENDBRANCH  68  69
ENDBRANCH  49  63
BRANCH  50  73
ATOM     73  C   UNL A   1      43.424  23.662  26.935  1.00  0.00    -0.014 A 
ATOM     74  C   UNL A   1      43.354  22.750  28.002  1.00  0.00     0.010 A 
ATOM     75  C   UNL A   1      43.042  23.239  25.648  1.00  0.00     0.010 A 
ATOM     76  C   UNL A   1      42.924  21.438  27.787  1.00  0.00     0.020 A 
ATOM     77  C   UNL A   1      42.586  21.935  25.434  1.00  0.00     0.020 A 
ATOM     78  C   UNL A   1      42.539  21.039  26.503  1.00  0.00     0.054 A 
BRANCH  78  79
ATOM     79  S   UNL A   1      41.929  19.349  26.257  1.00  0.00     0.124 S 
ATOM     80  O   UNL A   1      40.494  19.565  26.102  1.00  0.00    -0.237 OA
ATOM     81  O   UNL A   1      42.639  18.929  25.052  1.00  0.00    -0.237 OA
ATOM     82  O   UNL A   1      42.332  18.659  27.480  1.00  0.00    -0.744 OA
ENDBRANCH  78  79
ENDBRANCH  50  73
BRANCH  62  83
ATOM     83  C   UNL A   1      49.465  26.987  25.875  1.00  0.00    -0.014 A 
ATOM     84  C   UNL A   1      49.856  27.255  24.552  1.00  0.00     0.010 A 
ATOM     85  C   UNL A   1      50.369  26.345  26.741  1.00  0.00     0.010 A 
ATOM     86  C   UNL A   1      51.120  26.870  24.097  1.00  0.00     0.020 A 
ATOM     87  C   UNL A   1      51.644  25.982  26.298  1.00  0.00     0.020 A 
ATOM     88  C   UNL A   1      52.006  26.238  24.975  1.00  0.00     0.054 A 
BRANCH  88  89
ATOM     89  S   UNL A   1      53.663  25.801  24.377  1.00  0.00     0.124 S 
ATOM     90  O   UNL A   1      54.500  26.789  25.051  1.00  0.00    -0.237 OA
ATOM     91  O   UNL A   1      53.819  24.424  24.840  1.00  0.00    -0.237 OA
ATOM     92  O   UNL A   1      53.560  25.955  22.928  1.00  0.00    -0.744 OA
ENDBRANCH  88  89
ENDBRANCH  62  83
ENDBRANCH  36  37
ENDBRANCH  28  31
ENDBRANCH  26  27
ENDBRANCH  25  26
ENDBRANCH  24  25
ENDBRANCH   1  24
TORSDOF 21
ENDMDL
MODEL 3
REMARK VINA RESULT:      -9.7      2.286      8.900
REMARK SMILES CC[C@@H](C)[C@H](C(=O)NCCCCCCNC(=O)c1ccc(-c2c3nc(c(-c4ccc(S(=O)(=O)[O-])cc4)c4ccc([nH]4)c(-c4ccc(S(=O)(=O)[O-])cc4)c4nc(c(-c5ccc(S(=O)(=O)[O-])cc5)c5ccc2[nH]5)C=C4)C=C3)cc1)S(=O)(=O)c1cccc(OC)c1
REMARK SMILES IDX 11 1 10 2 9 3 8 4 6 5 7 6 5 8 3 9 4 10 2 11 1 12 78 13 79 14
REMARK SMILES IDX 80 15 81 16 82 17 88 18 83 19 85 20 84 21 86 22 87 23 12 24
REMARK SMILES IDX 13 25 14 26 15 27 16 28 17 30 18 31 19 32 77 33 20 34 76 35
REMARK SMILES IDX 21 36 22 37 23 38 70 39 24 40 75 41 69 42 71 43 25 44 74 45
REMARK SMILES IDX 68 46 67 47 26 49 56 50 37 51 55 52 38 53 41 54 54 55 72 56
REMARK SMILES IDX 39 57 40 58 53 60 73 61 42 62 27 63 28 64 36 65 29 66 35 67
REMARK SMILES IDX 30 68 31 69 32 70 33 71 34 72 57 73 58 74 66 75 59 76 65 77
REMARK SMILES IDX 60 78 61 79 62 80 63 81 64 82 43 83 44 84 52 85 45 86 51 87
REMARK SMILES IDX 46 88 47 89 48 90 49 91 50 92
REMARK H PARENT 8 7 15 29 71 48 41 59
REMARK Flexibility Score: inf
ROOT
ATOM      1  C   UNL A   1      31.856  29.180  25.730  1.00  0.00     0.002 C 
ENDROOT
BRANCH   1   2
ATOM      2  C   UNL A   1      33.211  29.194  25.013  1.00  0.00     0.021 C 
BRANCH   2   3
ATOM      3  C   UNL A   1      33.798  27.812  24.727  1.00  0.00     0.116 C 
BRANCH   3   4
ATOM      4  N   UNL A   1      33.876  27.537  23.298  1.00  0.00    -0.355 N 
ATOM      5  C   UNL A   1      33.505  26.424  22.588  1.00  0.00     0.239 C 
ATOM      6  O   UNL A   1      33.607  26.472  21.364  1.00  0.00    -0.274 OA
ATOM      7  H   UNL A   1      34.254  28.268  22.756  1.00  0.00     0.163 HD
BRANCH   5   8
ATOM      8  C   UNL A   1      32.908  25.246  23.321  1.00  0.00     0.205 C 
BRANCH   8   9
ATOM      9  C   UNL A   1      31.370  25.192  23.098  1.00  0.00     0.014 C 
ATOM     10  C   UNL A   1      30.716  26.568  23.255  1.00  0.00     0.009 C 
BRANCH   9  11
ATOM     11  C   UNL A   1      30.632  24.109  23.899  1.00  0.00     0.002 C 
ATOM     12  C   UNL A   1      30.720  24.278  25.410  1.00  0.00     0.004 C 
ENDBRANCH   9  11
ENDBRANCH   8   9
BRANCH   8  13
ATOM     13  S   UNL A   1      33.896  23.786  23.114  1.00  0.00     0.190 S 
ATOM     14  O   UNL A   1      33.341  23.020  22.009  1.00  0.00    -0.223 OA
ATOM     15  O   UNL A   1      35.285  24.207  23.006  1.00  0.00    -0.223 OA
BRANCH  13  16
ATOM     16  C   UNL A   1      33.829  22.733  24.548  1.00  0.00     0.071 A 
ATOM     17  C   UNL A   1      34.395  23.173  25.751  1.00  0.00     0.020 A 
ATOM     18  C   UNL A   1      33.371  21.418  24.436  1.00  0.00     0.066 A 
ATOM     19  C   UNL A   1      34.332  22.371  26.890  1.00  0.00     0.005 A 
ATOM     20  C   UNL A   1      33.402  20.591  25.561  1.00  0.00     0.120 A 
ATOM     21  C   UNL A   1      33.815  21.083  26.798  1.00  0.00     0.046 A 
BRANCH  20  22
ATOM     22  O   UNL A   1      33.032  19.274  25.514  1.00  0.00    -0.497 OA
ATOM     23  C   UNL A   1      32.485  18.938  24.237  1.00  0.00     0.278 C 
ENDBRANCH  20  22
ENDBRANCH  13  16
ENDBRANCH   8  13
ENDBRANCH   5   8
ENDBRANCH   3   4
ENDBRANCH   2   3
ENDBRANCH   1   2
BRANCH   1  24
ATOM     24  C   UNL A   1      31.700  30.196  26.867  1.00  0.00     0.002 C 
BRANCH  24  25
ATOM     25  C   UNL A   1      32.074  31.640  26.520  1.00  0.00     0.021 C 
BRANCH  25  26
ATOM     26  C   UNL A   1      33.095  32.292  27.451  1.00  0.00     0.116 C 
BRANCH  26  27
ATOM     27  N   UNL A   1      32.833  33.705  27.669  1.00  0.00    -0.352 N 
ATOM     28  C   UNL A   1      33.395  34.564  28.584  1.00  0.00     0.251 C 
ATOM     29  H   UNL A   1      32.155  34.105  27.077  1.00  0.00     0.163 HD
ATOM     30  O   UNL A   1      32.938  35.695  28.725  1.00  0.00    -0.269 OA
BRANCH  28  31
ATOM     31  C   UNL A   1      34.531  34.114  29.418  1.00  0.00     0.039 A 
ATOM     32  C   UNL A   1      34.267  33.451  30.619  1.00  0.00     0.014 A 
ATOM     33  C   UNL A   1      35.850  34.334  29.013  1.00  0.00     0.014 A 
ATOM     34  C   UNL A   1      35.324  32.939  31.376  1.00  0.00     0.010 A 
ATOM     35  C   UNL A   1      36.900  33.769  29.735  1.00  0.00     0.010 A 
ATOM     36  C   UNL A   1      36.647  33.057  30.918  1.00  0.00    -0.014 A 
BRANCH  36  37
ATOM     37  C   UNL A   1      37.776  32.416  31.642  1.00  0.00     0.031 A 
ATOM     38  C   UNL A   1      38.244  32.964  32.963  1.00  0.00     0.074 A 
ATOM     39  C   UNL A   1      38.432  31.386  31.070  1.00  0.00     0.049 A 
ATOM     40  N   UNL A   1      39.261  32.591  33.695  1.00  0.00    -0.248 NA
ATOM     41  C   UNL A   1      37.482  34.093  33.521  1.00  0.00     0.031 C 
ATOM     42  C   UNL A   1      38.101  30.784  29.776  1.00  0.00     0.029 A 
ATOM     43  N   UNL A   1      39.523  30.671  31.497  1.00  0.00    -0.354 N 
ATOM     44  C   UNL A   1      39.273  33.446  34.792  1.00  0.00     0.074 A 
ATOM     45  C   UNL A   1      38.188  34.384  34.606  1.00  0.00     0.031 C 
ATOM     46  C   UNL A   1      38.957  29.780  29.526  1.00  0.00     0.029 A 
ATOM     47  C   UNL A   1      39.924  29.695  30.615  1.00  0.00     0.049 A 
ATOM     48  H   UNL A   1      39.976  30.840  32.355  1.00  0.00     0.167 HD
ATOM     49  C   UNL A   1      40.104  33.441  35.862  1.00  0.00     0.031 A 
ATOM     50  C   UNL A   1      40.961  28.836  30.667  1.00  0.00     0.031 A 
ATOM     51  C   UNL A   1      41.178  32.503  36.048  1.00  0.00     0.049 A 
ATOM     52  C   UNL A   1      41.882  28.864  31.855  1.00  0.00     0.074 A 
ATOM     53  C   UNL A   1      42.036  32.382  37.128  1.00  0.00     0.029 A 
ATOM     54  N   UNL A   1      41.548  31.529  35.133  1.00  0.00    -0.354 N 
ATOM     55  N   UNL A   1      41.836  29.639  32.911  1.00  0.00    -0.248 NA
ATOM     56  C   UNL A   1      42.992  27.902  31.859  1.00  0.00     0.031 C 
ATOM     57  C   UNL A   1      42.958  31.369  36.842  1.00  0.00     0.029 A 
ATOM     58  C   UNL A   1      42.640  30.822  35.610  1.00  0.00     0.049 A 
ATOM     59  H   UNL A   1      41.101  31.365  34.272  1.00  0.00     0.167 HD
ATOM     60  C   UNL A   1      42.898  29.242  33.717  1.00  0.00     0.074 A 
ATOM     61  C   UNL A   1      43.558  28.150  33.032  1.00  0.00     0.031 C 
ATOM     62  C   UNL A   1      43.290  29.740  34.916  1.00  0.00     0.031 A 
BRANCH  49  63
ATOM     63  C   UNL A   1      39.885  34.495  36.917  1.00  0.00    -0.014 A 
ATOM     64  C   UNL A   1      38.998  34.279  37.986  1.00  0.00     0.010 A 
ATOM     65  C   UNL A   1      40.610  35.700  36.862  1.00  0.00     0.010 A 
ATOM     66  C   UNL A   1      38.806  35.264  38.957  1.00  0.00     0.020 A 
ATOM     67  C   UNL A   1      40.442  36.678  37.847  1.00  0.00     0.020 A 
ATOM     68  C   UNL A   1      39.527  36.459  38.879  1.00  0.00     0.054 A 
BRANCH  68  69
ATOM     69  S   UNL A   1      39.273  37.713  40.166  1.00  0.00     0.124 S 
ATOM     70  O   UNL A   1      40.559  38.406  40.168  1.00  0.00    -0.237 OA
ATOM     71  O   UNL A   1      38.146  38.482  39.646  1.00  0.00    -0.237 OA
ATOM     72  O   UNL A   1      38.988  36.928  41.364  1.00  0.00    -0.744 OA
ENDBRANCH  68  69
ENDBRANCH  49  63
BRANCH  50  73
ATOM     73  C   UNL A   1      41.180  27.871  29.555  1.00  0.00    -0.014 A 
ATOM     74  C   UNL A   1      42.257  28.037  28.667  1.00  0.00     0.010 A 
ATOM     75  C   UNL A   1      40.320  26.770  29.388  1.00  0.00     0.010 A 
ATOM     76  C   UNL A   1      42.463  27.129  27.624  1.00  0.00     0.020 A 
ATOM     77  C   UNL A   1      40.539  25.844  28.362  1.00  0.00     0.020 A 
ATOM     78  C   UNL A   1      41.604  26.036  27.480  1.00  0.00     0.054 A 
BRANCH  78  79
ATOM     79  S   UNL A   1      41.923  24.837  26.157  1.00  0.00     0.124 S 
ATOM     80  O   UNL A   1      43.306  24.454  26.423  1.00  0.00    -0.237 OA
ATOM     81  O   UNL A   1      40.920  23.807  26.414  1.00  0.00    -0.237 OA
ATOM     82  O   UNL A   1      41.711  25.612  24.937  1.00  0.00    -0.744 OA
ENDBRANCH  78  79
ENDBRANCH  50  73
BRANCH  62  83
ATOM     83  C   UNL A   1      44.477  29.097  35.579  1.00  0.00    -0.014 A 
ATOM     84  C   UNL A   1      45.777  29.598  35.387  1.00  0.00     0.010 A 
ATOM     85  C   UNL A   1      44.282  28.017  36.460  1.00  0.00     0.010 A 
ATOM     86  C   UNL A   1      46.863  29.018  36.049  1.00  0.00     0.020 A 
ATOM     87  C   UNL A   1      45.362  27.451  37.144  1.00  0.00     0.020 A 
ATOM     88  C   UNL A   1      46.647  27.949  36.925  1.00  0.00     0.054 A 
BRANCH  88  89
ATOM     89  S   UNL A   1      48.066  27.252  37.817  1.00  0.00     0.124 S 
ATOM     90  O   UNL A   1      47.496  26.036  38.389  1.00  0.00    -0.237 OA
ATOM     91  O   UNL A   1      49.044  27.047  36.752  1.00  0.00    -0.237 OA
ATOM     92  O   UNL A   1      48.413  28.292  38.781  1.00  0.00    -0.744 OA
ENDBRANCH  88  89
ENDBRANCH  62  83
ENDBRANCH  36  37
ENDBRANCH  28  31
ENDBRANCH  26  27
ENDBRANCH  25  26
ENDBRANCH  24  25
ENDBRANCH   1  24
TORSDOF 21
ENDMDL
