MODEL 1
REMARK VINA RESULT:     -12.2      0.000      0.000
REMARK SMILES O=C(NCCCCCCNC(=O)c1cc(Br)n(Cc2ccn(C3CCCC3)n2)c1)c1ccc(-c2c3nc(c(-c4ccc(S(=O)(=O)[O-])cc4)c4ccc([nH]4)c(-c4ccc(S(=O)(=O)[O-])cc4)c4nc(c(-c5ccc(S(=O)(=O)[O-])cc5)c5ccc2[nH]5)C=C4)C=C3)cc1
REMARK SMILES IDX 6 1 5 2 4 3 3 4 1 5 2 6 30 8 31 9 89 10 32 11 88 12 33 13
REMARK SMILES IDX 34 14 35 15 82 16 36 17 87 18 81 19 83 20 37 21 86 22 80 23
REMARK SMILES IDX 79 24 38 26 68 27 49 28 67 29 50 30 53 31 66 32 84 33 51 34
REMARK SMILES IDX 52 35 65 37 85 38 54 39 39 40 40 41 48 42 41 43 47 44 42 45
REMARK SMILES IDX 43 46 44 47 45 48 46 49 69 50 70 51 78 52 71 53 77 54 72 55
REMARK SMILES IDX 73 56 74 57 75 58 76 59 55 60 56 61 64 62 57 63 63 64 58 65
REMARK SMILES IDX 59 66 60 67 61 68 62 69 7 70 8 71 9 72 10 73 11 74 12 76
REMARK SMILES IDX 13 77 14 78 29 79 15 80 17 81 16 82 18 83 19 84 20 85 28 86
REMARK SMILES IDX 21 87 22 88 23 89 24 90 27 91 25 92 26 93
REMARK H PARENT 3 7 83 25 53 36 10 75
REMARK Flexibility Score: inf
ROOT
ATOM      1  C   UNL A   1      34.841  23.131  24.761  1.00  0.00     0.002 C 
ENDROOT
BRANCH   1   2
ATOM      2  C   UNL A   1      36.120  22.791  25.536  1.00  0.00     0.021 C 
BRANCH   2   3
ATOM      3  C   UNL A   1      37.343  22.532  24.659  1.00  0.00     0.116 C 
BRANCH   3   4
ATOM      4  N   UNL A   1      38.343  21.688  25.279  1.00  0.00    -0.352 N 
ATOM      5  O   UNL A   1      39.991  20.899  26.522  1.00  0.00    -0.269 OA
ATOM      6  C   UNL A   1      39.336  21.894  26.198  1.00  0.00     0.251 C 
ATOM      7  H   UNL A   1      38.297  20.755  24.969  1.00  0.00     0.163 HD
BRANCH   6   8
ATOM      8  C   UNL A   1      39.695  23.212  26.791  1.00  0.00     0.039 A 
ATOM      9  C   UNL A   1      38.994  24.403  26.602  1.00  0.00     0.014 A 
ATOM     10  C   UNL A   1      40.815  23.224  27.644  1.00  0.00     0.014 A 
ATOM     11  C   UNL A   1      39.424  25.584  27.206  1.00  0.00     0.010 A 
ATOM     12  C   UNL A   1      41.235  24.397  28.269  1.00  0.00     0.010 A 
ATOM     13  C   UNL A   1      40.546  25.586  28.038  1.00  0.00    -0.014 A 
BRANCH  13  14
ATOM     14  C   UNL A   1      40.866  26.825  28.750  1.00  0.00     0.031 A 
ATOM     15  C   UNL A   1      42.029  27.604  28.225  1.00  0.00     0.074 A 
ATOM     16  C   UNL A   1      40.092  27.372  29.708  1.00  0.00     0.049 A 
ATOM     17  N   UNL A   1      43.101  27.982  28.845  1.00  0.00    -0.248 NA
ATOM     18  C   UNL A   1      42.002  27.969  26.799  1.00  0.00     0.031 C 
ATOM     19  C   UNL A   1      38.750  26.961  30.121  1.00  0.00     0.029 A 
ATOM     20  N   UNL A   1      40.313  28.506  30.436  1.00  0.00    -0.354 N 
ATOM     21  C   UNL A   1      43.815  28.769  27.942  1.00  0.00     0.074 A 
ATOM     22  C   UNL A   1      43.144  28.644  26.672  1.00  0.00     0.031 C 
ATOM     23  C   UNL A   1      38.191  27.955  30.848  1.00  0.00     0.029 A 
ATOM     24  C   UNL A   1      39.179  28.999  31.061  1.00  0.00     0.049 A 
ATOM     25  H   UNL A   1      41.197  28.934  30.508  1.00  0.00     0.167 HD
ATOM     26  C   UNL A   1      44.826  29.606  28.310  1.00  0.00     0.031 A 
ATOM     27  C   UNL A   1      39.036  30.213  31.649  1.00  0.00     0.031 A 
ATOM     28  C   UNL A   1      45.329  29.327  29.625  1.00  0.00     0.049 A 
ATOM     29  C   UNL A   1      40.387  30.747  31.940  1.00  0.00     0.074 A 
ATOM     30  C   UNL A   1      45.938  28.244  30.228  1.00  0.00     0.029 A 
ATOM     31  N   UNL A   1      44.945  30.158  30.648  1.00  0.00    -0.354 N 
ATOM     32  N   UNL A   1      41.198  30.238  32.823  1.00  0.00    -0.248 NA
ATOM     33  C   UNL A   1      40.998  31.663  30.992  1.00  0.00     0.031 C 
ATOM     34  C   UNL A   1      45.465  28.254  31.573  1.00  0.00     0.029 A 
ATOM     35  C   UNL A   1      44.618  29.356  31.712  1.00  0.00     0.049 A 
ATOM     36  H   UNL A   1      44.910  31.142  30.623  1.00  0.00     0.167 HD
ATOM     37  C   UNL A   1      42.467  30.441  32.305  1.00  0.00     0.074 A 
ATOM     38  C   UNL A   1      42.287  31.429  31.247  1.00  0.00     0.031 C 
ATOM     39  C   UNL A   1      43.498  29.594  32.600  1.00  0.00     0.031 A 
BRANCH  26  40
ATOM     40  C   UNL A   1      45.160  30.883  27.579  1.00  0.00    -0.014 A 
ATOM     41  C   UNL A   1      46.448  31.065  27.036  1.00  0.00     0.010 A 
ATOM     42  C   UNL A   1      44.321  32.017  27.632  1.00  0.00     0.010 A 
ATOM     43  C   UNL A   1      46.885  32.326  26.603  1.00  0.00     0.020 A 
ATOM     44  C   UNL A   1      44.731  33.268  27.162  1.00  0.00     0.020 A 
ATOM     45  C   UNL A   1      46.025  33.422  26.681  1.00  0.00     0.054 A 
BRANCH  45  46
ATOM     46  S   UNL A   1      46.628  35.065  26.214  1.00  0.00     0.124 S 
ATOM     47  O   UNL A   1      47.153  35.563  27.481  1.00  0.00    -0.237 OA
ATOM     48  O   UNL A   1      47.625  34.754  25.193  1.00  0.00    -0.237 OA
ATOM     49  O   UNL A   1      45.430  35.742  25.721  1.00  0.00    -0.744 OA
ENDBRANCH  45  46
ENDBRANCH  26  40
BRANCH  27  50
ATOM     50  C   UNL A   1      37.817  31.054  31.707  1.00  0.00    -0.014 A 
ATOM     51  C   UNL A   1      37.177  31.319  32.932  1.00  0.00     0.010 A 
ATOM     52  C   UNL A   1      37.439  31.823  30.587  1.00  0.00     0.010 A 
ATOM     53  C   UNL A   1      36.234  32.354  33.042  1.00  0.00     0.020 A 
ATOM     54  C   UNL A   1      36.493  32.848  30.688  1.00  0.00     0.020 A 
ATOM     55  C   UNL A   1      35.913  33.125  31.922  1.00  0.00     0.054 A 
BRANCH  55  56
ATOM     56  S   UNL A   1      34.835  34.575  32.113  1.00  0.00     0.124 S 
ATOM     57  O   UNL A   1      35.666  35.478  32.904  1.00  0.00    -0.237 OA
ATOM     58  O   UNL A   1      34.600  34.979  30.729  1.00  0.00    -0.237 OA
ATOM     59  O   UNL A   1      33.663  34.042  32.805  1.00  0.00    -0.744 OA
ENDBRANCH  55  56
ENDBRANCH  27  50
BRANCH  39  60
ATOM     60  C   UNL A   1      43.327  28.626  33.749  1.00  0.00    -0.014 A 
ATOM     61  C   UNL A   1      42.815  27.322  33.591  1.00  0.00     0.010 A 
ATOM     62  C   UNL A   1      43.838  28.994  35.008  1.00  0.00     0.010 A 
ATOM     63  C   UNL A   1      42.788  26.425  34.668  1.00  0.00     0.020 A 
ATOM     64  C   UNL A   1      43.833  28.097  36.080  1.00  0.00     0.020 A 
ATOM     65  C   UNL A   1      43.301  26.818  35.908  1.00  0.00     0.054 A 
BRANCH  65  66
ATOM     66  S   UNL A   1      43.324  25.626  37.275  1.00  0.00     0.124 S 
ATOM     67  O   UNL A   1      42.053  24.928  37.110  1.00  0.00    -0.237 OA
ATOM     68  O   UNL A   1      44.519  24.832  36.995  1.00  0.00    -0.237 OA
ATOM     69  O   UNL A   1      43.418  26.468  38.469  1.00  0.00    -0.744 OA
ENDBRANCH  65  66
ENDBRANCH  39  60
ENDBRANCH  13  14
ENDBRANCH   6   8
ENDBRANCH   3   4
ENDBRANCH   2   3
ENDBRANCH   1   2
BRANCH   1  70
ATOM     70  C   UNL A   1      34.094  21.937  24.158  1.00  0.00     0.002 C 
BRANCH  70  71
ATOM     71  C   UNL A   1      32.839  21.490  24.919  1.00  0.00     0.021 C 
BRANCH  71  72
ATOM     72  C   UNL A   1      32.757  21.985  26.364  1.00  0.00     0.116 C 
BRANCH  72  73
ATOM     73  N   UNL A   1      31.375  22.144  26.779  1.00  0.00    -0.352 N 
ATOM     74  C   UNL A   1      30.613  23.284  26.787  1.00  0.00     0.252 C 
ATOM     75  H   UNL A   1      30.927  21.327  27.097  1.00  0.00     0.163 HD
ATOM     76  O   UNL A   1      29.584  23.321  27.456  1.00  0.00    -0.269 OA
BRANCH  74  77
ATOM     77  C   UNL A   1      31.052  24.410  25.979  1.00  0.00     0.058 A 
ATOM     78  C   UNL A   1      31.993  25.424  26.324  1.00  0.00     0.049 A 
ATOM     79  C   UNL A   1      30.685  24.649  24.667  1.00  0.00     0.101 A 
ATOM     80  C   UNL A   1      32.176  26.217  25.214  1.00  0.00     0.086 A 
ATOM     81  N   UNL A   1      31.323  25.789  24.228  1.00  0.00    -0.335 N 
ATOM     82  Br  UNL A   1      33.436  27.595  25.144  1.00  0.00    -0.031 Br
BRANCH  81  83
ATOM     83  C   UNL A   1      31.194  26.335  22.880  1.00  0.00     0.180 C 
BRANCH  83  84
ATOM     84  C   UNL A   1      30.148  27.404  22.798  1.00  0.00     0.082 A 
ATOM     85  C   UNL A   1      28.855  27.405  23.378  1.00  0.00     0.047 A 
ATOM     86  N   UNL A   1      30.401  28.574  22.185  1.00  0.00    -0.176 NA
ATOM     87  C   UNL A   1      28.318  28.629  23.070  1.00  0.00     0.109 A 
ATOM     88  N   UNL A   1      29.272  29.293  22.358  1.00  0.00    -0.269 N 
BRANCH  88  89
ATOM     89  C   UNL A   1      29.161  30.649  21.869  1.00  0.00     0.107 C 
ATOM     90  C   UNL A   1      28.044  30.869  20.851  1.00  0.00     0.027 C 
ATOM     91  C   UNL A   1      28.857  31.697  22.938  1.00  0.00     0.027 C 
ATOM     92  C   UNL A   1      27.946  32.386  20.769  1.00  0.00     0.002 C 
ATOM     93  C   UNL A   1      28.347  32.905  22.151  1.00  0.00     0.002 C 
ENDBRANCH  88  89
ENDBRANCH  83  84
ENDBRANCH  81  83
ENDBRANCH  74  77
ENDBRANCH  72  73
ENDBRANCH  71  72
ENDBRANCH  70  71
ENDBRANCH   1  70
TORSDOF 19
ENDMDL
MODEL 2
REMARK VINA RESULT:     -11.9      1.995      2.993
REMARK SMILES O=C(NCCCCCCNC(=O)c1cc(Br)n(Cc2ccn(C3CCCC3)n2)c1)c1ccc(-c2c3nc(c(-c4ccc(S(=O)(=O)[O-])cc4)c4ccc([nH]4)c(-c4ccc(S(=O)(=O)[O-])cc4)c4nc(c(-c5ccc(S(=O)(=O)[O-])cc5)c5ccc2[nH]5)C=C4)C=C3)cc1
REMARK SMILES IDX 6 1 5 2 4 3 3 4 1 5 2 6 30 8 31 9 89 10 32 11 88 12 33 13
REMARK SMILES IDX 34 14 35 15 82 16 36 17 87 18 81 19 83 20 37 21 86 22 80 23
REMARK SMILES IDX 79 24 38 26 68 27 49 28 67 29 50 30 53 31 66 32 84 33 51 34
REMARK SMILES IDX 52 35 65 37 85 38 54 39 39 40 40 41 48 42 41 43 47 44 42 45
REMARK SMILES IDX 43 46 44 47 45 48 46 49 69 50 70 51 78 52 71 53 77 54 72 55
REMARK SMILES IDX 73 56 74 57 75 58 76 59 55 60 56 61 64 62 57 63 63 64 58 65
REMARK SMILES IDX 59 66 60 67 61 68 62 69 7 70 8 71 9 72 10 73 11 74 12 76
REMARK SMILES IDX 13 77 14 78 29 79 15 80 17 81 16 82 18 83 19 84 20 85 28 86
REMARK SMILES IDX 21 87 22 88 23 89 24 90 27 91 25 92 26 93
REMARK H PARENT 3 7 83 25 53 36 10 75
REMARK Flexibility Score: inf
ROOT
ATOM      1  C   UNL A   1      39.758  22.834  27.219  1.00  0.00     0.002 C 
ENDROOT
BRANCH   1   2
ATOM      2  C   UNL A   1      39.994  21.762  26.147  1.00  0.00     0.021 C 
BRANCH   2   3
ATOM      3  C   UNL A   1      41.378  21.119  26.189  1.00  0.00     0.116 C 
BRANCH   3   4
ATOM      4  N   UNL A   1      42.321  21.693  25.251  1.00  0.00    -0.352 N 
ATOM      5  O   UNL A   1      43.725  23.030  24.191  1.00  0.00    -0.269 OA
ATOM      6  C   UNL A   1      42.931  22.911  25.129  1.00  0.00     0.251 C 
ATOM      7  H   UNL A   1      42.582  21.063  24.541  1.00  0.00     0.163 HD
BRANCH   6   8
ATOM      8  C   UNL A   1      42.681  24.087  26.009  1.00  0.00     0.039 A 
ATOM      9  C   UNL A   1      43.126  24.224  27.324  1.00  0.00     0.014 A 
ATOM     10  C   UNL A   1      41.969  25.155  25.430  1.00  0.00     0.014 A 
ATOM     11  C   UNL A   1      42.829  25.372  28.058  1.00  0.00     0.010 A 
ATOM     12  C   UNL A   1      41.691  26.314  26.152  1.00  0.00     0.010 A 
ATOM     13  C   UNL A   1      42.109  26.418  27.477  1.00  0.00    -0.014 A 
BRANCH  13  14
ATOM     14  C   UNL A   1      41.948  27.650  28.252  1.00  0.00     0.031 A 
ATOM     15  C   UNL A   1      43.064  28.640  28.152  1.00  0.00     0.074 A 
ATOM     16  C   UNL A   1      40.814  28.005  28.887  1.00  0.00     0.049 A 
ATOM     17  N   UNL A   1      43.780  29.155  29.100  1.00  0.00    -0.248 NA
ATOM     18  C   UNL A   1      43.454  29.075  26.801  1.00  0.00     0.031 C 
ATOM     19  C   UNL A   1      39.505  27.355  28.819  1.00  0.00     0.029 A 
ATOM     20  N   UNL A   1      40.574  29.117  29.642  1.00  0.00    -0.354 N 
ATOM     21  C   UNL A   1      44.607  30.100  28.491  1.00  0.00     0.074 A 
ATOM     22  C   UNL A   1      44.435  29.937  27.069  1.00  0.00     0.031 C 
ATOM     23  C   UNL A   1      38.568  28.198  29.308  1.00  0.00     0.029 A 
ATOM     24  C   UNL A   1      39.228  29.379  29.842  1.00  0.00     0.049 A 
ATOM     25  H   UNL A   1      41.292  29.681  30.010  1.00  0.00     0.167 HD
ATOM     26  C   UNL A   1      45.271  31.071  29.179  1.00  0.00     0.031 A 
ATOM     27  C   UNL A   1      38.685  30.516  30.341  1.00  0.00     0.031 A 
ATOM     28  C   UNL A   1      45.344  30.805  30.588  1.00  0.00     0.049 A 
ATOM     29  C   UNL A   1      39.743  31.250  31.074  1.00  0.00     0.074 A 
ATOM     30  C   UNL A   1      45.894  29.806  31.366  1.00  0.00     0.029 A 
ATOM     31  N   UNL A   1      44.498  31.501  31.416  1.00  0.00    -0.354 N 
ATOM     32  N   UNL A   1      40.286  30.834  32.182  1.00  0.00    -0.248 NA
ATOM     33  C   UNL A   1      40.466  32.307  30.388  1.00  0.00     0.031 C 
ATOM     34  C   UNL A   1      45.003  29.661  32.469  1.00  0.00     0.029 A 
ATOM     35  C   UNL A   1      43.978  30.597  32.307  1.00  0.00     0.049 A 
ATOM     36  H   UNL A   1      44.302  32.465  31.377  1.00  0.00     0.167 HD
ATOM     37  C   UNL A   1      41.599  31.274  32.127  1.00  0.00     0.074 A 
ATOM     38  C   UNL A   1      41.615  32.277  31.068  1.00  0.00     0.031 C 
ATOM     39  C   UNL A   1      42.602  30.595  32.759  1.00  0.00     0.031 A 
BRANCH  26  40
ATOM     40  C   UNL A   1      45.602  32.425  28.602  1.00  0.00    -0.014 A 
ATOM     41  C   UNL A   1      46.948  32.824  28.474  1.00  0.00     0.010 A 
ATOM     42  C   UNL A   1      44.619  33.420  28.417  1.00  0.00     0.010 A 
ATOM     43  C   UNL A   1      47.290  34.160  28.212  1.00  0.00     0.020 A 
ATOM     44  C   UNL A   1      44.948  34.743  28.111  1.00  0.00     0.020 A 
ATOM     45  C   UNL A   1      46.285  35.113  28.044  1.00  0.00     0.054 A 
BRANCH  45  46
ATOM     46  S   UNL A   1      46.734  36.851  27.804  1.00  0.00     0.124 S 
ATOM     47  O   UNL A   1      45.602  37.540  28.416  1.00  0.00    -0.237 OA
ATOM     48  O   UNL A   1      48.000  36.949  28.525  1.00  0.00    -0.237 OA
ATOM     49  O   UNL A   1      46.838  36.980  26.352  1.00  0.00    -0.744 OA
ENDBRANCH  45  46
ENDBRANCH  26  40
BRANCH  27  50
ATOM     50  C   UNL A   1      37.390  31.139  29.978  1.00  0.00    -0.014 A 
ATOM     51  C   UNL A   1      36.458  31.503  30.967  1.00  0.00     0.010 A 
ATOM     52  C   UNL A   1      37.186  31.625  28.670  1.00  0.00     0.010 A 
ATOM     53  C   UNL A   1      35.393  32.368  30.668  1.00  0.00     0.020 A 
ATOM     54  C   UNL A   1      36.121  32.479  28.364  1.00  0.00     0.020 A 
ATOM     55  C   UNL A   1      35.244  32.866  29.371  1.00  0.00     0.054 A 
BRANCH  55  56
ATOM     56  S   UNL A   1      33.978  34.126  29.036  1.00  0.00     0.124 S 
ATOM     57  O   UNL A   1      33.070  33.422  28.135  1.00  0.00    -0.237 OA
ATOM     58  O   UNL A   1      33.453  34.410  30.369  1.00  0.00    -0.237 OA
ATOM     59  O   UNL A   1      34.734  35.219  28.427  1.00  0.00    -0.744 OA
ENDBRANCH  55  56
ENDBRANCH  27  50
BRANCH  39  60
ATOM     60  C   UNL A   1      42.228  29.547  33.784  1.00  0.00    -0.014 A 
ATOM     61  C   UNL A   1      41.855  28.232  33.444  1.00  0.00     0.010 A 
ATOM     62  C   UNL A   1      42.399  29.861  35.146  1.00  0.00     0.010 A 
ATOM     63  C   UNL A   1      41.632  27.268  34.438  1.00  0.00     0.020 A 
ATOM     64  C   UNL A   1      42.199  28.899  36.140  1.00  0.00     0.020 A 
ATOM     65  C   UNL A   1      41.809  27.608  35.782  1.00  0.00     0.054 A 
BRANCH  65  66
ATOM     66  S   UNL A   1      41.585  26.334  37.055  1.00  0.00     0.124 S 
ATOM     67  O   UNL A   1      41.486  25.110  36.266  1.00  0.00    -0.237 OA
ATOM     68  O   UNL A   1      42.796  26.465  37.863  1.00  0.00    -0.237 OA
ATOM     69  O   UNL A   1      40.353  26.734  37.734  1.00  0.00    -0.744 OA
ENDBRANCH  65  66
ENDBRANCH  39  60
ENDBRANCH  13  14
ENDBRANCH   6   8
ENDBRANCH   3   4
ENDBRANCH   2   3
ENDBRANCH   1   2
BRANCH   1  70
ATOM     70  C   UNL A   1      38.621  23.821  26.932  1.00  0.00     0.002 C 
BRANCH  70  71
ATOM     71  C   UNL A   1      37.978  23.701  25.544  1.00  0.00     0.021 C 
BRANCH  71  72
ATOM     72  C   UNL A   1      36.451  23.628  25.550  1.00  0.00     0.116 C 
BRANCH  72  73
ATOM     73  N   UNL A   1      35.982  22.677  26.544  1.00  0.00    -0.352 N 
ATOM     74  C   UNL A   1      34.708  22.212  26.742  1.00  0.00     0.252 C 
ATOM     75  H   UNL A   1      36.668  22.321  27.153  1.00  0.00     0.163 HD
ATOM     76  O   UNL A   1      34.419  21.669  27.806  1.00  0.00    -0.269 OA
BRANCH  74  77
ATOM     77  C   UNL A   1      33.742  22.368  25.667  1.00  0.00     0.058 A 
ATOM     78  C   UNL A   1      33.688  21.669  24.426  1.00  0.00     0.049 A 
ATOM     79  C   UNL A   1      32.627  23.186  25.702  1.00  0.00     0.101 A 
ATOM     80  C   UNL A   1      32.545  22.068  23.772  1.00  0.00     0.086 A 
ATOM     81  N   UNL A   1      31.937  23.046  24.517  1.00  0.00    -0.335 N 
ATOM     82  Br  UNL A   1      31.974  21.307  22.164  1.00  0.00    -0.031 Br
BRANCH  81  83
ATOM     83  C   UNL A   1      30.691  23.741  24.206  1.00  0.00     0.180 C 
BRANCH  83  84
ATOM     84  C   UNL A   1      30.918  25.166  23.808  1.00  0.00     0.082 A 
ATOM     85  C   UNL A   1      32.151  25.812  23.547  1.00  0.00     0.047 A 
ATOM     86  N   UNL A   1      29.882  25.992  23.571  1.00  0.00    -0.176 NA
ATOM     87  C   UNL A   1      31.821  27.086  23.158  1.00  0.00     0.109 A 
ATOM     88  N   UNL A   1      30.460  27.150  23.188  1.00  0.00    -0.269 N 
BRANCH  88  89
ATOM     89  C   UNL A   1      29.666  28.294  22.799  1.00  0.00     0.107 C 
ATOM     90  C   UNL A   1      28.183  28.188  23.150  1.00  0.00     0.027 C 
ATOM     91  C   UNL A   1      30.075  29.614  23.449  1.00  0.00     0.027 C 
ATOM     92  C   UNL A   1      27.677  29.609  22.941  1.00  0.00     0.002 C 
ATOM     93  C   UNL A   1      28.861  30.524  23.258  1.00  0.00     0.002 C 
ENDBRANCH  88  89
ENDBRANCH  83  84
ENDBRANCH  81  83
ENDBRANCH  74  77
ENDBRANCH  72  73
ENDBRANCH  71  72
ENDBRANCH  70  71
ENDBRANCH   1  70
TORSDOF 19
ENDMDL
MODEL 3
REMARK VINA RESULT:     -11.8      1.859      2.994
REMARK SMILES O=C(NCCCCCCNC(=O)c1cc(Br)n(Cc2ccn(C3CCCC3)n2)c1)c1ccc(-c2c3nc(c(-c4ccc(S(=O)(=O)[O-])cc4)c4ccc([nH]4)c(-c4ccc(S(=O)(=O)[O-])cc4)c4nc(c(-c5ccc(S(=O)(=O)[O-])cc5)c5ccc2[nH]5)C=C4)C=C3)cc1
REMARK SMILES IDX 6 1 5 2 4 3 3 4 1 5 2 6 30 8 31 9 89 10 32 11 88 12 33 13
REMARK SMILES IDX 34 14 35 15 82 16 36 17 87 18 81 19 83 20 37 21 86 22 80 23
REMARK SMILES IDX 79 24 38 26 68 27 49 28 67 29 50 30 53 31 66 32 84 33 51 34
REMARK SMILES IDX 52 35 65 37 85 38 54 39 39 40 40 41 48 42 41 43 47 44 42 45
REMARK SMILES IDX 43 46 44 47 45 48 46 49 69 50 70 51 78 52 71 53 77 54 72 55
REMARK SMILES IDX 73 56 74 57 75 58 76 59 55 60 56 61 64 62 57 63 63 64 58 65
REMARK SMILES IDX 59 66 60 67 61 68 62 69 7 70 8 71 9 72 10 73 11 74 12 76
REMARK SMILES IDX 13 77 14 78 29 79 15 80 17 81 16 82 18 83 19 84 20 85 28 86
REMARK SMILES IDX 21 87 22 88 23 89 24 90 27 91 25 92 26 93
REMARK H PARENT 3 7 83 25 53 36 10 75
REMARK Flexibility Score: inf
ROOT
ATOM      1  C   UNL A   1      35.149  21.745  26.282  1.00  0.00     0.002 C 
ENDROOT
BRANCH   1   2
ATOM      2  C   UNL A   1      36.330  21.422  25.358  1.00  0.00     0.021 C 
BRANCH   2   3
ATOM      3  C   UNL A   1      37.521  22.367  25.497  1.00  0.00     0.116 C 
BRANCH   3   4
ATOM      4  N   UNL A   1      38.800  21.693  25.576  1.00  0.00    -0.352 N 
ATOM      5  O   UNL A   1      40.877  21.115  26.059  1.00  0.00    -0.269 OA
ATOM      6  C   UNL A   1      39.990  21.963  26.193  1.00  0.00     0.251 C 
ATOM      7  H   UNL A   1      38.815  20.847  25.071  1.00  0.00     0.163 HD
BRANCH   6   8
ATOM      8  C   UNL A   1      40.294  23.200  26.965  1.00  0.00     0.039 A 
ATOM      9  C   UNL A   1      41.413  23.395  27.776  1.00  0.00     0.014 A 
ATOM     10  C   UNL A   1      39.382  24.263  26.819  1.00  0.00     0.014 A 
ATOM     11  C   UNL A   1      41.594  24.597  28.459  1.00  0.00     0.010 A 
ATOM     12  C   UNL A   1      39.572  25.475  27.480  1.00  0.00     0.010 A 
ATOM     13  C   UNL A   1      40.675  25.638  28.317  1.00  0.00    -0.014 A 
BRANCH  13  14
ATOM     14  C   UNL A   1      40.991  26.921  28.949  1.00  0.00     0.031 A 
ATOM     15  C   UNL A   1      42.199  27.631  28.427  1.00  0.00     0.074 A 
ATOM     16  C   UNL A   1      40.185  27.557  29.821  1.00  0.00     0.049 A 
ATOM     17  N   UNL A   1      43.248  28.031  29.072  1.00  0.00    -0.248 NA
ATOM     18  C   UNL A   1      42.253  27.885  26.979  1.00  0.00     0.031 C 
ATOM     19  C   UNL A   1      38.814  27.210  30.194  1.00  0.00     0.029 A 
ATOM     20  N   UNL A   1      40.399  28.739  30.471  1.00  0.00    -0.354 N 
ATOM     21  C   UNL A   1      44.027  28.730  28.150  1.00  0.00     0.074 A 
ATOM     22  C   UNL A   1      43.417  28.523  26.860  1.00  0.00     0.031 C 
ATOM     23  C   UNL A   1      38.245  28.269  30.814  1.00  0.00     0.029 A 
ATOM     24  C   UNL A   1      39.248  29.304  30.998  1.00  0.00     0.049 A 
ATOM     25  H   UNL A   1      41.289  29.151  30.557  1.00  0.00     0.167 HD
ATOM     26  C   UNL A   1      45.040  29.570  28.506  1.00  0.00     0.031 A 
ATOM     27  C   UNL A   1      39.108  30.562  31.484  1.00  0.00     0.031 A 
ATOM     28  C   UNL A   1      45.469  29.382  29.862  1.00  0.00     0.049 A 
ATOM     29  C   UNL A   1      40.456  31.086  31.803  1.00  0.00     0.074 A 
ATOM     30  C   UNL A   1      46.018  28.335  30.576  1.00  0.00     0.029 A 
ATOM     31  N   UNL A   1      45.056  30.298  30.798  1.00  0.00    -0.354 N 
ATOM     32  N   UNL A   1      41.209  30.629  32.763  1.00  0.00    -0.248 NA
ATOM     33  C   UNL A   1      41.138  31.913  30.821  1.00  0.00     0.031 C 
ATOM     34  C   UNL A   1      45.480  28.459  31.890  1.00  0.00     0.029 A 
ATOM     35  C   UNL A   1      44.655  29.587  31.901  1.00  0.00     0.049 A 
ATOM     36  H   UNL A   1      45.049  31.277  30.697  1.00  0.00     0.167 HD
ATOM     37  C   UNL A   1      42.507  30.763  32.298  1.00  0.00     0.074 A 
ATOM     38  C   UNL A   1      42.406  31.671  31.160  1.00  0.00     0.031 C 
ATOM     39  C   UNL A   1      43.499  29.918  32.709  1.00  0.00     0.031 A 
BRANCH  26  40
ATOM     40  C   UNL A   1      45.444  30.779  27.698  1.00  0.00    -0.014 A 
ATOM     41  C   UNL A   1      46.803  31.000  27.398  1.00  0.00     0.010 A 
ATOM     42  C   UNL A   1      44.550  31.841  27.443  1.00  0.00     0.010 A 
ATOM     43  C   UNL A   1      47.248  32.236  26.903  1.00  0.00     0.020 A 
ATOM     44  C   UNL A   1      44.976  33.060  26.908  1.00  0.00     0.020 A 
ATOM     45  C   UNL A   1      46.330  33.262  26.672  1.00  0.00     0.054 A 
BRANCH  45  46
ATOM     46  S   UNL A   1      46.923  34.884  26.127  1.00  0.00     0.124 S 
ATOM     47  O   UNL A   1      47.784  34.527  25.004  1.00  0.00    -0.237 OA
ATOM     48  O   UNL A   1      45.682  35.570  25.781  1.00  0.00    -0.237 OA
ATOM     49  O   UNL A   1      47.612  35.409  27.304  1.00  0.00    -0.744 OA
ENDBRANCH  45  46
ENDBRANCH  26  40
BRANCH  27  50
ATOM     50  C   UNL A   1      37.911  31.433  31.415  1.00  0.00    -0.014 A 
ATOM     51  C   UNL A   1      36.723  31.086  32.083  1.00  0.00     0.010 A 
ATOM     52  C   UNL A   1      38.024  32.745  30.913  1.00  0.00     0.010 A 
ATOM     53  C   UNL A   1      35.709  32.036  32.291  1.00  0.00     0.020 A 
ATOM     54  C   UNL A   1      37.014  33.694  31.106  1.00  0.00     0.020 A 
ATOM     55  C   UNL A   1      35.872  33.340  31.817  1.00  0.00     0.054 A 
BRANCH  55  56
ATOM     56  S   UNL A   1      34.643  34.608  32.247  1.00  0.00     0.124 S 
ATOM     57  O   UNL A   1      33.706  33.861  33.081  1.00  0.00    -0.237 OA
ATOM     58  O   UNL A   1      35.450  35.608  32.941  1.00  0.00    -0.237 OA
ATOM     59  O   UNL A   1      34.119  35.033  30.950  1.00  0.00    -0.744 OA
ENDBRANCH  55  56
ENDBRANCH  27  50
BRANCH  39  60
ATOM     60  C   UNL A   1      43.245  29.045  33.918  1.00  0.00    -0.014 A 
ATOM     61  C   UNL A   1      42.430  27.897  33.884  1.00  0.00     0.010 A 
ATOM     62  C   UNL A   1      43.973  29.312  35.093  1.00  0.00     0.010 A 
ATOM     63  C   UNL A   1      42.323  27.058  35.002  1.00  0.00     0.020 A 
ATOM     64  C   UNL A   1      43.888  28.467  36.203  1.00  0.00     0.020 A 
ATOM     65  C   UNL A   1      43.056  27.347  36.156  1.00  0.00     0.054 A 
BRANCH  65  66
ATOM     66  S   UNL A   1      42.964  26.217  37.572  1.00  0.00     0.124 S 
ATOM     67  O   UNL A   1      41.529  26.152  37.835  1.00  0.00    -0.237 OA
ATOM     68  O   UNL A   1      43.563  24.990  37.049  1.00  0.00    -0.237 OA
ATOM     69  O   UNL A   1      43.753  26.888  38.605  1.00  0.00    -0.744 OA
ENDBRANCH  65  66
ENDBRANCH  39  60
ENDBRANCH  13  14
ENDBRANCH   6   8
ENDBRANCH   3   4
ENDBRANCH   2   3
ENDBRANCH   1   2
BRANCH   1  70
ATOM     70  C   UNL A   1      33.845  21.000  25.978  1.00  0.00     0.002 C 
BRANCH  70  71
ATOM     71  C   UNL A   1      32.784  21.808  25.220  1.00  0.00     0.021 C 
BRANCH  71  72
ATOM     72  C   UNL A   1      33.219  23.219  24.821  1.00  0.00     0.116 C 
BRANCH  72  73
ATOM     73  N   UNL A   1      33.653  23.255  23.436  1.00  0.00    -0.352 N 
ATOM     74  C   UNL A   1      33.097  23.942  22.387  1.00  0.00     0.252 C 
ATOM     75  H   UNL A   1      34.449  22.717  23.222  1.00  0.00     0.163 HD
ATOM     76  O   UNL A   1      33.380  23.622  21.235  1.00  0.00    -0.269 OA
BRANCH  74  77
ATOM     77  C   UNL A   1      32.197  25.043  22.685  1.00  0.00     0.058 A 
ATOM     78  C   UNL A   1      30.807  24.983  22.996  1.00  0.00     0.049 A 
ATOM     79  C   UNL A   1      32.567  26.372  22.808  1.00  0.00     0.101 A 
ATOM     80  C   UNL A   1      30.395  26.257  23.312  1.00  0.00     0.086 A 
ATOM     81  N   UNL A   1      31.450  27.114  23.125  1.00  0.00    -0.335 N 
ATOM     82  Br  UNL A   1      28.676  26.648  23.930  1.00  0.00    -0.031 Br
BRANCH  81  83
ATOM     83  C   UNL A   1      31.463  28.556  23.356  1.00  0.00     0.180 C 
BRANCH  83  84
ATOM     84  C   UNL A   1      31.952  28.908  24.727  1.00  0.00     0.082 A 
ATOM     85  C   UNL A   1      31.397  28.530  25.975  1.00  0.00     0.047 A 
ATOM     86  N   UNL A   1      33.092  29.601  24.898  1.00  0.00    -0.176 NA
ATOM     87  C   UNL A   1      32.244  29.045  26.923  1.00  0.00     0.109 A 
ATOM     88  N   UNL A   1      33.239  29.676  26.238  1.00  0.00    -0.269 N 
BRANCH  88  89
ATOM     89  C   UNL A   1      34.389  30.321  26.833  1.00  0.00     0.107 C 
ATOM     90  C   UNL A   1      34.053  31.360  27.901  1.00  0.00     0.027 C 
ATOM     91  C   UNL A   1      35.348  29.383  27.562  1.00  0.00     0.027 C 
ATOM     92  C   UNL A   1      35.398  31.619  28.565  1.00  0.00     0.002 C 
ATOM     93  C   UNL A   1      36.176  30.306  28.456  1.00  0.00     0.002 C 
ENDBRANCH  88  89
ENDBRANCH  83  84
ENDBRANCH  81  83
ENDBRANCH  74  77
ENDBRANCH  72  73
ENDBRANCH  71  72
ENDBRANCH  70  71
ENDBRANCH   1  70
TORSDOF 19
ENDMDL
