MODEL 1
REMARK VINA RESULT:     -13.3      0.000      0.000
REMARK SMILES CC1(C)O[C@H]2C[C@H]3[C@@H]4CCC5=CC(=O)C=C[C@]5(C)[C@@]4(F)[C@H](O)C[C@@]3(C)[C@@]2(C(=O)NCCCCCCNC(=O)c2ccc(-c3c4nc(c(-c5ccc(S(=O)(=O)[O-])cc5)c5ccc([nH]5)c(-c5ccc(S(=O)(=O)[O-])cc5)c5nc(c(-c6ccc(S(=O)(=O)[O-])cc6)c6ccc3[nH]6)C=C5)C=C4)cc2)O1
REMARK SMILES IDX 33 1 32 2 31 3 30 4 29 5 27 6 28 7 26 9 1 10 2 11 3 12 4 13
REMARK SMILES IDX 99 14 5 15 6 16 24 17 7 18 23 19 25 20 8 21 21 22 9 23 19 24
REMARK SMILES IDX 10 25 17 26 20 27 11 28 16 29 18 30 12 31 15 32 13 33 14 34
REMARK SMILES IDX 22 35 34 37 35 38 36 39 37 40 38 42 39 43 40 44 98 45 41 46
REMARK SMILES IDX 97 47 42 48 43 49 44 50 91 51 45 52 96 53 90 54 92 55 46 56
REMARK SMILES IDX 95 57 89 58 88 59 47 61 77 62 58 63 76 64 59 65 62 66 75 67
REMARK SMILES IDX 93 68 60 69 61 70 74 72 94 73 63 74 48 75 49 76 57 77 50 78
REMARK SMILES IDX 56 79 51 80 52 81 53 82 54 83 55 84 78 85 79 86 87 87 80 88
REMARK SMILES IDX 86 89 81 90 82 91 83 92 84 93 85 94 64 95 65 96 73 97 66 98
REMARK SMILES IDX 72 99 67 100 68 101 69 102 70 103 71 104
REMARK H PARENT 29 8 22 36 36 41 92 60 62 71
REMARK Flexibility Score: inf
ROOT
ATOM      1  C   UNL A   1      40.081  21.483  26.310  1.00  0.00     0.002 C 
ENDROOT
BRANCH   1   2
ATOM      2  C   UNL A   1      38.578  21.721  26.091  1.00  0.00     0.002 C 
BRANCH   2   3
ATOM      3  C   UNL A   1      37.835  20.715  25.212  1.00  0.00     0.021 C 
BRANCH   3   4
ATOM      4  C   UNL A   1      36.317  20.753  25.304  1.00  0.00     0.116 C 
BRANCH   4   5
ATOM      5  N   UNL A   1      35.685  21.312  26.478  1.00  0.00    -0.353 N 
ATOM      6  C   UNL A   1      34.637  22.219  26.499  1.00  0.00     0.255 C 
ATOM      7  O   UNL A   1      34.059  22.418  27.570  1.00  0.00    -0.272 OA
ATOM      8  H   UNL A   1      36.034  21.020  27.351  1.00  0.00     0.163 HD
BRANCH   6   9
ATOM      9  C   UNL A   1      34.246  22.989  25.204  1.00  0.00     0.181 C 
ATOM     10  C   UNL A   1      31.288  22.519  23.310  1.00  0.00     0.075 C 
ATOM     11  C   UNL A   1      32.374  21.967  24.242  1.00  0.00     0.164 C 
ATOM     12  C   UNL A   1      31.818  20.779  25.014  1.00  0.00     0.075 C 
ATOM     13  O   UNL A   1      33.475  21.512  23.453  1.00  0.00    -0.344 OA
ATOM     14  O   UNL A   1      32.790  22.997  25.163  1.00  0.00    -0.331 OA
ATOM     15  C   UNL A   1      34.620  22.277  23.838  1.00  0.00     0.164 C 
ATOM     16  C   UNL A   1      34.848  23.442  22.748  1.00  0.00     0.040 C 
ATOM     17  C   UNL A   1      34.910  24.414  24.949  1.00  0.00     0.014 C 
ATOM     18  C   UNL A   1      34.315  24.662  23.519  1.00  0.00     0.008 C 
ATOM     19  C   UNL A   1      34.735  25.682  25.783  1.00  0.00     0.046 C 
ATOM     20  C   UNL A   1      36.466  24.203  25.005  1.00  0.00     0.015 C 
ATOM     21  C   UNL A   1      33.199  25.756  23.295  1.00  0.00     0.035 C 
ATOM     22  C   UNL A   1      33.393  26.372  25.718  1.00  0.00     0.154 C 
ATOM     23  C   UNL A   1      32.970  26.212  21.862  1.00  0.00     0.012 C 
ATOM     24  C   UNL A   1      33.087  26.922  24.306  1.00  0.00     0.152 C 
ATOM     25  C   UNL A   1      31.508  26.674  21.744  1.00  0.00     0.032 C 
ATOM     26  C   UNL A   1      31.644  27.603  24.222  1.00  0.00     0.044 C 
ATOM     27  F   UNL A   1      34.050  27.838  23.983  1.00  0.00    -0.239 F 
ATOM     28  C   UNL A   1      31.098  27.701  22.777  1.00  0.00    -0.053 C 
ATOM     29  C   UNL A   1      31.618  28.994  24.859  1.00  0.00    -0.009 C 
ATOM     30  C   UNL A   1      30.591  26.766  25.024  1.00  0.00     0.024 C 
ATOM     31  C   UNL A   1      30.173  28.626  22.456  1.00  0.00     0.052 C 
ATOM     32  C   UNL A   1      30.709  29.926  24.535  1.00  0.00     0.048 C 
ATOM     33  C   UNL A   1      29.752  29.656  23.439  1.00  0.00     0.178 C 
ATOM     34  O   UNL A   1      28.707  30.265  23.319  1.00  0.00    -0.290 OA
BRANCH  22  35
ATOM     35  O   UNL A   1      33.390  27.371  26.737  1.00  0.00    -0.390 OA
ATOM     36  H   UNL A   1      33.832  27.028  27.529  1.00  0.00     0.211 HD
ENDBRANCH  22  35
ENDBRANCH   6   9
ENDBRANCH   4   5
ENDBRANCH   3   4
ENDBRANCH   2   3
ENDBRANCH   1   2
BRANCH   1  37
ATOM     37  C   UNL A   1      40.696  22.012  27.611  1.00  0.00     0.021 C 
BRANCH  37  38
ATOM     38  C   UNL A   1      41.853  22.998  27.465  1.00  0.00     0.116 C 
BRANCH  38  39
ATOM     39  N   UNL A   1      41.741  23.824  26.274  1.00  0.00    -0.352 N 
ATOM     40  C   UNL A   1      41.397  25.145  26.128  1.00  0.00     0.251 C 
ATOM     41  H   UNL A   1      41.946  23.359  25.431  1.00  0.00     0.163 HD
ATOM     42  O   UNL A   1      41.217  25.593  24.998  1.00  0.00    -0.269 OA
BRANCH  40  43
ATOM     43  C   UNL A   1      41.223  26.030  27.304  1.00  0.00     0.039 A 
ATOM     44  C   UNL A   1      42.190  27.010  27.552  1.00  0.00     0.014 A 
ATOM     45  C   UNL A   1      40.151  25.877  28.188  1.00  0.00     0.014 A 
ATOM     46  C   UNL A   1      42.055  27.865  28.649  1.00  0.00     0.010 A 
ATOM     47  C   UNL A   1      39.982  26.776  29.243  1.00  0.00     0.010 A 
ATOM     48  C   UNL A   1      40.933  27.777  29.488  1.00  0.00    -0.014 A 
BRANCH  48  49
ATOM     49  C   UNL A   1      40.746  28.726  30.619  1.00  0.00     0.031 A 
ATOM     50  C   UNL A   1      41.609  28.627  31.850  1.00  0.00     0.074 A 
ATOM     51  C   UNL A   1      39.773  29.658  30.552  1.00  0.00     0.049 A 
ATOM     52  N   UNL A   1      41.573  29.349  32.941  1.00  0.00    -0.248 NA
ATOM     53  C   UNL A   1      42.633  27.569  31.866  1.00  0.00     0.031 C 
ATOM     54  C   UNL A   1      38.851  29.840  29.429  1.00  0.00     0.029 A 
ATOM     55  N   UNL A   1      39.398  30.629  31.447  1.00  0.00    -0.354 N 
ATOM     56  C   UNL A   1      42.562  28.833  33.772  1.00  0.00     0.074 A 
ATOM     57  C   UNL A   1      43.142  27.701  33.082  1.00  0.00     0.031 C 
ATOM     58  C   UNL A   1      38.042  30.881  29.686  1.00  0.00     0.029 A 
ATOM     59  C   UNL A   1      38.356  31.414  31.007  1.00  0.00     0.049 A 
ATOM     60  H   UNL A   1      39.834  30.753  32.321  1.00  0.00     0.167 HD
ATOM     61  C   UNL A   1      42.971  29.275  34.987  1.00  0.00     0.031 A 
ATOM     62  C   UNL A   1      37.721  32.443  31.602  1.00  0.00     0.031 A 
ATOM     63  C   UNL A   1      42.393  30.401  35.673  1.00  0.00     0.049 A 
ATOM     64  C   UNL A   1      38.169  32.888  32.969  1.00  0.00     0.074 A 
ATOM     65  C   UNL A   1      42.756  30.945  36.893  1.00  0.00     0.029 A 
ATOM     66  N   UNL A   1      41.332  31.158  35.200  1.00  0.00    -0.354 N 
ATOM     67  N   UNL A   1      39.142  32.419  33.713  1.00  0.00    -0.248 NA
ATOM     68  C   UNL A   1      37.436  34.011  33.572  1.00  0.00     0.031 C 
ATOM     69  C   UNL A   1      41.882  31.998  37.181  1.00  0.00     0.029 A 
ATOM     70  C   UNL A   1      41.015  32.151  36.112  1.00  0.00     0.049 A 
ATOM     71  H   UNL A   1      40.871  31.011  34.343  1.00  0.00     0.167 HD
ATOM     72  C   UNL A   1      39.161  33.212  34.855  1.00  0.00     0.074 A 
ATOM     73  C   UNL A   1      38.114  34.200  34.695  1.00  0.00     0.031 C 
ATOM     74  C   UNL A   1      39.973  33.131  35.938  1.00  0.00     0.031 A 
BRANCH  61  75
ATOM     75  C   UNL A   1      44.105  28.539  35.652  1.00  0.00    -0.014 A 
ATOM     76  C   UNL A   1      43.856  27.439  36.496  1.00  0.00     0.010 A 
ATOM     77  C   UNL A   1      45.437  28.910  35.393  1.00  0.00     0.010 A 
ATOM     78  C   UNL A   1      44.914  26.752  37.097  1.00  0.00     0.020 A 
ATOM     79  C   UNL A   1      46.500  28.205  35.968  1.00  0.00     0.020 A 
ATOM     80  C   UNL A   1      46.230  27.139  36.828  1.00  0.00     0.054 A 
BRANCH  80  81
ATOM     81  S   UNL A   1      47.581  26.206  37.598  1.00  0.00     0.124 S 
ATOM     82  O   UNL A   1      47.442  26.577  39.003  1.00  0.00    -0.237 OA
ATOM     83  O   UNL A   1      47.237  24.822  37.277  1.00  0.00    -0.237 OA
ATOM     84  O   UNL A   1      48.779  26.717  36.934  1.00  0.00    -0.744 OA
ENDBRANCH  80  81
ENDBRANCH  61  75
BRANCH  62  85
ATOM     85  C   UNL A   1      36.603  33.139  30.907  1.00  0.00    -0.014 A 
ATOM     86  C   UNL A   1      36.849  33.926  29.766  1.00  0.00     0.010 A 
ATOM     87  C   UNL A   1      35.286  33.037  31.392  1.00  0.00     0.010 A 
ATOM     88  C   UNL A   1      35.808  34.621  29.146  1.00  0.00     0.020 A 
ATOM     89  C   UNL A   1      34.237  33.705  30.754  1.00  0.00     0.020 A 
ATOM     90  C   UNL A   1      34.508  34.508  29.645  1.00  0.00     0.054 A 
BRANCH  90  91
ATOM     91  S   UNL A   1      33.168  35.401  28.810  1.00  0.00     0.124 S 
ATOM     92  O   UNL A   1      32.424  35.955  29.936  1.00  0.00    -0.237 OA
ATOM     93  O   UNL A   1      33.895  36.368  27.992  1.00  0.00    -0.237 OA
ATOM     94  O   UNL A   1      32.478  34.354  28.057  1.00  0.00    -0.744 OA
ENDBRANCH  90  91
ENDBRANCH  62  85
BRANCH  74  95
ATOM     95  C   UNL A   1      39.794  34.168  37.017  1.00  0.00    -0.014 A 
ATOM     96  C   UNL A   1      39.024  33.907  38.164  1.00  0.00     0.010 A 
ATOM     97  C   UNL A   1      40.443  35.411  36.897  1.00  0.00     0.010 A 
ATOM     98  C   UNL A   1      38.874  34.884  39.152  1.00  0.00     0.020 A 
ATOM     99  C   UNL A   1      40.321  36.379  37.896  1.00  0.00     0.020 A 
ATOM    100  C   UNL A   1      39.524  36.115  39.011  1.00  0.00     0.054 A 
BRANCH 100 101
ATOM    101  S   UNL A   1      39.341  37.353  40.323  1.00  0.00     0.124 S 
ATOM    102  O   UNL A   1      40.731  37.683  40.627  1.00  0.00    -0.237 OA
ATOM    103  O   UNL A   1      38.575  38.408  39.665  1.00  0.00    -0.237 OA
ATOM    104  O   UNL A   1      38.628  36.638  41.379  1.00  0.00    -0.744 OA
ENDBRANCH 100 101
ENDBRANCH  74  95
ENDBRANCH  48  49
ENDBRANCH  40  43
ENDBRANCH  38  39
ENDBRANCH  37  38
ENDBRANCH   1  37
TORSDOF 17
ENDMDL
MODEL 2
REMARK VINA RESULT:     -13.2      5.891     11.569
REMARK SMILES CC1(C)O[C@H]2C[C@H]3[C@@H]4CCC5=CC(=O)C=C[C@]5(C)[C@@]4(F)[C@H](O)C[C@@]3(C)[C@@]2(C(=O)NCCCCCCNC(=O)c2ccc(-c3c4nc(c(-c5ccc(S(=O)(=O)[O-])cc5)c5ccc([nH]5)c(-c5ccc(S(=O)(=O)[O-])cc5)c5nc(c(-c6ccc(S(=O)(=O)[O-])cc6)c6ccc3[nH]6)C=C5)C=C4)cc2)O1
REMARK SMILES IDX 33 1 32 2 31 3 30 4 29 5 27 6 28 7 26 9 1 10 2 11 3 12 4 13
REMARK SMILES IDX 99 14 5 15 6 16 24 17 7 18 23 19 25 20 8 21 21 22 9 23 19 24
REMARK SMILES IDX 10 25 17 26 20 27 11 28 16 29 18 30 12 31 15 32 13 33 14 34
REMARK SMILES IDX 22 35 34 37 35 38 36 39 37 40 38 42 39 43 40 44 98 45 41 46
REMARK SMILES IDX 97 47 42 48 43 49 44 50 91 51 45 52 96 53 90 54 92 55 46 56
REMARK SMILES IDX 95 57 89 58 88 59 47 61 77 62 58 63 76 64 59 65 62 66 75 67
REMARK SMILES IDX 93 68 60 69 61 70 74 72 94 73 63 74 48 75 49 76 57 77 50 78
REMARK SMILES IDX 56 79 51 80 52 81 53 82 54 83 55 84 78 85 79 86 87 87 80 88
REMARK SMILES IDX 86 89 81 90 82 91 83 92 84 93 85 94 64 95 65 96 73 97 66 98
REMARK SMILES IDX 72 99 67 100 68 101 69 102 70 103 71 104
REMARK H PARENT 29 8 22 36 36 41 92 60 62 71
REMARK Flexibility Score: inf
ROOT
ATOM      1  C   UNL A   1      34.068  32.246  28.160  1.00  0.00     0.002 C 
ENDROOT
BRANCH   1   2
ATOM      2  C   UNL A   1      33.632  31.074  27.266  1.00  0.00     0.002 C 
BRANCH   2   3
ATOM      3  C   UNL A   1      32.190  31.086  26.757  1.00  0.00     0.021 C 
BRANCH   3   4
ATOM      4  C   UNL A   1      31.907  30.197  25.556  1.00  0.00     0.116 C 
BRANCH   4   5
ATOM      5  N   UNL A   1      32.983  29.846  24.655  1.00  0.00    -0.353 N 
ATOM      6  C   UNL A   1      33.245  28.589  24.132  1.00  0.00     0.255 C 
ATOM      7  O   UNL A   1      34.050  28.502  23.202  1.00  0.00    -0.272 OA
ATOM      8  H   UNL A   1      33.591  30.572  24.387  1.00  0.00     0.163 HD
BRANCH   6   9
ATOM      9  C   UNL A   1      32.566  27.331  24.747  1.00  0.00     0.181 C 
ATOM     10  C   UNL A   1      30.134  25.292  23.170  1.00  0.00     0.075 C 
ATOM     11  C   UNL A   1      30.805  26.659  23.362  1.00  0.00     0.164 C 
ATOM     12  C   UNL A   1      30.620  27.491  22.101  1.00  0.00     0.075 C 
ATOM     13  O   UNL A   1      30.168  27.340  24.444  1.00  0.00    -0.344 OA
ATOM     14  O   UNL A   1      32.212  26.474  23.624  1.00  0.00    -0.331 OA
ATOM     15  C   UNL A   1      31.164  27.574  25.444  1.00  0.00     0.164 C 
ATOM     16  C   UNL A   1      31.009  26.456  26.594  1.00  0.00     0.040 C 
ATOM     17  C   UNL A   1      33.319  26.574  25.928  1.00  0.00     0.014 C 
ATOM     18  C   UNL A   1      32.192  25.533  26.253  1.00  0.00     0.008 C 
ATOM     19  C   UNL A   1      34.659  25.844  25.857  1.00  0.00     0.046 C 
ATOM     20  C   UNL A   1      33.593  27.643  27.046  1.00  0.00     0.015 C 
ATOM     21  C   UNL A   1      32.384  24.007  25.894  1.00  0.00     0.035 C 
ATOM     22  C   UNL A   1      34.698  24.542  25.091  1.00  0.00     0.154 C 
ATOM     23  C   UNL A   1      31.453  23.022  26.586  1.00  0.00     0.012 C 
ATOM     24  C   UNL A   1      33.820  23.452  25.747  1.00  0.00     0.152 C 
ATOM     25  C   UNL A   1      31.293  21.801  25.667  1.00  0.00     0.032 C 
ATOM     26  C   UNL A   1      33.815  22.093  24.907  1.00  0.00     0.044 C 
ATOM     27  F   UNL A   1      34.298  23.216  27.007  1.00  0.00    -0.239 F 
ATOM     28  C   UNL A   1      32.602  21.185  25.222  1.00  0.00    -0.053 C 
ATOM     29  C   UNL A   1      35.102  21.287  25.096  1.00  0.00    -0.009 C 
ATOM     30  C   UNL A   1      33.742  22.393  23.372  1.00  0.00     0.024 C 
ATOM     31  C   UNL A   1      32.664  19.858  24.997  1.00  0.00     0.052 C 
ATOM     32  C   UNL A   1      35.169  19.963  24.888  1.00  0.00     0.048 C 
ATOM     33  C   UNL A   1      33.932  19.215  24.571  1.00  0.00     0.178 C 
ATOM     34  O   UNL A   1      33.947  18.125  24.035  1.00  0.00    -0.290 OA
BRANCH  22  35
ATOM     35  O   UNL A   1      36.070  24.175  24.964  1.00  0.00    -0.390 OA
ATOM     36  H   UNL A   1      36.519  24.296  25.816  1.00  0.00     0.211 HD
ENDBRANCH  22  35
ENDBRANCH   6   9
ENDBRANCH   4   5
ENDBRANCH   3   4
ENDBRANCH   2   3
ENDBRANCH   1   2
BRANCH   1  37
ATOM     37  C   UNL A   1      35.512  32.740  28.019  1.00  0.00     0.021 C 
BRANCH  37  38
ATOM     38  C   UNL A   1      36.278  32.985  29.318  1.00  0.00     0.116 C 
BRANCH  38  39
ATOM     39  N   UNL A   1      35.924  32.040  30.365  1.00  0.00    -0.352 N 
ATOM     40  C   UNL A   1      36.552  30.896  30.790  1.00  0.00     0.251 C 
ATOM     41  H   UNL A   1      35.096  32.258  30.851  1.00  0.00     0.163 HD
ATOM     42  O   UNL A   1      35.981  30.167  31.598  1.00  0.00    -0.269 OA
BRANCH  40  43
ATOM     43  C   UNL A   1      37.892  30.518  30.281  1.00  0.00     0.039 A 
ATOM     44  C   UNL A   1      38.955  30.442  31.188  1.00  0.00     0.014 A 
ATOM     45  C   UNL A   1      38.125  30.286  28.922  1.00  0.00     0.014 A 
ATOM     46  C   UNL A   1      40.230  30.084  30.743  1.00  0.00     0.010 A 
ATOM     47  C   UNL A   1      39.382  29.862  28.491  1.00  0.00     0.010 A 
ATOM     48  C   UNL A   1      40.450  29.759  29.394  1.00  0.00    -0.014 A 
BRANCH  48  49
ATOM     49  C   UNL A   1      41.789  29.312  28.923  1.00  0.00     0.031 A 
ATOM     50  C   UNL A   1      42.940  30.282  28.859  1.00  0.00     0.074 A 
ATOM     51  C   UNL A   1      41.960  28.036  28.519  1.00  0.00     0.049 A 
ATOM     52  N   UNL A   1      44.168  30.078  28.453  1.00  0.00    -0.248 NA
ATOM     53  C   UNL A   1      42.674  31.665  29.290  1.00  0.00     0.031 C 
ATOM     54  C   UNL A   1      40.920  27.006  28.505  1.00  0.00     0.029 A 
ATOM     55  N   UNL A   1      43.073  27.388  28.044  1.00  0.00    -0.354 N 
ATOM     56  C   UNL A   1      44.817  31.302  28.574  1.00  0.00     0.074 A 
ATOM     57  C   UNL A   1      43.833  32.256  29.039  1.00  0.00     0.031 C 
ATOM     58  C   UNL A   1      41.452  25.848  28.080  1.00  0.00     0.029 A 
ATOM     59  C   UNL A   1      42.856  26.061  27.749  1.00  0.00     0.049 A 
ATOM     60  H   UNL A   1      43.945  27.830  27.926  1.00  0.00     0.167 HD
ATOM     61  C   UNL A   1      46.119  31.602  28.347  1.00  0.00     0.031 A 
ATOM     62  C   UNL A   1      43.692  25.122  27.263  1.00  0.00     0.031 A 
ATOM     63  C   UNL A   1      47.098  30.652  27.884  1.00  0.00     0.049 A 
ATOM     64  C   UNL A   1      45.124  25.492  26.981  1.00  0.00     0.074 A 
ATOM     65  C   UNL A   1      48.448  30.851  27.652  1.00  0.00     0.029 A 
ATOM     66  N   UNL A   1      46.834  29.325  27.584  1.00  0.00    -0.354 N 
ATOM     67  N   UNL A   1      45.730  26.643  27.155  1.00  0.00    -0.248 NA
ATOM     68  C   UNL A   1      45.989  24.430  26.446  1.00  0.00     0.031 C 
ATOM     69  C   UNL A   1      48.989  29.658  27.163  1.00  0.00     0.029 A 
ATOM     70  C   UNL A   1      47.990  28.698  27.151  1.00  0.00     0.049 A 
ATOM     71  H   UNL A   1      45.954  28.891  27.666  1.00  0.00     0.167 HD
ATOM     72  C   UNL A   1      47.054  26.433  26.785  1.00  0.00     0.074 A 
ATOM     73  C   UNL A   1      47.163  25.042  26.394  1.00  0.00     0.031 C 
ATOM     74  C   UNL A   1      48.086  27.311  26.770  1.00  0.00     0.031 A 
BRANCH  61  75
ATOM     75  C   UNL A   1      46.565  33.019  28.602  1.00  0.00    -0.014 A 
ATOM     76  C   UNL A   1      47.084  33.399  29.854  1.00  0.00     0.010 A 
ATOM     77  C   UNL A   1      46.516  33.972  27.567  1.00  0.00     0.010 A 
ATOM     78  C   UNL A   1      47.510  34.711  30.078  1.00  0.00     0.020 A 
ATOM     79  C   UNL A   1      46.970  35.279  27.778  1.00  0.00     0.020 A 
ATOM     80  C   UNL A   1      47.450  35.643  29.037  1.00  0.00     0.054 A 
BRANCH  80  81
ATOM     81  S   UNL A   1      48.041  37.329  29.350  1.00  0.00     0.124 S 
ATOM     82  O   UNL A   1      49.091  37.102  30.338  1.00  0.00    -0.237 OA
ATOM     83  O   UNL A   1      48.501  37.756  28.031  1.00  0.00    -0.237 OA
ATOM     84  O   UNL A   1      46.856  38.025  29.849  1.00  0.00    -0.744 OA
ENDBRANCH  80  81
ENDBRANCH  61  75
BRANCH  62  85
ATOM     85  C   UNL A   1      43.207  23.734  27.024  1.00  0.00    -0.014 A 
ATOM     86  C   UNL A   1      42.980  22.861  28.104  1.00  0.00     0.010 A 
ATOM     87  C   UNL A   1      42.987  23.270  25.715  1.00  0.00     0.010 A 
ATOM     88  C   UNL A   1      42.576  21.543  27.877  1.00  0.00     0.020 A 
ATOM     89  C   UNL A   1      42.551  21.962  25.486  1.00  0.00     0.020 A 
ATOM     90  C   UNL A   1      42.365  21.101  26.568  1.00  0.00     0.054 A 
BRANCH  90  91
ATOM     91  S   UNL A   1      41.818  19.392  26.299  1.00  0.00     0.124 S 
ATOM     92  O   UNL A   1      42.276  18.731  27.516  1.00  0.00    -0.237 OA
ATOM     93  O   UNL A   1      40.372  19.541  26.163  1.00  0.00    -0.237 OA
ATOM     94  O   UNL A   1      42.514  19.000  25.074  1.00  0.00    -0.744 OA
ENDBRANCH  90  91
ENDBRANCH  62  85
BRANCH  74  95
ATOM     95  C   UNL A   1      49.439  26.785  26.362  1.00  0.00    -0.014 A 
ATOM     96  C   UNL A   1      49.885  26.864  25.031  1.00  0.00     0.010 A 
ATOM     97  C   UNL A   1      50.291  26.239  27.339  1.00  0.00     0.010 A 
ATOM     98  C   UNL A   1      51.143  26.370  24.678  1.00  0.00     0.020 A 
ATOM     99  C   UNL A   1      51.563  25.773  26.996  1.00  0.00     0.020 A 
ATOM    100  C   UNL A   1      51.974  25.826  25.664  1.00  0.00     0.054 A 
BRANCH 100 101
ATOM    101  S   UNL A   1      53.617  25.224  25.185  1.00  0.00     0.124 S 
ATOM    102  O   UNL A   1      53.462  23.777  25.321  1.00  0.00    -0.237 OA
ATOM    103  O   UNL A   1      53.753  25.715  23.817  1.00  0.00    -0.237 OA
ATOM    104  O   UNL A   1      54.512  25.846  26.157  1.00  0.00    -0.744 OA
ENDBRANCH 100 101
ENDBRANCH  74  95
ENDBRANCH  48  49
ENDBRANCH  40  43
ENDBRANCH  38  39
ENDBRANCH  37  38
ENDBRANCH   1  37
TORSDOF 17
ENDMDL
MODEL 3
REMARK VINA RESULT:     -13.1      0.470      7.665
REMARK SMILES CC1(C)O[C@H]2C[C@H]3[C@@H]4CCC5=CC(=O)C=C[C@]5(C)[C@@]4(F)[C@H](O)C[C@@]3(C)[C@@]2(C(=O)NCCCCCCNC(=O)c2ccc(-c3c4nc(c(-c5ccc(S(=O)(=O)[O-])cc5)c5ccc([nH]5)c(-c5ccc(S(=O)(=O)[O-])cc5)c5nc(c(-c6ccc(S(=O)(=O)[O-])cc6)c6ccc3[nH]6)C=C5)C=C4)cc2)O1
REMARK SMILES IDX 33 1 32 2 31 3 30 4 29 5 27 6 28 7 26 9 1 10 2 11 3 12 4 13
REMARK SMILES IDX 99 14 5 15 6 16 24 17 7 18 23 19 25 20 8 21 21 22 9 23 19 24
REMARK SMILES IDX 10 25 17 26 20 27 11 28 16 29 18 30 12 31 15 32 13 33 14 34
REMARK SMILES IDX 22 35 34 37 35 38 36 39 37 40 38 42 39 43 40 44 98 45 41 46
REMARK SMILES IDX 97 47 42 48 43 49 44 50 91 51 45 52 96 53 90 54 92 55 46 56
REMARK SMILES IDX 95 57 89 58 88 59 47 61 77 62 58 63 76 64 59 65 62 66 75 67
REMARK SMILES IDX 93 68 60 69 61 70 74 72 94 73 63 74 48 75 49 76 57 77 50 78
REMARK SMILES IDX 56 79 51 80 52 81 53 82 54 83 55 84 78 85 79 86 87 87 80 88
REMARK SMILES IDX 86 89 81 90 82 91 83 92 84 93 85 94 64 95 65 96 73 97 66 98
REMARK SMILES IDX 72 99 67 100 68 101 69 102 70 103 71 104
REMARK H PARENT 29 8 22 36 36 41 92 60 62 71
REMARK Flexibility Score: inf
ROOT
ATOM      1  C   UNL A   1      39.945  21.608  26.237  1.00  0.00     0.002 C 
ENDROOT
BRANCH   1   2
ATOM      2  C   UNL A   1      38.505  21.851  25.757  1.00  0.00     0.002 C 
BRANCH   2   3
ATOM      3  C   UNL A   1      37.732  20.640  25.234  1.00  0.00     0.021 C 
BRANCH   3   4
ATOM      4  C   UNL A   1      36.218  20.720  25.355  1.00  0.00     0.116 C 
BRANCH   4   5
ATOM      5  N   UNL A   1      35.624  21.317  26.531  1.00  0.00    -0.353 N 
ATOM      6  C   UNL A   1      34.607  22.258  26.556  1.00  0.00     0.255 C 
ATOM      7  O   UNL A   1      34.055  22.492  27.633  1.00  0.00    -0.272 OA
ATOM      8  H   UNL A   1      35.979  21.027  27.402  1.00  0.00     0.163 HD
BRANCH   6   9
ATOM      9  C   UNL A   1      34.219  23.022  25.255  1.00  0.00     0.181 C 
ATOM     10  C   UNL A   1      31.265  22.542  23.359  1.00  0.00     0.075 C 
ATOM     11  C   UNL A   1      32.349  21.994  24.296  1.00  0.00     0.164 C 
ATOM     12  C   UNL A   1      31.791  20.811  25.073  1.00  0.00     0.075 C 
ATOM     13  O   UNL A   1      33.451  21.535  23.511  1.00  0.00    -0.344 OA
ATOM     14  O   UNL A   1      32.763  23.030  25.212  1.00  0.00    -0.331 OA
ATOM     15  C   UNL A   1      34.596  22.302  23.894  1.00  0.00     0.164 C 
ATOM     16  C   UNL A   1      34.827  23.461  22.799  1.00  0.00     0.040 C 
ATOM     17  C   UNL A   1      34.884  24.445  24.994  1.00  0.00     0.014 C 
ATOM     18  C   UNL A   1      34.292  24.685  23.562  1.00  0.00     0.008 C 
ATOM     19  C   UNL A   1      34.708  25.718  25.821  1.00  0.00     0.046 C 
ATOM     20  C   UNL A   1      36.439  24.234  25.055  1.00  0.00     0.015 C 
ATOM     21  C   UNL A   1      33.177  25.779  23.330  1.00  0.00     0.035 C 
ATOM     22  C   UNL A   1      33.366  26.408  25.749  1.00  0.00     0.154 C 
ATOM     23  C   UNL A   1      32.950  26.226  21.894  1.00  0.00     0.012 C 
ATOM     24  C   UNL A   1      33.063  26.950  24.334  1.00  0.00     0.152 C 
ATOM     25  C   UNL A   1      31.489  26.688  21.770  1.00  0.00     0.032 C 
ATOM     26  C   UNL A   1      31.620  27.630  24.243  1.00  0.00     0.044 C 
ATOM     27  F   UNL A   1      34.026  27.863  24.008  1.00  0.00    -0.239 F 
ATOM     28  C   UNL A   1      31.077  27.721  22.797  1.00  0.00    -0.053 C 
ATOM     29  C   UNL A   1      31.593  29.025  24.872  1.00  0.00    -0.009 C 
ATOM     30  C   UNL A   1      30.565  26.798  25.048  1.00  0.00     0.024 C 
ATOM     31  C   UNL A   1      30.152  28.644  22.469  1.00  0.00     0.052 C 
ATOM     32  C   UNL A   1      30.685  29.956  24.542  1.00  0.00     0.048 C 
ATOM     33  C   UNL A   1      29.730  29.680  23.445  1.00  0.00     0.178 C 
ATOM     34  O   UNL A   1      28.686  30.288  23.319  1.00  0.00    -0.290 OA
BRANCH  22  35
ATOM     35  O   UNL A   1      33.361  27.412  26.763  1.00  0.00    -0.390 OA
ATOM     36  H   UNL A   1      34.240  27.465  27.171  1.00  0.00     0.211 HD
ENDBRANCH  22  35
ENDBRANCH   6   9
ENDBRANCH   4   5
ENDBRANCH   3   4
ENDBRANCH   2   3
ENDBRANCH   1   2
BRANCH   1  37
ATOM     37  C   UNL A   1      40.407  22.362  27.489  1.00  0.00     0.021 C 
BRANCH  37  38
ATOM     38  C   UNL A   1      41.644  23.245  27.335  1.00  0.00     0.116 C 
BRANCH  38  39
ATOM     39  N   UNL A   1      41.555  24.142  26.194  1.00  0.00    -0.352 N 
ATOM     40  C   UNL A   1      41.257  25.480  26.127  1.00  0.00     0.251 C 
ATOM     41  H   UNL A   1      41.740  23.719  25.325  1.00  0.00     0.163 HD
ATOM     42  O   UNL A   1      41.088  25.999  25.026  1.00  0.00    -0.269 OA
BRANCH  40  43
ATOM     43  C   UNL A   1      41.119  26.301  27.353  1.00  0.00     0.039 A 
ATOM     44  C   UNL A   1      42.080  27.286  27.609  1.00  0.00     0.014 A 
ATOM     45  C   UNL A   1      40.091  26.083  28.274  1.00  0.00     0.014 A 
ATOM     46  C   UNL A   1      41.978  28.081  28.754  1.00  0.00     0.010 A 
ATOM     47  C   UNL A   1      39.952  26.923  29.379  1.00  0.00     0.010 A 
ATOM     48  C   UNL A   1      40.895  27.929  29.635  1.00  0.00    -0.014 A 
BRANCH  48  49
ATOM     49  C   UNL A   1      40.741  28.816  30.820  1.00  0.00     0.031 A 
ATOM     50  C   UNL A   1      39.697  29.902  30.831  1.00  0.00     0.074 A 
ATOM     51  C   UNL A   1      41.568  28.666  31.875  1.00  0.00     0.049 A 
ATOM     52  N   UNL A   1      39.435  30.784  31.763  1.00  0.00    -0.248 NA
ATOM     53  C   UNL A   1      38.848  30.026  29.634  1.00  0.00     0.031 C 
ATOM     54  C   UNL A   1      42.639  27.672  31.977  1.00  0.00     0.029 A 
ATOM     55  N   UNL A   1      41.636  29.347  33.065  1.00  0.00    -0.354 N 
ATOM     56  C   UNL A   1      38.399  31.567  31.266  1.00  0.00     0.074 A 
ATOM     57  C   UNL A   1      38.118  31.092  29.928  1.00  0.00     0.031 C 
ATOM     58  C   UNL A   1      43.232  27.784  33.177  1.00  0.00     0.029 A 
ATOM     59  C   UNL A   1      42.616  28.884  33.912  1.00  0.00     0.049 A 
ATOM     60  H   UNL A   1      41.039  30.097  33.291  1.00  0.00     0.167 HD
ATOM     61  C   UNL A   1      37.723  32.572  31.874  1.00  0.00     0.031 A 
ATOM     62  C   UNL A   1      42.983  29.299  35.141  1.00  0.00     0.031 A 
ATOM     63  C   UNL A   1      38.004  33.044  33.205  1.00  0.00     0.049 A 
ATOM     64  C   UNL A   1      42.241  30.444  35.779  1.00  0.00     0.074 A 
ATOM     65  C   UNL A   1      37.356  34.036  33.921  1.00  0.00     0.029 A 
ATOM     66  N   UNL A   1      39.013  32.558  34.022  1.00  0.00    -0.354 N 
ATOM     67  N   UNL A   1      41.228  31.134  35.311  1.00  0.00    -0.248 NA
ATOM     68  C   UNL A   1      42.687  30.859  37.116  1.00  0.00     0.031 C 
ATOM     69  C   UNL A   1      38.007  34.185  35.150  1.00  0.00     0.029 A 
ATOM     70  C   UNL A   1      39.018  33.242  35.226  1.00  0.00     0.049 A 
ATOM     71  H   UNL A   1      39.635  31.833  33.782  1.00  0.00     0.167 HD
ATOM     72  C   UNL A   1      40.895  32.040  36.312  1.00  0.00     0.074 A 
ATOM     73  C   UNL A   1      41.802  31.798  37.415  1.00  0.00     0.031 C 
ATOM     74  C   UNL A   1      39.924  32.987  36.318  1.00  0.00     0.031 A 
BRANCH  61  75
ATOM     75  C   UNL A   1      36.605  33.228  31.105  1.00  0.00    -0.014 A 
ATOM     76  C   UNL A   1      35.308  33.315  31.647  1.00  0.00     0.010 A 
ATOM     77  C   UNL A   1      36.859  33.813  29.850  1.00  0.00     0.010 A 
ATOM     78  C   UNL A   1      34.282  33.939  30.935  1.00  0.00     0.020 A 
ATOM     79  C   UNL A   1      35.840  34.465  29.147  1.00  0.00     0.020 A 
ATOM     80  C   UNL A   1      34.555  34.511  29.689  1.00  0.00     0.054 A 
BRANCH  80  81
ATOM     81  S   UNL A   1      33.207  35.342  28.804  1.00  0.00     0.124 S 
ATOM     82  O   UNL A   1      32.618  34.241  28.048  1.00  0.00    -0.237 OA
ATOM     83  O   UNL A   1      32.385  35.866  29.892  1.00  0.00    -0.237 OA
ATOM     84  O   UNL A   1      33.890  36.353  28.000  1.00  0.00    -0.744 OA
ENDBRANCH  80  81
ENDBRANCH  61  75
BRANCH  62  85
ATOM     85  C   UNL A   1      44.096  28.621  35.863  1.00  0.00    -0.014 A 
ATOM     86  C   UNL A   1      43.849  27.477  36.645  1.00  0.00     0.010 A 
ATOM     87  C   UNL A   1      45.407  29.127  35.791  1.00  0.00     0.010 A 
ATOM     88  C   UNL A   1      44.884  26.874  37.364  1.00  0.00     0.020 A 
ATOM     89  C   UNL A   1      46.450  28.506  36.483  1.00  0.00     0.020 A 
ATOM     90  C   UNL A   1      46.178  27.393  37.280  1.00  0.00     0.054 A 
BRANCH  90  91
ATOM     91  S   UNL A   1      47.511  26.579  38.204  1.00  0.00     0.124 S 
ATOM     92  O   UNL A   1      46.979  25.231  38.377  1.00  0.00    -0.237 OA
ATOM     93  O   UNL A   1      48.646  26.701  37.295  1.00  0.00    -0.237 OA
ATOM     94  O   UNL A   1      47.613  27.374  39.427  1.00  0.00    -0.744 OA
ENDBRANCH  90  91
ENDBRANCH  62  85
BRANCH  74  95
ATOM     95  C   UNL A   1      39.759  33.802  37.575  1.00  0.00    -0.014 A 
ATOM     96  C   UNL A   1      40.319  35.086  37.695  1.00  0.00     0.010 A 
ATOM     97  C   UNL A   1      38.995  33.288  38.638  1.00  0.00     0.010 A 
ATOM     98  C   UNL A   1      40.151  35.824  38.869  1.00  0.00     0.020 A 
ATOM     99  C   UNL A   1      38.798  34.033  39.802  1.00  0.00     0.020 A 
ATOM    100  C   UNL A   1      39.392  35.291  39.917  1.00  0.00     0.054 A 
BRANCH 100 101
ATOM    101  S   UNL A   1      39.161  36.283  41.418  1.00  0.00     0.124 S 
ATOM    102  O   UNL A   1      37.933  35.716  41.971  1.00  0.00    -0.237 OA
ATOM    103  O   UNL A   1      40.378  36.005  42.177  1.00  0.00    -0.237 OA
ATOM    104  O   UNL A   1      39.043  37.650  40.917  1.00  0.00    -0.744 OA
ENDBRANCH 100 101
ENDBRANCH  74  95
ENDBRANCH  48  49
ENDBRANCH  40  43
ENDBRANCH  38  39
ENDBRANCH  37  38
ENDBRANCH   1  37
TORSDOF 17
ENDMDL
