MODEL 1
REMARK VINA RESULT:      -9.0      0.000      0.000
REMARK SMILES C[C@H]1[C@@H](C(=O)NCCCCCCNC(=O)c2ccc(-c3c4nc(c(-c5ccc(S(=O)(=O)[O-])cc5)c5ccc([nH]5)c(-c5ccc(S(=O)(=O)[O-])cc5)c5nc(c(-c6ccc(S(=O)(=O)[O-])cc6)c6ccc3[nH]6)C=C5)C=C4)cc2)CC[N@@H+]1Cc1cc(F)c(F)c(F)c1
REMARK SMILES IDX 10 1 9 2 8 3 7 4 6 5 4 6 5 7 3 9 1 10 2 11 78 12 76 13 77 14
REMARK SMILES IDX 79 16 80 17 81 18 88 19 82 20 86 21 83 22 84 23 87 24 85 25
REMARK SMILES IDX 11 26 12 27 13 28 14 29 15 31 16 32 17 33 75 34 18 35 74 36
REMARK SMILES IDX 19 37 20 38 21 39 68 40 22 41 73 42 67 43 69 44 23 45 72 46
REMARK SMILES IDX 66 47 65 48 24 50 54 51 35 52 53 53 36 54 39 55 52 56 70 57
REMARK SMILES IDX 37 58 38 59 51 61 71 62 40 63 25 64 26 65 34 66 27 67 33 68
REMARK SMILES IDX 28 69 29 70 30 71 31 72 32 73 55 74 56 75 64 76 57 77 63 78
REMARK SMILES IDX 58 79 59 80 60 81 61 82 62 83 41 84 42 85 50 86 43 87 49 88
REMARK SMILES IDX 44 89 45 90 46 91 47 92 48 93
REMARK H PARENT 6 8 78 15 13 30 69 49 39 60
REMARK Flexibility Score: inf
ROOT
ATOM      1  C   UNL A   1      35.272  32.660  31.024  1.00  0.00     0.002 C 
ENDROOT
BRANCH   1   2
ATOM      2  C   UNL A   1      36.743  33.014  30.805  1.00  0.00     0.002 C 
BRANCH   2   3
ATOM      3  C   UNL A   1      37.642  32.734  32.011  1.00  0.00     0.021 C 
BRANCH   3   4
ATOM      4  C   UNL A   1      37.383  31.378  32.682  1.00  0.00     0.116 C 
BRANCH   4   5
ATOM      5  N   UNL A   1      37.625  31.523  34.096  1.00  0.00    -0.356 N 
ATOM      6  C   UNL A   1      38.575  30.927  34.868  1.00  0.00     0.229 C 
ATOM      7  O   UNL A   1      38.278  30.785  36.058  1.00  0.00    -0.275 OA
ATOM      8  H   UNL A   1      37.021  32.140  34.570  1.00  0.00     0.163 HD
BRANCH   6   9
ATOM      9  C   UNL A   1      39.990  30.649  34.334  1.00  0.00     0.142 C 
ATOM     10  C   UNL A   1      39.370  28.378  33.072  1.00  0.00     0.076 C 
ATOM     11  C   UNL A   1      40.410  29.347  33.605  1.00  0.00     0.193 C 
ATOM     12  N   UNL A   1      41.233  28.567  34.549  1.00  0.00    -0.328 N 
ATOM     13  C   UNL A   1      40.964  30.676  35.530  1.00  0.00     0.081 C 
ATOM     14  C   UNL A   1      41.154  29.207  35.851  1.00  0.00     0.263 C 
ATOM     15  H   UNL A   1      40.836  27.632  34.644  1.00  0.00     0.348 HD
BRANCH  12  16
ATOM     16  C   UNL A   1      42.551  28.149  34.073  1.00  0.00     0.299 C 
BRANCH  16  17
ATOM     17  C   UNL A   1      42.902  26.680  34.203  1.00  0.00     0.012 A 
ATOM     18  C   UNL A   1      42.125  25.821  34.998  1.00  0.00     0.052 A 
ATOM     19  C   UNL A   1      44.016  26.145  33.534  1.00  0.00     0.052 A 
ATOM     20  C   UNL A   1      42.442  24.464  35.084  1.00  0.00     0.162 A 
ATOM     21  C   UNL A   1      44.301  24.784  33.611  1.00  0.00     0.162 A 
ATOM     22  F   UNL A   1      41.689  23.665  35.852  1.00  0.00    -0.204 F 
ATOM     23  C   UNL A   1      43.518  23.941  34.383  1.00  0.00     0.194 A 
ATOM     24  F   UNL A   1      45.340  24.297  32.919  1.00  0.00    -0.204 F 
ATOM     25  F   UNL A   1      43.802  22.633  34.452  1.00  0.00    -0.200 F 
ENDBRANCH  16  17
ENDBRANCH  12  16
ENDBRANCH   6   9
ENDBRANCH   4   5
ENDBRANCH   3   4
ENDBRANCH   2   3
ENDBRANCH   1   2
BRANCH   1  26
ATOM     26  C   UNL A   1      34.325  33.106  29.904  1.00  0.00     0.021 C 
BRANCH  26  27
ATOM     27  C   UNL A   1      34.734  32.651  28.505  1.00  0.00     0.116 C 
BRANCH  27  28
ATOM     28  N   UNL A   1      34.037  31.437  28.111  1.00  0.00    -0.352 N 
ATOM     29  C   UNL A   1      34.549  30.199  27.831  1.00  0.00     0.251 C 
ATOM     30  H   UNL A   1      33.059  31.518  28.035  1.00  0.00     0.163 HD
ATOM     31  O   UNL A   1      33.852  29.359  27.259  1.00  0.00    -0.269 OA
BRANCH  29  32
ATOM     32  C   UNL A   1      35.939  29.874  28.209  1.00  0.00     0.039 A 
ATOM     33  C   UNL A   1      36.205  29.428  29.506  1.00  0.00     0.014 A 
ATOM     34  C   UNL A   1      36.980  30.030  27.289  1.00  0.00     0.014 A 
ATOM     35  C   UNL A   1      37.513  29.091  29.865  1.00  0.00     0.010 A 
ATOM     36  C   UNL A   1      38.269  29.631  27.627  1.00  0.00     0.010 A 
ATOM     37  C   UNL A   1      38.550  29.166  28.921  1.00  0.00    -0.014 A 
BRANCH  37  38
ATOM     38  C   UNL A   1      39.936  28.768  29.271  1.00  0.00     0.031 A 
ATOM     39  C   UNL A   1      40.846  29.737  29.977  1.00  0.00     0.074 A 
ATOM     40  C   UNL A   1      40.395  27.555  28.902  1.00  0.00     0.049 A 
ATOM     41  N   UNL A   1      42.100  29.591  30.320  1.00  0.00    -0.248 NA
ATOM     42  C   UNL A   1      40.279  31.052  30.320  1.00  0.00     0.031 C 
ATOM     43  C   UNL A   1      39.623  26.542  28.180  1.00  0.00     0.029 A 
ATOM     44  N   UNL A   1      41.624  26.972  29.080  1.00  0.00    -0.354 N 
ATOM     45  C   UNL A   1      42.476  30.795  30.906  1.00  0.00     0.074 A 
ATOM     46  C   UNL A   1      41.333  31.678  30.825  1.00  0.00     0.031 C 
ATOM     47  C   UNL A   1      40.387  25.453  28.000  1.00  0.00     0.029 A 
ATOM     48  C   UNL A   1      41.713  25.703  28.557  1.00  0.00     0.049 A 
ATOM     49  H   UNL A   1      42.372  27.419  29.538  1.00  0.00     0.167 HD
ATOM     50  C   UNL A   1      43.658  31.129  31.474  1.00  0.00     0.031 A 
ATOM     51  C   UNL A   1      42.746  24.840  28.525  1.00  0.00     0.031 A 
ATOM     52  C   UNL A   1      44.790  30.245  31.560  1.00  0.00     0.049 A 
ATOM     53  C   UNL A   1      44.053  25.237  29.153  1.00  0.00     0.074 A 
ATOM     54  C   UNL A   1      46.014  30.470  32.165  1.00  0.00     0.029 A 
ATOM     55  N   UNL A   1      44.838  28.966  31.024  1.00  0.00    -0.354 N 
ATOM     56  N   UNL A   1      44.369  26.357  29.758  1.00  0.00    -0.248 NA
ATOM     57  C   UNL A   1      45.140  24.249  29.104  1.00  0.00     0.031 C 
ATOM     58  C   UNL A   1      46.820  29.345  31.950  1.00  0.00     0.029 A 
ATOM     59  C   UNL A   1      46.078  28.399  31.261  1.00  0.00     0.049 A 
ATOM     60  H   UNL A   1      44.098  28.527  30.544  1.00  0.00     0.167 HD
ATOM     61  C   UNL A   1      45.683  26.201  30.182  1.00  0.00     0.074 A 
ATOM     62  C   UNL A   1      46.097  24.872  29.779  1.00  0.00     0.031 C 
ATOM     63  C   UNL A   1      46.476  27.077  30.848  1.00  0.00     0.031 A 
BRANCH  50  64
ATOM     64  C   UNL A   1      43.787  32.519  32.043  1.00  0.00    -0.014 A 
ATOM     65  C   UNL A   1      43.553  32.770  33.407  1.00  0.00     0.010 A 
ATOM     66  C   UNL A   1      44.177  33.583  31.210  1.00  0.00     0.010 A 
ATOM     67  C   UNL A   1      43.658  34.065  33.917  1.00  0.00     0.020 A 
ATOM     68  C   UNL A   1      44.312  34.876  31.722  1.00  0.00     0.020 A 
ATOM     69  C   UNL A   1      44.032  35.112  33.071  1.00  0.00     0.054 A 
BRANCH  69  70
ATOM     70  S   UNL A   1      44.173  36.784  33.763  1.00  0.00     0.124 S 
ATOM     71  O   UNL A   1      43.374  37.566  32.822  1.00  0.00    -0.237 OA
ATOM     72  O   UNL A   1      43.598  36.629  35.097  1.00  0.00    -0.237 OA
ATOM     73  O   UNL A   1      45.609  37.052  33.733  1.00  0.00    -0.744 OA
ENDBRANCH  69  70
ENDBRANCH  50  64
BRANCH  51  74
ATOM     74  C   UNL A   1      42.577  23.505  27.888  1.00  0.00    -0.014 A 
ATOM     75  C   UNL A   1      43.004  23.287  26.566  1.00  0.00     0.010 A 
ATOM     76  C   UNL A   1      42.006  22.440  28.607  1.00  0.00     0.010 A 
ATOM     77  C   UNL A   1      42.851  22.032  25.970  1.00  0.00     0.020 A 
ATOM     78  C   UNL A   1      41.876  21.176  28.024  1.00  0.00     0.020 A 
ATOM     79  C   UNL A   1      42.291  20.983  26.705  1.00  0.00     0.054 A 
BRANCH  79  80
ATOM     80  S   UNL A   1      42.156  19.347  25.932  1.00  0.00     0.124 S 
ATOM     81  O   UNL A   1      42.730  18.479  26.955  1.00  0.00    -0.237 OA
ATOM     82  O   UNL A   1      40.716  19.214  25.724  1.00  0.00    -0.237 OA
ATOM     83  O   UNL A   1      42.944  19.483  24.709  1.00  0.00    -0.744 OA
ENDBRANCH  79  80
ENDBRANCH  51  74
BRANCH  63  84
ATOM     84  C   UNL A   1      47.866  26.620  31.203  1.00  0.00    -0.014 A 
ATOM     85  C   UNL A   1      48.946  26.827  30.328  1.00  0.00     0.010 A 
ATOM     86  C   UNL A   1      48.100  26.024  32.456  1.00  0.00     0.010 A 
ATOM     87  C   UNL A   1      50.233  26.418  30.687  1.00  0.00     0.020 A 
ATOM     88  C   UNL A   1      49.390  25.639  32.830  1.00  0.00     0.020 A 
ATOM     89  C   UNL A   1      50.446  25.827  31.936  1.00  0.00     0.054 A 
BRANCH  89  90
ATOM     90  S   UNL A   1      52.134  25.346  32.398  1.00  0.00     0.124 S 
ATOM     91  O   UNL A   1      52.894  25.728  31.211  1.00  0.00    -0.237 OA
ATOM     92  O   UNL A   1      52.383  26.154  33.589  1.00  0.00    -0.237 OA
ATOM     93  O   UNL A   1      52.031  23.909  32.638  1.00  0.00    -0.744 OA
ENDBRANCH  89  90
ENDBRANCH  63  84
ENDBRANCH  37  38
ENDBRANCH  29  32
ENDBRANCH  27  28
ENDBRANCH  26  27
ENDBRANCH   1  26
TORSDOF 18
ENDMDL
MODEL 2
REMARK VINA RESULT:      -8.7      5.537      8.522
REMARK SMILES C[C@H]1[C@@H](C(=O)NCCCCCCNC(=O)c2ccc(-c3c4nc(c(-c5ccc(S(=O)(=O)[O-])cc5)c5ccc([nH]5)c(-c5ccc(S(=O)(=O)[O-])cc5)c5nc(c(-c6ccc(S(=O)(=O)[O-])cc6)c6ccc3[nH]6)C=C5)C=C4)cc2)CC[N@@H+]1Cc1cc(F)c(F)c(F)c1
REMARK SMILES IDX 10 1 9 2 8 3 7 4 6 5 4 6 5 7 3 9 1 10 2 11 78 12 76 13 77 14
REMARK SMILES IDX 79 16 80 17 81 18 88 19 82 20 86 21 83 22 84 23 87 24 85 25
REMARK SMILES IDX 11 26 12 27 13 28 14 29 15 31 16 32 17 33 75 34 18 35 74 36
REMARK SMILES IDX 19 37 20 38 21 39 68 40 22 41 73 42 67 43 69 44 23 45 72 46
REMARK SMILES IDX 66 47 65 48 24 50 54 51 35 52 53 53 36 54 39 55 52 56 70 57
REMARK SMILES IDX 37 58 38 59 51 61 71 62 40 63 25 64 26 65 34 66 27 67 33 68
REMARK SMILES IDX 28 69 29 70 30 71 31 72 32 73 55 74 56 75 64 76 57 77 63 78
REMARK SMILES IDX 58 79 59 80 60 81 61 82 62 83 41 84 42 85 50 86 43 87 49 88
REMARK SMILES IDX 44 89 45 90 46 91 47 92 48 93
REMARK H PARENT 6 8 78 15 13 30 69 49 39 60
REMARK Flexibility Score: inf
ROOT
ATOM      1  C   UNL A   1      34.966  34.234  29.325  1.00  0.00     0.002 C 
ENDROOT
BRANCH   1   2
ATOM      2  C   UNL A   1      34.052  33.426  28.403  1.00  0.00     0.002 C 
BRANCH   2   3
ATOM      3  C   UNL A   1      34.470  31.964  28.229  1.00  0.00     0.021 C 
BRANCH   3   4
ATOM      4  C   UNL A   1      33.568  31.167  27.276  1.00  0.00     0.116 C 
BRANCH   4   5
ATOM      5  N   UNL A   1      34.274  29.970  26.887  1.00  0.00    -0.356 N 
ATOM      6  C   UNL A   1      33.794  28.856  26.270  1.00  0.00     0.229 C 
ATOM      7  O   UNL A   1      34.409  27.812  26.508  1.00  0.00    -0.275 OA
ATOM      8  H   UNL A   1      35.236  29.957  27.097  1.00  0.00     0.163 HD
BRANCH   6   9
ATOM      9  C   UNL A   1      32.701  28.940  25.192  1.00  0.00     0.142 C 
ATOM     10  C   UNL A   1      31.348  26.783  26.001  1.00  0.00     0.076 C 
ATOM     11  C   UNL A   1      31.614  27.857  24.962  1.00  0.00     0.193 C 
ATOM     12  N   UNL A   1      31.975  27.135  23.727  1.00  0.00    -0.328 N 
ATOM     13  C   UNL A   1      33.393  28.996  23.815  1.00  0.00     0.081 C 
ATOM     14  C   UNL A   1      33.303  27.565  23.326  1.00  0.00     0.263 C 
ATOM     15  H   UNL A   1      32.024  26.136  23.928  1.00  0.00     0.348 HD
BRANCH  12  16
ATOM     16  C   UNL A   1      30.942  27.055  22.694  1.00  0.00     0.299 C 
BRANCH  16  17
ATOM     17  C   UNL A   1      29.862  28.119  22.710  1.00  0.00     0.012 A 
ATOM     18  C   UNL A   1      28.563  27.821  23.154  1.00  0.00     0.052 A 
ATOM     19  C   UNL A   1      30.135  29.427  22.276  1.00  0.00     0.052 A 
ATOM     20  C   UNL A   1      27.587  28.818  23.191  1.00  0.00     0.162 A 
ATOM     21  C   UNL A   1      29.156  30.415  22.346  1.00  0.00     0.162 A 
ATOM     22  F   UNL A   1      26.353  28.509  23.614  1.00  0.00    -0.204 F 
ATOM     23  C   UNL A   1      27.883  30.116  22.802  1.00  0.00     0.194 A 
ATOM     24  F   UNL A   1      29.465  31.665  21.973  1.00  0.00    -0.204 F 
ATOM     25  F   UNL A   1      26.946  31.074  22.863  1.00  0.00    -0.200 F 
ENDBRANCH  16  17
ENDBRANCH  12  16
ENDBRANCH   6   9
ENDBRANCH   4   5
ENDBRANCH   3   4
ENDBRANCH   2   3
ENDBRANCH   1   2
BRANCH   1  26
ATOM     26  C   UNL A   1      36.441  33.819  29.298  1.00  0.00     0.021 C 
BRANCH  26  27
ATOM     27  C   UNL A   1      37.033  33.480  30.665  1.00  0.00     0.116 C 
BRANCH  27  28
ATOM     28  N   UNL A   1      36.398  32.310  31.249  1.00  0.00    -0.352 N 
ATOM     29  C   UNL A   1      36.756  30.992  31.149  1.00  0.00     0.251 C 
ATOM     30  H   UNL A   1      35.598  32.491  31.794  1.00  0.00     0.163 HD
ATOM     31  O   UNL A   1      35.962  30.112  31.483  1.00  0.00    -0.269 OA
BRANCH  29  32
ATOM     32  C   UNL A   1      38.091  30.630  30.633  1.00  0.00     0.039 A 
ATOM     33  C   UNL A   1      39.132  30.406  31.536  1.00  0.00     0.014 A 
ATOM     34  C   UNL A   1      38.317  30.531  29.256  1.00  0.00     0.014 A 
ATOM     35  C   UNL A   1      40.392  30.034  31.059  1.00  0.00     0.010 A 
ATOM     36  C   UNL A   1      39.553  30.096  28.787  1.00  0.00     0.010 A 
ATOM     37  C   UNL A   1      40.605  29.852  29.682  1.00  0.00    -0.014 A 
BRANCH  37  38
ATOM     38  C   UNL A   1      41.923  29.412  29.162  1.00  0.00     0.031 A 
ATOM     39  C   UNL A   1      43.060  30.393  29.055  1.00  0.00     0.074 A 
ATOM     40  C   UNL A   1      42.080  28.145  28.730  1.00  0.00     0.049 A 
ATOM     41  N   UNL A   1      44.265  30.210  28.581  1.00  0.00    -0.248 NA
ATOM     42  C   UNL A   1      42.799  31.766  29.521  1.00  0.00     0.031 C 
ATOM     43  C   UNL A   1      41.044  27.111  28.745  1.00  0.00     0.029 A 
ATOM     44  N   UNL A   1      43.171  27.514  28.189  1.00  0.00    -0.354 N 
ATOM     45  C   UNL A   1      44.901  31.443  28.677  1.00  0.00     0.074 A 
ATOM     46  C   UNL A   1      43.933  32.377  29.208  1.00  0.00     0.031 C 
ATOM     47  C   UNL A   1      41.556  25.967  28.262  1.00  0.00     0.029 A 
ATOM     48  C   UNL A   1      42.943  26.196  27.868  1.00  0.00     0.049 A 
ATOM     49  H   UNL A   1      44.037  27.960  28.046  1.00  0.00     0.167 HD
ATOM     50  C   UNL A   1      46.180  31.764  28.369  1.00  0.00     0.031 A 
ATOM     51  C   UNL A   1      43.755  25.277  27.312  1.00  0.00     0.031 A 
ATOM     52  C   UNL A   1      47.143  30.830  27.850  1.00  0.00     0.049 A 
ATOM     53  C   UNL A   1      45.168  25.659  26.968  1.00  0.00     0.074 A 
ATOM     54  C   UNL A   1      48.479  31.043  27.557  1.00  0.00     0.029 A 
ATOM     55  N   UNL A   1      46.874  29.504  27.543  1.00  0.00    -0.354 N 
ATOM     56  N   UNL A   1      45.770  26.814  27.126  1.00  0.00    -0.248 NA
ATOM     57  C   UNL A   1      46.015  24.611  26.382  1.00  0.00     0.031 C 
ATOM     58  C   UNL A   1      49.004  29.859  27.026  1.00  0.00     0.029 A 
ATOM     59  C   UNL A   1      48.010  28.894  27.040  1.00  0.00     0.049 A 
ATOM     60  H   UNL A   1      46.001  29.063  27.664  1.00  0.00     0.167 HD
ATOM     61  C   UNL A   1      47.073  26.626  26.680  1.00  0.00     0.074 A 
ATOM     62  C   UNL A   1      47.176  25.242  26.261  1.00  0.00     0.031 C 
ATOM     63  C   UNL A   1      48.093  27.517  26.623  1.00  0.00     0.031 A 
BRANCH  50  64
ATOM     64  C   UNL A   1      46.608  33.194  28.582  1.00  0.00    -0.014 A 
ATOM     65  C   UNL A   1      47.107  33.625  29.824  1.00  0.00     0.010 A 
ATOM     66  C   UNL A   1      46.538  34.110  27.517  1.00  0.00     0.010 A 
ATOM     67  C   UNL A   1      47.482  34.957  30.012  1.00  0.00     0.020 A 
ATOM     68  C   UNL A   1      46.940  35.438  27.693  1.00  0.00     0.020 A 
ATOM     69  C   UNL A   1      47.392  35.857  28.947  1.00  0.00     0.054 A 
BRANCH  69  70
ATOM     70  S   UNL A   1      47.898  37.579  29.217  1.00  0.00     0.124 S 
ATOM     71  O   UNL A   1      47.840  37.684  30.673  1.00  0.00    -0.237 OA
ATOM     72  O   UNL A   1      49.238  37.614  28.638  1.00  0.00    -0.237 OA
ATOM     73  O   UNL A   1      46.890  38.353  28.496  1.00  0.00    -0.744 OA
ENDBRANCH  69  70
ENDBRANCH  50  64
BRANCH  51  74
ATOM     74  C   UNL A   1      43.253  23.898  27.064  1.00  0.00    -0.014 A 
ATOM     75  C   UNL A   1      43.326  22.920  28.072  1.00  0.00     0.010 A 
ATOM     76  C   UNL A   1      42.681  23.561  25.825  1.00  0.00     0.010 A 
ATOM     77  C   UNL A   1      42.849  21.628  27.842  1.00  0.00     0.020 A 
ATOM     78  C   UNL A   1      42.177  22.276  25.599  1.00  0.00     0.020 A 
ATOM     79  C   UNL A   1      42.273  21.314  26.606  1.00  0.00     0.054 A 
BRANCH  79  80
ATOM     80  S   UNL A   1      41.606  19.647  26.349  1.00  0.00     0.124 S 
ATOM     81  O   UNL A   1      42.430  19.156  25.250  1.00  0.00    -0.237 OA
ATOM     82  O   UNL A   1      41.834  19.012  27.645  1.00  0.00    -0.237 OA
ATOM     83  O   UNL A   1      40.202  19.888  26.022  1.00  0.00    -0.744 OA
ENDBRANCH  79  80
ENDBRANCH  51  74
BRANCH  63  84
ATOM     84  C   UNL A   1      49.419  27.019  26.111  1.00  0.00    -0.014 A 
ATOM     85  C   UNL A   1      49.772  27.150  24.756  1.00  0.00     0.010 A 
ATOM     86  C   UNL A   1      50.345  26.462  27.012  1.00  0.00     0.010 A 
ATOM     87  C   UNL A   1      51.017  26.704  24.306  1.00  0.00     0.020 A 
ATOM     88  C   UNL A   1      51.601  26.040  26.570  1.00  0.00     0.020 A 
ATOM     89  C   UNL A   1      51.924  26.152  25.215  1.00  0.00     0.054 A 
BRANCH  89  90
ATOM     90  S   UNL A   1      53.552  25.623  24.614  1.00  0.00     0.124 S 
ATOM     91  O   UNL A   1      54.455  26.370  25.485  1.00  0.00    -0.237 OA
ATOM     92  O   UNL A   1      53.520  24.180  24.832  1.00  0.00    -0.237 OA
ATOM     93  O   UNL A   1      53.553  26.036  23.212  1.00  0.00    -0.744 OA
ENDBRANCH  89  90
ENDBRANCH  63  84
ENDBRANCH  37  38
ENDBRANCH  29  32
ENDBRANCH  27  28
ENDBRANCH  26  27
ENDBRANCH   1  26
TORSDOF 18
ENDMDL
MODEL 3
REMARK VINA RESULT:      -8.6      4.752     11.403
REMARK SMILES C[C@H]1[C@@H](C(=O)NCCCCCCNC(=O)c2ccc(-c3c4nc(c(-c5ccc(S(=O)(=O)[O-])cc5)c5ccc([nH]5)c(-c5ccc(S(=O)(=O)[O-])cc5)c5nc(c(-c6ccc(S(=O)(=O)[O-])cc6)c6ccc3[nH]6)C=C5)C=C4)cc2)CC[N@@H+]1Cc1cc(F)c(F)c(F)c1
REMARK SMILES IDX 10 1 9 2 8 3 7 4 6 5 4 6 5 7 3 9 1 10 2 11 78 12 76 13 77 14
REMARK SMILES IDX 79 16 80 17 81 18 88 19 82 20 86 21 83 22 84 23 87 24 85 25
REMARK SMILES IDX 11 26 12 27 13 28 14 29 15 31 16 32 17 33 75 34 18 35 74 36
REMARK SMILES IDX 19 37 20 38 21 39 68 40 22 41 73 42 67 43 69 44 23 45 72 46
REMARK SMILES IDX 66 47 65 48 24 50 54 51 35 52 53 53 36 54 39 55 52 56 70 57
REMARK SMILES IDX 37 58 38 59 51 61 71 62 40 63 25 64 26 65 34 66 27 67 33 68
REMARK SMILES IDX 28 69 29 70 30 71 31 72 32 73 55 74 56 75 64 76 57 77 63 78
REMARK SMILES IDX 58 79 59 80 60 81 61 82 62 83 41 84 42 85 50 86 43 87 49 88
REMARK SMILES IDX 44 89 45 90 46 91 47 92 48 93
REMARK H PARENT 6 8 78 15 13 30 69 49 39 60
REMARK Flexibility Score: inf
ROOT
ATOM      1  C   UNL A   1      34.484  22.765  25.264  1.00  0.00     0.002 C 
ENDROOT
BRANCH   1   2
ATOM      2  C   UNL A   1      33.841  23.380  26.506  1.00  0.00     0.002 C 
BRANCH   2   3
ATOM      3  C   UNL A   1      32.650  22.588  27.054  1.00  0.00     0.021 C 
BRANCH   3   4
ATOM      4  C   UNL A   1      31.284  23.133  26.615  1.00  0.00     0.116 C 
BRANCH   4   5
ATOM      5  N   UNL A   1      31.186  22.996  25.182  1.00  0.00    -0.356 N 
ATOM      6  C   UNL A   1      30.963  23.956  24.243  1.00  0.00     0.229 C 
ATOM      7  O   UNL A   1      30.415  23.568  23.207  1.00  0.00    -0.275 OA
ATOM      8  H   UNL A   1      31.296  22.082  24.834  1.00  0.00     0.163 HD
BRANCH   6   9
ATOM      9  C   UNL A   1      31.548  25.372  24.383  1.00  0.00     0.142 C 
ATOM     10  C   UNL A   1      29.223  26.660  24.112  1.00  0.00     0.076 C 
ATOM     11  C   UNL A   1      30.740  26.678  24.164  1.00  0.00     0.193 C 
ATOM     12  N   UNL A   1      31.175  27.245  22.873  1.00  0.00    -0.328 N 
ATOM     13  C   UNL A   1      32.686  25.522  23.353  1.00  0.00     0.081 C 
ATOM     14  C   UNL A   1      32.021  26.267  22.213  1.00  0.00     0.263 C 
ATOM     15  H   UNL A   1      30.358  27.392  22.281  1.00  0.00     0.348 HD
BRANCH  12  16
ATOM     16  C   UNL A   1      31.628  28.636  22.893  1.00  0.00     0.299 C 
BRANCH  16  17
ATOM     17  C   UNL A   1      32.096  29.194  24.224  1.00  0.00     0.012 A 
ATOM     18  C   UNL A   1      31.313  30.121  24.931  1.00  0.00     0.052 A 
ATOM     19  C   UNL A   1      33.325  28.799  24.776  1.00  0.00     0.052 A 
ATOM     20  C   UNL A   1      31.742  30.604  26.169  1.00  0.00     0.162 A 
ATOM     21  C   UNL A   1      33.725  29.270  26.024  1.00  0.00     0.162 A 
ATOM     22  F   UNL A   1      30.981  31.491  26.823  1.00  0.00    -0.204 F 
ATOM     23  C   UNL A   1      32.938  30.171  26.724  1.00  0.00     0.194 A 
ATOM     24  F   UNL A   1      34.879  28.833  26.546  1.00  0.00    -0.204 F 
ATOM     25  F   UNL A   1      33.332  30.621  27.923  1.00  0.00    -0.200 F 
ENDBRANCH  16  17
ENDBRANCH  12  16
ENDBRANCH   6   9
ENDBRANCH   4   5
ENDBRANCH   3   4
ENDBRANCH   2   3
ENDBRANCH   1   2
BRANCH   1  26
ATOM     26  C   UNL A   1      35.522  23.652  24.567  1.00  0.00     0.021 C 
BRANCH  26  27
ATOM     27  C   UNL A   1      36.696  24.073  25.449  1.00  0.00     0.116 C 
BRANCH  27  28
ATOM     28  N   UNL A   1      37.622  22.975  25.668  1.00  0.00    -0.352 N 
ATOM     29  C   UNL A   1      38.892  23.004  26.180  1.00  0.00     0.251 C 
ATOM     30  H   UNL A   1      37.291  22.084  25.412  1.00  0.00     0.163 HD
ATOM     31  O   UNL A   1      39.631  22.027  26.051  1.00  0.00    -0.269 OA
BRANCH  29  32
ATOM     32  C   UNL A   1      39.375  24.211  26.881  1.00  0.00     0.039 A 
ATOM     33  C   UNL A   1      40.147  25.141  26.181  1.00  0.00     0.014 A 
ATOM     34  C   UNL A   1      39.081  24.412  28.233  1.00  0.00     0.014 A 
ATOM     35  C   UNL A   1      40.584  26.300  26.828  1.00  0.00     0.010 A 
ATOM     36  C   UNL A   1      39.459  25.598  28.855  1.00  0.00     0.010 A 
ATOM     37  C   UNL A   1      40.223  26.549  28.162  1.00  0.00    -0.014 A 
BRANCH  37  38
ATOM     38  C   UNL A   1      40.639  27.796  28.849  1.00  0.00     0.031 A 
ATOM     39  C   UNL A   1      42.000  27.891  29.486  1.00  0.00     0.074 A 
ATOM     40  C   UNL A   1      39.771  28.823  28.952  1.00  0.00     0.049 A 
ATOM     41  N   UNL A   1      42.523  28.875  30.170  1.00  0.00    -0.248 NA
ATOM     42  C   UNL A   1      42.879  26.718  29.354  1.00  0.00     0.031 C 
ATOM     43  C   UNL A   1      38.410  28.838  28.412  1.00  0.00     0.029 A 
ATOM     44  N   UNL A   1      39.904  30.049  29.553  1.00  0.00    -0.354 N 
ATOM     45  C   UNL A   1      43.783  28.436  30.563  1.00  0.00     0.074 A 
ATOM     46  C   UNL A   1      43.925  27.080  30.083  1.00  0.00     0.031 C 
ATOM     47  C   UNL A   1      37.843  30.024  28.682  1.00  0.00     0.029 A 
ATOM     48  C   UNL A   1      38.783  30.838  29.446  1.00  0.00     0.049 A 
ATOM     49  H   UNL A   1      40.724  30.338  30.015  1.00  0.00     0.167 HD
ATOM     50  C   UNL A   1      44.741  29.107  31.245  1.00  0.00     0.031 A 
ATOM     51  C   UNL A   1      38.536  32.077  29.916  1.00  0.00     0.031 A 
ATOM     52  C   UNL A   1      44.599  30.461  31.714  1.00  0.00     0.049 A 
ATOM     53  C   UNL A   1      39.611  32.799  30.680  1.00  0.00     0.074 A 
ATOM     54  C   UNL A   1      45.531  31.247  32.367  1.00  0.00     0.029 A 
ATOM     55  N   UNL A   1      43.450  31.227  31.582  1.00  0.00    -0.354 N 
ATOM     56  N   UNL A   1      40.819  32.390  30.986  1.00  0.00    -0.248 NA
ATOM     57  C   UNL A   1      39.293  34.153  31.153  1.00  0.00     0.031 C 
ATOM     58  C   UNL A   1      44.928  32.473  32.674  1.00  0.00     0.029 A 
ATOM     59  C   UNL A   1      43.640  32.469  32.163  1.00  0.00     0.049 A 
ATOM     60  H   UNL A   1      42.621  30.931  31.140  1.00  0.00     0.167 HD
ATOM     61  C   UNL A   1      41.415  33.445  31.668  1.00  0.00     0.074 A 
ATOM     62  C   UNL A   1      40.439  34.516  31.715  1.00  0.00     0.031 C 
ATOM     63  C   UNL A   1      42.657  33.522  32.205  1.00  0.00     0.031 A 
BRANCH  50  64
ATOM     64  C   UNL A   1      46.029  28.379  31.532  1.00  0.00    -0.014 A 
ATOM     65  C   UNL A   1      46.185  27.614  32.702  1.00  0.00     0.010 A 
ATOM     66  C   UNL A   1      47.086  28.435  30.606  1.00  0.00     0.010 A 
ATOM     67  C   UNL A   1      47.391  26.960  32.965  1.00  0.00     0.020 A 
ATOM     68  C   UNL A   1      48.284  27.757  30.850  1.00  0.00     0.020 A 
ATOM     69  C   UNL A   1      48.435  27.039  32.039  1.00  0.00     0.054 A 
BRANCH  69  70
ATOM     70  S   UNL A   1      49.986  26.168  32.400  1.00  0.00     0.124 S 
ATOM     71  O   UNL A   1      50.970  27.025  31.743  1.00  0.00    -0.237 OA
ATOM     72  O   UNL A   1      50.024  26.173  33.860  1.00  0.00    -0.237 OA
ATOM     73  O   UNL A   1      49.796  24.855  31.788  1.00  0.00    -0.744 OA
ENDBRANCH  69  70
ENDBRANCH  50  64
BRANCH  51  74
ATOM     74  C   UNL A   1      37.218  32.718  29.658  1.00  0.00    -0.014 A 
ATOM     75  C   UNL A   1      36.217  32.712  30.645  1.00  0.00     0.010 A 
ATOM     76  C   UNL A   1      36.964  33.356  28.431  1.00  0.00     0.010 A 
ATOM     77  C   UNL A   1      34.981  33.319  30.406  1.00  0.00     0.020 A 
ATOM     78  C   UNL A   1      35.740  33.988  28.197  1.00  0.00     0.020 A 
ATOM     79  C   UNL A   1      34.752  33.958  29.183  1.00  0.00     0.054 A 
BRANCH  79  80
ATOM     80  S   UNL A   1      33.163  34.791  28.916  1.00  0.00     0.124 S 
ATOM     81  O   UNL A   1      33.582  36.075  28.362  1.00  0.00    -0.237 OA
ATOM     82  O   UNL A   1      32.486  33.890  27.985  1.00  0.00    -0.237 OA
ATOM     83  O   UNL A   1      32.577  34.845  30.254  1.00  0.00    -0.744 OA
ENDBRANCH  79  80
ENDBRANCH  51  74
BRANCH  63  84
ATOM     84  C   UNL A   1      43.043  34.815  32.871  1.00  0.00    -0.014 A 
ATOM     85  C   UNL A   1      42.789  35.036  34.236  1.00  0.00     0.010 A 
ATOM     86  C   UNL A   1      43.721  35.801  32.130  1.00  0.00     0.010 A 
ATOM     87  C   UNL A   1      43.178  36.234  34.841  1.00  0.00     0.020 A 
ATOM     88  C   UNL A   1      44.137  36.988  32.738  1.00  0.00     0.020 A 
ATOM     89  C   UNL A   1      43.849  37.202  34.088  1.00  0.00     0.054 A 
BRANCH  89  90
ATOM     90  S   UNL A   1      44.385  38.730  34.908  1.00  0.00     0.124 S 
ATOM     91  O   UNL A   1      43.513  39.726  34.293  1.00  0.00    -0.237 OA
ATOM     92  O   UNL A   1      44.120  38.447  36.316  1.00  0.00    -0.237 OA
ATOM     93  O   UNL A   1      45.799  38.834  34.555  1.00  0.00    -0.744 OA
ENDBRANCH  89  90
ENDBRANCH  63  84
ENDBRANCH  37  38
ENDBRANCH  29  32
ENDBRANCH  27  28
ENDBRANCH  26  27
ENDBRANCH   1  26
TORSDOF 18
ENDMDL
