MODEL 1
REMARK VINA RESULT:     -10.7      0.000      0.000
REMARK SMILES CCOc1cccc(-c2ccc([C@@H](C)C(=O)NCCCCCCNC(=O)c3ccc(-c4c5nc(c(-c6ccc(S(=O)(=O)[O-])cc6)c6ccc([nH]6)c(-c6ccc(S(=O)(=O)[O-])cc6)c6nc(c(-c7ccc(S(=O)(=O)[O-])cc7)c7ccc4[nH]7)C=C6)C=C5)cc3)cc2F)c1
REMARK SMILES IDX 20 1 19 2 18 3 17 4 15 5 16 6 13 8 14 9 12 10 9 11 10 12
REMARK SMILES IDX 88 13 11 14 87 15 89 16 8 17 4 18 5 19 90 20 6 21 7 22 3 23
REMARK SMILES IDX 2 24 1 25 21 26 22 27 23 28 24 29 25 30 26 32 27 33 28 34
REMARK SMILES IDX 86 35 29 36 85 37 30 38 31 39 32 40 79 41 33 42 84 43 78 44
REMARK SMILES IDX 80 45 34 46 83 47 77 48 76 49 35 51 65 52 46 53 64 54 47 55
REMARK SMILES IDX 50 56 63 57 81 58 48 59 49 60 62 62 82 63 51 64 36 65 37 66
REMARK SMILES IDX 45 67 38 68 44 69 39 70 40 71 41 72 42 73 43 74 66 75 67 76
REMARK SMILES IDX 75 77 68 78 74 79 69 80 70 81 71 82 72 83 73 84 52 85 53 86
REMARK SMILES IDX 61 87 54 88 60 89 55 90 56 91 57 92 58 93 59 94
REMARK H PARENT 17 7 24 31 80 50 50 61
REMARK Flexibility Score: inf
ROOT
ATOM      1  C   UNL A   1      34.270  25.405  25.175  1.00  0.00     0.002 C 
ENDROOT
BRANCH   1   2
ATOM      2  C   UNL A   1      33.923  26.856  24.831  1.00  0.00     0.021 C 
BRANCH   2   3
ATOM      3  C   UNL A   1      32.449  27.200  25.052  1.00  0.00     0.116 C 
BRANCH   3   4
ATOM      4  N   UNL A   1      31.795  27.535  23.806  1.00  0.00    -0.356 N 
ATOM      5  C   UNL A   1      30.837  26.886  23.090  1.00  0.00     0.227 C 
ATOM      6  O   UNL A   1      30.557  27.367  21.985  1.00  0.00    -0.274 OA
ATOM      7  H   UNL A   1      32.096  28.383  23.404  1.00  0.00     0.163 HD
BRANCH   5   8
ATOM      8  C   UNL A   1      30.099  25.635  23.593  1.00  0.00     0.105 C 
ATOM      9  C   UNL A   1      29.109  25.906  24.724  1.00  0.00     0.023 C 
BRANCH   8  10
ATOM     10  C   UNL A   1      30.993  24.419  23.776  1.00  0.00    -0.033 A 
ATOM     11  C   UNL A   1      32.505  22.015  24.174  1.00  0.00     0.018 A 
ATOM     12  C   UNL A   1      32.481  22.676  22.936  1.00  0.00     0.012 A 
ATOM     13  C   UNL A   1      31.800  22.634  25.219  1.00  0.00     0.131 A 
ATOM     14  C   UNL A   1      31.772  23.871  22.753  1.00  0.00     0.005 A 
ATOM     15  C   UNL A   1      31.039  23.790  25.024  1.00  0.00     0.044 A 
ATOM     16  F   UNL A   1      31.823  22.125  26.461  1.00  0.00    -0.206 F 
BRANCH  11  17
ATOM     17  C   UNL A   1      33.199  20.714  24.333  1.00  0.00    -0.012 A 
ATOM     18  C   UNL A   1      33.185  18.275  24.126  1.00  0.00     0.119 A 
ATOM     19  C   UNL A   1      34.509  18.207  24.540  1.00  0.00     0.046 A 
ATOM     20  C   UNL A   1      32.539  19.507  24.045  1.00  0.00     0.055 A 
ATOM     21  C   UNL A   1      35.192  19.384  24.840  1.00  0.00     0.004 A 
ATOM     22  C   UNL A   1      34.543  20.622  24.739  1.00  0.00     0.009 A 
BRANCH  18  23
ATOM     23  O   UNL A   1      32.500  17.108  23.927  1.00  0.00    -0.494 OA
BRANCH  23  24
ATOM     24  C   UNL A   1      33.177  15.954  24.443  1.00  0.00     0.226 C 
ATOM     25  C   UNL A   1      32.444  15.329  25.621  1.00  0.00     0.049 C 
ENDBRANCH  23  24
ENDBRANCH  18  23
ENDBRANCH  11  17
ENDBRANCH   8  10
ENDBRANCH   5   8
ENDBRANCH   3   4
ENDBRANCH   2   3
ENDBRANCH   1   2
BRANCH   1  26
ATOM     26  C   UNL A   1      35.097  24.671  24.111  1.00  0.00     0.002 C 
BRANCH  26  27
ATOM     27  C   UNL A   1      35.870  23.451  24.619  1.00  0.00     0.021 C 
BRANCH  27  28
ATOM     28  C   UNL A   1      36.692  23.714  25.875  1.00  0.00     0.116 C 
BRANCH  28  29
ATOM     29  N   UNL A   1      37.825  22.805  25.970  1.00  0.00    -0.352 N 
ATOM     30  C   UNL A   1      39.120  23.081  26.342  1.00  0.00     0.251 C 
ATOM     31  H   UNL A   1      37.640  21.868  25.736  1.00  0.00     0.163 HD
ATOM     32  O   UNL A   1      40.014  22.272  26.133  1.00  0.00    -0.269 OA
BRANCH  30  33
ATOM     33  C   UNL A   1      39.412  24.373  26.996  1.00  0.00     0.039 A 
ATOM     34  C   UNL A   1      39.011  24.583  28.318  1.00  0.00     0.014 A 
ATOM     35  C   UNL A   1      40.104  25.363  26.296  1.00  0.00     0.014 A 
ATOM     36  C   UNL A   1      39.362  25.774  28.961  1.00  0.00     0.010 A 
ATOM     37  C   UNL A   1      40.515  26.512  26.959  1.00  0.00     0.010 A 
ATOM     38  C   UNL A   1      40.143  26.731  28.295  1.00  0.00    -0.014 A 
BRANCH  38  39
ATOM     39  C   UNL A   1      40.575  27.994  28.944  1.00  0.00     0.031 A 
ATOM     40  C   UNL A   1      41.925  28.058  29.601  1.00  0.00     0.074 A 
ATOM     41  C   UNL A   1      39.722  29.033  29.037  1.00  0.00     0.049 A 
ATOM     42  N   UNL A   1      42.427  28.986  30.373  1.00  0.00    -0.248 NA
ATOM     43  C   UNL A   1      42.818  26.905  29.387  1.00  0.00     0.031 C 
ATOM     44  C   UNL A   1      38.381  29.089  28.451  1.00  0.00     0.029 A 
ATOM     45  N   UNL A   1      39.852  30.237  29.683  1.00  0.00    -0.354 N 
ATOM     46  C   UNL A   1      43.678  28.518  30.759  1.00  0.00     0.074 A 
ATOM     47  C   UNL A   1      43.838  27.203  30.177  1.00  0.00     0.031 C 
ATOM     48  C   UNL A   1      37.820  30.272  28.751  1.00  0.00     0.029 A 
ATOM     49  C   UNL A   1      38.735  31.034  29.596  1.00  0.00     0.049 A 
ATOM     50  H   UNL A   1      40.669  30.506  30.163  1.00  0.00     0.167 HD
ATOM     51  C   UNL A   1      44.616  29.134  31.516  1.00  0.00     0.031 A 
ATOM     52  C   UNL A   1      38.468  32.232  30.151  1.00  0.00     0.031 A 
ATOM     53  C   UNL A   1      44.451  30.445  32.085  1.00  0.00     0.049 A 
ATOM     54  C   UNL A   1      39.509  32.883  31.022  1.00  0.00     0.074 A 
ATOM     55  C   UNL A   1      45.352  31.176  32.837  1.00  0.00     0.029 A 
ATOM     56  N   UNL A   1      43.308  31.221  31.961  1.00  0.00    -0.354 N 
ATOM     57  N   UNL A   1      40.700  32.442  31.352  1.00  0.00    -0.248 NA
ATOM     58  C   UNL A   1      39.174  34.196  31.591  1.00  0.00     0.031 C 
ATOM     59  C   UNL A   1      44.736  32.372  33.213  1.00  0.00     0.029 A 
ATOM     60  C   UNL A   1      43.474  32.417  32.638  1.00  0.00     0.049 A 
ATOM     61  H   UNL A   1      42.499  30.961  31.465  1.00  0.00     0.167 HD
ATOM     62  C   UNL A   1      41.274  33.442  32.130  1.00  0.00     0.074 A 
ATOM     63  C   UNL A   1      40.298  34.510  32.225  1.00  0.00     0.031 C 
ATOM     64  C   UNL A   1      42.500  33.477  32.705  1.00  0.00     0.031 A 
BRANCH  51  65
ATOM     65  C   UNL A   1      45.896  28.385  31.783  1.00  0.00    -0.014 A 
ATOM     66  C   UNL A   1      47.003  28.505  30.923  1.00  0.00     0.010 A 
ATOM     67  C   UNL A   1      46.000  27.562  32.919  1.00  0.00     0.010 A 
ATOM     68  C   UNL A   1      48.169  27.775  31.163  1.00  0.00     0.020 A 
ATOM     69  C   UNL A   1      47.178  26.857  33.182  1.00  0.00     0.020 A 
ATOM     70  C   UNL A   1      48.247  26.951  32.290  1.00  0.00     0.054 A 
BRANCH  70  71
ATOM     71  S   UNL A   1      49.775  26.018  32.578  1.00  0.00     0.124 S 
ATOM     72  O   UNL A   1      49.529  25.439  33.896  1.00  0.00    -0.237 OA
ATOM     73  O   UNL A   1      49.784  25.067  31.468  1.00  0.00    -0.237 OA
ATOM     74  O   UNL A   1      50.819  27.038  32.530  1.00  0.00    -0.744 OA
ENDBRANCH  70  71
ENDBRANCH  51  65
BRANCH  52  75
ATOM     75  C   UNL A   1      37.164  32.901  29.887  1.00  0.00    -0.014 A 
ATOM     76  C   UNL A   1      36.100  32.763  30.796  1.00  0.00     0.010 A 
ATOM     77  C   UNL A   1      36.983  33.693  28.738  1.00  0.00     0.010 A 
ATOM     78  C   UNL A   1      34.875  33.393  30.554  1.00  0.00     0.020 A 
ATOM     79  C   UNL A   1      35.769  34.347  28.508  1.00  0.00     0.020 A 
ATOM     80  C   UNL A   1      34.719  34.185  29.412  1.00  0.00     0.054 A 
BRANCH  80  81
ATOM     81  S   UNL A   1      33.138  35.036  29.150  1.00  0.00     0.124 S 
ATOM     82  O   UNL A   1      33.575  36.358  28.711  1.00  0.00    -0.237 OA
ATOM     83  O   UNL A   1      32.501  34.208  28.129  1.00  0.00    -0.237 OA
ATOM     84  O   UNL A   1      32.504  34.990  30.465  1.00  0.00    -0.744 OA
ENDBRANCH  80  81
ENDBRANCH  52  75
BRANCH  64  85
ATOM     85  C   UNL A   1      42.900  34.731  33.436  1.00  0.00    -0.014 A 
ATOM     86  C   UNL A   1      42.774  34.843  34.830  1.00  0.00     0.010 A 
ATOM     87  C   UNL A   1      43.506  35.778  32.715  1.00  0.00     0.010 A 
ATOM     88  C   UNL A   1      43.240  35.984  35.491  1.00  0.00     0.020 A 
ATOM     89  C   UNL A   1      43.999  36.906  33.374  1.00  0.00     0.020 A 
ATOM     90  C   UNL A   1      43.856  37.004  34.759  1.00  0.00     0.054 A 
BRANCH  90  91
ATOM     91  S   UNL A   1      44.528  38.434  35.650  1.00  0.00     0.124 S 
ATOM     92  O   UNL A   1      43.973  38.248  36.987  1.00  0.00    -0.237 OA
ATOM     93  O   UNL A   1      45.970  38.233  35.535  1.00  0.00    -0.237 OA
ATOM     94  O   UNL A   1      44.003  39.581  34.912  1.00  0.00    -0.744 OA
ENDBRANCH  90  91
ENDBRANCH  64  85
ENDBRANCH  38  39
ENDBRANCH  30  33
ENDBRANCH  28  29
ENDBRANCH  27  28
ENDBRANCH  26  27
ENDBRANCH   1  26
TORSDOF 20
ENDMDL
MODEL 2
REMARK VINA RESULT:     -10.2      4.275      9.668
REMARK SMILES CCOc1cccc(-c2ccc([C@@H](C)C(=O)NCCCCCCNC(=O)c3ccc(-c4c5nc(c(-c6ccc(S(=O)(=O)[O-])cc6)c6ccc([nH]6)c(-c6ccc(S(=O)(=O)[O-])cc6)c6nc(c(-c7ccc(S(=O)(=O)[O-])cc7)c7ccc4[nH]7)C=C6)C=C5)cc3)cc2F)c1
REMARK SMILES IDX 20 1 19 2 18 3 17 4 15 5 16 6 13 8 14 9 12 10 9 11 10 12
REMARK SMILES IDX 88 13 11 14 87 15 89 16 8 17 4 18 5 19 90 20 6 21 7 22 3 23
REMARK SMILES IDX 2 24 1 25 21 26 22 27 23 28 24 29 25 30 26 32 27 33 28 34
REMARK SMILES IDX 86 35 29 36 85 37 30 38 31 39 32 40 79 41 33 42 84 43 78 44
REMARK SMILES IDX 80 45 34 46 83 47 77 48 76 49 35 51 65 52 46 53 64 54 47 55
REMARK SMILES IDX 50 56 63 57 81 58 48 59 49 60 62 62 82 63 51 64 36 65 37 66
REMARK SMILES IDX 45 67 38 68 44 69 39 70 40 71 41 72 42 73 43 74 66 75 67 76
REMARK SMILES IDX 75 77 68 78 74 79 69 80 70 81 71 82 72 83 73 84 52 85 53 86
REMARK SMILES IDX 61 87 54 88 60 89 55 90 56 91 57 92 58 93 59 94
REMARK H PARENT 17 7 24 31 80 50 50 61
REMARK Flexibility Score: inf
ROOT
ATOM      1  C   UNL A   1      33.494  28.281  26.004  1.00  0.00     0.002 C 
ENDROOT
BRANCH   1   2
ATOM      2  C   UNL A   1      32.926  29.389  25.112  1.00  0.00     0.021 C 
BRANCH   2   3
ATOM      3  C   UNL A   1      31.405  29.331  24.961  1.00  0.00     0.116 C 
BRANCH   3   4
ATOM      4  N   UNL A   1      30.991  29.755  23.641  1.00  0.00    -0.356 N 
ATOM      5  C   UNL A   1      30.226  29.142  22.699  1.00  0.00     0.227 C 
ATOM      6  O   UNL A   1      30.143  29.710  21.603  1.00  0.00    -0.274 OA
ATOM      7  H   UNL A   1      31.322  30.645  23.378  1.00  0.00     0.163 HD
BRANCH   5   8
ATOM      8  C   UNL A   1      29.468  27.827  22.941  1.00  0.00     0.105 C 
ATOM      9  C   UNL A   1      28.059  28.012  23.501  1.00  0.00     0.023 C 
BRANCH   8  10
ATOM     10  C   UNL A   1      30.303  26.742  23.601  1.00  0.00    -0.033 A 
ATOM     11  C   UNL A   1      31.708  24.566  24.832  1.00  0.00     0.018 A 
ATOM     12  C   UNL A   1      32.157  25.154  23.639  1.00  0.00     0.012 A 
ATOM     13  C   UNL A   1      30.571  25.146  25.417  1.00  0.00     0.131 A 
ATOM     14  C   UNL A   1      31.490  26.242  23.058  1.00  0.00     0.005 A 
ATOM     15  C   UNL A   1      29.867  26.187  24.809  1.00  0.00     0.044 A 
ATOM     16  F   UNL A   1      30.106  24.707  26.598  1.00  0.00    -0.206 F 
BRANCH  11  17
ATOM     17  C   UNL A   1      32.381  23.370  25.395  1.00  0.00    -0.012 A 
ATOM     18  C   UNL A   1      32.625  20.936  25.497  1.00  0.00     0.119 A 
ATOM     19  C   UNL A   1      33.690  21.055  26.378  1.00  0.00     0.046 A 
ATOM     20  C   UNL A   1      31.971  22.076  25.031  1.00  0.00     0.055 A 
ATOM     21  C   UNL A   1      34.120  22.323  26.766  1.00  0.00     0.004 A 
ATOM     22  C   UNL A   1      33.471  23.466  26.280  1.00  0.00     0.009 A 
BRANCH  18  23
ATOM     23  O   UNL A   1      32.155  19.687  25.200  1.00  0.00    -0.494 OA
BRANCH  23  24
ATOM     24  C   UNL A   1      32.528  19.233  23.893  1.00  0.00     0.226 C 
ATOM     25  C   UNL A   1      33.557  18.112  23.939  1.00  0.00     0.049 C 
ENDBRANCH  23  24
ENDBRANCH  18  23
ENDBRANCH  11  17
ENDBRANCH   8  10
ENDBRANCH   5   8
ENDBRANCH   3   4
ENDBRANCH   2   3
ENDBRANCH   1   2
BRANCH   1  26
ATOM     26  C   UNL A   1      34.281  28.777  27.225  1.00  0.00     0.002 C 
BRANCH  26  27
ATOM     27  C   UNL A   1      34.156  30.276  27.511  1.00  0.00     0.021 C 
BRANCH  27  28
ATOM     28  C   UNL A   1      35.449  30.930  27.983  1.00  0.00     0.116 C 
BRANCH  28  29
ATOM     29  N   UNL A   1      35.415  31.206  29.412  1.00  0.00    -0.352 N 
ATOM     30  C   UNL A   1      36.300  30.807  30.386  1.00  0.00     0.251 C 
ATOM     31  H   UNL A   1      34.657  31.751  29.723  1.00  0.00     0.163 HD
ATOM     32  O   UNL A   1      36.007  30.902  31.570  1.00  0.00    -0.269 OA
BRANCH  30  33
ATOM     33  C   UNL A   1      37.609  30.259  29.976  1.00  0.00     0.039 A 
ATOM     34  C   UNL A   1      37.935  30.193  28.619  1.00  0.00     0.014 A 
ATOM     35  C   UNL A   1      38.516  29.831  30.948  1.00  0.00     0.014 A 
ATOM     36  C   UNL A   1      39.206  29.752  28.240  1.00  0.00     0.010 A 
ATOM     37  C   UNL A   1      39.801  29.464  30.573  1.00  0.00     0.010 A 
ATOM     38  C   UNL A   1      40.157  29.415  29.215  1.00  0.00    -0.014 A 
BRANCH  38  39
ATOM     39  C   UNL A   1      41.532  28.978  28.866  1.00  0.00     0.031 A 
ATOM     40  C   UNL A   1      42.635  29.998  28.810  1.00  0.00     0.074 A 
ATOM     41  C   UNL A   1      41.763  27.703  28.498  1.00  0.00     0.049 A 
ATOM     42  N   UNL A   1      43.855  29.872  28.358  1.00  0.00    -0.248 NA
ATOM     43  C   UNL A   1      42.309  31.349  29.299  1.00  0.00     0.031 C 
ATOM     44  C   UNL A   1      40.773  26.623  28.499  1.00  0.00     0.029 A 
ATOM     45  N   UNL A   1      42.906  27.105  28.027  1.00  0.00    -0.354 N 
ATOM     46  C   UNL A   1      44.431  31.132  28.481  1.00  0.00     0.074 A 
ATOM     47  C   UNL A   1      43.413  32.017  29.002  1.00  0.00     0.031 C 
ATOM     48  C   UNL A   1      41.356  25.493  28.067  1.00  0.00     0.029 A 
ATOM     49  C   UNL A   1      42.742  25.779  27.705  1.00  0.00     0.049 A 
ATOM     50  H   UNL A   1      43.762  27.580  27.931  1.00  0.00     0.167 HD
ATOM     51  C   UNL A   1      45.700  31.513  28.200  1.00  0.00     0.031 A 
ATOM     52  C   UNL A   1      43.602  24.897  27.158  1.00  0.00     0.031 A 
ATOM     53  C   UNL A   1      46.708  30.624  27.687  1.00  0.00     0.049 A 
ATOM     54  C   UNL A   1      44.996  25.351  26.815  1.00  0.00     0.074 A 
ATOM     55  C   UNL A   1      48.033  30.899  27.403  1.00  0.00     0.029 A 
ATOM     56  N   UNL A   1      46.502  29.286  27.387  1.00  0.00    -0.354 N 
ATOM     57  N   UNL A   1      45.536  26.537  26.966  1.00  0.00    -0.248 NA
ATOM     58  C   UNL A   1      45.899  24.348  26.235  1.00  0.00     0.031 C 
ATOM     59  C   UNL A   1      48.615  29.742  26.879  1.00  0.00     0.029 A 
ATOM     60  C   UNL A   1      47.671  28.725  26.902  1.00  0.00     0.049 A 
ATOM     61  H   UNL A   1      45.650  28.806  27.501  1.00  0.00     0.167 HD
ATOM     62  C   UNL A   1      46.854  26.411  26.541  1.00  0.00     0.074 A 
ATOM     63  C   UNL A   1      47.029  25.035  26.124  1.00  0.00     0.031 C 
ATOM     64  C   UNL A   1      47.833  27.348  26.510  1.00  0.00     0.031 A 
BRANCH  51  65
ATOM     65  C   UNL A   1      46.057  32.959  28.426  1.00  0.00    -0.014 A 
ATOM     66  C   UNL A   1      46.466  33.419  29.692  1.00  0.00     0.010 A 
ATOM     67  C   UNL A   1      46.000  33.869  27.355  1.00  0.00     0.010 A 
ATOM     68  C   UNL A   1      46.757  34.770  29.895  1.00  0.00     0.020 A 
ATOM     69  C   UNL A   1      46.325  35.215  27.546  1.00  0.00     0.020 A 
ATOM     70  C   UNL A   1      46.679  35.661  28.820  1.00  0.00     0.054 A 
BRANCH  70  71
ATOM     71  S   UNL A   1      47.067  37.408  29.113  1.00  0.00     0.124 S 
ATOM     72  O   UNL A   1      47.073  37.946  27.755  1.00  0.00    -0.237 OA
ATOM     73  O   UNL A   1      45.957  37.846  29.956  1.00  0.00    -0.237 OA
ATOM     74  O   UNL A   1      48.370  37.369  29.773  1.00  0.00    -0.744 OA
ENDBRANCH  70  71
ENDBRANCH  51  65
BRANCH  52  75
ATOM     75  C   UNL A   1      43.173  23.493  26.914  1.00  0.00    -0.014 A 
ATOM     76  C   UNL A   1      42.924  23.043  25.605  1.00  0.00     0.010 A 
ATOM     77  C   UNL A   1      43.029  22.590  27.984  1.00  0.00     0.010 A 
ATOM     78  C   UNL A   1      42.525  21.724  25.371  1.00  0.00     0.020 A 
ATOM     79  C   UNL A   1      42.658  21.262  27.752  1.00  0.00     0.020 A 
ATOM     80  C   UNL A   1      42.399  20.840  26.447  1.00  0.00     0.054 A 
BRANCH  80  81
ATOM     81  S   UNL A   1      41.935  19.118  26.112  1.00  0.00     0.124 S 
ATOM     82  O   UNL A   1      40.520  19.245  25.777  1.00  0.00    -0.237 OA
ATOM     83  O   UNL A   1      42.819  18.765  25.004  1.00  0.00    -0.237 OA
ATOM     84  O   UNL A   1      42.223  18.436  27.371  1.00  0.00    -0.744 OA
ENDBRANCH  80  81
ENDBRANCH  52  75
BRANCH  64  85
ATOM     85  C   UNL A   1      49.207  26.916  26.073  1.00  0.00    -0.014 A 
ATOM     86  C   UNL A   1      49.621  27.020  24.735  1.00  0.00     0.010 A 
ATOM     87  C   UNL A   1      50.131  26.492  27.047  1.00  0.00     0.010 A 
ATOM     88  C   UNL A   1      50.934  26.697  24.376  1.00  0.00     0.020 A 
ATOM     89  C   UNL A   1      51.451  26.197  26.698  1.00  0.00     0.020 A 
ATOM     90  C   UNL A   1      51.842  26.296  25.362  1.00  0.00     0.054 A 
BRANCH  90  91
ATOM     91  S   UNL A   1      53.560  25.967  24.883  1.00  0.00     0.124 S 
ATOM     92  O   UNL A   1      53.765  24.615  25.393  1.00  0.00    -0.237 OA
ATOM     93  O   UNL A   1      53.516  26.090  23.428  1.00  0.00    -0.237 OA
ATOM     94  O   UNL A   1      54.318  27.013  25.568  1.00  0.00    -0.744 OA
ENDBRANCH  90  91
ENDBRANCH  64  85
ENDBRANCH  38  39
ENDBRANCH  30  33
ENDBRANCH  28  29
ENDBRANCH  27  28
ENDBRANCH  26  27
ENDBRANCH   1  26
TORSDOF 20
ENDMDL
MODEL 3
REMARK VINA RESULT:     -10.1      4.494      9.309
REMARK SMILES CCOc1cccc(-c2ccc([C@@H](C)C(=O)NCCCCCCNC(=O)c3ccc(-c4c5nc(c(-c6ccc(S(=O)(=O)[O-])cc6)c6ccc([nH]6)c(-c6ccc(S(=O)(=O)[O-])cc6)c6nc(c(-c7ccc(S(=O)(=O)[O-])cc7)c7ccc4[nH]7)C=C6)C=C5)cc3)cc2F)c1
REMARK SMILES IDX 20 1 19 2 18 3 17 4 15 5 16 6 13 8 14 9 12 10 9 11 10 12
REMARK SMILES IDX 88 13 11 14 87 15 89 16 8 17 4 18 5 19 90 20 6 21 7 22 3 23
REMARK SMILES IDX 2 24 1 25 21 26 22 27 23 28 24 29 25 30 26 32 27 33 28 34
REMARK SMILES IDX 86 35 29 36 85 37 30 38 31 39 32 40 79 41 33 42 84 43 78 44
REMARK SMILES IDX 80 45 34 46 83 47 77 48 76 49 35 51 65 52 46 53 64 54 47 55
REMARK SMILES IDX 50 56 63 57 81 58 48 59 49 60 62 62 82 63 51 64 36 65 37 66
REMARK SMILES IDX 45 67 38 68 44 69 39 70 40 71 41 72 42 73 43 74 66 75 67 76
REMARK SMILES IDX 75 77 68 78 74 79 69 80 70 81 71 82 72 83 73 84 52 85 53 86
REMARK SMILES IDX 61 87 54 88 60 89 55 90 56 91 57 92 58 93 59 94
REMARK H PARENT 17 7 24 31 80 50 50 61
REMARK Flexibility Score: inf
ROOT
ATOM      1  C   UNL A   1      33.120  28.080  25.630  1.00  0.00     0.002 C 
ENDROOT
BRANCH   1   2
ATOM      2  C   UNL A   1      32.691  29.407  24.996  1.00  0.00     0.021 C 
BRANCH   2   3
ATOM      3  C   UNL A   1      31.175  29.564  24.878  1.00  0.00     0.116 C 
BRANCH   3   4
ATOM      4  N   UNL A   1      30.787  29.928  23.532  1.00  0.00    -0.356 N 
ATOM      5  C   UNL A   1      30.195  29.208  22.542  1.00  0.00     0.227 C 
ATOM      6  O   UNL A   1      30.096  29.765  21.442  1.00  0.00    -0.274 OA
ATOM      7  H   UNL A   1      30.987  30.862  23.291  1.00  0.00     0.163 HD
BRANCH   5   8
ATOM      8  C   UNL A   1      29.645  27.786  22.735  1.00  0.00     0.105 C 
ATOM      9  C   UNL A   1      28.301  27.729  23.458  1.00  0.00     0.023 C 
BRANCH   8  10
ATOM     10  C   UNL A   1      30.684  26.775  23.193  1.00  0.00    -0.033 A 
ATOM     11  C   UNL A   1      32.497  24.716  24.029  1.00  0.00     0.018 A 
ATOM     12  C   UNL A   1      32.771  25.537  22.924  1.00  0.00     0.012 A 
ATOM     13  C   UNL A   1      31.318  25.005  24.736  1.00  0.00     0.131 A 
ATOM     14  C   UNL A   1      31.902  26.567  22.539  1.00  0.00     0.005 A 
ATOM     15  C   UNL A   1      30.418  25.988  24.318  1.00  0.00     0.044 A 
ATOM     16  F   UNL A   1      31.004  24.330  25.854  1.00  0.00    -0.206 F 
BRANCH  11  17
ATOM     17  C   UNL A   1      33.388  23.584  24.381  1.00  0.00    -0.012 A 
ATOM     18  C   UNL A   1      35.391  22.746  25.511  1.00  0.00     0.119 A 
ATOM     19  C   UNL A   1      35.080  21.442  25.148  1.00  0.00     0.046 A 
ATOM     20  C   UNL A   1      34.568  23.798  25.115  1.00  0.00     0.055 A 
ATOM     21  C   UNL A   1      33.922  21.194  24.415  1.00  0.00     0.004 A 
ATOM     22  C   UNL A   1      33.088  22.254  24.035  1.00  0.00     0.009 A 
BRANCH  18  23
ATOM     23  O   UNL A   1      36.578  22.985  26.148  1.00  0.00    -0.494 OA
BRANCH  23  24
ATOM     24  C   UNL A   1      37.711  22.428  25.469  1.00  0.00     0.226 C 
ATOM     25  C   UNL A   1      39.011  22.650  26.229  1.00  0.00     0.049 C 
ENDBRANCH  23  24
ENDBRANCH  18  23
ENDBRANCH  11  17
ENDBRANCH   8  10
ENDBRANCH   5   8
ENDBRANCH   3   4
ENDBRANCH   2   3
ENDBRANCH   1   2
BRANCH   1  26
ATOM     26  C   UNL A   1      34.367  28.165  26.520  1.00  0.00     0.002 C 
BRANCH  26  27
ATOM     27  C   UNL A   1      34.334  29.270  27.578  1.00  0.00     0.021 C 
BRANCH  27  28
ATOM     28  C   UNL A   1      35.702  29.627  28.149  1.00  0.00     0.116 C 
BRANCH  28  29
ATOM     29  N   UNL A   1      35.619  29.953  29.566  1.00  0.00    -0.352 N 
ATOM     30  C   UNL A   1      36.600  29.876  30.525  1.00  0.00     0.251 C 
ATOM     31  H   UNL A   1      34.742  30.271  29.879  1.00  0.00     0.163 HD
ATOM     32  O   UNL A   1      36.317  29.942  31.713  1.00  0.00    -0.269 OA
BRANCH  30  33
ATOM     33  C   UNL A   1      38.003  29.709  30.094  1.00  0.00     0.039 A 
ATOM     34  C   UNL A   1      38.917  29.084  30.947  1.00  0.00     0.014 A 
ATOM     35  C   UNL A   1      38.399  30.156  28.832  1.00  0.00     0.014 A 
ATOM     36  C   UNL A   1      40.223  28.853  30.504  1.00  0.00     0.010 A 
ATOM     37  C   UNL A   1      39.673  29.859  28.367  1.00  0.00     0.010 A 
ATOM     38  C   UNL A   1      40.599  29.211  29.200  1.00  0.00    -0.014 A 
BRANCH  38  39
ATOM     39  C   UNL A   1      41.960  28.953  28.668  1.00  0.00     0.031 A 
ATOM     40  C   UNL A   1      42.312  27.571  28.190  1.00  0.00     0.074 A 
ATOM     41  C   UNL A   1      42.899  29.917  28.715  1.00  0.00     0.049 A 
ATOM     42  N   UNL A   1      43.479  27.083  27.859  1.00  0.00    -0.248 NA
ATOM     43  C   UNL A   1      41.206  26.601  28.105  1.00  0.00     0.031 C 
ATOM     44  C   UNL A   1      42.684  31.294  29.168  1.00  0.00     0.029 A 
ATOM     45  N   UNL A   1      44.234  29.878  28.398  1.00  0.00    -0.354 N 
ATOM     46  C   UNL A   1      43.253  25.745  27.556  1.00  0.00     0.074 A 
ATOM     47  C   UNL A   1      41.849  25.487  27.789  1.00  0.00     0.031 C 
ATOM     48  C   UNL A   1      43.841  31.970  29.083  1.00  0.00     0.029 A 
ATOM     49  C   UNL A   1      44.891  31.063  28.626  1.00  0.00     0.049 A 
ATOM     50  H   UNL A   1      44.679  29.076  28.039  1.00  0.00     0.167 HD
ATOM     51  C   UNL A   1      44.132  24.818  27.107  1.00  0.00     0.031 A 
ATOM     52  C   UNL A   1      46.196  31.380  28.504  1.00  0.00     0.031 A 
ATOM     53  C   UNL A   1      45.526  25.086  26.872  1.00  0.00     0.049 A 
ATOM     54  C   UNL A   1      47.164  30.325  28.041  1.00  0.00     0.074 A 
ATOM     55  C   UNL A   1      46.496  24.229  26.384  1.00  0.00     0.029 A 
ATOM     56  N   UNL A   1      46.147  26.304  27.104  1.00  0.00    -0.354 N 
ATOM     57  N   UNL A   1      46.930  29.072  27.728  1.00  0.00    -0.248 NA
ATOM     58  C   UNL A   1      48.572  30.725  27.909  1.00  0.00     0.031 C 
ATOM     59  C   UNL A   1      47.714  24.912  26.372  1.00  0.00     0.029 A 
ATOM     60  C   UNL A   1      47.491  26.217  26.787  1.00  0.00     0.049 A 
ATOM     61  H   UNL A   1      45.698  27.111  27.445  1.00  0.00     0.167 HD
ATOM     62  C   UNL A   1      48.152  28.548  27.319  1.00  0.00     0.074 A 
ATOM     63  C   UNL A   1      49.124  29.617  27.429  1.00  0.00     0.031 C 
ATOM     64  C   UNL A   1      48.440  27.297  26.884  1.00  0.00     0.031 A 
BRANCH  51  65
ATOM     65  C   UNL A   1      43.610  23.427  26.860  1.00  0.00    -0.014 A 
ATOM     66  C   UNL A   1      43.488  22.916  25.554  1.00  0.00     0.010 A 
ATOM     67  C   UNL A   1      43.252  22.611  27.949  1.00  0.00     0.010 A 
ATOM     68  C   UNL A   1      42.966  21.638  25.340  1.00  0.00     0.020 A 
ATOM     69  C   UNL A   1      42.763  21.319  27.740  1.00  0.00     0.020 A 
ATOM     70  C   UNL A   1      42.602  20.849  26.435  1.00  0.00     0.054 A 
BRANCH  70  71
ATOM     71  S   UNL A   1      41.931  19.193  26.126  1.00  0.00     0.124 S 
ATOM     72  O   UNL A   1      42.236  18.507  27.378  1.00  0.00    -0.237 OA
ATOM     73  O   UNL A   1      40.515  19.461  25.885  1.00  0.00    -0.237 OA
ATOM     74  O   UNL A   1      42.681  18.727  24.962  1.00  0.00    -0.744 OA
ENDBRANCH  70  71
ENDBRANCH  51  65
BRANCH  52  75
ATOM     75  C   UNL A   1      46.657  32.762  28.809  1.00  0.00    -0.014 A 
ATOM     76  C   UNL A   1      47.147  33.080  30.088  1.00  0.00     0.010 A 
ATOM     77  C   UNL A   1      46.629  33.763  27.821  1.00  0.00     0.010 A 
ATOM     78  C   UNL A   1      47.586  34.375  30.378  1.00  0.00     0.020 A 
ATOM     79  C   UNL A   1      47.094  35.052  28.098  1.00  0.00     0.020 A 
ATOM     80  C   UNL A   1      47.560  35.353  29.379  1.00  0.00     0.054 A 
BRANCH  80  81
ATOM     81  S   UNL A   1      48.188  37.012  29.764  1.00  0.00     0.124 S 
ATOM     82  O   UNL A   1      48.330  37.598  28.435  1.00  0.00    -0.237 OA
ATOM     83  O   UNL A   1      47.119  37.567  30.591  1.00  0.00    -0.237 OA
ATOM     84  O   UNL A   1      49.439  36.747  30.470  1.00  0.00    -0.744 OA
ENDBRANCH  80  81
ENDBRANCH  52  75
BRANCH  64  85
ATOM     85  C   UNL A   1      49.846  27.019  26.424  1.00  0.00    -0.014 A 
ATOM     86  C   UNL A   1      50.852  26.629  27.324  1.00  0.00     0.010 A 
ATOM     87  C   UNL A   1      50.134  27.053  25.046  1.00  0.00     0.010 A 
ATOM     88  C   UNL A   1      52.124  26.287  26.855  1.00  0.00     0.020 A 
ATOM     89  C   UNL A   1      51.394  26.685  24.571  1.00  0.00     0.020 A 
ATOM     90  C   UNL A   1      52.384  26.310  25.480  1.00  0.00     0.054 A 
BRANCH  90  91
ATOM     91  S   UNL A   1      54.016  25.780  24.892  1.00  0.00     0.124 S 
ATOM     92  O   UNL A   1      54.069  26.377  23.561  1.00  0.00    -0.237 OA
ATOM     93  O   UNL A   1      54.917  26.365  25.880  1.00  0.00    -0.237 OA
ATOM     94  O   UNL A   1      53.936  24.320  24.916  1.00  0.00    -0.744 OA
ENDBRANCH  90  91
ENDBRANCH  64  85
ENDBRANCH  38  39
ENDBRANCH  30  33
ENDBRANCH  28  29
ENDBRANCH  27  28
ENDBRANCH  26  27
ENDBRANCH   1  26
TORSDOF 20
ENDMDL
