MODEL 1
REMARK VINA RESULT:     -10.9      0.000      0.000
REMARK SMILES CC(C)[C@@H]1C[NH2+]CCN1c1ccc(C(=O)NCCCCCCNC(=O)c2ccc(-c3c4nc(c(-c5ccc(S(=O)(=O)[O-])cc5)c5ccc([nH]5)c(-c5ccc(S(=O)(=O)[O-])cc5)c5nc(c(-c6ccc(S(=O)(=O)[O-])cc6)c6ccc3[nH]6)C=C5)C=C4)cc2)cc1
REMARK SMILES IDX 20 1 19 2 18 3 17 4 16 5 14 6 15 7 13 9 10 10 11 11 87 12
REMARK SMILES IDX 12 13 86 14 9 15 4 16 5 17 6 18 8 19 7 20 2 23 1 24 3 25
REMARK SMILES IDX 21 26 22 27 23 28 24 29 25 31 26 32 27 33 85 34 28 35 84 36
REMARK SMILES IDX 29 37 30 38 31 39 78 40 32 41 83 42 77 43 79 44 33 45 82 46
REMARK SMILES IDX 76 47 75 48 34 50 64 51 45 52 63 53 46 54 49 55 62 56 80 57
REMARK SMILES IDX 47 58 48 59 61 61 81 62 50 63 35 64 36 65 44 66 37 67 43 68
REMARK SMILES IDX 38 69 39 70 40 71 41 72 42 73 65 74 66 75 74 76 67 77 73 78
REMARK SMILES IDX 68 79 69 80 70 81 71 82 72 83 51 84 52 85 60 86 53 87 59 88
REMARK SMILES IDX 54 89 55 90 56 91 57 92 58 93
REMARK H PARENT 16 8 6 21 6 22 23 30 79 49 49 60
REMARK Flexibility Score: inf
ROOT
ATOM      1  C   UNL A   1      31.454  27.377  26.383  1.00  0.00     0.002 C 
ENDROOT
BRANCH   1   2
ATOM      2  C   UNL A   1      30.711  26.728  25.208  1.00  0.00     0.002 C 
BRANCH   2   3
ATOM      3  C   UNL A   1      30.262  27.706  24.112  1.00  0.00     0.021 C 
BRANCH   3   4
ATOM      4  C   UNL A   1      30.580  27.215  22.699  1.00  0.00     0.116 C 
BRANCH   4   5
ATOM      5  N   UNL A   1      31.814  27.824  22.237  1.00  0.00    -0.352 N 
ATOM      6  C   UNL A   1      33.106  27.367  22.232  1.00  0.00     0.251 C 
ATOM      7  O   UNL A   1      33.989  28.104  21.794  1.00  0.00    -0.269 OA
ATOM      8  H   UNL A   1      31.702  28.726  21.861  1.00  0.00     0.163 HD
BRANCH   6   9
ATOM      9  C   UNL A   1      33.447  25.982  22.635  1.00  0.00     0.039 A 
ATOM     10  C   UNL A   1      34.475  23.477  23.407  1.00  0.00     0.037 A 
ATOM     11  C   UNL A   1      34.592  24.588  24.248  1.00  0.00     0.027 A 
ATOM     12  C   UNL A   1      33.709  23.604  22.244  1.00  0.00     0.027 A 
ATOM     13  C   UNL A   1      34.087  25.831  23.869  1.00  0.00     0.016 A 
ATOM     14  C   UNL A   1      33.190  24.849  21.860  1.00  0.00     0.016 A 
BRANCH  10  15
ATOM     15  N   UNL A   1      35.095  22.302  23.776  1.00  0.00    -0.357 N 
ATOM     16  C   UNL A   1      34.506  21.286  24.696  1.00  0.00     0.140 C 
ATOM     17  C   UNL A   1      35.184  21.357  26.097  1.00  0.00     0.286 C 
ATOM     18  N   UNL A   1      36.666  21.300  26.038  1.00  0.00    -0.343 N 
ATOM     19  C   UNL A   1      36.568  22.341  23.742  1.00  0.00     0.178 C 
ATOM     20  C   UNL A   1      37.154  22.389  25.170  1.00  0.00     0.282 C 
ATOM     21  H   UNL A   1      36.959  20.401  25.656  1.00  0.00     0.346 HD
ATOM     22  H   UNL A   1      37.053  21.408  26.976  1.00  0.00     0.346 HD
BRANCH  16  23
ATOM     23  C   UNL A   1      32.950  21.168  24.717  1.00  0.00     0.011 C 
ATOM     24  C   UNL A   1      32.523  19.688  24.717  1.00  0.00     0.010 C 
ATOM     25  C   UNL A   1      32.213  21.851  25.874  1.00  0.00     0.010 C 
ENDBRANCH  16  23
ENDBRANCH  10  15
ENDBRANCH   6   9
ENDBRANCH   4   5
ENDBRANCH   3   4
ENDBRANCH   2   3
ENDBRANCH   1   2
BRANCH   1  26
ATOM     26  C   UNL A   1      32.801  28.008  26.021  1.00  0.00     0.021 C 
BRANCH  26  27
ATOM     27  C   UNL A   1      33.655  28.388  27.225  1.00  0.00     0.116 C 
BRANCH  27  28
ATOM     28  N   UNL A   1      33.547  29.805  27.535  1.00  0.00    -0.352 N 
ATOM     29  C   UNL A   1      34.445  30.617  28.185  1.00  0.00     0.251 C 
ATOM     30  H   UNL A   1      32.716  30.243  27.240  1.00  0.00     0.163 HD
ATOM     31  O   UNL A   1      34.105  31.729  28.570  1.00  0.00    -0.269 OA
BRANCH  29  32
ATOM     32  C   UNL A   1      35.819  30.130  28.426  1.00  0.00     0.039 A 
ATOM     33  C   UNL A   1      36.752  30.175  27.388  1.00  0.00     0.014 A 
ATOM     34  C   UNL A   1      36.182  29.631  29.681  1.00  0.00     0.014 A 
ATOM     35  C   UNL A   1      38.068  29.769  27.625  1.00  0.00     0.010 A 
ATOM     36  C   UNL A   1      37.508  29.299  29.935  1.00  0.00     0.010 A 
ATOM     37  C   UNL A   1      38.464  29.357  28.908  1.00  0.00    -0.014 A 
BRANCH  37  38
ATOM     38  C   UNL A   1      39.865  28.962  29.204  1.00  0.00     0.031 A 
ATOM     39  C   UNL A   1      40.813  29.968  29.802  1.00  0.00     0.074 A 
ATOM     40  C   UNL A   1      40.303  27.732  28.869  1.00  0.00     0.049 A 
ATOM     41  N   UNL A   1      42.096  29.857  30.030  1.00  0.00    -0.248 NA
ATOM     42  C   UNL A   1      40.250  31.279  30.168  1.00  0.00     0.031 C 
ATOM     43  C   UNL A   1      39.488  26.677  28.261  1.00  0.00     0.029 A 
ATOM     44  N   UNL A   1      41.548  27.166  28.979  1.00  0.00    -0.354 N 
ATOM     45  C   UNL A   1      42.496  31.085  30.546  1.00  0.00     0.074 A 
ATOM     46  C   UNL A   1      41.332  31.941  30.550  1.00  0.00     0.031 C 
ATOM     47  C   UNL A   1      40.249  25.587  28.072  1.00  0.00     0.029 A 
ATOM     48  C   UNL A   1      41.615  25.879  28.496  1.00  0.00     0.049 A 
ATOM     49  H   UNL A   1      42.322  27.635  29.367  1.00  0.00     0.167 HD
ATOM     50  C   UNL A   1      43.718  31.459  30.995  1.00  0.00     0.031 A 
ATOM     51  C   UNL A   1      42.661  25.036  28.390  1.00  0.00     0.031 A 
ATOM     52  C   UNL A   1      44.871  30.598  30.999  1.00  0.00     0.049 A 
ATOM     53  C   UNL A   1      44.016  25.486  28.867  1.00  0.00     0.074 A 
ATOM     54  C   UNL A   1      46.143  30.869  31.471  1.00  0.00     0.029 A 
ATOM     55  N   UNL A   1      44.892  29.300  30.512  1.00  0.00    -0.354 N 
ATOM     56  N   UNL A   1      44.364  26.636  29.395  1.00  0.00    -0.248 NA
ATOM     57  C   UNL A   1      45.119  24.523  28.743  1.00  0.00     0.031 C 
ATOM     58  C   UNL A   1      46.948  29.755  31.217  1.00  0.00     0.029 A 
ATOM     59  C   UNL A   1      46.160  28.765  30.652  1.00  0.00     0.049 A 
ATOM     60  H   UNL A   1      44.120  28.829  30.122  1.00  0.00     0.167 HD
ATOM     61  C   UNL A   1      45.714  26.517  29.706  1.00  0.00     0.074 A 
ATOM     62  C   UNL A   1      46.119  25.183  29.312  1.00  0.00     0.031 C 
ATOM     63  C   UNL A   1      46.544  27.429  30.271  1.00  0.00     0.031 A 
BRANCH  50  64
ATOM     64  C   UNL A   1      43.874  32.863  31.518  1.00  0.00    -0.014 A 
ATOM     65  C   UNL A   1      43.683  33.156  32.881  1.00  0.00     0.010 A 
ATOM     66  C   UNL A   1      44.272  33.893  30.647  1.00  0.00     0.010 A 
ATOM     67  C   UNL A   1      43.855  34.459  33.356  1.00  0.00     0.020 A 
ATOM     68  C   UNL A   1      44.477  35.191  31.124  1.00  0.00     0.020 A 
ATOM     69  C   UNL A   1      44.253  35.468  32.474  1.00  0.00     0.054 A 
BRANCH  69  70
ATOM     70  S   UNL A   1      44.508  37.141  33.128  1.00  0.00     0.124 S 
ATOM     71  O   UNL A   1      43.340  37.308  33.990  1.00  0.00    -0.237 OA
ATOM     72  O   UNL A   1      45.787  37.020  33.822  1.00  0.00    -0.237 OA
ATOM     73  O   UNL A   1      44.525  37.982  31.935  1.00  0.00    -0.744 OA
ENDBRANCH  69  70
ENDBRANCH  50  64
BRANCH  51  74
ATOM     74  C   UNL A   1      42.473  23.676  27.808  1.00  0.00    -0.014 A 
ATOM     75  C   UNL A   1      42.071  22.600  28.620  1.00  0.00     0.010 A 
ATOM     76  C   UNL A   1      42.706  23.447  26.440  1.00  0.00     0.010 A 
ATOM     77  C   UNL A   1      41.939  21.316  28.083  1.00  0.00     0.020 A 
ATOM     78  C   UNL A   1      42.541  22.173  25.891  1.00  0.00     0.020 A 
ATOM     79  C   UNL A   1      42.175  21.111  26.720  1.00  0.00     0.054 A 
BRANCH  79  80
ATOM     80  S   UNL A   1      41.971  19.442  26.038  1.00  0.00     0.124 S 
ATOM     81  O   UNL A   1      40.534  19.392  25.785  1.00  0.00    -0.237 OA
ATOM     82  O   UNL A   1      42.823  19.481  24.852  1.00  0.00    -0.237 OA
ATOM     83  O   UNL A   1      42.448  18.573  27.111  1.00  0.00    -0.744 OA
ENDBRANCH  79  80
ENDBRANCH  51  74
BRANCH  63  84
ATOM     84  C   UNL A   1      47.960  27.003  30.559  1.00  0.00    -0.014 A 
ATOM     85  C   UNL A   1      49.001  27.238  29.644  1.00  0.00     0.010 A 
ATOM     86  C   UNL A   1      48.260  26.420  31.805  1.00  0.00     0.010 A 
ATOM     87  C   UNL A   1      50.312  26.873  29.961  1.00  0.00     0.020 A 
ATOM     88  C   UNL A   1      49.574  26.083  32.137  1.00  0.00     0.020 A 
ATOM     89  C   UNL A   1      50.591  26.301  31.206  1.00  0.00     0.054 A 
BRANCH  89  90
ATOM     90  S   UNL A   1      52.310  25.891  31.613  1.00  0.00     0.124 S 
ATOM     91  O   UNL A   1      52.965  26.006  30.314  1.00  0.00    -0.237 OA
ATOM     92  O   UNL A   1      52.662  26.921  32.588  1.00  0.00    -0.237 OA
ATOM     93  O   UNL A   1      52.226  24.535  32.150  1.00  0.00    -0.744 OA
ENDBRANCH  89  90
ENDBRANCH  63  84
ENDBRANCH  37  38
ENDBRANCH  29  32
ENDBRANCH  27  28
ENDBRANCH  26  27
ENDBRANCH   1  26
TORSDOF 18
ENDMDL
MODEL 2
REMARK VINA RESULT:     -10.2      2.732      3.634
REMARK SMILES CC(C)[C@@H]1C[NH2+]CCN1c1ccc(C(=O)NCCCCCCNC(=O)c2ccc(-c3c4nc(c(-c5ccc(S(=O)(=O)[O-])cc5)c5ccc([nH]5)c(-c5ccc(S(=O)(=O)[O-])cc5)c5nc(c(-c6ccc(S(=O)(=O)[O-])cc6)c6ccc3[nH]6)C=C5)C=C4)cc2)cc1
REMARK SMILES IDX 20 1 19 2 18 3 17 4 16 5 14 6 15 7 13 9 10 10 11 11 87 12
REMARK SMILES IDX 12 13 86 14 9 15 4 16 5 17 6 18 8 19 7 20 2 23 1 24 3 25
REMARK SMILES IDX 21 26 22 27 23 28 24 29 25 31 26 32 27 33 85 34 28 35 84 36
REMARK SMILES IDX 29 37 30 38 31 39 78 40 32 41 83 42 77 43 79 44 33 45 82 46
REMARK SMILES IDX 76 47 75 48 34 50 64 51 45 52 63 53 46 54 49 55 62 56 80 57
REMARK SMILES IDX 47 58 48 59 61 61 81 62 50 63 35 64 36 65 44 66 37 67 43 68
REMARK SMILES IDX 38 69 39 70 40 71 41 72 42 73 65 74 66 75 74 76 67 77 73 78
REMARK SMILES IDX 68 79 69 80 70 81 71 82 72 83 51 84 52 85 60 86 53 87 59 88
REMARK SMILES IDX 54 89 55 90 56 91 57 92 58 93
REMARK H PARENT 16 8 6 21 6 22 23 30 79 49 49 60
REMARK Flexibility Score: inf
ROOT
ATOM      1  C   UNL A   1      32.969  28.704  27.501  1.00  0.00     0.002 C 
ENDROOT
BRANCH   1   2
ATOM      2  C   UNL A   1      31.802  28.317  26.583  1.00  0.00     0.002 C 
BRANCH   2   3
ATOM      3  C   UNL A   1      31.743  29.089  25.257  1.00  0.00     0.021 C 
BRANCH   3   4
ATOM      4  C   UNL A   1      31.250  28.238  24.086  1.00  0.00     0.116 C 
BRANCH   4   5
ATOM      5  N   UNL A   1      32.202  28.317  22.991  1.00  0.00    -0.352 N 
ATOM      6  C   UNL A   1      33.296  27.554  22.682  1.00  0.00     0.251 C 
ATOM      7  O   UNL A   1      33.960  27.850  21.689  1.00  0.00    -0.269 OA
ATOM      8  H   UNL A   1      32.028  29.051  22.359  1.00  0.00     0.163 HD
BRANCH   6   9
ATOM      9  C   UNL A   1      33.633  26.327  23.443  1.00  0.00     0.039 A 
ATOM     10  C   UNL A   1      33.882  23.912  24.870  1.00  0.00     0.037 A 
ATOM     11  C   UNL A   1      33.464  23.915  23.536  1.00  0.00     0.027 A 
ATOM     12  C   UNL A   1      34.313  25.118  25.431  1.00  0.00     0.027 A 
ATOM     13  C   UNL A   1      33.336  25.108  22.826  1.00  0.00     0.016 A 
ATOM     14  C   UNL A   1      34.197  26.322  24.721  1.00  0.00     0.016 A 
BRANCH  10  15
ATOM     15  N   UNL A   1      33.876  22.719  25.560  1.00  0.00    -0.357 N 
ATOM     16  C   UNL A   1      34.887  21.636  25.389  1.00  0.00     0.140 C 
ATOM     17  C   UNL A   1      34.290  20.451  24.573  1.00  0.00     0.286 C 
ATOM     18  N   UNL A   1      32.996  19.960  25.110  1.00  0.00    -0.343 N 
ATOM     19  C   UNL A   1      32.547  22.272  26.015  1.00  0.00     0.178 C 
ATOM     20  C   UNL A   1      32.042  21.085  25.167  1.00  0.00     0.282 C 
ATOM     21  H   UNL A   1      33.135  19.582  26.047  1.00  0.00     0.346 HD
ATOM     22  H   UNL A   1      32.627  19.226  24.504  1.00  0.00     0.346 HD
BRANCH  16  23
ATOM     23  C   UNL A   1      36.326  22.072  24.968  1.00  0.00     0.011 C 
ATOM     24  C   UNL A   1      37.317  20.908  25.161  1.00  0.00     0.010 C 
ATOM     25  C   UNL A   1      36.509  22.589  23.538  1.00  0.00     0.010 C 
ENDBRANCH  16  23
ENDBRANCH  10  15
ENDBRANCH   6   9
ENDBRANCH   4   5
ENDBRANCH   3   4
ENDBRANCH   2   3
ENDBRANCH   1   2
BRANCH   1  26
ATOM     26  C   UNL A   1      34.182  29.297  26.782  1.00  0.00     0.021 C 
BRANCH  26  27
ATOM     27  C   UNL A   1      35.477  29.229  27.584  1.00  0.00     0.116 C 
BRANCH  27  28
ATOM     28  N   UNL A   1      35.360  29.929  28.854  1.00  0.00    -0.352 N 
ATOM     29  C   UNL A   1      36.315  30.124  29.823  1.00  0.00     0.251 C 
ATOM     30  H   UNL A   1      34.476  30.316  29.046  1.00  0.00     0.163 HD
ATOM     31  O   UNL A   1      35.994  30.532  30.933  1.00  0.00    -0.269 OA
BRANCH  29  32
ATOM     32  C   UNL A   1      37.729  29.822  29.517  1.00  0.00     0.039 A 
ATOM     33  C   UNL A   1      38.586  29.444  30.553  1.00  0.00     0.014 A 
ATOM     34  C   UNL A   1      38.204  29.913  28.206  1.00  0.00     0.014 A 
ATOM     35  C   UNL A   1      39.910  29.103  30.263  1.00  0.00     0.010 A 
ATOM     36  C   UNL A   1      39.498  29.501  27.910  1.00  0.00     0.010 A 
ATOM     37  C   UNL A   1      40.367  29.099  28.936  1.00  0.00    -0.014 A 
BRANCH  37  38
ATOM     38  C   UNL A   1      41.756  28.698  28.590  1.00  0.00     0.031 A 
ATOM     39  C   UNL A   1      42.840  29.741  28.531  1.00  0.00     0.074 A 
ATOM     40  C   UNL A   1      42.025  27.420  28.260  1.00  0.00     0.049 A 
ATOM     41  N   UNL A   1      44.083  29.617  28.143  1.00  0.00    -0.248 NA
ATOM     42  C   UNL A   1      42.472  31.109  28.935  1.00  0.00     0.031 C 
ATOM     43  C   UNL A   1      41.055  26.321  28.256  1.00  0.00     0.029 A 
ATOM     44  N   UNL A   1      43.194  26.829  27.849  1.00  0.00    -0.354 N 
ATOM     45  C   UNL A   1      44.638  30.888  28.239  1.00  0.00     0.074 A 
ATOM     46  C   UNL A   1      43.584  31.778  28.672  1.00  0.00     0.031 C 
ATOM     47  C   UNL A   1      41.674  25.189  27.883  1.00  0.00     0.029 A 
ATOM     48  C   UNL A   1      43.069  25.488  27.572  1.00  0.00     0.049 A 
ATOM     49  H   UNL A   1      44.044  27.320  27.762  1.00  0.00     0.167 HD
ATOM     50  C   UNL A   1      45.914  31.276  28.007  1.00  0.00     0.031 A 
ATOM     51  C   UNL A   1      43.970  24.601  27.104  1.00  0.00     0.031 A 
ATOM     52  C   UNL A   1      46.962  30.384  27.587  1.00  0.00     0.049 A 
ATOM     53  C   UNL A   1      45.375  25.064  26.824  1.00  0.00     0.074 A 
ATOM     54  C   UNL A   1      48.298  30.671  27.365  1.00  0.00     0.029 A 
ATOM     55  N   UNL A   1      46.795  29.032  27.328  1.00  0.00    -0.354 N 
ATOM     56  N   UNL A   1      45.892  26.261  26.965  1.00  0.00    -0.248 NA
ATOM     57  C   UNL A   1      46.321  24.054  26.330  1.00  0.00     0.031 C 
ATOM     58  C   UNL A   1      48.925  29.505  26.918  1.00  0.00     0.029 A 
ATOM     59  C   UNL A   1      47.997  28.476  26.929  1.00  0.00     0.049 A 
ATOM     60  H   UNL A   1      45.946  28.540  27.415  1.00  0.00     0.167 HD
ATOM     61  C   UNL A   1      47.233  26.138  26.619  1.00  0.00     0.074 A 
ATOM     62  C   UNL A   1      47.449  24.750  26.267  1.00  0.00     0.031 C 
ATOM     63  C   UNL A   1      48.200  27.088  26.598  1.00  0.00     0.031 A 
BRANCH  50  64
ATOM     64  C   UNL A   1      46.251  32.732  28.199  1.00  0.00    -0.014 A 
ATOM     65  C   UNL A   1      46.766  33.204  29.421  1.00  0.00     0.010 A 
ATOM     66  C   UNL A   1      46.106  33.631  27.126  1.00  0.00     0.010 A 
ATOM     67  C   UNL A   1      47.098  34.552  29.576  1.00  0.00     0.020 A 
ATOM     68  C   UNL A   1      46.466  34.974  27.268  1.00  0.00     0.020 A 
ATOM     69  C   UNL A   1      46.948  35.429  28.497  1.00  0.00     0.054 A 
BRANCH  69  70
ATOM     70  S   UNL A   1      47.424  37.165  28.717  1.00  0.00     0.124 S 
ATOM     71  O   UNL A   1      48.180  37.427  27.494  1.00  0.00    -0.237 OA
ATOM     72  O   UNL A   1      46.133  37.840  28.813  1.00  0.00    -0.237 OA
ATOM     73  O   UNL A   1      48.214  37.156  29.945  1.00  0.00    -0.744 OA
ENDBRANCH  69  70
ENDBRANCH  50  64
BRANCH  51  74
ATOM     74  C   UNL A   1      43.575  23.182  26.870  1.00  0.00    -0.014 A 
ATOM     75  C   UNL A   1      43.658  22.619  25.585  1.00  0.00     0.010 A 
ATOM     76  C   UNL A   1      43.102  22.390  27.932  1.00  0.00     0.010 A 
ATOM     77  C   UNL A   1      43.245  21.303  25.359  1.00  0.00     0.020 A 
ATOM     78  C   UNL A   1      42.721  21.063  27.718  1.00  0.00     0.020 A 
ATOM     79  C   UNL A   1      42.778  20.533  26.428  1.00  0.00     0.054 A 
BRANCH  79  80
ATOM     80  S   UNL A   1      42.273  18.818  26.117  1.00  0.00     0.124 S 
ATOM     81  O   UNL A   1      40.889  18.983  25.687  1.00  0.00    -0.237 OA
ATOM     82  O   UNL A   1      43.213  18.396  25.082  1.00  0.00    -0.237 OA
ATOM     83  O   UNL A   1      42.453  18.169  27.414  1.00  0.00    -0.744 OA
ENDBRANCH  79  80
ENDBRANCH  51  74
BRANCH  63  84
ATOM     84  C   UNL A   1      49.599  26.655  26.244  1.00  0.00    -0.014 A 
ATOM     85  C   UNL A   1      50.112  26.810  24.944  1.00  0.00     0.010 A 
ATOM     86  C   UNL A   1      50.437  26.150  27.256  1.00  0.00     0.010 A 
ATOM     87  C   UNL A   1      51.429  26.443  24.659  1.00  0.00     0.020 A 
ATOM     88  C   UNL A   1      51.764  25.810  26.981  1.00  0.00     0.020 A 
ATOM     89  C   UNL A   1      52.247  25.948  25.679  1.00  0.00     0.054 A 
BRANCH  89  90
ATOM     90  S   UNL A   1      53.970  25.533  25.293  1.00  0.00     0.124 S 
ATOM     91  O   UNL A   1      54.705  26.404  26.206  1.00  0.00    -0.237 OA
ATOM     92  O   UNL A   1      54.032  24.106  25.599  1.00  0.00    -0.237 OA
ATOM     93  O   UNL A   1      54.098  25.867  23.876  1.00  0.00    -0.744 OA
ENDBRANCH  89  90
ENDBRANCH  63  84
ENDBRANCH  37  38
ENDBRANCH  29  32
ENDBRANCH  27  28
ENDBRANCH  26  27
ENDBRANCH   1  26
TORSDOF 18
ENDMDL
MODEL 3
REMARK VINA RESULT:     -10.2      2.733      3.482
REMARK SMILES CC(C)[C@@H]1C[NH2+]CCN1c1ccc(C(=O)NCCCCCCNC(=O)c2ccc(-c3c4nc(c(-c5ccc(S(=O)(=O)[O-])cc5)c5ccc([nH]5)c(-c5ccc(S(=O)(=O)[O-])cc5)c5nc(c(-c6ccc(S(=O)(=O)[O-])cc6)c6ccc3[nH]6)C=C5)C=C4)cc2)cc1
REMARK SMILES IDX 20 1 19 2 18 3 17 4 16 5 14 6 15 7 13 9 10 10 11 11 87 12
REMARK SMILES IDX 12 13 86 14 9 15 4 16 5 17 6 18 8 19 7 20 2 23 1 24 3 25
REMARK SMILES IDX 21 26 22 27 23 28 24 29 25 31 26 32 27 33 85 34 28 35 84 36
REMARK SMILES IDX 29 37 30 38 31 39 78 40 32 41 83 42 77 43 79 44 33 45 82 46
REMARK SMILES IDX 76 47 75 48 34 50 64 51 45 52 63 53 46 54 49 55 62 56 80 57
REMARK SMILES IDX 47 58 48 59 61 61 81 62 50 63 35 64 36 65 44 66 37 67 43 68
REMARK SMILES IDX 38 69 39 70 40 71 41 72 42 73 65 74 66 75 74 76 67 77 73 78
REMARK SMILES IDX 68 79 69 80 70 81 71 82 72 83 51 84 52 85 60 86 53 87 59 88
REMARK SMILES IDX 54 89 55 90 56 91 57 92 58 93
REMARK H PARENT 16 8 6 21 6 22 23 30 79 49 49 60
REMARK Flexibility Score: inf
ROOT
ATOM      1  C   UNL A   1      31.570  27.725  26.205  1.00  0.00     0.002 C 
ENDROOT
BRANCH   1   2
ATOM      2  C   UNL A   1      30.624  27.151  25.142  1.00  0.00     0.002 C 
BRANCH   2   3
ATOM      3  C   UNL A   1      30.519  27.985  23.857  1.00  0.00     0.021 C 
BRANCH   3   4
ATOM      4  C   UNL A   1      30.610  27.144  22.583  1.00  0.00     0.116 C 
BRANCH   4   5
ATOM      5  N   UNL A   1      31.923  27.305  21.984  1.00  0.00    -0.352 N 
ATOM      6  C   UNL A   1      33.105  26.645  22.195  1.00  0.00     0.251 C 
ATOM      7  O   UNL A   1      34.098  26.996  21.559  1.00  0.00    -0.269 OA
ATOM      8  H   UNL A   1      31.973  28.017  21.306  1.00  0.00     0.163 HD
BRANCH   6   9
ATOM      9  C   UNL A   1      33.190  25.458  23.080  1.00  0.00     0.039 A 
ATOM     10  C   UNL A   1      33.749  23.256  24.744  1.00  0.00     0.037 A 
ATOM     11  C   UNL A   1      34.077  24.555  25.143  1.00  0.00     0.027 A 
ATOM     12  C   UNL A   1      33.007  23.091  23.570  1.00  0.00     0.027 A 
ATOM     13  C   UNL A   1      33.805  25.649  24.321  1.00  0.00     0.016 A 
ATOM     14  C   UNL A   1      32.721  24.187  22.742  1.00  0.00     0.016 A 
BRANCH  10  15
ATOM     15  N   UNL A   1      34.146  22.202  25.539  1.00  0.00    -0.357 N 
ATOM     16  C   UNL A   1      35.455  21.499  25.420  1.00  0.00     0.140 C 
ATOM     17  C   UNL A   1      35.271  20.108  24.742  1.00  0.00     0.286 C 
ATOM     18  N   UNL A   1      34.219  19.277  25.379  1.00  0.00    -0.343 N 
ATOM     19  C   UNL A   1      33.045  21.394  26.092  1.00  0.00     0.178 C 
ATOM     20  C   UNL A   1      32.949  20.027  25.377  1.00  0.00     0.282 C 
ATOM     21  H   UNL A   1      34.488  19.061  26.339  1.00  0.00     0.346 HD
ATOM     22  H   UNL A   1      34.105  18.406  24.859  1.00  0.00     0.346 HD
BRANCH  16  23
ATOM     23  C   UNL A   1      36.664  22.336  24.896  1.00  0.00     0.011 C 
ATOM     24  C   UNL A   1      37.993  21.653  25.271  1.00  0.00     0.010 C 
ATOM     25  C   UNL A   1      36.714  22.628  23.394  1.00  0.00     0.010 C 
ENDBRANCH  16  23
ENDBRANCH  10  15
ENDBRANCH   6   9
ENDBRANCH   4   5
ENDBRANCH   3   4
ENDBRANCH   2   3
ENDBRANCH   1   2
BRANCH   1  26
ATOM     26  C   UNL A   1      32.695  28.605  25.656  1.00  0.00     0.021 C 
BRANCH  26  27
ATOM     27  C   UNL A   1      33.663  29.113  26.717  1.00  0.00     0.116 C 
BRANCH  27  28
ATOM     28  N   UNL A   1      33.538  30.549  26.917  1.00  0.00    -0.352 N 
ATOM     29  C   UNL A   1      34.277  31.376  27.728  1.00  0.00     0.251 C 
ATOM     30  H   UNL A   1      32.825  30.989  26.400  1.00  0.00     0.163 HD
ATOM     31  O   UNL A   1      33.897  32.517  27.958  1.00  0.00    -0.269 OA
BRANCH  29  32
ATOM     32  C   UNL A   1      35.528  30.869  28.332  1.00  0.00     0.039 A 
ATOM     33  C   UNL A   1      36.741  31.477  28.001  1.00  0.00     0.014 A 
ATOM     34  C   UNL A   1      35.497  29.794  29.225  1.00  0.00     0.014 A 
ATOM     35  C   UNL A   1      37.920  31.040  28.611  1.00  0.00     0.010 A 
ATOM     36  C   UNL A   1      36.658  29.411  29.886  1.00  0.00     0.010 A 
ATOM     37  C   UNL A   1      37.883  30.025  29.581  1.00  0.00    -0.014 A 
BRANCH  37  38
ATOM     38  C   UNL A   1      39.112  29.569  30.280  1.00  0.00     0.031 A 
ATOM     39  C   UNL A   1      39.571  30.282  31.524  1.00  0.00     0.074 A 
ATOM     40  C   UNL A   1      39.852  28.569  29.760  1.00  0.00     0.049 A 
ATOM     41  N   UNL A   1      40.669  30.113  32.215  1.00  0.00    -0.248 NA
ATOM     42  C   UNL A   1      38.692  31.343  32.046  1.00  0.00     0.031 C 
ATOM     43  C   UNL A   1      39.526  27.816  28.546  1.00  0.00     0.029 A 
ATOM     44  N   UNL A   1      41.039  28.024  30.179  1.00  0.00    -0.354 N 
ATOM     45  C   UNL A   1      40.622  31.054  33.237  1.00  0.00     0.074 A 
ATOM     46  C   UNL A   1      39.413  31.825  33.048  1.00  0.00     0.031 C 
ATOM     47  C   UNL A   1      40.479  26.894  28.332  1.00  0.00     0.029 A 
ATOM     48  C   UNL A   1      41.508  27.022  29.360  1.00  0.00     0.049 A 
ATOM     49  H   UNL A   1      41.512  28.320  30.990  1.00  0.00     0.167 HD
ATOM     50  C   UNL A   1      41.495  31.246  34.254  1.00  0.00     0.031 A 
ATOM     51  C   UNL A   1      42.645  26.301  29.418  1.00  0.00     0.031 A 
ATOM     52  C   UNL A   1      42.691  30.468  34.445  1.00  0.00     0.049 A 
ATOM     53  C   UNL A   1      43.615  26.555  30.541  1.00  0.00     0.074 A 
ATOM     54  C   UNL A   1      43.619  30.557  35.467  1.00  0.00     0.029 A 
ATOM     55  N   UNL A   1      43.121  29.458  33.598  1.00  0.00    -0.354 N 
ATOM     56  N   UNL A   1      43.530  27.419  31.525  1.00  0.00    -0.248 NA
ATOM     57  C   UNL A   1      44.831  25.731  30.568  1.00  0.00     0.031 C 
ATOM     58  C   UNL A   1      44.641  29.639  35.208  1.00  0.00     0.029 A 
ATOM     59  C   UNL A   1      44.313  28.930  34.063  1.00  0.00     0.049 A 
ATOM     60  H   UNL A   1      42.650  29.160  32.787  1.00  0.00     0.167 HD
ATOM     61  C   UNL A   1      44.659  27.211  32.310  1.00  0.00     0.074 A 
ATOM     62  C   UNL A   1      45.408  26.138  31.691  1.00  0.00     0.031 C 
ATOM     63  C   UNL A   1      45.039  27.849  33.445  1.00  0.00     0.031 A 
BRANCH  50  64
ATOM     64  C   UNL A   1      41.193  32.344  35.240  1.00  0.00    -0.014 A 
ATOM     65  C   UNL A   1      40.492  32.079  36.431  1.00  0.00     0.010 A 
ATOM     66  C   UNL A   1      41.667  33.647  35.003  1.00  0.00     0.010 A 
ATOM     67  C   UNL A   1      40.241  33.102  37.349  1.00  0.00     0.020 A 
ATOM     68  C   UNL A   1      41.445  34.667  35.933  1.00  0.00     0.020 A 
ATOM     69  C   UNL A   1      40.722  34.390  37.094  1.00  0.00     0.054 A 
BRANCH  69  70
ATOM     70  S   UNL A   1      40.415  35.689  38.323  1.00  0.00     0.124 S 
ATOM     71  O   UNL A   1      41.754  35.912  38.866  1.00  0.00    -0.237 OA
ATOM     72  O   UNL A   1      39.878  36.776  37.510  1.00  0.00    -0.237 OA
ATOM     73  O   UNL A   1      39.465  35.076  39.247  1.00  0.00    -0.744 OA
ENDBRANCH  69  70
ENDBRANCH  50  64
BRANCH  51  74
ATOM     74  C   UNL A   1      42.931  25.266  28.384  1.00  0.00    -0.014 A 
ATOM     75  C   UNL A   1      42.449  23.954  28.532  1.00  0.00     0.010 A 
ATOM     76  C   UNL A   1      43.700  25.586  27.250  1.00  0.00     0.010 A 
ATOM     77  C   UNL A   1      42.757  22.973  27.585  1.00  0.00     0.020 A 
ATOM     78  C   UNL A   1      43.981  24.618  26.282  1.00  0.00     0.020 A 
ATOM     79  C   UNL A   1      43.522  23.312  26.465  1.00  0.00     0.054 A 
BRANCH  79  80
ATOM     80  S   UNL A   1      43.886  22.030  25.233  1.00  0.00     0.124 S 
ATOM     81  O   UNL A   1      42.859  21.034  25.519  1.00  0.00    -0.237 OA
ATOM     82  O   UNL A   1      43.734  22.754  23.973  1.00  0.00    -0.237 OA
ATOM     83  O   UNL A   1      45.255  21.630  25.552  1.00  0.00    -0.744 OA
ENDBRANCH  79  80
ENDBRANCH  51  74
BRANCH  63  84
ATOM     84  C   UNL A   1      46.289  27.368  34.133  1.00  0.00    -0.014 A 
ATOM     85  C   UNL A   1      46.258  26.317  35.067  1.00  0.00     0.010 A 
ATOM     86  C   UNL A   1      47.528  27.935  33.780  1.00  0.00     0.010 A 
ATOM     87  C   UNL A   1      47.442  25.861  35.653  1.00  0.00     0.020 A 
ATOM     88  C   UNL A   1      48.716  27.461  34.341  1.00  0.00     0.020 A 
ATOM     89  C   UNL A   1      48.663  26.434  35.284  1.00  0.00     0.054 A 
BRANCH  89  90
ATOM     90  S   UNL A   1      50.189  25.784  36.018  1.00  0.00     0.124 S 
ATOM     91  O   UNL A   1      51.108  26.907  35.853  1.00  0.00    -0.237 OA
ATOM     92  O   UNL A   1      49.786  25.497  37.392  1.00  0.00    -0.237 OA
ATOM     93  O   UNL A   1      50.492  24.608  35.205  1.00  0.00    -0.744 OA
ENDBRANCH  89  90
ENDBRANCH  63  84
ENDBRANCH  37  38
ENDBRANCH  29  32
ENDBRANCH  27  28
ENDBRANCH  26  27
ENDBRANCH   1  26
TORSDOF 18
ENDMDL
