MODEL 1
REMARK VINA RESULT:     -10.1      0.000      0.000
REMARK SMILES COc1cc([C@@H]2CC(=O)Nc3c(C(=O)NCCCCCCNC(=O)c4ccc(-c5c6nc(c(-c7ccc(S(=O)(=O)[O-])cc7)c7ccc([nH]7)c(-c7ccc(S(=O)(=O)[O-])cc7)c7nc(c(-c8ccc(S(=O)(=O)[O-])cc8)c8ccc5[nH]8)C=C7)C=C6)cc4)cn(-c4ccc(F)cc4)c32)c(OC)c2c1OCO2
REMARK SMILES IDX 19 1 18 2 17 3 16 4 15 5 13 6 14 7 12 9 6 10 7 11 94 12 8 13
REMARK SMILES IDX 11 14 86 15 9 16 10 17 85 18 5 20 3 21 4 22 99 23 98 24
REMARK SMILES IDX 100 25 95 26 102 27 101 28 2 29 1 30 96 31 97 32 87 33 88 34
REMARK SMILES IDX 93 35 89 36 92 37 90 38 91 39 20 40 21 41 22 42 23 43 24 45
REMARK SMILES IDX 25 46 26 47 84 48 27 49 83 50 28 51 29 52 30 53 77 54 31 55
REMARK SMILES IDX 82 56 76 57 78 58 32 59 81 60 75 61 74 62 33 64 63 65 44 66
REMARK SMILES IDX 62 67 45 68 48 69 61 70 79 71 46 72 47 73 60 75 80 76 49 77
REMARK SMILES IDX 34 78 35 79 43 80 36 81 42 82 37 83 38 84 39 85 40 86 41 87
REMARK SMILES IDX 64 88 65 89 73 90 66 91 72 92 67 93 68 94 69 95 70 96 71 97
REMARK SMILES IDX 50 98 51 99 59 100 52 101 58 102 53 103 54 104 55 105 56 106
REMARK SMILES IDX 57 107
REMARK H PARENT 15 8 10 19 22 44 78 63 48 74
REMARK Flexibility Score: inf
ROOT
ATOM      1  C   UNL A   1      37.509  32.415  29.537  1.00  0.00     0.002 C 
ENDROOT
BRANCH   1   2
ATOM      2  C   UNL A   1      37.756  31.188  28.647  1.00  0.00     0.002 C 
BRANCH   2   3
ATOM      3  C   UNL A   1      38.441  30.016  29.350  1.00  0.00     0.021 C 
BRANCH   3   4
ATOM      4  C   UNL A   1      38.675  28.803  28.447  1.00  0.00     0.116 C 
BRANCH   4   5
ATOM      5  N   UNL A   1      39.608  29.127  27.397  1.00  0.00    -0.352 N 
ATOM      6  C   UNL A   1      40.688  28.455  26.888  1.00  0.00     0.254 C 
ATOM      7  O   UNL A   1      41.240  28.987  25.921  1.00  0.00    -0.269 OA
ATOM      8  H   UNL A   1      39.438  29.995  26.964  1.00  0.00     0.163 HD
BRANCH   6   9
ATOM      9  C   UNL A   1      41.120  27.140  27.370  1.00  0.00     0.081 A 
ATOM     10  C   UNL A   1      41.598  23.453  27.695  1.00  0.00     0.082 C 
ATOM     11  C   UNL A   1      40.129  23.022  27.550  1.00  0.00     0.115 C 
ATOM     12  C   UNL A   1      41.662  24.952  27.758  1.00  0.00     0.055 A 
ATOM     13  C   UNL A   1      39.356  23.882  26.573  1.00  0.00     0.225 C 
ATOM     14  C   UNL A   1      40.710  25.788  27.201  1.00  0.00     0.076 A 
ATOM     15  N   UNL A   1      42.447  25.734  28.577  1.00  0.00    -0.317 N 
ATOM     16  O   UNL A   1      38.461  23.434  25.856  1.00  0.00    -0.275 OA
ATOM     17  N   UNL A   1      39.603  25.230  26.604  1.00  0.00    -0.324 N 
ATOM     18  C   UNL A   1      42.141  27.049  28.310  1.00  0.00     0.107 A 
ATOM     19  H   UNL A   1      38.952  25.832  26.177  1.00  0.00     0.170 HD
BRANCH  10  20
ATOM     20  C   UNL A   1      42.434  22.743  26.616  1.00  0.00     0.012 A 
ATOM     21  C   UNL A   1      44.261  23.089  24.981  1.00  0.00     0.165 A 
ATOM     22  C   UNL A   1      43.289  23.589  25.852  1.00  0.00     0.059 A 
ATOM     23  C   UNL A   1      44.404  21.720  24.914  1.00  0.00     0.211 A 
ATOM     24  C   UNL A   1      43.572  20.873  25.624  1.00  0.00     0.211 A 
ATOM     25  O   UNL A   1      45.353  21.033  24.214  1.00  0.00    -0.449 OA
ATOM     26  C   UNL A   1      42.566  21.343  26.470  1.00  0.00     0.168 A 
ATOM     27  O   UNL A   1      43.902  19.564  25.401  1.00  0.00    -0.449 OA
ATOM     28  C   UNL A   1      45.139  19.698  24.691  1.00  0.00     0.468 C 
BRANCH  21  29
ATOM     29  O   UNL A   1      45.020  24.033  24.354  1.00  0.00    -0.493 OA
ATOM     30  C   UNL A   1      46.212  24.412  25.027  1.00  0.00     0.278 C 
ENDBRANCH  21  29
BRANCH  26  31
ATOM     31  O   UNL A   1      41.713  20.549  27.182  1.00  0.00    -0.492 OA
ATOM     32  C   UNL A   1      40.762  19.782  26.455  1.00  0.00     0.278 C 
ENDBRANCH  26  31
ENDBRANCH  10  20
BRANCH  15  33
ATOM     33  C   UNL A   1      43.298  25.315  29.626  1.00  0.00     0.046 A 
ATOM     34  C   UNL A   1      43.528  23.957  29.861  1.00  0.00     0.029 A 
ATOM     35  C   UNL A   1      43.868  26.291  30.458  1.00  0.00     0.029 A 
ATOM     36  C   UNL A   1      44.316  23.576  30.947  1.00  0.00     0.041 A 
ATOM     37  C   UNL A   1      44.631  25.900  31.557  1.00  0.00     0.041 A 
ATOM     38  C   UNL A   1      44.848  24.546  31.791  1.00  0.00     0.123 A 
ATOM     39  F   UNL A   1      45.583  24.170  32.846  1.00  0.00    -0.207 F 
ENDBRANCH  15  33
ENDBRANCH   6   9
ENDBRANCH   4   5
ENDBRANCH   3   4
ENDBRANCH   2   3
ENDBRANCH   1   2
BRANCH   1  40
ATOM     40  C   UNL A   1      36.053  32.900  29.625  1.00  0.00     0.021 C 
BRANCH  40  41
ATOM     41  C   UNL A   1      35.130  31.909  30.320  1.00  0.00     0.116 C 
BRANCH  41  42
ATOM     42  N   UNL A   1      34.263  32.582  31.284  1.00  0.00    -0.352 N 
ATOM     43  C   UNL A   1      34.553  33.006  32.562  1.00  0.00     0.251 C 
ATOM     44  H   UNL A   1      33.344  32.757  30.978  1.00  0.00     0.163 HD
ATOM     45  O   UNL A   1      33.653  33.244  33.351  1.00  0.00    -0.269 OA
BRANCH  43  46
ATOM     46  C   UNL A   1      35.963  33.156  32.961  1.00  0.00     0.039 A 
ATOM     47  C   UNL A   1      36.670  32.063  33.469  1.00  0.00     0.014 A 
ATOM     48  C   UNL A   1      36.578  34.397  32.808  1.00  0.00     0.014 A 
ATOM     49  C   UNL A   1      38.026  32.209  33.748  1.00  0.00     0.010 A 
ATOM     50  C   UNL A   1      37.939  34.510  32.975  1.00  0.00     0.010 A 
ATOM     51  C   UNL A   1      38.663  33.430  33.478  1.00  0.00    -0.014 A 
BRANCH  51  52
ATOM     52  C   UNL A   1      40.114  33.543  33.598  1.00  0.00     0.031 A 
ATOM     53  C   UNL A   1      40.893  32.669  32.676  1.00  0.00     0.074 A 
ATOM     54  C   UNL A   1      40.727  34.516  34.306  1.00  0.00     0.049 A 
ATOM     55  N   UNL A   1      41.679  31.690  32.982  1.00  0.00    -0.248 NA
ATOM     56  C   UNL A   1      40.682  32.832  31.227  1.00  0.00     0.031 C 
ATOM     57  C   UNL A   1      40.113  35.650  35.006  1.00  0.00     0.029 A 
ATOM     58  N   UNL A   1      42.058  34.770  34.434  1.00  0.00    -0.354 N 
ATOM     59  C   UNL A   1      42.225  31.245  31.782  1.00  0.00     0.074 A 
ATOM     60  C   UNL A   1      41.453  31.862  30.733  1.00  0.00     0.031 C 
ATOM     61  C   UNL A   1      41.053  36.586  35.258  1.00  0.00     0.029 A 
ATOM     62  C   UNL A   1      42.352  36.044  34.905  1.00  0.00     0.049 A 
ATOM     63  H   UNL A   1      42.752  34.108  34.213  1.00  0.00     0.167 HD
ATOM     64  C   UNL A   1      43.419  30.587  31.733  1.00  0.00     0.031 A 
ATOM     65  C   UNL A   1      43.574  36.627  34.971  1.00  0.00     0.031 A 
ATOM     66  C   UNL A   1      43.835  30.133  33.033  1.00  0.00     0.049 A 
ATOM     67  C   UNL A   1      44.578  35.537  34.938  1.00  0.00     0.074 A 
ATOM     68  C   UNL A   1      43.299  29.293  33.989  1.00  0.00     0.029 A 
ATOM     69  N   UNL A   1      44.788  30.884  33.683  1.00  0.00    -0.354 N 
ATOM     70  N   UNL A   1      44.704  34.651  35.886  1.00  0.00    -0.248 NA
ATOM     71  C   UNL A   1      45.155  35.165  33.658  1.00  0.00     0.031 C 
ATOM     72  C   UNL A   1      43.600  29.917  35.236  1.00  0.00     0.029 A 
ATOM     73  C   UNL A   1      44.363  31.058  34.976  1.00  0.00     0.049 A 
ATOM     74  H   UNL A   1      45.621  31.233  33.291  1.00  0.00     0.167 HD
ATOM     75  C   UNL A   1      44.970  33.461  35.225  1.00  0.00     0.074 A 
ATOM     76  C   UNL A   1      45.349  33.861  33.872  1.00  0.00     0.031 C 
ATOM     77  C   UNL A   1      44.593  32.258  35.755  1.00  0.00     0.031 A 
BRANCH  64  78
ATOM     78  C   UNL A   1      44.388  30.698  30.579  1.00  0.00    -0.014 A 
ATOM     79  C   UNL A   1      44.980  31.945  30.292  1.00  0.00     0.010 A 
ATOM     80  C   UNL A   1      44.528  29.687  29.605  1.00  0.00     0.010 A 
ATOM     81  C   UNL A   1      45.627  32.181  29.070  1.00  0.00     0.020 A 
ATOM     82  C   UNL A   1      45.209  29.897  28.405  1.00  0.00     0.020 A 
ATOM     83  C   UNL A   1      45.726  31.155  28.129  1.00  0.00     0.054 A 
BRANCH  83  84
ATOM     84  S   UNL A   1      46.476  31.493  26.517  1.00  0.00     0.124 S 
ATOM     85  O   UNL A   1      45.334  31.986  25.753  1.00  0.00    -0.237 OA
ATOM     86  O   UNL A   1      47.493  32.486  26.850  1.00  0.00    -0.237 OA
ATOM     87  O   UNL A   1      46.995  30.192  26.102  1.00  0.00    -0.744 OA
ENDBRANCH  83  84
ENDBRANCH  64  78
BRANCH  65  88
ATOM     88  C   UNL A   1      43.923  38.053  34.764  1.00  0.00    -0.014 A 
ATOM     89  C   UNL A   1      43.442  38.762  33.648  1.00  0.00     0.010 A 
ATOM     90  C   UNL A   1      44.495  38.798  35.817  1.00  0.00     0.010 A 
ATOM     91  C   UNL A   1      43.468  40.167  33.618  1.00  0.00     0.020 A 
ATOM     92  C   UNL A   1      44.531  40.197  35.791  1.00  0.00     0.020 A 
ATOM     93  C   UNL A   1      43.992  40.877  34.701  1.00  0.00     0.054 A 
BRANCH  93  94
ATOM     94  S   UNL A   1      43.844  42.689  34.740  1.00  0.00     0.124 S 
ATOM     95  O   UNL A   1      44.707  43.095  33.635  1.00  0.00    -0.237 OA
ATOM     96  O   UNL A   1      42.413  42.895  34.534  1.00  0.00    -0.237 OA
ATOM     97  O   UNL A   1      44.332  43.045  36.071  1.00  0.00    -0.744 OA
ENDBRANCH  93  94
ENDBRANCH  65  88
BRANCH  77  98
ATOM     98  C   UNL A   1      44.151  32.215  37.203  1.00  0.00    -0.014 A 
ATOM     99  C   UNL A   1      42.873  32.606  37.649  1.00  0.00     0.010 A 
ATOM    100  C   UNL A   1      45.023  31.616  38.127  1.00  0.00     0.010 A 
ATOM    101  C   UNL A   1      42.493  32.429  38.988  1.00  0.00     0.020 A 
ATOM    102  C   UNL A   1      44.645  31.418  39.457  1.00  0.00     0.020 A 
ATOM    103  C   UNL A   1      43.385  31.835  39.886  1.00  0.00     0.054 A 
BRANCH 103 104
ATOM    104  S   UNL A   1      42.878  31.567  41.610  1.00  0.00     0.124 S 
ATOM    105  O   UNL A   1      41.443  31.330  41.485  1.00  0.00    -0.237 OA
ATOM    106  O   UNL A   1      43.676  30.410  42.007  1.00  0.00    -0.237 OA
ATOM    107  O   UNL A   1      43.242  32.817  42.277  1.00  0.00    -0.744 OA
ENDBRANCH 103 104
ENDBRANCH  77  98
ENDBRANCH  51  52
ENDBRANCH  43  46
ENDBRANCH  41  42
ENDBRANCH  40  41
ENDBRANCH   1  40
TORSDOF 20
ENDMDL
MODEL 2
REMARK VINA RESULT:     -10.0      3.552      8.000
REMARK SMILES COc1cc([C@@H]2CC(=O)Nc3c(C(=O)NCCCCCCNC(=O)c4ccc(-c5c6nc(c(-c7ccc(S(=O)(=O)[O-])cc7)c7ccc([nH]7)c(-c7ccc(S(=O)(=O)[O-])cc7)c7nc(c(-c8ccc(S(=O)(=O)[O-])cc8)c8ccc5[nH]8)C=C7)C=C6)cc4)cn(-c4ccc(F)cc4)c32)c(OC)c2c1OCO2
REMARK SMILES IDX 19 1 18 2 17 3 16 4 15 5 13 6 14 7 12 9 6 10 7 11 94 12 8 13
REMARK SMILES IDX 11 14 86 15 9 16 10 17 85 18 5 20 3 21 4 22 99 23 98 24
REMARK SMILES IDX 100 25 95 26 102 27 101 28 2 29 1 30 96 31 97 32 87 33 88 34
REMARK SMILES IDX 93 35 89 36 92 37 90 38 91 39 20 40 21 41 22 42 23 43 24 45
REMARK SMILES IDX 25 46 26 47 84 48 27 49 83 50 28 51 29 52 30 53 77 54 31 55
REMARK SMILES IDX 82 56 76 57 78 58 32 59 81 60 75 61 74 62 33 64 63 65 44 66
REMARK SMILES IDX 62 67 45 68 48 69 61 70 79 71 46 72 47 73 60 75 80 76 49 77
REMARK SMILES IDX 34 78 35 79 43 80 36 81 42 82 37 83 38 84 39 85 40 86 41 87
REMARK SMILES IDX 64 88 65 89 73 90 66 91 72 92 67 93 68 94 69 95 70 96 71 97
REMARK SMILES IDX 50 98 51 99 59 100 52 101 58 102 53 103 54 104 55 105 56 106
REMARK SMILES IDX 57 107
REMARK H PARENT 15 8 10 19 22 44 78 63 48 74
REMARK Flexibility Score: inf
ROOT
ATOM      1  C   UNL A   1      47.010  35.022  30.484  1.00  0.00     0.002 C 
ENDROOT
BRANCH   1   2
ATOM      2  C   UNL A   1      46.394  34.200  29.343  1.00  0.00     0.002 C 
BRANCH   2   3
ATOM      3  C   UNL A   1      45.325  33.199  29.780  1.00  0.00     0.021 C 
BRANCH   3   4
ATOM      4  C   UNL A   1      44.220  32.981  28.743  1.00  0.00     0.116 C 
BRANCH   4   5
ATOM      5  N   UNL A   1      44.786  32.799  27.431  1.00  0.00    -0.352 N 
ATOM      6  C   UNL A   1      45.187  31.681  26.749  1.00  0.00     0.254 C 
ATOM      7  O   UNL A   1      45.567  31.869  25.590  1.00  0.00    -0.269 OA
ATOM      8  H   UNL A   1      44.908  33.638  26.928  1.00  0.00     0.163 HD
BRANCH   6   9
ATOM      9  C   UNL A   1      45.088  30.325  27.297  1.00  0.00     0.081 A 
ATOM     10  C   UNL A   1      44.090  26.768  27.823  1.00  0.00     0.082 C 
ATOM     11  C   UNL A   1      42.565  26.947  27.737  1.00  0.00     0.115 C 
ATOM     12  C   UNL A   1      44.741  28.120  27.798  1.00  0.00     0.055 A 
ATOM     13  C   UNL A   1      42.150  27.999  26.731  1.00  0.00     0.225 C 
ATOM     14  C   UNL A   1      44.172  29.240  27.215  1.00  0.00     0.076 A 
ATOM     15  N   UNL A   1      45.807  28.563  28.551  1.00  0.00    -0.317 N 
ATOM     16  O   UNL A   1      41.120  27.910  26.063  1.00  0.00    -0.275 OA
ATOM     17  N   UNL A   1      42.909  29.140  26.679  1.00  0.00    -0.324 N 
ATOM     18  C   UNL A   1      46.032  29.879  28.216  1.00  0.00     0.107 A 
ATOM     19  H   UNL A   1      42.530  29.930  26.233  1.00  0.00     0.170 HD
BRANCH  10  20
ATOM     20  C   UNL A   1      44.531  25.739  26.767  1.00  0.00     0.012 A 
ATOM     21  C   UNL A   1      46.160  25.344  24.945  1.00  0.00     0.165 A 
ATOM     22  C   UNL A   1      45.502  26.200  25.833  1.00  0.00     0.059 A 
ATOM     23  C   UNL A   1      45.868  23.999  25.032  1.00  0.00     0.211 A 
ATOM     24  C   UNL A   1      44.911  23.525  25.910  1.00  0.00     0.211 A 
ATOM     25  O   UNL A   1      46.468  22.989  24.337  1.00  0.00    -0.449 OA
ATOM     26  C   UNL A   1      44.209  24.361  26.780  1.00  0.00     0.168 A 
ATOM     27  O   UNL A   1      44.796  22.165  25.819  1.00  0.00    -0.449 OA
ATOM     28  C   UNL A   1      45.917  21.838  24.990  1.00  0.00     0.468 C 
BRANCH  21  29
ATOM     29  O   UNL A   1      47.087  25.940  24.143  1.00  0.00    -0.493 OA
ATOM     30  C   UNL A   1      47.286  27.331  24.359  1.00  0.00     0.278 C 
ENDBRANCH  21  29
BRANCH  26  31
ATOM     31  O   UNL A   1      43.248  23.944  27.656  1.00  0.00    -0.492 OA
ATOM     32  C   UNL A   1      43.668  23.523  28.948  1.00  0.00     0.278 C 
ENDBRANCH  26  31
ENDBRANCH  10  20
BRANCH  15  33
ATOM     33  C   UNL A   1      46.471  27.888  29.601  1.00  0.00     0.046 A 
ATOM     34  C   UNL A   1      46.691  28.517  30.830  1.00  0.00     0.029 A 
ATOM     35  C   UNL A   1      46.949  26.589  29.368  1.00  0.00     0.029 A 
ATOM     36  C   UNL A   1      47.410  27.849  31.820  1.00  0.00     0.041 A 
ATOM     37  C   UNL A   1      47.692  25.940  30.353  1.00  0.00     0.041 A 
ATOM     38  C   UNL A   1      47.914  26.575  31.570  1.00  0.00     0.123 A 
ATOM     39  F   UNL A   1      48.626  25.951  32.518  1.00  0.00    -0.207 F 
ENDBRANCH  15  33
ENDBRANCH   6   9
ENDBRANCH   4   5
ENDBRANCH   3   4
ENDBRANCH   2   3
ENDBRANCH   1   2
BRANCH   1  40
ATOM     40  C   UNL A   1      47.537  36.414  30.104  1.00  0.00     0.021 C 
BRANCH  40  41
ATOM     41  C   UNL A   1      46.558  37.218  29.259  1.00  0.00     0.116 C 
BRANCH  41  42
ATOM     42  N   UNL A   1      46.018  38.349  30.010  1.00  0.00    -0.352 N 
ATOM     43  C   UNL A   1      44.858  38.424  30.748  1.00  0.00     0.251 C 
ATOM     44  H   UNL A   1      46.558  39.171  29.984  1.00  0.00     0.163 HD
ATOM     45  O   UNL A   1      44.380  39.510  31.035  1.00  0.00    -0.269 OA
BRANCH  43  46
ATOM     46  C   UNL A   1      44.202  37.176  31.175  1.00  0.00     0.039 A 
ATOM     47  C   UNL A   1      44.368  36.704  32.479  1.00  0.00     0.014 A 
ATOM     48  C   UNL A   1      43.405  36.488  30.261  1.00  0.00     0.014 A 
ATOM     49  C   UNL A   1      43.662  35.574  32.881  1.00  0.00     0.010 A 
ATOM     50  C   UNL A   1      42.622  35.442  30.691  1.00  0.00     0.010 A 
ATOM     51  C   UNL A   1      42.771  34.958  31.989  1.00  0.00    -0.014 A 
BRANCH  51  52
ATOM     52  C   UNL A   1      41.895  33.885  32.452  1.00  0.00     0.031 A 
ATOM     53  C   UNL A   1      42.376  32.506  32.154  1.00  0.00     0.074 A 
ATOM     54  C   UNL A   1      40.855  34.084  33.289  1.00  0.00     0.049 A 
ATOM     55  N   UNL A   1      41.832  31.624  31.382  1.00  0.00    -0.248 NA
ATOM     56  C   UNL A   1      43.686  32.100  32.690  1.00  0.00     0.031 C 
ATOM     57  C   UNL A   1      40.441  35.333  33.939  1.00  0.00     0.029 A 
ATOM     58  N   UNL A   1      40.017  33.166  33.845  1.00  0.00    -0.354 N 
ATOM     59  C   UNL A   1      42.613  30.478  31.496  1.00  0.00     0.074 A 
ATOM     60  C   UNL A   1      43.823  30.879  32.169  1.00  0.00     0.031 C 
ATOM     61  C   UNL A   1      39.617  35.053  34.971  1.00  0.00     0.029 A 
ATOM     62  C   UNL A   1      39.304  33.637  34.941  1.00  0.00     0.049 A 
ATOM     63  H   UNL A   1      39.925  32.249  33.500  1.00  0.00     0.167 HD
ATOM     64  C   UNL A   1      42.114  29.235  31.238  1.00  0.00     0.031 A 
ATOM     65  C   UNL A   1      38.534  32.908  35.787  1.00  0.00     0.031 A 
ATOM     66  C   UNL A   1      40.858  29.297  30.538  1.00  0.00     0.049 A 
ATOM     67  C   UNL A   1      38.175  31.657  35.078  1.00  0.00     0.074 A 
ATOM     68  C   UNL A   1      40.441  29.822  29.331  1.00  0.00     0.029 A 
ATOM     69  N   UNL A   1      39.716  29.109  31.283  1.00  0.00    -0.354 N 
ATOM     70  N   UNL A   1      37.424  31.626  34.014  1.00  0.00    -0.248 NA
ATOM     71  C   UNL A   1      39.000  30.479  35.291  1.00  0.00     0.031 C 
ATOM     72  C   UNL A   1      39.153  30.375  29.598  1.00  0.00     0.029 A 
ATOM     73  C   UNL A   1      38.827  30.091  30.927  1.00  0.00     0.049 A 
ATOM     74  H   UNL A   1      39.566  28.401  31.949  1.00  0.00     0.167 HD
ATOM     75  C   UNL A   1      37.993  30.653  33.206  1.00  0.00     0.074 A 
ATOM     76  C   UNL A   1      38.884  29.906  34.091  1.00  0.00     0.031 C 
ATOM     77  C   UNL A   1      37.898  30.721  31.843  1.00  0.00     0.031 A 
BRANCH  64  78
ATOM     78  C   UNL A   1      42.564  27.987  31.959  1.00  0.00    -0.014 A 
ATOM     79  C   UNL A   1      42.248  27.826  33.325  1.00  0.00     0.010 A 
ATOM     80  C   UNL A   1      43.515  27.097  31.417  1.00  0.00     0.010 A 
ATOM     81  C   UNL A   1      42.893  26.863  34.114  1.00  0.00     0.020 A 
ATOM     82  C   UNL A   1      44.130  26.105  32.183  1.00  0.00     0.020 A 
ATOM     83  C   UNL A   1      43.841  26.016  33.537  1.00  0.00     0.054 A 
BRANCH  83  84
ATOM     84  S   UNL A   1      44.739  24.841  34.580  1.00  0.00     0.124 S 
ATOM     85  O   UNL A   1      44.385  23.564  33.967  1.00  0.00    -0.237 OA
ATOM     86  O   UNL A   1      46.125  25.267  34.404  1.00  0.00    -0.237 OA
ATOM     87  O   UNL A   1      44.186  25.073  35.912  1.00  0.00    -0.744 OA
ENDBRANCH  83  84
ENDBRANCH  64  78
BRANCH  65  88
ATOM     88  C   UNL A   1      38.344  33.094  37.245  1.00  0.00    -0.014 A 
ATOM     89  C   UNL A   1      37.098  32.847  37.851  1.00  0.00     0.010 A 
ATOM     90  C   UNL A   1      39.465  33.240  38.089  1.00  0.00     0.010 A 
ATOM     91  C   UNL A   1      36.991  32.681  39.242  1.00  0.00     0.020 A 
ATOM     92  C   UNL A   1      39.365  33.083  39.476  1.00  0.00     0.020 A 
ATOM     93  C   UNL A   1      38.131  32.777  40.045  1.00  0.00     0.054 A 
BRANCH  93  94
ATOM     94  S   UNL A   1      38.018  32.368  41.813  1.00  0.00     0.124 S 
ATOM     95  O   UNL A   1      39.235  32.968  42.349  1.00  0.00    -0.237 OA
ATOM     96  O   UNL A   1      36.768  33.011  42.208  1.00  0.00    -0.237 OA
ATOM     97  O   UNL A   1      37.990  30.907  41.826  1.00  0.00    -0.744 OA
ENDBRANCH  93  94
ENDBRANCH  65  88
BRANCH  77  98
ATOM     98  C   UNL A   1      36.914  31.700  31.237  1.00  0.00    -0.014 A 
ATOM     99  C   UNL A   1      37.211  33.053  30.975  1.00  0.00     0.010 A 
ATOM    100  C   UNL A   1      35.688  31.188  30.783  1.00  0.00     0.010 A 
ATOM    101  C   UNL A   1      36.290  33.874  30.304  1.00  0.00     0.020 A 
ATOM    102  C   UNL A   1      34.776  31.993  30.096  1.00  0.00     0.020 A 
ATOM    103  C   UNL A   1      35.076  33.336  29.868  1.00  0.00     0.054 A 
BRANCH 103 104
ATOM    104  S   UNL A   1      33.902  34.386  28.963  1.00  0.00     0.124 S 
ATOM    105  O   UNL A   1      33.320  33.456  28.000  1.00  0.00    -0.237 OA
ATOM    106  O   UNL A   1      33.001  34.849  30.016  1.00  0.00    -0.237 OA
ATOM    107  O   UNL A   1      34.746  35.429  28.382  1.00  0.00    -0.744 OA
ENDBRANCH 103 104
ENDBRANCH  77  98
ENDBRANCH  51  52
ENDBRANCH  43  46
ENDBRANCH  41  42
ENDBRANCH  40  41
ENDBRANCH   1  40
TORSDOF 20
ENDMDL
MODEL 3
REMARK VINA RESULT:     -10.0      2.735      8.080
REMARK SMILES COc1cc([C@@H]2CC(=O)Nc3c(C(=O)NCCCCCCNC(=O)c4ccc(-c5c6nc(c(-c7ccc(S(=O)(=O)[O-])cc7)c7ccc([nH]7)c(-c7ccc(S(=O)(=O)[O-])cc7)c7nc(c(-c8ccc(S(=O)(=O)[O-])cc8)c8ccc5[nH]8)C=C7)C=C6)cc4)cn(-c4ccc(F)cc4)c32)c(OC)c2c1OCO2
REMARK SMILES IDX 19 1 18 2 17 3 16 4 15 5 13 6 14 7 12 9 6 10 7 11 94 12 8 13
REMARK SMILES IDX 11 14 86 15 9 16 10 17 85 18 5 20 3 21 4 22 99 23 98 24
REMARK SMILES IDX 100 25 95 26 102 27 101 28 2 29 1 30 96 31 97 32 87 33 88 34
REMARK SMILES IDX 93 35 89 36 92 37 90 38 91 39 20 40 21 41 22 42 23 43 24 45
REMARK SMILES IDX 25 46 26 47 84 48 27 49 83 50 28 51 29 52 30 53 77 54 31 55
REMARK SMILES IDX 82 56 76 57 78 58 32 59 81 60 75 61 74 62 33 64 63 65 44 66
REMARK SMILES IDX 62 67 45 68 48 69 61 70 79 71 46 72 47 73 60 75 80 76 49 77
REMARK SMILES IDX 34 78 35 79 43 80 36 81 42 82 37 83 38 84 39 85 40 86 41 87
REMARK SMILES IDX 64 88 65 89 73 90 66 91 72 92 67 93 68 94 69 95 70 96 71 97
REMARK SMILES IDX 50 98 51 99 59 100 52 101 58 102 53 103 54 104 55 105 56 106
REMARK SMILES IDX 57 107
REMARK H PARENT 15 8 10 19 22 44 78 63 48 74
REMARK Flexibility Score: inf
ROOT
ATOM      1  C   UNL A   1      37.435  31.232  28.792  1.00  0.00     0.002 C 
ENDROOT
BRANCH   1   2
ATOM      2  C   UNL A   1      37.427  29.698  28.849  1.00  0.00     0.002 C 
BRANCH   2   3
ATOM      3  C   UNL A   1      38.065  29.010  27.643  1.00  0.00     0.021 C 
BRANCH   3   4
ATOM      4  C   UNL A   1      39.535  28.633  27.850  1.00  0.00     0.116 C 
BRANCH   4   5
ATOM      5  N   UNL A   1      40.322  29.020  26.706  1.00  0.00    -0.352 N 
ATOM      6  C   UNL A   1      41.468  28.503  26.163  1.00  0.00     0.254 C 
ATOM      7  O   UNL A   1      41.850  29.034  25.117  1.00  0.00    -0.269 OA
ATOM      8  H   UNL A   1      39.970  29.803  26.224  1.00  0.00     0.163 HD
BRANCH   6   9
ATOM      9  C   UNL A   1      42.161  27.332  26.707  1.00  0.00     0.081 A 
ATOM     10  C   UNL A   1      42.988  23.826  27.685  1.00  0.00     0.082 C 
ATOM     11  C   UNL A   1      41.645  23.451  28.332  1.00  0.00     0.115 C 
ATOM     12  C   UNL A   1      42.970  25.287  27.337  1.00  0.00     0.055 A 
ATOM     13  C   UNL A   1      40.457  24.075  27.632  1.00  0.00     0.225 C 
ATOM     14  C   UNL A   1      41.814  26.004  27.083  1.00  0.00     0.076 A 
ATOM     15  N   UNL A   1      43.984  26.208  27.488  1.00  0.00    -0.317 N 
ATOM     16  O   UNL A   1      39.369  23.509  27.535  1.00  0.00    -0.275 OA
ATOM     17  N   UNL A   1      40.598  25.373  27.213  1.00  0.00    -0.324 N 
ATOM     18  C   UNL A   1      43.500  27.427  27.071  1.00  0.00     0.107 A 
ATOM     19  H   UNL A   1      39.785  25.881  26.992  1.00  0.00     0.170 HD
BRANCH  10  20
ATOM     20  C   UNL A   1      43.296  22.824  26.558  1.00  0.00     0.012 A 
ATOM     21  C   UNL A   1      44.676  22.486  24.530  1.00  0.00     0.165 A 
ATOM     22  C   UNL A   1      44.132  23.316  25.515  1.00  0.00     0.059 A 
ATOM     23  C   UNL A   1      44.410  21.137  24.625  1.00  0.00     0.211 A 
ATOM     24  C   UNL A   1      43.580  20.633  25.611  1.00  0.00     0.211 A 
ATOM     25  O   UNL A   1      44.922  20.148  23.836  1.00  0.00    -0.449 OA
ATOM     26  C   UNL A   1      42.990  21.444  26.583  1.00  0.00     0.168 A 
ATOM     27  O   UNL A   1      43.466  19.274  25.505  1.00  0.00    -0.449 OA
ATOM     28  C   UNL A   1      44.471  18.978  24.529  1.00  0.00     0.468 C 
BRANCH  21  29
ATOM     29  O   UNL A   1      45.485  23.109  23.627  1.00  0.00    -0.493 OA
ATOM     30  C   UNL A   1      46.762  23.503  24.112  1.00  0.00     0.278 C 
ENDBRANCH  21  29
BRANCH  26  31
ATOM     31  O   UNL A   1      42.156  20.997  27.567  1.00  0.00    -0.492 OA
ATOM     32  C   UNL A   1      40.976  20.309  27.174  1.00  0.00     0.278 C 
ENDBRANCH  26  31
ENDBRANCH  10  20
BRANCH  15  33
ATOM     33  C   UNL A   1      45.243  26.023  28.105  1.00  0.00     0.046 A 
ATOM     34  C   UNL A   1      46.324  25.512  27.382  1.00  0.00     0.029 A 
ATOM     35  C   UNL A   1      45.370  26.316  29.472  1.00  0.00     0.029 A 
ATOM     36  C   UNL A   1      47.533  25.276  28.038  1.00  0.00     0.041 A 
ATOM     37  C   UNL A   1      46.573  26.049  30.125  1.00  0.00     0.041 A 
ATOM     38  C   UNL A   1      47.643  25.533  29.401  1.00  0.00     0.123 A 
ATOM     39  F   UNL A   1      48.799  25.279  30.028  1.00  0.00    -0.207 F 
ENDBRANCH  15  33
ENDBRANCH   6   9
ENDBRANCH   4   5
ENDBRANCH   3   4
ENDBRANCH   2   3
ENDBRANCH   1   2
BRANCH   1  40
ATOM     40  C   UNL A   1      36.223  31.887  28.111  1.00  0.00     0.021 C 
BRANCH  40  41
ATOM     41  C   UNL A   1      34.900  31.562  28.793  1.00  0.00     0.116 C 
BRANCH  41  42
ATOM     42  N   UNL A   1      34.207  32.779  29.207  1.00  0.00    -0.352 N 
ATOM     43  C   UNL A   1      34.436  33.575  30.308  1.00  0.00     0.251 C 
ATOM     44  H   UNL A   1      33.475  33.070  28.618  1.00  0.00     0.163 HD
ATOM     45  O   UNL A   1      33.579  34.352  30.695  1.00  0.00    -0.269 OA
BRANCH  43  46
ATOM     46  C   UNL A   1      35.725  33.464  31.012  1.00  0.00     0.039 A 
ATOM     47  C   UNL A   1      35.924  32.458  31.961  1.00  0.00     0.014 A 
ATOM     48  C   UNL A   1      36.741  34.367  30.704  1.00  0.00     0.014 A 
ATOM     49  C   UNL A   1      37.181  32.319  32.542  1.00  0.00     0.010 A 
ATOM     50  C   UNL A   1      38.011  34.158  31.190  1.00  0.00     0.010 A 
ATOM     51  C   UNL A   1      38.230  33.158  32.136  1.00  0.00    -0.014 A 
BRANCH  51  52
ATOM     52  C   UNL A   1      39.591  32.908  32.603  1.00  0.00     0.031 A 
ATOM     53  C   UNL A   1      40.064  33.821  33.683  1.00  0.00     0.074 A 
ATOM     54  C   UNL A   1      40.298  31.807  32.275  1.00  0.00     0.049 A 
ATOM     55  N   UNL A   1      41.024  34.685  33.629  1.00  0.00    -0.248 NA
ATOM     56  C   UNL A   1      39.298  33.859  34.940  1.00  0.00     0.031 C 
ATOM     57  C   UNL A   1      39.859  30.650  31.486  1.00  0.00     0.029 A 
ATOM     58  N   UNL A   1      41.535  31.427  32.700  1.00  0.00    -0.354 N 
ATOM     59  C   UNL A   1      41.124  35.228  34.907  1.00  0.00     0.074 A 
ATOM     60  C   UNL A   1      39.939  34.814  35.616  1.00  0.00     0.031 C 
ATOM     61  C   UNL A   1      40.699  29.614  31.699  1.00  0.00     0.029 A 
ATOM     62  C   UNL A   1      41.823  30.085  32.487  1.00  0.00     0.049 A 
ATOM     63  H   UNL A   1      42.170  32.050  33.120  1.00  0.00     0.167 HD
ATOM     64  C   UNL A   1      42.282  35.783  35.366  1.00  0.00     0.031 A 
ATOM     65  C   UNL A   1      42.894  29.396  32.954  1.00  0.00     0.031 A 
ATOM     66  C   UNL A   1      43.215  36.035  34.300  1.00  0.00     0.049 A 
ATOM     67  C   UNL A   1      43.938  30.393  33.288  1.00  0.00     0.074 A 
ATOM     68  C   UNL A   1      43.194  36.793  33.146  1.00  0.00     0.029 A 
ATOM     69  N   UNL A   1      44.241  35.131  34.140  1.00  0.00    -0.354 N 
ATOM     70  N   UNL A   1      44.526  31.140  32.397  1.00  0.00    -0.248 NA
ATOM     71  C   UNL A   1      44.026  30.872  34.657  1.00  0.00     0.031 C 
ATOM     72  C   UNL A   1      43.866  35.995  32.172  1.00  0.00     0.029 A 
ATOM     73  C   UNL A   1      44.322  34.834  32.803  1.00  0.00     0.049 A 
ATOM     74  H   UNL A   1      44.810  34.765  34.854  1.00  0.00     0.167 HD
ATOM     75  C   UNL A   1      44.669  32.377  33.009  1.00  0.00     0.074 A 
ATOM     76  C   UNL A   1      44.451  32.117  34.431  1.00  0.00     0.031 C 
ATOM     77  C   UNL A   1      44.677  33.531  32.277  1.00  0.00     0.031 A 
BRANCH  64  78
ATOM     78  C   UNL A   1      42.716  35.736  36.812  1.00  0.00    -0.014 A 
ATOM     79  C   UNL A   1      42.766  34.493  37.477  1.00  0.00     0.010 A 
ATOM     80  C   UNL A   1      42.816  36.892  37.614  1.00  0.00     0.010 A 
ATOM     81  C   UNL A   1      42.853  34.418  38.875  1.00  0.00     0.020 A 
ATOM     82  C   UNL A   1      42.948  36.828  39.002  1.00  0.00     0.020 A 
ATOM     83  C   UNL A   1      42.932  35.590  39.629  1.00  0.00     0.054 A 
BRANCH  83  84
ATOM     84  S   UNL A   1      42.946  35.488  41.436  1.00  0.00     0.124 S 
ATOM     85  O   UNL A   1      44.296  35.946  41.751  1.00  0.00    -0.237 OA
ATOM     86  O   UNL A   1      41.866  36.397  41.806  1.00  0.00    -0.237 OA
ATOM     87  O   UNL A   1      42.684  34.076  41.701  1.00  0.00    -0.744 OA
ENDBRANCH  83  84
ENDBRANCH  64  78
BRANCH  65  88
ATOM     88  C   UNL A   1      42.954  27.982  33.397  1.00  0.00    -0.014 A 
ATOM     89  C   UNL A   1      43.874  27.084  32.826  1.00  0.00     0.010 A 
ATOM     90  C   UNL A   1      42.302  27.588  34.583  1.00  0.00     0.010 A 
ATOM     91  C   UNL A   1      44.182  25.866  33.457  1.00  0.00     0.020 A 
ATOM     92  C   UNL A   1      42.599  26.374  35.215  1.00  0.00     0.020 A 
ATOM     93  C   UNL A   1      43.559  25.529  34.662  1.00  0.00     0.054 A 
BRANCH  93  94
ATOM     94  S   UNL A   1      44.104  24.052  35.569  1.00  0.00     0.124 S 
ATOM     95  O   UNL A   1      45.537  24.028  35.293  1.00  0.00    -0.237 OA
ATOM     96  O   UNL A   1      43.731  24.368  36.945  1.00  0.00    -0.237 OA
ATOM     97  O   UNL A   1      43.337  22.969  34.957  1.00  0.00    -0.744 OA
ENDBRANCH  93  94
ENDBRANCH  65  88
BRANCH  77  98
ATOM     98  C   UNL A   1      44.829  33.431  30.774  1.00  0.00    -0.014 A 
ATOM     99  C   UNL A   1      46.071  33.414  30.107  1.00  0.00     0.010 A 
ATOM    100  C   UNL A   1      43.666  33.200  30.020  1.00  0.00     0.010 A 
ATOM    101  C   UNL A   1      46.140  33.200  28.721  1.00  0.00     0.020 A 
ATOM    102  C   UNL A   1      43.728  32.966  28.644  1.00  0.00     0.020 A 
ATOM    103  C   UNL A   1      44.965  32.978  27.998  1.00  0.00     0.054 A 
BRANCH 103 104
ATOM    104  S   UNL A   1      45.057  32.661  26.212  1.00  0.00     0.124 S 
ATOM    105  O   UNL A   1      46.456  32.953  25.910  1.00  0.00    -0.237 OA
ATOM    106  O   UNL A   1      44.671  31.255  26.111  1.00  0.00    -0.237 OA
ATOM    107  O   UNL A   1      44.093  33.600  25.641  1.00  0.00    -0.744 OA
ENDBRANCH 103 104
ENDBRANCH  77  98
ENDBRANCH  51  52
ENDBRANCH  43  46
ENDBRANCH  41  42
ENDBRANCH  40  41
ENDBRANCH   1  40
TORSDOF 20
ENDMDL
