MODEL 1
REMARK VINA RESULT:     -12.0      0.000      0.000
REMARK SMILES CCc1ccc(-c2cc(Cl)cc3c2O[C@H](C(F)(F)F)C(C(=O)NCCCCCCNC(=O)c2ccc(-c4c5nc(c(-c6ccc(S(=O)(=O)[O-])cc6)c6ccc([nH]6)c(-c6ccc(S(=O)(=O)[O-])cc6)c6nc(c(-c7ccc(S(=O)(=O)[O-])cc7)c7ccc4[nH]7)C=C6)C=C5)cc2)=C3)cc1
REMARK SMILES IDX 27 1 26 2 25 3 24 4 23 5 21 6 22 7 20 9 7 10 8 11 13 12 9 13
REMARK SMILES IDX 12 14 14 15 10 16 11 17 93 18 15 19 6 20 3 21 4 22 95 23
REMARK SMILES IDX 5 24 94 25 2 26 1 27 16 28 17 29 18 30 19 31 28 32 29 33
REMARK SMILES IDX 30 34 31 35 32 37 33 38 34 39 92 40 35 41 91 42 36 43 37 44
REMARK SMILES IDX 38 45 85 46 39 47 90 48 84 49 86 50 40 51 89 52 83 53 82 54
REMARK SMILES IDX 41 56 71 57 52 58 70 59 53 60 56 61 69 62 87 63 54 64 55 65
REMARK SMILES IDX 68 67 88 68 57 69 42 70 43 71 51 72 44 73 50 74 45 75 46 76
REMARK SMILES IDX 47 77 48 78 49 79 72 80 73 81 81 82 74 83 80 84 75 85 76 86
REMARK SMILES IDX 77 87 78 88 79 89 58 90 59 91 67 92 60 93 66 94 61 95 62 96
REMARK SMILES IDX 63 97 64 98 65 99
REMARK H PARENT 23 8 30 36 86 55 56 66
REMARK Flexibility Score: inf
ROOT
ATOM      1  C   UNL A   1      37.024  21.258  24.780  1.00  0.00     0.002 C 
ENDROOT
BRANCH   1   2
ATOM      2  C   UNL A   1      35.628  20.974  25.337  1.00  0.00     0.002 C 
BRANCH   2   3
ATOM      3  C   UNL A   1      34.875  19.827  24.642  1.00  0.00     0.021 C 
BRANCH   3   4
ATOM      4  C   UNL A   1      33.354  20.021  24.546  1.00  0.00     0.116 C 
BRANCH   4   5
ATOM      5  N   UNL A   1      33.048  20.958  23.483  1.00  0.00    -0.352 N 
ATOM      6  C   UNL A   1      32.283  22.070  23.613  1.00  0.00     0.251 C 
ATOM      7  O   UNL A   1      31.379  22.290  22.816  1.00  0.00    -0.270 OA
ATOM      8  H   UNL A   1      33.426  20.771  22.593  1.00  0.00     0.163 HD
BRANCH   6   9
ATOM      9  C   UNL A   1      32.725  23.057  24.640  1.00  0.00     0.067 C 
ATOM     10  C   UNL A   1      31.015  26.394  23.074  1.00  0.00     0.026 A 
ATOM     11  C   UNL A   1      31.298  26.371  21.681  1.00  0.00     0.033 A 
ATOM     12  C   UNL A   1      31.750  25.496  23.869  1.00  0.00     0.135 A 
ATOM     13  C   UNL A   1      32.353  25.645  21.137  1.00  0.00     0.042 A 
ATOM     14  C   UNL A   1      32.895  24.867  23.317  1.00  0.00     0.019 A 
ATOM     15  O   UNL A   1      31.380  25.133  25.160  1.00  0.00    -0.475 OA
ATOM     16  Cl  UNL A   1      32.603  25.642  19.436  1.00  0.00    -0.084 Cl
ATOM     17  C   UNL A   1      33.210  24.949  21.964  1.00  0.00     0.032 A 
ATOM     18  C   UNL A   1      33.646  23.921  24.171  1.00  0.00     0.025 C 
ATOM     19  C   UNL A   1      31.609  23.683  25.463  1.00  0.00     0.314 C 
BRANCH  10  20
ATOM     20  C   UNL A   1      30.137  27.519  23.502  1.00  0.00    -0.015 A 
ATOM     21  C   UNL A   1      28.584  29.898  23.130  1.00  0.00    -0.048 A 
ATOM     22  C   UNL A   1      27.990  28.631  23.076  1.00  0.00     0.004 A 
ATOM     23  C   UNL A   1      29.926  29.966  23.520  1.00  0.00     0.004 A 
ATOM     24  C   UNL A   1      28.747  27.465  23.275  1.00  0.00     0.009 A 
ATOM     25  C   UNL A   1      30.691  28.794  23.705  1.00  0.00     0.009 A 
BRANCH  21  26
ATOM     26  C   UNL A   1      27.740  31.113  22.801  1.00  0.00     0.032 C 
ATOM     27  C   UNL A   1      28.049  31.845  21.496  1.00  0.00     0.009 C 
ENDBRANCH  21  26
ENDBRANCH  10  20
BRANCH  19  28
ATOM     28  C   UNL A   1      31.933  23.439  26.955  1.00  0.00     0.429 C 
ATOM     29  F   UNL A   1      32.189  24.583  27.626  1.00  0.00    -0.167 F 
ATOM     30  F   UNL A   1      30.913  22.809  27.583  1.00  0.00    -0.167 F 
ATOM     31  F   UNL A   1      33.024  22.643  27.123  1.00  0.00    -0.167 F 
ENDBRANCH  19  28
ENDBRANCH   6   9
ENDBRANCH   4   5
ENDBRANCH   3   4
ENDBRANCH   2   3
ENDBRANCH   1   2
BRANCH   1  32
ATOM     32  C   UNL A   1      38.045  20.149  25.036  1.00  0.00     0.021 C 
BRANCH  32  33
ATOM     33  C   UNL A   1      39.289  20.596  25.795  1.00  0.00     0.116 C 
BRANCH  33  34
ATOM     34  N   UNL A   1      40.239  19.511  25.987  1.00  0.00    -0.352 N 
ATOM     35  C   UNL A   1      41.591  19.577  26.208  1.00  0.00     0.251 C 
ATOM     36  H   UNL A   1      39.858  18.603  25.954  1.00  0.00     0.163 HD
ATOM     37  O   UNL A   1      42.269  18.551  26.172  1.00  0.00    -0.269 OA
BRANCH  35  38
ATOM     38  C   UNL A   1      42.231  20.884  26.463  1.00  0.00     0.039 A 
ATOM     39  C   UNL A   1      42.684  21.633  25.377  1.00  0.00     0.014 A 
ATOM     40  C   UNL A   1      42.373  21.372  27.765  1.00  0.00     0.014 A 
ATOM     41  C   UNL A   1      43.231  22.899  25.593  1.00  0.00     0.010 A 
ATOM     42  C   UNL A   1      42.845  22.666  27.972  1.00  0.00     0.010 A 
ATOM     43  C   UNL A   1      43.283  23.440  26.890  1.00  0.00    -0.014 A 
BRANCH  43  44
ATOM     44  C   UNL A   1      43.778  24.823  27.115  1.00  0.00     0.031 A 
ATOM     45  C   UNL A   1      45.226  25.165  26.889  1.00  0.00     0.074 A 
ATOM     46  C   UNL A   1      42.927  25.761  27.577  1.00  0.00     0.049 A 
ATOM     47  N   UNL A   1      45.832  26.316  27.033  1.00  0.00    -0.248 NA
ATOM     48  C   UNL A   1      46.114  24.068  26.474  1.00  0.00     0.031 C 
ATOM     49  C   UNL A   1      41.515  25.538  27.897  1.00  0.00     0.029 A 
ATOM     50  N   UNL A   1      43.126  27.089  27.862  1.00  0.00    -0.354 N 
ATOM     51  C   UNL A   1      47.170  26.079  26.743  1.00  0.00     0.074 A 
ATOM     52  C   UNL A   1      47.297  24.665  26.466  1.00  0.00     0.031 C 
ATOM     53  C   UNL A   1      40.969  26.693  28.305  1.00  0.00     0.029 A 
ATOM     54  C   UNL A   1      41.998  27.729  28.317  1.00  0.00     0.049 A 
ATOM     55  H   UNL A   1      43.993  27.539  27.751  1.00  0.00     0.167 HD
ATOM     56  C   UNL A   1      48.198  26.962  26.696  1.00  0.00     0.031 A 
ATOM     57  C   UNL A   1      41.807  29.004  28.707  1.00  0.00     0.031 A 
ATOM     58  C   UNL A   1      48.063  28.369  26.974  1.00  0.00     0.049 A 
ATOM     59  C   UNL A   1      42.958  29.969  28.636  1.00  0.00     0.074 A 
ATOM     60  C   UNL A   1      49.026  29.359  26.881  1.00  0.00     0.029 A 
ATOM     61  N   UNL A   1      46.901  28.983  27.416  1.00  0.00    -0.354 N 
ATOM     62  N   UNL A   1      44.196  29.748  28.262  1.00  0.00    -0.248 NA
ATOM     63  C   UNL A   1      42.681  31.358  29.023  1.00  0.00     0.031 C 
ATOM     64  C   UNL A   1      48.464  30.558  27.332  1.00  0.00     0.029 A 
ATOM     65  C   UNL A   1      47.131  30.332  27.637  1.00  0.00     0.049 A 
ATOM     66  H   UNL A   1      46.039  28.528  27.552  1.00  0.00     0.167 HD
ATOM     67  C   UNL A   1      44.844  30.974  28.353  1.00  0.00     0.074 A 
ATOM     68  C   UNL A   1      43.852  31.937  28.791  1.00  0.00     0.031 C 
ATOM     69  C   UNL A   1      46.142  31.276  28.096  1.00  0.00     0.031 A 
BRANCH  56  70
ATOM     70  C   UNL A   1      49.564  26.421  26.354  1.00  0.00    -0.014 A 
ATOM     71  C   UNL A   1      50.309  25.667  27.279  1.00  0.00     0.010 A 
ATOM     72  C   UNL A   1      50.102  26.652  25.075  1.00  0.00     0.010 A 
ATOM     73  C   UNL A   1      51.587  25.204  26.952  1.00  0.00     0.020 A 
ATOM     74  C   UNL A   1      51.366  26.162  24.731  1.00  0.00     0.020 A 
ATOM     75  C   UNL A   1      52.110  25.460  25.682  1.00  0.00     0.054 A 
BRANCH  75  76
ATOM     76  S   UNL A   1      53.769  24.848  25.284  1.00  0.00     0.124 S 
ATOM     77  O   UNL A   1      54.094  25.616  24.085  1.00  0.00    -0.237 OA
ATOM     78  O   UNL A   1      54.534  25.196  26.479  1.00  0.00    -0.237 OA
ATOM     79  O   UNL A   1      53.570  23.416  25.071  1.00  0.00    -0.744 OA
ENDBRANCH  75  76
ENDBRANCH  56  70
BRANCH  57  80
ATOM     80  C   UNL A   1      40.467  29.430  29.195  1.00  0.00    -0.014 A 
ATOM     81  C   UNL A   1      40.215  29.592  30.568  1.00  0.00     0.010 A 
ATOM     82  C   UNL A   1      39.443  29.721  28.273  1.00  0.00     0.010 A 
ATOM     83  C   UNL A   1      38.964  30.029  31.012  1.00  0.00     0.020 A 
ATOM     84  C   UNL A   1      38.201  30.188  28.711  1.00  0.00     0.020 A 
ATOM     85  C   UNL A   1      37.966  30.333  30.079  1.00  0.00     0.054 A 
BRANCH  85  86
ATOM     86  S   UNL A   1      36.378  30.976  30.673  1.00  0.00     0.124 S 
ATOM     87  O   UNL A   1      36.056  30.046  31.750  1.00  0.00    -0.237 OA
ATOM     88  O   UNL A   1      36.724  32.333  31.090  1.00  0.00    -0.237 OA
ATOM     89  O   UNL A   1      35.514  30.896  29.496  1.00  0.00    -0.744 OA
ENDBRANCH  85  86
ENDBRANCH  57  80
BRANCH  69  90
ATOM     90  C   UNL A   1      46.563  32.712  28.273  1.00  0.00    -0.014 A 
ATOM     91  C   UNL A   1      46.262  33.687  27.305  1.00  0.00     0.010 A 
ATOM     92  C   UNL A   1      47.241  33.098  29.443  1.00  0.00     0.010 A 
ATOM     93  C   UNL A   1      46.672  35.011  27.483  1.00  0.00     0.020 A 
ATOM     94  C   UNL A   1      47.623  34.427  29.642  1.00  0.00     0.020 A 
ATOM     95  C   UNL A   1      47.353  35.372  28.651  1.00  0.00     0.054 A 
BRANCH  95  96
ATOM     96  S   UNL A   1      47.856  37.101  28.867  1.00  0.00     0.124 S 
ATOM     97  O   UNL A   1      46.723  37.659  29.600  1.00  0.00    -0.237 OA
ATOM     98  O   UNL A   1      49.099  36.980  29.627  1.00  0.00    -0.237 OA
ATOM     99  O   UNL A   1      48.015  37.590  27.499  1.00  0.00    -0.744 OA
ENDBRANCH  95  96
ENDBRANCH  69  90
ENDBRANCH  43  44
ENDBRANCH  35  38
ENDBRANCH  33  34
ENDBRANCH  32  33
ENDBRANCH   1  32
TORSDOF 19
ENDMDL
MODEL 2
REMARK VINA RESULT:     -11.9      0.595      7.811
REMARK SMILES CCc1ccc(-c2cc(Cl)cc3c2O[C@H](C(F)(F)F)C(C(=O)NCCCCCCNC(=O)c2ccc(-c4c5nc(c(-c6ccc(S(=O)(=O)[O-])cc6)c6ccc([nH]6)c(-c6ccc(S(=O)(=O)[O-])cc6)c6nc(c(-c7ccc(S(=O)(=O)[O-])cc7)c7ccc4[nH]7)C=C6)C=C5)cc2)=C3)cc1
REMARK SMILES IDX 27 1 26 2 25 3 24 4 23 5 21 6 22 7 20 9 7 10 8 11 13 12 9 13
REMARK SMILES IDX 12 14 14 15 10 16 11 17 93 18 15 19 6 20 3 21 4 22 95 23
REMARK SMILES IDX 5 24 94 25 2 26 1 27 16 28 17 29 18 30 19 31 28 32 29 33
REMARK SMILES IDX 30 34 31 35 32 37 33 38 34 39 92 40 35 41 91 42 36 43 37 44
REMARK SMILES IDX 38 45 85 46 39 47 90 48 84 49 86 50 40 51 89 52 83 53 82 54
REMARK SMILES IDX 41 56 71 57 52 58 70 59 53 60 56 61 69 62 87 63 54 64 55 65
REMARK SMILES IDX 68 67 88 68 57 69 42 70 43 71 51 72 44 73 50 74 45 75 46 76
REMARK SMILES IDX 47 77 48 78 49 79 72 80 73 81 81 82 74 83 80 84 75 85 76 86
REMARK SMILES IDX 77 87 78 88 79 89 58 90 59 91 67 92 60 93 66 94 61 95 62 96
REMARK SMILES IDX 63 97 64 98 65 99
REMARK H PARENT 23 8 30 36 86 55 56 66
REMARK Flexibility Score: inf
ROOT
ATOM      1  C   UNL A   1      37.161  21.193  24.710  1.00  0.00     0.002 C 
ENDROOT
BRANCH   1   2
ATOM      2  C   UNL A   1      35.681  21.126  25.090  1.00  0.00     0.002 C 
BRANCH   2   3
ATOM      3  C   UNL A   1      34.959  19.839  24.654  1.00  0.00     0.021 C 
BRANCH   3   4
ATOM      4  C   UNL A   1      33.432  19.963  24.548  1.00  0.00     0.116 C 
BRANCH   4   5
ATOM      5  N   UNL A   1      33.090  20.910  23.505  1.00  0.00    -0.352 N 
ATOM      6  C   UNL A   1      32.292  21.995  23.661  1.00  0.00     0.251 C 
ATOM      7  O   UNL A   1      31.376  22.202  22.874  1.00  0.00    -0.270 OA
ATOM      8  H   UNL A   1      33.468  20.752  22.610  1.00  0.00     0.163 HD
BRANCH   6   9
ATOM      9  C   UNL A   1      32.709  22.975  24.705  1.00  0.00     0.067 C 
ATOM     10  C   UNL A   1      31.062  26.328  23.105  1.00  0.00     0.026 A 
ATOM     11  C   UNL A   1      31.385  26.309  21.721  1.00  0.00     0.033 A 
ATOM     12  C   UNL A   1      31.769  25.423  23.917  1.00  0.00     0.135 A 
ATOM     13  C   UNL A   1      32.452  25.579  21.204  1.00  0.00     0.042 A 
ATOM     14  C   UNL A   1      32.927  24.789  23.395  1.00  0.00     0.019 A 
ATOM     15  O   UNL A   1      31.361  25.057  25.195  1.00  0.00    -0.475 OA
ATOM     16  Cl  UNL A   1      32.750  25.583  19.511  1.00  0.00    -0.084 Cl
ATOM     17  C   UNL A   1      33.281  24.875  22.052  1.00  0.00     0.032 A 
ATOM     18  C   UNL A   1      33.647  23.836  24.267  1.00  0.00     0.025 C 
ATOM     19  C   UNL A   1      31.573  23.604  25.498  1.00  0.00     0.314 C 
BRANCH  10  20
ATOM     20  C   UNL A   1      30.179  27.456  23.512  1.00  0.00    -0.015 A 
ATOM     21  C   UNL A   1      28.558  29.781  23.087  1.00  0.00    -0.048 A 
ATOM     22  C   UNL A   1      27.991  28.500  23.124  1.00  0.00     0.004 A 
ATOM     23  C   UNL A   1      29.913  29.895  23.413  1.00  0.00     0.004 A 
ATOM     24  C   UNL A   1      28.782  27.362  23.350  1.00  0.00     0.009 A 
ATOM     25  C   UNL A   1      30.712  28.751  23.625  1.00  0.00     0.009 A 
BRANCH  21  26
ATOM     26  C   UNL A   1      27.674  30.959  22.732  1.00  0.00     0.032 C 
ATOM     27  C   UNL A   1      28.233  32.356  22.996  1.00  0.00     0.009 C 
ENDBRANCH  21  26
ENDBRANCH  10  20
BRANCH  19  28
ATOM     28  C   UNL A   1      31.853  23.352  26.998  1.00  0.00     0.429 C 
ATOM     29  F   UNL A   1      32.825  22.435  27.199  1.00  0.00    -0.167 F 
ATOM     30  F   UNL A   1      32.223  24.492  27.627  1.00  0.00    -0.167 F 
ATOM     31  F   UNL A   1      30.754  22.899  27.660  1.00  0.00    -0.167 F 
ENDBRANCH  19  28
ENDBRANCH   6   9
ENDBRANCH   4   5
ENDBRANCH   3   4
ENDBRANCH   2   3
ENDBRANCH   1   2
BRANCH   1  32
ATOM     32  C   UNL A   1      38.001  20.025  25.227  1.00  0.00     0.021 C 
BRANCH  32  33
ATOM     33  C   UNL A   1      39.286  20.433  25.938  1.00  0.00     0.116 C 
BRANCH  33  34
ATOM     34  N   UNL A   1      40.244  19.342  26.019  1.00  0.00    -0.352 N 
ATOM     35  C   UNL A   1      41.610  19.398  26.122  1.00  0.00     0.251 C 
ATOM     36  H   UNL A   1      39.857  18.436  25.997  1.00  0.00     0.163 HD
ATOM     37  O   UNL A   1      42.278  18.372  26.001  1.00  0.00    -0.269 OA
BRANCH  35  38
ATOM     38  C   UNL A   1      42.276  20.697  26.352  1.00  0.00     0.039 A 
ATOM     39  C   UNL A   1      42.713  21.432  25.249  1.00  0.00     0.014 A 
ATOM     40  C   UNL A   1      42.459  21.191  27.647  1.00  0.00     0.014 A 
ATOM     41  C   UNL A   1      43.284  22.691  25.443  1.00  0.00     0.010 A 
ATOM     42  C   UNL A   1      42.955  22.479  27.833  1.00  0.00     0.010 A 
ATOM     43  C   UNL A   1      43.378  23.240  26.735  1.00  0.00    -0.014 A 
BRANCH  43  44
ATOM     44  C   UNL A   1      43.900  24.616  26.938  1.00  0.00     0.031 A 
ATOM     45  C   UNL A   1      42.969  25.745  27.290  1.00  0.00     0.074 A 
ATOM     46  C   UNL A   1      45.213  24.858  26.751  1.00  0.00     0.049 A 
ATOM     47  N   UNL A   1      43.248  27.005  27.506  1.00  0.00    -0.248 NA
ATOM     48  C   UNL A   1      41.537  25.422  27.387  1.00  0.00     0.031 C 
ATOM     49  C   UNL A   1      46.207  23.861  26.344  1.00  0.00     0.029 A 
ATOM     50  N   UNL A   1      45.937  26.017  26.873  1.00  0.00    -0.354 N 
ATOM     51  C   UNL A   1      42.028  27.627  27.747  1.00  0.00     0.074 A 
ATOM     52  C   UNL A   1      41.004  26.617  27.599  1.00  0.00     0.031 C 
ATOM     53  C   UNL A   1      47.413  24.444  26.280  1.00  0.00     0.029 A 
ATOM     54  C   UNL A   1      47.275  25.863  26.598  1.00  0.00     0.049 A 
ATOM     55  H   UNL A   1      45.536  26.878  27.133  1.00  0.00     0.167 HD
ATOM     56  C   UNL A   1      41.785  28.919  28.075  1.00  0.00     0.031 A 
ATOM     57  C   UNL A   1      48.281  26.759  26.595  1.00  0.00     0.031 A 
ATOM     58  C   UNL A   1      42.812  29.920  28.219  1.00  0.00     0.049 A 
ATOM     59  C   UNL A   1      47.991  28.184  26.974  1.00  0.00     0.074 A 
ATOM     60  C   UNL A   1      42.677  31.237  28.623  1.00  0.00     0.029 A 
ATOM     61  N   UNL A   1      44.158  29.721  27.949  1.00  0.00    -0.354 N 
ATOM     62  N   UNL A   1      46.844  28.733  27.297  1.00  0.00    -0.248 NA
ATOM     63  C   UNL A   1      49.134  29.106  27.005  1.00  0.00     0.031 C 
ATOM     64  C   UNL A   1      43.931  31.852  28.530  1.00  0.00     0.029 A 
ATOM     65  C   UNL A   1      44.860  30.901  28.138  1.00  0.00     0.049 A 
ATOM     66  H   UNL A   1      44.555  28.867  27.664  1.00  0.00     0.167 HD
ATOM     67  C   UNL A   1      47.128  30.062  27.586  1.00  0.00     0.074 A 
ATOM     68  C   UNL A   1      48.560  30.226  27.425  1.00  0.00     0.031 C 
ATOM     69  C   UNL A   1      46.281  31.057  27.952  1.00  0.00     0.031 A 
BRANCH  56  70
ATOM     70  C   UNL A   1      40.347  29.327  28.277  1.00  0.00    -0.014 A 
ATOM     71  C   UNL A   1      39.849  29.664  29.549  1.00  0.00     0.010 A 
ATOM     72  C   UNL A   1      39.483  29.397  27.169  1.00  0.00     0.010 A 
ATOM     73  C   UNL A   1      38.505  30.006  29.718  1.00  0.00     0.020 A 
ATOM     74  C   UNL A   1      38.145  29.773  27.327  1.00  0.00     0.020 A 
ATOM     75  C   UNL A   1      37.660  30.052  28.606  1.00  0.00     0.054 A 
BRANCH  75  76
ATOM     76  S   UNL A   1      35.920  30.501  28.853  1.00  0.00     0.124 S 
ATOM     77  O   UNL A   1      35.872  30.733  30.295  1.00  0.00    -0.237 OA
ATOM     78  O   UNL A   1      35.775  31.692  28.020  1.00  0.00    -0.237 OA
ATOM     79  O   UNL A   1      35.188  29.325  28.388  1.00  0.00    -0.744 OA
ENDBRANCH  75  76
ENDBRANCH  56  70
BRANCH  57  80
ATOM     80  C   UNL A   1      49.653  26.319  26.221  1.00  0.00    -0.014 A 
ATOM     81  C   UNL A   1      50.171  26.578  24.940  1.00  0.00     0.010 A 
ATOM     82  C   UNL A   1      50.469  25.674  27.170  1.00  0.00     0.010 A 
ATOM     83  C   UNL A   1      51.475  26.194  24.612  1.00  0.00     0.020 A 
ATOM     84  C   UNL A   1      51.782  25.318  26.856  1.00  0.00     0.020 A 
ATOM     85  C   UNL A   1      52.276  25.574  25.576  1.00  0.00     0.054 A 
BRANCH  85  86
ATOM     86  S   UNL A   1      53.991  25.158  25.155  1.00  0.00     0.124 S 
ATOM     87  O   UNL A   1      53.924  23.709  25.004  1.00  0.00    -0.237 OA
ATOM     88  O   UNL A   1      54.205  25.915  23.924  1.00  0.00    -0.237 OA
ATOM     89  O   UNL A   1      54.752  25.634  26.309  1.00  0.00    -0.744 OA
ENDBRANCH  85  86
ENDBRANCH  57  80
BRANCH  69  90
ATOM     90  C   UNL A   1      46.884  32.413  28.215  1.00  0.00    -0.014 A 
ATOM     91  C   UNL A   1      46.993  33.376  27.196  1.00  0.00     0.010 A 
ATOM     92  C   UNL A   1      47.318  32.741  29.513  1.00  0.00     0.010 A 
ATOM     93  C   UNL A   1      47.567  34.622  27.458  1.00  0.00     0.020 A 
ATOM     94  C   UNL A   1      47.860  33.998  29.788  1.00  0.00     0.020 A 
ATOM     95  C   UNL A   1      47.999  34.925  28.754  1.00  0.00     0.054 A 
BRANCH  95  96
ATOM     96  S   UNL A   1      48.721  36.558  29.073  1.00  0.00     0.124 S 
ATOM     97  O   UNL A   1      49.799  36.612  28.089  1.00  0.00    -0.237 OA
ATOM     98  O   UNL A   1      47.597  37.459  28.826  1.00  0.00    -0.237 OA
ATOM     99  O   UNL A   1      49.153  36.479  30.467  1.00  0.00    -0.744 OA
ENDBRANCH  95  96
ENDBRANCH  69  90
ENDBRANCH  43  44
ENDBRANCH  35  38
ENDBRANCH  33  34
ENDBRANCH  32  33
ENDBRANCH   1  32
TORSDOF 19
ENDMDL
MODEL 3
REMARK VINA RESULT:     -11.7      6.197     11.906
REMARK SMILES CCc1ccc(-c2cc(Cl)cc3c2O[C@H](C(F)(F)F)C(C(=O)NCCCCCCNC(=O)c2ccc(-c4c5nc(c(-c6ccc(S(=O)(=O)[O-])cc6)c6ccc([nH]6)c(-c6ccc(S(=O)(=O)[O-])cc6)c6nc(c(-c7ccc(S(=O)(=O)[O-])cc7)c7ccc4[nH]7)C=C6)C=C5)cc2)=C3)cc1
REMARK SMILES IDX 27 1 26 2 25 3 24 4 23 5 21 6 22 7 20 9 7 10 8 11 13 12 9 13
REMARK SMILES IDX 12 14 14 15 10 16 11 17 93 18 15 19 6 20 3 21 4 22 95 23
REMARK SMILES IDX 5 24 94 25 2 26 1 27 16 28 17 29 18 30 19 31 28 32 29 33
REMARK SMILES IDX 30 34 31 35 32 37 33 38 34 39 92 40 35 41 91 42 36 43 37 44
REMARK SMILES IDX 38 45 85 46 39 47 90 48 84 49 86 50 40 51 89 52 83 53 82 54
REMARK SMILES IDX 41 56 71 57 52 58 70 59 53 60 56 61 69 62 87 63 54 64 55 65
REMARK SMILES IDX 68 67 88 68 57 69 42 70 43 71 51 72 44 73 50 74 45 75 46 76
REMARK SMILES IDX 47 77 48 78 49 79 72 80 73 81 81 82 74 83 80 84 75 85 76 86
REMARK SMILES IDX 77 87 78 88 79 89 58 90 59 91 67 92 60 93 66 94 61 95 62 96
REMARK SMILES IDX 63 97 64 98 65 99
REMARK H PARENT 23 8 30 36 86 55 56 66
REMARK Flexibility Score: inf
ROOT
ATOM      1  C   UNL A   1      34.875  30.250  27.896  1.00  0.00     0.002 C 
ENDROOT
BRANCH   1   2
ATOM      2  C   UNL A   1      34.797  29.032  26.973  1.00  0.00     0.002 C 
BRANCH   2   3
ATOM      3  C   UNL A   1      33.524  28.953  26.113  1.00  0.00     0.021 C 
BRANCH   3   4
ATOM      4  C   UNL A   1      33.544  27.861  25.033  1.00  0.00     0.116 C 
BRANCH   4   5
ATOM      5  N   UNL A   1      34.182  26.669  25.555  1.00  0.00    -0.352 N 
ATOM      6  C   UNL A   1      33.636  25.428  25.567  1.00  0.00     0.251 C 
ATOM      7  O   UNL A   1      33.638  24.766  26.598  1.00  0.00    -0.270 OA
ATOM      8  H   UNL A   1      35.086  26.769  25.933  1.00  0.00     0.163 HD
BRANCH   6   9
ATOM      9  C   UNL A   1      33.217  24.879  24.245  1.00  0.00     0.067 C 
ATOM     10  C   UNL A   1      34.397  21.026  24.768  1.00  0.00     0.026 A 
ATOM     11  C   UNL A   1      35.698  21.081  25.339  1.00  0.00     0.033 A 
ATOM     12  C   UNL A   1      33.906  22.230  24.230  1.00  0.00     0.135 A 
ATOM     13  C   UNL A   1      36.525  22.195  25.227  1.00  0.00     0.042 A 
ATOM     14  C   UNL A   1      34.807  23.305  24.016  1.00  0.00     0.019 A 
ATOM     15  O   UNL A   1      32.562  22.456  23.953  1.00  0.00    -0.475 OA
ATOM     16  Cl  UNL A   1      38.071  22.192  25.980  1.00  0.00    -0.084 Cl
ATOM     17  C   UNL A   1      36.113  23.289  24.494  1.00  0.00     0.032 A 
ATOM     18  C   UNL A   1      34.264  24.563  23.457  1.00  0.00     0.025 C 
ATOM     19  C   UNL A   1      32.106  23.842  24.293  1.00  0.00     0.314 C 
BRANCH  10  20
ATOM     20  C   UNL A   1      33.845  19.649  24.635  1.00  0.00    -0.015 A 
ATOM     21  C   UNL A   1      33.553  16.882  25.319  1.00  0.00    -0.048 A 
ATOM     22  C   UNL A   1      32.689  17.851  25.843  1.00  0.00     0.004 A 
ATOM     23  C   UNL A   1      34.463  17.291  24.338  1.00  0.00     0.004 A 
ATOM     24  C   UNL A   1      32.820  19.206  25.495  1.00  0.00     0.009 A 
ATOM     25  C   UNL A   1      34.606  18.654  23.999  1.00  0.00     0.009 A 
BRANCH  21  26
ATOM     26  C   UNL A   1      33.432  15.454  25.813  1.00  0.00     0.032 C 
ATOM     27  C   UNL A   1      32.144  14.705  25.479  1.00  0.00     0.009 C 
ENDBRANCH  21  26
ENDBRANCH  10  20
BRANCH  19  28
ATOM     28  C   UNL A   1      30.970  24.330  23.364  1.00  0.00     0.429 C 
ATOM     29  F   UNL A   1      31.428  25.038  22.308  1.00  0.00    -0.167 F 
ATOM     30  F   UNL A   1      30.246  23.291  22.884  1.00  0.00    -0.167 F 
ATOM     31  F   UNL A   1      30.084  25.136  24.010  1.00  0.00    -0.167 F 
ENDBRANCH  19  28
ENDBRANCH   6   9
ENDBRANCH   4   5
ENDBRANCH   3   4
ENDBRANCH   2   3
ENDBRANCH   1   2
BRANCH   1  32
ATOM     32  C   UNL A   1      34.332  31.542  27.286  1.00  0.00     0.021 C 
BRANCH  32  33
ATOM     33  C   UNL A   1      33.002  32.007  27.866  1.00  0.00     0.116 C 
BRANCH  33  34
ATOM     34  N   UNL A   1      32.886  33.457  27.893  1.00  0.00    -0.352 N 
ATOM     35  C   UNL A   1      33.576  34.364  28.656  1.00  0.00     0.251 C 
ATOM     36  H   UNL A   1      32.220  33.840  27.277  1.00  0.00     0.163 HD
ATOM     37  O   UNL A   1      33.223  35.542  28.676  1.00  0.00    -0.269 OA
BRANCH  35  38
ATOM     38  C   UNL A   1      34.722  33.916  29.473  1.00  0.00     0.039 A 
ATOM     39  C   UNL A   1      34.475  33.176  30.630  1.00  0.00     0.014 A 
ATOM     40  C   UNL A   1      36.034  34.214  29.093  1.00  0.00     0.014 A 
ATOM     41  C   UNL A   1      35.548  32.688  31.378  1.00  0.00     0.010 A 
ATOM     42  C   UNL A   1      37.102  33.660  29.795  1.00  0.00     0.010 A 
ATOM     43  C   UNL A   1      36.870  32.896  30.947  1.00  0.00    -0.014 A 
BRANCH  43  44
ATOM     44  C   UNL A   1      38.012  32.300  31.688  1.00  0.00     0.031 A 
ATOM     45  C   UNL A   1      38.447  32.868  33.012  1.00  0.00     0.074 A 
ATOM     46  C   UNL A   1      38.692  31.275  31.137  1.00  0.00     0.049 A 
ATOM     47  N   UNL A   1      39.417  32.475  33.797  1.00  0.00    -0.248 NA
ATOM     48  C   UNL A   1      37.715  34.045  33.506  1.00  0.00     0.031 C 
ATOM     49  C   UNL A   1      38.410  30.678  29.830  1.00  0.00     0.029 A 
ATOM     50  N   UNL A   1      39.765  30.557  31.604  1.00  0.00    -0.354 N 
ATOM     51  C   UNL A   1      39.423  33.363  34.866  1.00  0.00     0.074 A 
ATOM     52  C   UNL A   1      38.394  34.345  34.603  1.00  0.00     0.031 C 
ATOM     53  C   UNL A   1      39.265  29.668  29.613  1.00  0.00     0.029 A 
ATOM     54  C   UNL A   1      40.183  29.570  30.745  1.00  0.00     0.049 A 
ATOM     55  H   UNL A   1      40.192  30.732  32.473  1.00  0.00     0.167 HD
ATOM     56  C   UNL A   1      40.205  33.354  35.973  1.00  0.00     0.031 A 
ATOM     57  C   UNL A   1      41.196  28.687  30.846  1.00  0.00     0.031 A 
ATOM     58  C   UNL A   1      41.228  32.372  36.227  1.00  0.00     0.049 A 
ATOM     59  C   UNL A   1      42.043  28.685  32.088  1.00  0.00     0.074 A 
ATOM     60  C   UNL A   1      42.022  32.230  37.352  1.00  0.00     0.029 A 
ATOM     61  N   UNL A   1      41.612  31.378  35.340  1.00  0.00    -0.354 N 
ATOM     62  N   UNL A   1      41.968  29.472  33.136  1.00  0.00    -0.248 NA
ATOM     63  C   UNL A   1      43.098  27.668  32.169  1.00  0.00     0.031 C 
ATOM     64  C   UNL A   1      42.932  31.194  37.116  1.00  0.00     0.029 A 
ATOM     65  C   UNL A   1      42.658  30.643  35.874  1.00  0.00     0.049 A 
ATOM     66  H   UNL A   1      41.202  31.219  34.459  1.00  0.00     0.167 HD
ATOM     67  C   UNL A   1      42.956  29.034  34.010  1.00  0.00     0.074 A 
ATOM     68  C   UNL A   1      43.596  27.897  33.377  1.00  0.00     0.031 C 
ATOM     69  C   UNL A   1      43.302  29.528  35.225  1.00  0.00     0.031 A 
BRANCH  56  70
ATOM     70  C   UNL A   1      39.995  34.456  36.982  1.00  0.00    -0.014 A 
ATOM     71  C   UNL A   1      40.773  35.628  36.963  1.00  0.00     0.010 A 
ATOM     72  C   UNL A   1      38.986  34.326  37.953  1.00  0.00     0.010 A 
ATOM     73  C   UNL A   1      40.584  36.622  37.927  1.00  0.00     0.020 A 
ATOM     74  C   UNL A   1      38.770  35.332  38.900  1.00  0.00     0.020 A 
ATOM     75  C   UNL A   1      39.587  36.464  38.894  1.00  0.00     0.054 A 
BRANCH  75  76
ATOM     76  S   UNL A   1      39.363  37.769  40.133  1.00  0.00     0.124 S 
ATOM     77  O   UNL A   1      40.626  38.496  40.035  1.00  0.00    -0.237 OA
ATOM     78  O   UNL A   1      38.188  38.482  39.638  1.00  0.00    -0.237 OA
ATOM     79  O   UNL A   1      39.162  37.034  41.380  1.00  0.00    -0.744 OA
ENDBRANCH  75  76
ENDBRANCH  56  70
BRANCH  57  80
ATOM     80  C   UNL A   1      41.451  27.733  29.732  1.00  0.00    -0.014 A 
ATOM     81  C   UNL A   1      40.555  26.686  29.458  1.00  0.00     0.010 A 
ATOM     82  C   UNL A   1      42.581  27.898  28.908  1.00  0.00     0.010 A 
ATOM     83  C   UNL A   1      40.785  25.819  28.386  1.00  0.00     0.020 A 
ATOM     84  C   UNL A   1      42.798  27.053  27.818  1.00  0.00     0.020 A 
ATOM     85  C   UNL A   1      41.902  26.013  27.567  1.00  0.00     0.054 A 
BRANCH  85  86
ATOM     86  S   UNL A   1      42.138  24.927  26.133  1.00  0.00     0.124 S 
ATOM     87  O   UNL A   1      41.707  25.780  25.031  1.00  0.00    -0.237 OA
ATOM     88  O   UNL A   1      43.569  24.638  26.190  1.00  0.00    -0.237 OA
ATOM     89  O   UNL A   1      41.269  23.787  26.421  1.00  0.00    -0.744 OA
ENDBRANCH  85  86
ENDBRANCH  57  80
BRANCH  69  90
ATOM     90  C   UNL A   1      44.420  28.831  35.958  1.00  0.00    -0.014 A 
ATOM     91  C   UNL A   1      45.757  29.246  35.819  1.00  0.00     0.010 A 
ATOM     92  C   UNL A   1      44.123  27.766  36.827  1.00  0.00     0.010 A 
ATOM     93  C   UNL A   1      46.779  28.579  36.498  1.00  0.00     0.020 A 
ATOM     94  C   UNL A   1      45.138  27.118  37.535  1.00  0.00     0.020 A 
ATOM     95  C   UNL A   1      46.463  27.516  37.351  1.00  0.00     0.054 A 
BRANCH  95  96
ATOM     96  S   UNL A   1      47.807  26.680  38.237  1.00  0.00     0.124 S 
ATOM     97  O   UNL A   1      48.472  27.796  38.904  1.00  0.00    -0.237 OA
ATOM     98  O   UNL A   1      47.087  25.761  39.116  1.00  0.00    -0.237 OA
ATOM     99  O   UNL A   1      48.578  26.040  37.174  1.00  0.00    -0.744 OA
ENDBRANCH  95  96
ENDBRANCH  69  90
ENDBRANCH  43  44
ENDBRANCH  35  38
ENDBRANCH  33  34
ENDBRANCH  32  33
ENDBRANCH   1  32
TORSDOF 19
ENDMDL
