MODEL 1
REMARK VINA RESULT:     -11.5      0.000      0.000
REMARK SMILES Cc1ccc(C)c(S(=O)(=O)[C@H](C)C(=O)NCCCCCCNC(=O)c2ccc(-c3c4nc(c(-c5ccc(S(=O)(=O)[O-])cc5)c5ccc([nH]5)c(-c5ccc(S(=O)(=O)[O-])cc5)c5nc(c(-c6ccc(S(=O)(=O)[O-])cc6)c6ccc3[nH]6)C=C5)C=C4)cc2)c1
REMARK SMILES IDX 19 1 18 2 17 3 16 4 15 5 13 6 14 7 11 9 12 10 8 11 9 12
REMARK SMILES IDX 10 13 7 14 1 15 2 16 3 17 85 18 4 19 5 20 6 21 20 22 21 23
REMARK SMILES IDX 22 24 23 25 24 27 25 28 26 29 84 30 27 31 83 32 28 33 29 34
REMARK SMILES IDX 30 35 77 36 31 37 82 38 76 39 78 40 32 41 81 42 75 43 74 44
REMARK SMILES IDX 33 46 63 47 44 48 62 49 45 50 48 51 61 52 79 53 46 54 47 55
REMARK SMILES IDX 60 57 80 58 49 59 34 60 35 61 43 62 36 63 42 64 37 65 38 66
REMARK SMILES IDX 39 67 40 68 41 69 64 70 65 71 73 72 66 73 72 74 67 75 68 76
REMARK SMILES IDX 69 77 70 78 71 79 50 80 51 81 59 82 52 83 58 84 53 85 54 86
REMARK SMILES IDX 55 87 56 88 57 89
REMARK H PARENT 15 8 22 26 78 45 48 56
REMARK Flexibility Score: inf
ROOT
ATOM      1  C   UNL A   1      38.590  22.062  25.842  1.00  0.00     0.002 C 
ENDROOT
BRANCH   1   2
ATOM      2  C   UNL A   1      37.428  22.001  24.841  1.00  0.00     0.002 C 
BRANCH   2   3
ATOM      3  C   UNL A   1      36.656  23.289  24.547  1.00  0.00     0.021 C 
BRANCH   3   4
ATOM      4  C   UNL A   1      35.859  23.875  25.706  1.00  0.00     0.116 C 
BRANCH   4   5
ATOM      5  N   UNL A   1      35.261  22.883  26.588  1.00  0.00    -0.355 N 
ATOM      6  C   UNL A   1      34.165  22.096  26.369  1.00  0.00     0.238 C 
ATOM      7  O   UNL A   1      34.076  21.053  27.029  1.00  0.00    -0.274 OA
ATOM      8  H   UNL A   1      35.706  22.762  27.458  1.00  0.00     0.163 HD
BRANCH   6   9
ATOM      9  C   UNL A   1      33.056  22.465  25.411  1.00  0.00     0.199 C 
ATOM     10  C   UNL A   1      32.695  21.362  24.420  1.00  0.00     0.036 C 
BRANCH   9  11
ATOM     11  S   UNL A   1      31.666  23.157  26.268  1.00  0.00     0.190 S 
ATOM     12  O   UNL A   1      31.972  23.239  27.687  1.00  0.00    -0.223 OA
ATOM     13  O   UNL A   1      30.482  22.434  25.837  1.00  0.00    -0.223 OA
BRANCH  11  14
ATOM     14  C   UNL A   1      31.364  24.851  25.762  1.00  0.00     0.071 A 
ATOM     15  C   UNL A   1      31.716  28.397  27.133  1.00  0.00     0.044 C 
ATOM     16  C   UNL A   1      31.425  27.246  26.214  1.00  0.00    -0.050 A 
ATOM     17  C   UNL A   1      31.009  27.495  24.905  1.00  0.00     0.004 A 
ATOM     18  C   UNL A   1      31.589  25.920  26.643  1.00  0.00     0.024 A 
ATOM     19  C   UNL A   1      30.761  26.438  24.033  1.00  0.00     0.005 A 
ATOM     20  C   UNL A   1      30.943  25.104  24.437  1.00  0.00    -0.032 A 
ATOM     21  C   UNL A   1      30.640  24.045  23.409  1.00  0.00     0.046 C 
ENDBRANCH  11  14
ENDBRANCH   9  11
ENDBRANCH   6   9
ENDBRANCH   4   5
ENDBRANCH   3   4
ENDBRANCH   2   3
ENDBRANCH   1   2
BRANCH   1  22
ATOM     22  C   UNL A   1      39.636  20.939  25.900  1.00  0.00     0.021 C 
BRANCH  22  23
ATOM     23  C   UNL A   1      40.940  21.141  26.671  1.00  0.00     0.116 C 
BRANCH  23  24
ATOM     24  N   UNL A   1      42.010  21.762  25.894  1.00  0.00    -0.352 N 
ATOM     25  C   UNL A   1      42.405  23.062  25.614  1.00  0.00     0.251 C 
ATOM     26  H   UNL A   1      42.592  21.096  25.464  1.00  0.00     0.163 HD
ATOM     27  O   UNL A   1      43.199  23.235  24.709  1.00  0.00    -0.269 OA
BRANCH  25  28
ATOM     28  C   UNL A   1      41.902  24.235  26.380  1.00  0.00     0.039 A 
ATOM     29  C   UNL A   1      40.986  25.141  25.823  1.00  0.00     0.014 A 
ATOM     30  C   UNL A   1      42.403  24.518  27.637  1.00  0.00     0.014 A 
ATOM     31  C   UNL A   1      40.720  26.339  26.500  1.00  0.00     0.010 A 
ATOM     32  C   UNL A   1      41.900  25.502  28.430  1.00  0.00     0.010 A 
ATOM     33  C   UNL A   1      41.240  26.519  27.787  1.00  0.00    -0.014 A 
BRANCH  33  34
ATOM     34  C   UNL A   1      41.244  27.775  28.515  1.00  0.00     0.031 A 
ATOM     35  C   UNL A   1      42.318  28.698  28.125  1.00  0.00     0.074 A 
ATOM     36  C   UNL A   1      40.154  28.270  29.145  1.00  0.00     0.049 A 
ATOM     37  N   UNL A   1      43.407  28.942  28.766  1.00  0.00    -0.248 NA
ATOM     38  C   UNL A   1      42.237  29.314  26.789  1.00  0.00     0.031 C 
ATOM     39  C   UNL A   1      38.788  27.723  29.150  1.00  0.00     0.029 A 
ATOM     40  N   UNL A   1      40.011  29.451  29.815  1.00  0.00    -0.354 N 
ATOM     41  C   UNL A   1      44.027  29.936  28.027  1.00  0.00     0.074 A 
ATOM     42  C   UNL A   1      43.425  29.914  26.718  1.00  0.00     0.031 C 
ATOM     43  C   UNL A   1      37.931  28.656  29.625  1.00  0.00     0.029 A 
ATOM     44  C   UNL A   1      38.698  29.791  30.108  1.00  0.00     0.049 A 
ATOM     45  H   UNL A   1      40.777  30.014  30.070  1.00  0.00     0.167 HD
ATOM     46  C   UNL A   1      44.720  30.937  28.631  1.00  0.00     0.031 A 
ATOM     47  C   UNL A   1      38.261  30.929  30.701  1.00  0.00     0.031 A 
ATOM     48  C   UNL A   1      44.828  30.732  30.053  1.00  0.00     0.049 A 
ATOM     49  C   UNL A   1      39.400  31.537  31.429  1.00  0.00     0.074 A 
ATOM     50  C   UNL A   1      45.542  29.915  30.899  1.00  0.00     0.029 A 
ATOM     51  N   UNL A   1      43.785  31.258  30.776  1.00  0.00    -0.354 N 
ATOM     52  N   UNL A   1      40.012  30.954  32.422  1.00  0.00    -0.248 NA
ATOM     53  C   UNL A   1      40.090  32.695  30.871  1.00  0.00     0.031 C 
ATOM     54  C   UNL A   1      44.787  29.830  32.108  1.00  0.00     0.029 A 
ATOM     55  C   UNL A   1      43.634  30.600  31.973  1.00  0.00     0.049 A 
ATOM     56  H   UNL A   1      43.221  32.007  30.477  1.00  0.00     0.167 HD
ATOM     57  C   UNL A   1      41.318  31.398  32.336  1.00  0.00     0.074 A 
ATOM     58  C   UNL A   1      41.269  32.578  31.488  1.00  0.00     0.031 C 
ATOM     59  C   UNL A   1      42.362  30.589  32.675  1.00  0.00     0.031 A 
BRANCH  46  60
ATOM     60  C   UNL A   1      44.897  32.308  28.040  1.00  0.00    -0.014 A 
ATOM     61  C   UNL A   1      46.191  32.715  27.672  1.00  0.00     0.010 A 
ATOM     62  C   UNL A   1      43.888  33.294  28.057  1.00  0.00     0.010 A 
ATOM     63  C   UNL A   1      46.466  34.051  27.358  1.00  0.00     0.020 A 
ATOM     64  C   UNL A   1      44.140  34.619  27.699  1.00  0.00     0.020 A 
ATOM     65  C   UNL A   1      45.438  34.995  27.382  1.00  0.00     0.054 A 
BRANCH  65  66
ATOM     66  S   UNL A   1      45.820  36.732  27.060  1.00  0.00     0.124 S 
ATOM     67  O   UNL A   1      44.486  37.310  26.926  1.00  0.00    -0.237 OA
ATOM     68  O   UNL A   1      46.562  37.117  28.258  1.00  0.00    -0.237 OA
ATOM     69  O   UNL A   1      46.611  36.685  25.833  1.00  0.00    -0.744 OA
ENDBRANCH  65  66
ENDBRANCH  46  60
BRANCH  47  70
ATOM     70  C   UNL A   1      36.963  31.624  30.532  1.00  0.00    -0.014 A 
ATOM     71  C   UNL A   1      36.376  32.339  31.593  1.00  0.00     0.010 A 
ATOM     72  C   UNL A   1      36.431  31.809  29.240  1.00  0.00     0.010 A 
ATOM     73  C   UNL A   1      35.333  33.250  31.361  1.00  0.00     0.020 A 
ATOM     74  C   UNL A   1      35.386  32.710  29.001  1.00  0.00     0.020 A 
ATOM     75  C   UNL A   1      34.859  33.444  30.061  1.00  0.00     0.054 A 
BRANCH  75  76
ATOM     76  S   UNL A   1      33.633  34.749  29.746  1.00  0.00     0.124 S 
ATOM     77  O   UNL A   1      32.658  34.061  28.906  1.00  0.00    -0.237 OA
ATOM     78  O   UNL A   1      33.180  35.090  31.091  1.00  0.00    -0.237 OA
ATOM     79  O   UNL A   1      34.406  35.790  29.072  1.00  0.00    -0.744 OA
ENDBRANCH  75  76
ENDBRANCH  47  70
BRANCH  59  80
ATOM     80  C   UNL A   1      42.115  29.506  33.692  1.00  0.00    -0.014 A 
ATOM     81  C   UNL A   1      41.780  28.179  33.368  1.00  0.00     0.010 A 
ATOM     82  C   UNL A   1      42.292  29.842  35.047  1.00  0.00     0.010 A 
ATOM     83  C   UNL A   1      41.610  27.218  34.376  1.00  0.00     0.020 A 
ATOM     84  C   UNL A   1      42.141  28.886  36.055  1.00  0.00     0.020 A 
ATOM     85  C   UNL A   1      41.792  27.579  35.715  1.00  0.00     0.054 A 
BRANCH  85  86
ATOM     86  S   UNL A   1      41.615  26.321  37.011  1.00  0.00     0.124 S 
ATOM     87  O   UNL A   1      41.580  25.079  36.244  1.00  0.00    -0.237 OA
ATOM     88  O   UNL A   1      42.811  26.524  37.827  1.00  0.00    -0.237 OA
ATOM     89  O   UNL A   1      40.360  26.676  37.672  1.00  0.00    -0.744 OA
ENDBRANCH  85  86
ENDBRANCH  59  80
ENDBRANCH  33  34
ENDBRANCH  25  28
ENDBRANCH  23  24
ENDBRANCH  22  23
ENDBRANCH   1  22
TORSDOF 18
ENDMDL
MODEL 2
REMARK VINA RESULT:     -11.4      1.617      2.486
REMARK SMILES Cc1ccc(C)c(S(=O)(=O)[C@H](C)C(=O)NCCCCCCNC(=O)c2ccc(-c3c4nc(c(-c5ccc(S(=O)(=O)[O-])cc5)c5ccc([nH]5)c(-c5ccc(S(=O)(=O)[O-])cc5)c5nc(c(-c6ccc(S(=O)(=O)[O-])cc6)c6ccc3[nH]6)C=C5)C=C4)cc2)c1
REMARK SMILES IDX 19 1 18 2 17 3 16 4 15 5 13 6 14 7 11 9 12 10 8 11 9 12
REMARK SMILES IDX 10 13 7 14 1 15 2 16 3 17 85 18 4 19 5 20 6 21 20 22 21 23
REMARK SMILES IDX 22 24 23 25 24 27 25 28 26 29 84 30 27 31 83 32 28 33 29 34
REMARK SMILES IDX 30 35 77 36 31 37 82 38 76 39 78 40 32 41 81 42 75 43 74 44
REMARK SMILES IDX 33 46 63 47 44 48 62 49 45 50 48 51 61 52 79 53 46 54 47 55
REMARK SMILES IDX 60 57 80 58 49 59 34 60 35 61 43 62 36 63 42 64 37 65 38 66
REMARK SMILES IDX 39 67 40 68 41 69 64 70 65 71 73 72 66 73 72 74 67 75 68 76
REMARK SMILES IDX 69 77 70 78 71 79 50 80 51 81 59 82 52 83 58 84 53 85 54 86
REMARK SMILES IDX 55 87 56 88 57 89
REMARK H PARENT 15 8 22 26 78 45 48 56
REMARK Flexibility Score: inf
ROOT
ATOM      1  C   UNL A   1      34.930  22.950  24.176  1.00  0.00     0.002 C 
ENDROOT
BRANCH   1   2
ATOM      2  C   UNL A   1      34.210  21.640  24.521  1.00  0.00     0.002 C 
BRANCH   2   3
ATOM      3  C   UNL A   1      33.885  21.357  25.990  1.00  0.00     0.021 C 
BRANCH   3   4
ATOM      4  C   UNL A   1      33.903  22.560  26.926  1.00  0.00     0.116 C 
BRANCH   4   5
ATOM      5  N   UNL A   1      32.608  22.893  27.504  1.00  0.00    -0.355 N 
ATOM      6  C   UNL A   1      31.502  23.402  26.883  1.00  0.00     0.238 C 
ATOM      7  O   UNL A   1      30.409  23.216  27.432  1.00  0.00    -0.274 OA
ATOM      8  H   UNL A   1      32.518  22.728  28.470  1.00  0.00     0.163 HD
BRANCH   6   9
ATOM      9  C   UNL A   1      31.563  24.209  25.607  1.00  0.00     0.199 C 
ATOM     10  C   UNL A   1      30.987  23.495  24.388  1.00  0.00     0.036 C 
BRANCH   9  11
ATOM     11  S   UNL A   1      30.940  25.851  25.852  1.00  0.00     0.190 S 
ATOM     12  O   UNL A   1      31.405  26.353  27.133  1.00  0.00    -0.223 OA
ATOM     13  O   UNL A   1      29.514  25.823  25.575  1.00  0.00    -0.223 OA
BRANCH  11  14
ATOM     14  C   UNL A   1      31.607  26.991  24.639  1.00  0.00     0.071 A 
ATOM     15  C   UNL A   1      30.390  29.593  22.123  1.00  0.00     0.044 C 
ATOM     16  C   UNL A   1      31.290  28.717  22.946  1.00  0.00    -0.050 A 
ATOM     17  C   UNL A   1      32.675  28.860  22.844  1.00  0.00     0.004 A 
ATOM     18  C   UNL A   1      30.760  27.771  23.836  1.00  0.00     0.024 A 
ATOM     19  C   UNL A   1      33.522  28.072  23.620  1.00  0.00     0.005 A 
ATOM     20  C   UNL A   1      33.009  27.137  24.535  1.00  0.00    -0.032 A 
ATOM     21  C   UNL A   1      34.021  26.340  25.317  1.00  0.00     0.046 C 
ENDBRANCH  11  14
ENDBRANCH   9  11
ENDBRANCH   6   9
ENDBRANCH   4   5
ENDBRANCH   3   4
ENDBRANCH   2   3
ENDBRANCH   1   2
BRANCH   1  22
ATOM     22  C   UNL A   1      36.461  23.051  24.264  1.00  0.00     0.021 C 
BRANCH  22  23
ATOM     23  C   UNL A   1      37.131  23.436  25.583  1.00  0.00     0.116 C 
BRANCH  23  24
ATOM     24  N   UNL A   1      38.036  22.422  26.117  1.00  0.00    -0.352 N 
ATOM     25  C   UNL A   1      39.315  22.419  26.656  1.00  0.00     0.251 C 
ATOM     26  H   UNL A   1      37.643  21.520  26.089  1.00  0.00     0.163 HD
ATOM     27  O   UNL A   1      39.884  21.350  26.769  1.00  0.00    -0.269 OA
BRANCH  25  28
ATOM     28  C   UNL A   1      40.000  23.663  27.100  1.00  0.00     0.039 A 
ATOM     29  C   UNL A   1      41.245  23.628  27.746  1.00  0.00     0.014 A 
ATOM     30  C   UNL A   1      39.376  24.890  26.973  1.00  0.00     0.014 A 
ATOM     31  C   UNL A   1      41.736  24.801  28.338  1.00  0.00     0.010 A 
ATOM     32  C   UNL A   1      39.996  26.069  27.249  1.00  0.00     0.010 A 
ATOM     33  C   UNL A   1      41.056  26.004  28.119  1.00  0.00    -0.014 A 
BRANCH  33  34
ATOM     34  C   UNL A   1      41.303  27.242  28.837  1.00  0.00     0.031 A 
ATOM     35  C   UNL A   1      42.493  27.976  28.388  1.00  0.00     0.074 A 
ATOM     36  C   UNL A   1      40.342  27.909  29.517  1.00  0.00     0.049 A 
ATOM     37  N   UNL A   1      43.638  28.037  28.973  1.00  0.00    -0.248 NA
ATOM     38  C   UNL A   1      42.447  28.598  27.053  1.00  0.00     0.031 C 
ATOM     39  C   UNL A   1      38.906  27.594  29.593  1.00  0.00     0.029 A 
ATOM     40  N   UNL A   1      40.428  29.097  30.184  1.00  0.00    -0.354 N 
ATOM     41  C   UNL A   1      44.375  28.917  28.196  1.00  0.00     0.074 A 
ATOM     42  C   UNL A   1      43.713  28.995  26.918  1.00  0.00     0.031 C 
ATOM     43  C   UNL A   1      38.239  28.655  30.102  1.00  0.00     0.029 A 
ATOM     44  C   UNL A   1      39.205  29.648  30.539  1.00  0.00     0.049 A 
ATOM     45  H   UNL A   1      41.288  29.527  30.396  1.00  0.00     0.167 HD
ATOM     46  C   UNL A   1      45.252  29.789  28.758  1.00  0.00     0.031 A 
ATOM     47  C   UNL A   1      38.990  30.842  31.144  1.00  0.00     0.031 A 
ATOM     48  C   UNL A   1      45.396  29.569  30.174  1.00  0.00     0.049 A 
ATOM     49  C   UNL A   1      40.249  31.254  31.811  1.00  0.00     0.074 A 
ATOM     50  C   UNL A   1      46.007  28.644  30.990  1.00  0.00     0.029 A 
ATOM     51  N   UNL A   1      44.491  30.258  30.944  1.00  0.00    -0.354 N 
ATOM     52  N   UNL A   1      40.806  30.577  32.776  1.00  0.00    -0.248 NA
ATOM     53  C   UNL A   1      41.091  32.283  31.210  1.00  0.00     0.031 C 
ATOM     54  C   UNL A   1      45.309  28.684  32.236  1.00  0.00     0.029 A 
ATOM     55  C   UNL A   1      44.293  29.633  32.152  1.00  0.00     0.049 A 
ATOM     56  H   UNL A   1      44.043  31.090  30.667  1.00  0.00     0.167 HD
ATOM     57  C   UNL A   1      42.161  30.800  32.623  1.00  0.00     0.074 A 
ATOM     58  C   UNL A   1      42.264  31.973  31.769  1.00  0.00     0.031 C 
ATOM     59  C   UNL A   1      43.074  29.831  32.916  1.00  0.00     0.031 A 
BRANCH  46  60
ATOM     60  C   UNL A   1      45.621  31.114  28.149  1.00  0.00    -0.014 A 
ATOM     61  C   UNL A   1      44.703  32.173  28.248  1.00  0.00     0.010 A 
ATOM     62  C   UNL A   1      46.719  31.287  27.280  1.00  0.00     0.010 A 
ATOM     63  C   UNL A   1      44.864  33.342  27.494  1.00  0.00     0.020 A 
ATOM     64  C   UNL A   1      46.916  32.467  26.561  1.00  0.00     0.020 A 
ATOM     65  C   UNL A   1      45.967  33.476  26.650  1.00  0.00     0.054 A 
BRANCH  65  66
ATOM     66  S   UNL A   1      46.121  34.951  25.617  1.00  0.00     0.124 S 
ATOM     67  O   UNL A   1      45.560  34.487  24.351  1.00  0.00    -0.237 OA
ATOM     68  O   UNL A   1      45.319  35.929  26.347  1.00  0.00    -0.237 OA
ATOM     69  O   UNL A   1      47.558  35.213  25.609  1.00  0.00    -0.744 OA
ENDBRANCH  65  66
ENDBRANCH  46  60
BRANCH  47  70
ATOM     70  C   UNL A   1      37.818  31.741  31.034  1.00  0.00    -0.014 A 
ATOM     71  C   UNL A   1      36.512  31.226  30.934  1.00  0.00     0.010 A 
ATOM     72  C   UNL A   1      37.964  33.117  31.301  1.00  0.00     0.010 A 
ATOM     73  C   UNL A   1      35.393  32.046  31.151  1.00  0.00     0.020 A 
ATOM     74  C   UNL A   1      36.853  33.943  31.511  1.00  0.00     0.020 A 
ATOM     75  C   UNL A   1      35.573  33.397  31.458  1.00  0.00     0.054 A 
BRANCH  75  76
ATOM     76  S   UNL A   1      34.130  34.408  31.908  1.00  0.00     0.124 S 
ATOM     77  O   UNL A   1      33.470  33.575  32.909  1.00  0.00    -0.237 OA
ATOM     78  O   UNL A   1      34.746  35.632  32.410  1.00  0.00    -0.237 OA
ATOM     79  O   UNL A   1      33.406  34.552  30.647  1.00  0.00    -0.744 OA
ENDBRANCH  75  76
ENDBRANCH  47  70
BRANCH  59  80
ATOM     80  C   UNL A   1      42.703  28.803  33.952  1.00  0.00    -0.014 A 
ATOM     81  C   UNL A   1      42.521  27.435  33.678  1.00  0.00     0.010 A 
ATOM     82  C   UNL A   1      42.595  29.241  35.285  1.00  0.00     0.010 A 
ATOM     83  C   UNL A   1      42.220  26.533  34.710  1.00  0.00     0.020 A 
ATOM     84  C   UNL A   1      42.312  28.346  36.319  1.00  0.00     0.020 A 
ATOM     85  C   UNL A   1      42.118  26.996  36.026  1.00  0.00     0.054 A 
BRANCH  85  86
ATOM     86  S   UNL A   1      41.773  25.818  37.363  1.00  0.00     0.124 S 
ATOM     87  O   UNL A   1      42.778  26.170  38.362  1.00  0.00    -0.237 OA
ATOM     88  O   UNL A   1      40.391  26.128  37.722  1.00  0.00    -0.237 OA
ATOM     89  O   UNL A   1      41.960  24.511  36.732  1.00  0.00    -0.744 OA
ENDBRANCH  85  86
ENDBRANCH  59  80
ENDBRANCH  33  34
ENDBRANCH  25  28
ENDBRANCH  23  24
ENDBRANCH  22  23
ENDBRANCH   1  22
TORSDOF 18
ENDMDL
MODEL 3
REMARK VINA RESULT:     -11.4      1.451      2.221
REMARK SMILES Cc1ccc(C)c(S(=O)(=O)[C@H](C)C(=O)NCCCCCCNC(=O)c2ccc(-c3c4nc(c(-c5ccc(S(=O)(=O)[O-])cc5)c5ccc([nH]5)c(-c5ccc(S(=O)(=O)[O-])cc5)c5nc(c(-c6ccc(S(=O)(=O)[O-])cc6)c6ccc3[nH]6)C=C5)C=C4)cc2)c1
REMARK SMILES IDX 19 1 18 2 17 3 16 4 15 5 13 6 14 7 11 9 12 10 8 11 9 12
REMARK SMILES IDX 10 13 7 14 1 15 2 16 3 17 85 18 4 19 5 20 6 21 20 22 21 23
REMARK SMILES IDX 22 24 23 25 24 27 25 28 26 29 84 30 27 31 83 32 28 33 29 34
REMARK SMILES IDX 30 35 77 36 31 37 82 38 76 39 78 40 32 41 81 42 75 43 74 44
REMARK SMILES IDX 33 46 63 47 44 48 62 49 45 50 48 51 61 52 79 53 46 54 47 55
REMARK SMILES IDX 60 57 80 58 49 59 34 60 35 61 43 62 36 63 42 64 37 65 38 66
REMARK SMILES IDX 39 67 40 68 41 69 64 70 65 71 73 72 66 73 72 74 67 75 68 76
REMARK SMILES IDX 69 77 70 78 71 79 50 80 51 81 59 82 52 83 58 84 53 85 54 86
REMARK SMILES IDX 55 87 56 88 57 89
REMARK H PARENT 15 8 22 26 78 45 48 56
REMARK Flexibility Score: inf
ROOT
ATOM      1  C   UNL A   1      35.046  22.412  26.030  1.00  0.00     0.002 C 
ENDROOT
BRANCH   1   2
ATOM      2  C   UNL A   1      34.302  21.073  25.933  1.00  0.00     0.002 C 
BRANCH   2   3
ATOM      3  C   UNL A   1      33.295  20.884  24.795  1.00  0.00     0.021 C 
BRANCH   3   4
ATOM      4  C   UNL A   1      32.049  21.760  24.848  1.00  0.00     0.116 C 
BRANCH   4   5
ATOM      5  N   UNL A   1      31.887  22.649  23.707  1.00  0.00    -0.355 N 
ATOM      6  C   UNL A   1      32.415  23.894  23.513  1.00  0.00     0.238 C 
ATOM      7  O   UNL A   1      32.515  24.291  22.346  1.00  0.00    -0.274 OA
ATOM      8  H   UNL A   1      31.323  22.306  22.976  1.00  0.00     0.163 HD
BRANCH   6   9
ATOM      9  C   UNL A   1      32.826  24.807  24.645  1.00  0.00     0.199 C 
ATOM     10  C   UNL A   1      33.867  25.852  24.257  1.00  0.00     0.036 C 
BRANCH   9  11
ATOM     11  S   UNL A   1      31.412  25.466  25.489  1.00  0.00     0.190 S 
ATOM     12  O   UNL A   1      31.546  25.218  26.914  1.00  0.00    -0.223 OA
ATOM     13  O   UNL A   1      30.228  24.991  24.793  1.00  0.00    -0.223 OA
BRANCH  11  14
ATOM     14  C   UNL A   1      31.332  27.251  25.336  1.00  0.00     0.071 A 
ATOM     15  C   UNL A   1      32.451  30.378  27.219  1.00  0.00     0.044 C 
ATOM     16  C   UNL A   1      31.853  29.480  26.176  1.00  0.00    -0.050 A 
ATOM     17  C   UNL A   1      31.314  30.035  25.014  1.00  0.00     0.004 A 
ATOM     18  C   UNL A   1      31.848  28.086  26.339  1.00  0.00     0.024 A 
ATOM     19  C   UNL A   1      30.779  29.213  24.025  1.00  0.00     0.005 A 
ATOM     20  C   UNL A   1      30.788  27.814  24.159  1.00  0.00    -0.032 A 
ATOM     21  C   UNL A   1      30.178  27.028  23.028  1.00  0.00     0.046 C 
ENDBRANCH  11  14
ENDBRANCH   9  11
ENDBRANCH   6   9
ENDBRANCH   4   5
ENDBRANCH   3   4
ENDBRANCH   2   3
ENDBRANCH   1   2
BRANCH   1  22
ATOM     22  C   UNL A   1      36.196  22.742  25.066  1.00  0.00     0.021 C 
BRANCH  22  23
ATOM     23  C   UNL A   1      37.476  23.393  25.590  1.00  0.00     0.116 C 
BRANCH  23  24
ATOM     24  N   UNL A   1      38.367  22.482  26.303  1.00  0.00    -0.352 N 
ATOM     25  C   UNL A   1      39.571  22.602  26.982  1.00  0.00     0.251 C 
ATOM     26  H   UNL A   1      38.033  21.556  26.301  1.00  0.00     0.163 HD
ATOM     27  O   UNL A   1      40.183  21.583  27.244  1.00  0.00    -0.269 OA
BRANCH  25  28
ATOM     28  C   UNL A   1      40.127  23.917  27.401  1.00  0.00     0.039 A 
ATOM     29  C   UNL A   1      41.393  24.026  27.996  1.00  0.00     0.014 A 
ATOM     30  C   UNL A   1      39.362  25.064  27.303  1.00  0.00     0.014 A 
ATOM     31  C   UNL A   1      41.769  25.248  28.570  1.00  0.00     0.010 A 
ATOM     32  C   UNL A   1      39.853  26.306  27.557  1.00  0.00     0.010 A 
ATOM     33  C   UNL A   1      40.948  26.365  28.383  1.00  0.00    -0.014 A 
BRANCH  33  34
ATOM     34  C   UNL A   1      41.081  27.625  29.093  1.00  0.00     0.031 A 
ATOM     35  C   UNL A   1      42.132  28.507  28.572  1.00  0.00     0.074 A 
ATOM     36  C   UNL A   1      40.089  28.162  29.842  1.00  0.00     0.049 A 
ATOM     37  N   UNL A   1      43.297  28.717  29.079  1.00  0.00    -0.248 NA
ATOM     38  C   UNL A   1      41.916  29.118  27.248  1.00  0.00     0.031 C 
ATOM     39  C   UNL A   1      38.715  27.662  30.012  1.00  0.00     0.029 A 
ATOM     40  N   UNL A   1      40.066  29.350  30.512  1.00  0.00    -0.354 N 
ATOM     41  C   UNL A   1      43.859  29.685  28.263  1.00  0.00     0.074 A 
ATOM     42  C   UNL A   1      43.108  29.676  27.033  1.00  0.00     0.031 C 
ATOM     43  C   UNL A   1      37.952  28.628  30.574  1.00  0.00     0.029 A 
ATOM     44  C   UNL A   1      38.808  29.738  30.954  1.00  0.00     0.049 A 
ATOM     45  H   UNL A   1      40.875  29.888  30.670  1.00  0.00     0.167 HD
ATOM     46  C   UNL A   1      44.652  30.664  28.772  1.00  0.00     0.031 A 
ATOM     47  C   UNL A   1      38.483  30.894  31.582  1.00  0.00     0.031 A 
ATOM     48  C   UNL A   1      44.919  30.464  30.174  1.00  0.00     0.049 A 
ATOM     49  C   UNL A   1      39.719  31.466  32.167  1.00  0.00     0.074 A 
ATOM     50  C   UNL A   1      45.699  29.627  30.938  1.00  0.00     0.029 A 
ATOM     51  N   UNL A   1      43.986  31.030  31.008  1.00  0.00    -0.354 N 
ATOM     52  N   UNL A   1      40.423  30.867  33.086  1.00  0.00    -0.248 NA
ATOM     53  C   UNL A   1      40.378  32.596  31.520  1.00  0.00     0.031 C 
ATOM     54  C   UNL A   1      45.087  29.575  32.228  1.00  0.00     0.029 A 
ATOM     55  C   UNL A   1      43.953  30.384  32.221  1.00  0.00     0.049 A 
ATOM     56  H   UNL A   1      43.416  31.797  30.770  1.00  0.00     0.167 HD
ATOM     57  C   UNL A   1      41.724  31.265  32.844  1.00  0.00     0.074 A 
ATOM     58  C   UNL A   1      41.616  32.441  31.996  1.00  0.00     0.031 C 
ATOM     59  C   UNL A   1      42.773  30.422  33.067  1.00  0.00     0.031 A 
BRANCH  46  60
ATOM     60  C   UNL A   1      44.804  32.025  28.151  1.00  0.00    -0.014 A 
ATOM     61  C   UNL A   1      46.075  32.408  27.686  1.00  0.00     0.010 A 
ATOM     62  C   UNL A   1      43.812  33.026  28.225  1.00  0.00     0.010 A 
ATOM     63  C   UNL A   1      46.345  33.736  27.336  1.00  0.00     0.020 A 
ATOM     64  C   UNL A   1      44.057  34.342  27.833  1.00  0.00     0.020 A 
ATOM     65  C   UNL A   1      45.334  34.695  27.419  1.00  0.00     0.054 A 
BRANCH  65  66
ATOM     66  S   UNL A   1      45.716  36.422  27.047  1.00  0.00     0.124 S 
ATOM     67  O   UNL A   1      44.381  37.000  26.919  1.00  0.00    -0.237 OA
ATOM     68  O   UNL A   1      46.477  36.835  28.223  1.00  0.00    -0.237 OA
ATOM     69  O   UNL A   1      46.487  36.341  25.809  1.00  0.00    -0.744 OA
ENDBRANCH  65  66
ENDBRANCH  46  60
BRANCH  47  70
ATOM     70  C   UNL A   1      37.199  31.633  31.559  1.00  0.00    -0.014 A 
ATOM     71  C   UNL A   1      36.345  31.645  32.679  1.00  0.00     0.010 A 
ATOM     72  C   UNL A   1      36.939  32.552  30.523  1.00  0.00     0.010 A 
ATOM     73  C   UNL A   1      35.306  32.583  32.784  1.00  0.00     0.020 A 
ATOM     74  C   UNL A   1      35.899  33.486  30.617  1.00  0.00     0.020 A 
ATOM     75  C   UNL A   1      35.103  33.511  31.760  1.00  0.00     0.054 A 
BRANCH  75  76
ATOM     76  S   UNL A   1      33.870  34.830  31.984  1.00  0.00     0.124 S 
ATOM     77  O   UNL A   1      32.966  34.243  32.968  1.00  0.00    -0.237 OA
ATOM     78  O   UNL A   1      34.683  35.945  32.457  1.00  0.00    -0.237 OA
ATOM     79  O   UNL A   1      33.305  35.000  30.647  1.00  0.00    -0.744 OA
ENDBRANCH  75  76
ENDBRANCH  47  70
BRANCH  59  80
ATOM     80  C   UNL A   1      42.610  29.354  34.117  1.00  0.00    -0.014 A 
ATOM     81  C   UNL A   1      42.829  29.557  35.491  1.00  0.00     0.010 A 
ATOM     82  C   UNL A   1      42.151  28.095  33.689  1.00  0.00     0.010 A 
ATOM     83  C   UNL A   1      42.611  28.520  36.411  1.00  0.00     0.020 A 
ATOM     84  C   UNL A   1      41.916  27.063  34.600  1.00  0.00     0.020 A 
ATOM     85  C   UNL A   1      42.155  27.278  35.958  1.00  0.00     0.054 A 
BRANCH  85  86
ATOM     86  S   UNL A   1      41.831  25.954  37.156  1.00  0.00     0.124 S 
ATOM     87  O   UNL A   1      42.034  24.748  36.358  1.00  0.00    -0.237 OA
ATOM     88  O   UNL A   1      42.833  26.200  38.191  1.00  0.00    -0.237 OA
ATOM     89  O   UNL A   1      40.450  26.194  37.575  1.00  0.00    -0.744 OA
ENDBRANCH  85  86
ENDBRANCH  59  80
ENDBRANCH  33  34
ENDBRANCH  25  28
ENDBRANCH  23  24
ENDBRANCH  22  23
ENDBRANCH   1  22
TORSDOF 18
ENDMDL
