MODEL 1
REMARK VINA RESULT:     -11.0      0.000      0.000
REMARK SMILES C[C@@H](Cc1cnn(-c2ccccc2)n1)C(=O)NCCCCCCNC(=O)c1ccc(-c2c3nc(c(-c4ccc(S(=O)(=O)[O-])cc4)c4ccc([nH]4)c(-c4ccc(S(=O)(=O)[O-])cc4)c4nc(c(-c5ccc(S(=O)(=O)[O-])cc5)c5ccc2[nH]5)C=C4)C=C3)cc1
REMARK SMILES IDX 20 1 19 2 18 3 17 4 15 5 16 6 2 8 1 9 3 10 4 11 5 12 14 13
REMARK SMILES IDX 6 14 7 15 8 16 9 17 13 18 10 19 12 20 11 21 21 22 22 23
REMARK SMILES IDX 23 24 24 25 25 26 26 28 27 29 28 30 86 31 29 32 85 33 30 34
REMARK SMILES IDX 31 35 32 36 79 37 33 38 84 39 78 40 80 41 34 42 83 43 77 44
REMARK SMILES IDX 76 45 35 47 65 48 46 49 64 50 47 51 50 52 63 53 81 54 48 55
REMARK SMILES IDX 49 56 62 58 82 59 51 60 36 61 37 62 45 63 38 64 44 65 39 66
REMARK SMILES IDX 40 67 41 68 42 69 43 70 66 71 67 72 75 73 68 74 74 75 69 76
REMARK SMILES IDX 70 77 71 78 72 79 73 80 52 81 53 82 61 83 54 84 60 85 55 86
REMARK SMILES IDX 56 87 57 88 58 89 59 90
REMARK H PARENT 17 7 24 27 80 46 50 57
REMARK Flexibility Score: inf
ROOT
ATOM      1  C   UNL A   1      40.097  21.990  26.271  1.00  0.00     0.002 C 
ENDROOT
BRANCH   1   2
ATOM      2  C   UNL A   1      38.883  22.872  26.549  1.00  0.00     0.021 C 
BRANCH   2   3
ATOM      3  C   UNL A   1      37.647  22.551  25.729  1.00  0.00     0.116 C 
BRANCH   3   4
ATOM      4  N   UNL A   1      36.423  22.396  26.475  1.00  0.00    -0.356 N 
ATOM      5  C   UNL A   1      35.151  22.671  26.072  1.00  0.00     0.223 C 
ATOM      6  O   UNL A   1      34.225  22.245  26.770  1.00  0.00    -0.275 OA
ATOM      7  H   UNL A   1      36.519  22.049  27.392  1.00  0.00     0.163 HD
BRANCH   5   8
ATOM      8  C   UNL A   1      34.842  23.498  24.821  1.00  0.00     0.081 C 
ATOM      9  C   UNL A   1      34.251  22.671  23.679  1.00  0.00     0.018 C 
BRANCH   8  10
ATOM     10  C   UNL A   1      34.225  24.884  25.087  1.00  0.00     0.073 C 
BRANCH  10  11
ATOM     11  C   UNL A   1      33.386  25.534  24.036  1.00  0.00     0.084 A 
ATOM     12  C   UNL A   1      33.790  26.082  22.804  1.00  0.00     0.161 A 
ATOM     13  N   UNL A   1      32.059  25.727  24.186  1.00  0.00    -0.153 NA
ATOM     14  N   UNL A   1      32.758  26.654  22.194  1.00  0.00    -0.157 NA
ATOM     15  N   UNL A   1      31.752  26.461  23.082  1.00  0.00    -0.151 N 
BRANCH  15  16
ATOM     16  C   UNL A   1      30.551  27.180  22.931  1.00  0.00     0.086 A 
ATOM     17  C   UNL A   1      30.543  28.464  22.380  1.00  0.00     0.030 A 
ATOM     18  C   UNL A   1      29.399  26.651  23.526  1.00  0.00     0.030 A 
ATOM     19  C   UNL A   1      29.392  29.248  22.510  1.00  0.00     0.002 A 
ATOM     20  C   UNL A   1      28.240  27.415  23.595  1.00  0.00     0.002 A 
ATOM     21  C   UNL A   1      28.245  28.724  23.116  1.00  0.00     0.000 A 
ENDBRANCH  15  16
ENDBRANCH  10  11
ENDBRANCH   8  10
ENDBRANCH   5   8
ENDBRANCH   3   4
ENDBRANCH   2   3
ENDBRANCH   1   2
BRANCH   1  22
ATOM     22  C   UNL A   1      40.788  21.364  27.493  1.00  0.00     0.002 C 
BRANCH  22  23
ATOM     23  C   UNL A   1      41.832  20.270  27.234  1.00  0.00     0.021 C 
BRANCH  23  24
ATOM     24  C   UNL A   1      41.984  19.863  25.781  1.00  0.00     0.116 C 
BRANCH  24  25
ATOM     25  N   UNL A   1      43.366  19.535  25.428  1.00  0.00    -0.352 N 
ATOM     26  C   UNL A   1      44.392  20.401  25.083  1.00  0.00     0.251 C 
ATOM     27  H   UNL A   1      43.596  18.579  25.438  1.00  0.00     0.163 HD
ATOM     28  O   UNL A   1      45.368  20.003  24.472  1.00  0.00    -0.269 OA
BRANCH  26  29
ATOM     29  C   UNL A   1      44.271  21.816  25.486  1.00  0.00     0.039 A 
ATOM     30  C   UNL A   1      43.439  22.714  24.815  1.00  0.00     0.014 A 
ATOM     31  C   UNL A   1      44.998  22.220  26.601  1.00  0.00     0.014 A 
ATOM     32  C   UNL A   1      43.293  24.000  25.333  1.00  0.00     0.010 A 
ATOM     33  C   UNL A   1      44.691  23.396  27.222  1.00  0.00     0.010 A 
ATOM     34  C   UNL A   1      43.912  24.325  26.552  1.00  0.00    -0.014 A 
BRANCH  34  35
ATOM     35  C   UNL A   1      43.680  25.599  27.219  1.00  0.00     0.031 A 
ATOM     36  C   UNL A   1      44.687  26.632  26.875  1.00  0.00     0.074 A 
ATOM     37  C   UNL A   1      42.534  25.890  27.876  1.00  0.00     0.049 A 
ATOM     38  N   UNL A   1      45.685  27.021  27.594  1.00  0.00    -0.248 NA
ATOM     39  C   UNL A   1      44.710  27.155  25.496  1.00  0.00     0.031 C 
ATOM     40  C   UNL A   1      41.311  25.074  27.959  1.00  0.00     0.029 A 
ATOM     41  N   UNL A   1      42.165  27.029  28.522  1.00  0.00    -0.354 N 
ATOM     42  C   UNL A   1      46.275  28.055  26.874  1.00  0.00     0.074 A 
ATOM     43  C   UNL A   1      45.810  27.912  25.519  1.00  0.00     0.031 C 
ATOM     44  C   UNL A   1      40.280  25.833  28.389  1.00  0.00     0.029 A 
ATOM     45  C   UNL A   1      40.805  27.117  28.810  1.00  0.00     0.049 A 
ATOM     46  H   UNL A   1      42.808  27.735  28.765  1.00  0.00     0.167 HD
ATOM     47  C   UNL A   1      46.799  29.135  27.520  1.00  0.00     0.031 A 
ATOM     48  C   UNL A   1      40.157  28.167  29.372  1.00  0.00     0.031 A 
ATOM     49  C   UNL A   1      46.839  28.905  28.942  1.00  0.00     0.049 A 
ATOM     50  C   UNL A   1      41.174  28.953  30.105  1.00  0.00     0.074 A 
ATOM     51  C   UNL A   1      47.599  28.169  29.823  1.00  0.00     0.029 A 
ATOM     52  N   UNL A   1      45.658  29.211  29.570  1.00  0.00    -0.354 N 
ATOM     53  N   UNL A   1      41.843  28.477  31.121  1.00  0.00    -0.248 NA
ATOM     54  C   UNL A   1      41.741  30.143  29.485  1.00  0.00     0.031 C 
ATOM     55  C   UNL A   1      46.750  27.887  30.935  1.00  0.00     0.029 A 
ATOM     56  C   UNL A   1      45.517  28.508  30.736  1.00  0.00     0.049 A 
ATOM     57  H   UNL A   1      44.996  29.855  29.226  1.00  0.00     0.167 HD
ATOM     58  C   UNL A   1      43.102  29.030  30.990  1.00  0.00     0.074 A 
ATOM     59  C   UNL A   1      42.934  30.161  30.086  1.00  0.00     0.031 C 
ATOM     60  C   UNL A   1      44.219  28.338  31.359  1.00  0.00     0.031 A 
BRANCH  47  61
ATOM     61  C   UNL A   1      46.778  30.551  26.983  1.00  0.00    -0.014 A 
ATOM     62  C   UNL A   1      47.967  31.309  27.041  1.00  0.00     0.010 A 
ATOM     63  C   UNL A   1      45.594  31.255  26.686  1.00  0.00     0.010 A 
ATOM     64  C   UNL A   1      47.960  32.701  26.859  1.00  0.00     0.020 A 
ATOM     65  C   UNL A   1      45.580  32.635  26.469  1.00  0.00     0.020 A 
ATOM     66  C   UNL A   1      46.761  33.355  26.581  1.00  0.00     0.054 A 
BRANCH  66  67
ATOM     67  S   UNL A   1      46.748  35.156  26.412  1.00  0.00     0.124 S 
ATOM     68  O   UNL A   1      46.061  35.337  25.137  1.00  0.00    -0.237 OA
ATOM     69  O   UNL A   1      46.006  35.571  27.599  1.00  0.00    -0.237 OA
ATOM     70  O   UNL A   1      48.167  35.509  26.417  1.00  0.00    -0.744 OA
ENDBRANCH  66  67
ENDBRANCH  47  61
BRANCH  48  71
ATOM     71  C   UNL A   1      38.793  28.685  29.101  1.00  0.00    -0.014 A 
ATOM     72  C   UNL A   1      37.875  28.902  30.149  1.00  0.00     0.010 A 
ATOM     73  C   UNL A   1      38.506  29.265  27.849  1.00  0.00     0.010 A 
ATOM     74  C   UNL A   1      36.754  29.732  29.970  1.00  0.00     0.020 A 
ATOM     75  C   UNL A   1      37.390  30.093  27.665  1.00  0.00     0.020 A 
ATOM     76  C   UNL A   1      36.533  30.344  28.733  1.00  0.00     0.054 A 
BRANCH  76  77
ATOM     77  S   UNL A   1      35.196  31.569  28.566  1.00  0.00     0.124 S 
ATOM     78  O   UNL A   1      34.984  31.989  29.949  1.00  0.00    -0.237 OA
ATOM     79  O   UNL A   1      35.790  32.571  27.686  1.00  0.00    -0.237 OA
ATOM     80  O   UNL A   1      34.100  30.802  27.977  1.00  0.00    -0.744 OA
ENDBRANCH  76  77
ENDBRANCH  48  71
BRANCH  60  81
ATOM     81  C   UNL A   1      44.075  27.256  32.393  1.00  0.00    -0.014 A 
ATOM     82  C   UNL A   1      43.724  27.463  33.739  1.00  0.00     0.010 A 
ATOM     83  C   UNL A   1      44.217  25.937  31.927  1.00  0.00     0.010 A 
ATOM     84  C   UNL A   1      43.529  26.367  34.599  1.00  0.00     0.020 A 
ATOM     85  C   UNL A   1      44.008  24.846  32.769  1.00  0.00     0.020 A 
ATOM     86  C   UNL A   1      43.672  25.065  34.104  1.00  0.00     0.054 A 
BRANCH  86  87
ATOM     87  S   UNL A   1      43.385  23.646  35.198  1.00  0.00     0.124 S 
ATOM     88  O   UNL A   1      43.955  22.538  34.437  1.00  0.00    -0.237 OA
ATOM     89  O   UNL A   1      44.112  24.017  36.410  1.00  0.00    -0.237 OA
ATOM     90  O   UNL A   1      41.930  23.609  35.347  1.00  0.00    -0.744 OA
ENDBRANCH  86  87
ENDBRANCH  60  81
ENDBRANCH  34  35
ENDBRANCH  26  29
ENDBRANCH  24  25
ENDBRANCH  23  24
ENDBRANCH  22  23
ENDBRANCH   1  22
TORSDOF 19
ENDMDL
MODEL 2
REMARK VINA RESULT:     -10.8      2.604      3.887
REMARK SMILES C[C@@H](Cc1cnn(-c2ccccc2)n1)C(=O)NCCCCCCNC(=O)c1ccc(-c2c3nc(c(-c4ccc(S(=O)(=O)[O-])cc4)c4ccc([nH]4)c(-c4ccc(S(=O)(=O)[O-])cc4)c4nc(c(-c5ccc(S(=O)(=O)[O-])cc5)c5ccc2[nH]5)C=C4)C=C3)cc1
REMARK SMILES IDX 20 1 19 2 18 3 17 4 15 5 16 6 2 8 1 9 3 10 4 11 5 12 14 13
REMARK SMILES IDX 6 14 7 15 8 16 9 17 13 18 10 19 12 20 11 21 21 22 22 23
REMARK SMILES IDX 23 24 24 25 25 26 26 28 27 29 28 30 86 31 29 32 85 33 30 34
REMARK SMILES IDX 31 35 32 36 79 37 33 38 84 39 78 40 80 41 34 42 83 43 77 44
REMARK SMILES IDX 76 45 35 47 65 48 46 49 64 50 47 51 50 52 63 53 81 54 48 55
REMARK SMILES IDX 49 56 62 58 82 59 51 60 36 61 37 62 45 63 38 64 44 65 39 66
REMARK SMILES IDX 40 67 41 68 42 69 43 70 66 71 67 72 75 73 68 74 74 75 69 76
REMARK SMILES IDX 70 77 71 78 72 79 73 80 52 81 53 82 61 83 54 84 60 85 55 86
REMARK SMILES IDX 56 87 57 88 58 89 59 90
REMARK H PARENT 17 7 24 27 80 46 50 57
REMARK Flexibility Score: inf
ROOT
ATOM      1  C   UNL A   1      34.797  21.046  25.446  1.00  0.00     0.002 C 
ENDROOT
BRANCH   1   2
ATOM      2  C   UNL A   1      33.511  20.448  26.009  1.00  0.00     0.021 C 
BRANCH   2   3
ATOM      3  C   UNL A   1      32.226  21.033  25.451  1.00  0.00     0.116 C 
BRANCH   3   4
ATOM      4  N   UNL A   1      31.930  20.699  24.080  1.00  0.00    -0.356 N 
ATOM      5  C   UNL A   1      32.057  21.486  22.976  1.00  0.00     0.223 C 
ATOM      6  O   UNL A   1      31.980  20.939  21.871  1.00  0.00    -0.275 OA
ATOM      7  H   UNL A   1      31.593  19.788  23.922  1.00  0.00     0.163 HD
BRANCH   5   8
ATOM      8  C   UNL A   1      32.259  23.002  23.062  1.00  0.00     0.081 C 
ATOM      9  C   UNL A   1      33.115  23.563  21.926  1.00  0.00     0.018 C 
BRANCH   8  10
ATOM     10  C   UNL A   1      31.014  23.808  23.475  1.00  0.00     0.073 C 
BRANCH  10  11
ATOM     11  C   UNL A   1      31.110  24.799  24.588  1.00  0.00     0.084 A 
ATOM     12  C   UNL A   1      30.133  25.149  25.539  1.00  0.00     0.161 A 
ATOM     13  N   UNL A   1      32.205  25.560  24.787  1.00  0.00    -0.153 NA
ATOM     14  N   UNL A   1      30.571  26.142  26.305  1.00  0.00    -0.157 NA
ATOM     15  N   UNL A   1      31.797  26.391  25.786  1.00  0.00    -0.151 N 
BRANCH  15  16
ATOM     16  C   UNL A   1      32.470  27.576  26.140  1.00  0.00     0.086 A 
ATOM     17  C   UNL A   1      33.857  27.682  26.018  1.00  0.00     0.030 A 
ATOM     18  C   UNL A   1      31.731  28.568  26.798  1.00  0.00     0.030 A 
ATOM     19  C   UNL A   1      34.510  28.752  26.641  1.00  0.00     0.002 A 
ATOM     20  C   UNL A   1      32.383  29.660  27.360  1.00  0.00     0.002 A 
ATOM     21  C   UNL A   1      33.774  29.737  27.309  1.00  0.00     0.000 A 
ENDBRANCH  15  16
ENDBRANCH  10  11
ENDBRANCH   8  10
ENDBRANCH   5   8
ENDBRANCH   3   4
ENDBRANCH   2   3
ENDBRANCH   1   2
BRANCH   1  22
ATOM     22  C   UNL A   1      34.864  22.579  25.361  1.00  0.00     0.002 C 
BRANCH  22  23
ATOM     23  C   UNL A   1      36.065  23.273  26.018  1.00  0.00     0.021 C 
BRANCH  23  24
ATOM     24  C   UNL A   1      37.337  23.268  25.192  1.00  0.00     0.116 C 
BRANCH  24  25
ATOM     25  N   UNL A   1      38.221  22.150  25.524  1.00  0.00    -0.352 N 
ATOM     26  C   UNL A   1      39.459  22.190  26.145  1.00  0.00     0.251 C 
ATOM     27  H   UNL A   1      37.894  21.256  25.275  1.00  0.00     0.163 HD
ATOM     28  O   UNL A   1      40.242  21.263  26.041  1.00  0.00    -0.269 OA
BRANCH  26  29
ATOM     29  C   UNL A   1      39.797  23.386  26.944  1.00  0.00     0.039 A 
ATOM     30  C   UNL A   1      40.934  23.445  27.752  1.00  0.00     0.014 A 
ATOM     31  C   UNL A   1      38.949  24.482  26.830  1.00  0.00     0.014 A 
ATOM     32  C   UNL A   1      41.241  24.652  28.380  1.00  0.00     0.010 A 
ATOM     33  C   UNL A   1      39.362  25.708  27.265  1.00  0.00     0.010 A 
ATOM     34  C   UNL A   1      40.456  25.785  28.112  1.00  0.00    -0.014 A 
BRANCH  34  35
ATOM     35  C   UNL A   1      40.809  27.105  28.618  1.00  0.00     0.031 A 
ATOM     36  C   UNL A   1      42.049  27.651  28.014  1.00  0.00     0.074 A 
ATOM     37  C   UNL A   1      39.969  27.859  29.362  1.00  0.00     0.049 A 
ATOM     38  N   UNL A   1      43.224  27.695  28.546  1.00  0.00    -0.248 NA
ATOM     39  C   UNL A   1      42.031  28.008  26.583  1.00  0.00     0.031 C 
ATOM     40  C   UNL A   1      38.566  27.573  29.705  1.00  0.00     0.029 A 
ATOM     41  N   UNL A   1      40.145  29.104  29.882  1.00  0.00    -0.354 N 
ATOM     42  C   UNL A   1      44.019  28.367  27.621  1.00  0.00     0.074 A 
ATOM     43  C   UNL A   1      43.318  28.295  26.366  1.00  0.00     0.031 C 
ATOM     44  C   UNL A   1      37.962  28.698  30.147  1.00  0.00     0.029 A 
ATOM     45  C   UNL A   1      38.975  29.721  30.318  1.00  0.00     0.049 A 
ATOM     46  H   UNL A   1      41.028  29.535  29.945  1.00  0.00     0.167 HD
ATOM     47  C   UNL A   1      44.994  29.221  28.042  1.00  0.00     0.031 A 
ATOM     48  C   UNL A   1      38.848  30.981  30.802  1.00  0.00     0.031 A 
ATOM     49  C   UNL A   1      45.181  29.115  29.467  1.00  0.00     0.049 A 
ATOM     50  C   UNL A   1      40.185  31.387  31.289  1.00  0.00     0.074 A 
ATOM     51  C   UNL A   1      45.761  28.226  30.343  1.00  0.00     0.029 A 
ATOM     52  N   UNL A   1      44.309  29.895  30.185  1.00  0.00    -0.354 N 
ATOM     53  N   UNL A   1      40.796  30.782  32.273  1.00  0.00    -0.248 NA
ATOM     54  C   UNL A   1      41.031  32.219  30.445  1.00  0.00     0.031 C 
ATOM     55  C   UNL A   1      45.062  28.379  31.579  1.00  0.00     0.029 A 
ATOM     56  C   UNL A   1      44.119  29.399  31.446  1.00  0.00     0.049 A 
ATOM     57  H   UNL A   1      43.875  30.708  29.836  1.00  0.00     0.167 HD
ATOM     58  C   UNL A   1      42.129  30.809  31.915  1.00  0.00     0.074 A 
ATOM     59  C   UNL A   1      42.233  31.839  30.888  1.00  0.00     0.031 C 
ATOM     60  C   UNL A   1      42.968  29.782  32.239  1.00  0.00     0.031 A 
BRANCH  47  61
ATOM     61  C   UNL A   1      45.395  30.490  27.319  1.00  0.00    -0.014 A 
ATOM     62  C   UNL A   1      46.768  30.736  27.104  1.00  0.00     0.010 A 
ATOM     63  C   UNL A   1      44.516  31.570  27.093  1.00  0.00     0.010 A 
ATOM     64  C   UNL A   1      47.237  32.005  26.730  1.00  0.00     0.020 A 
ATOM     65  C   UNL A   1      44.969  32.828  26.688  1.00  0.00     0.020 A 
ATOM     66  C   UNL A   1      46.331  33.045  26.532  1.00  0.00     0.054 A 
BRANCH  66  67
ATOM     67  S   UNL A   1      46.947  34.695  26.114  1.00  0.00     0.124 S 
ATOM     68  O   UNL A   1      48.136  34.384  25.326  1.00  0.00    -0.237 OA
ATOM     69  O   UNL A   1      45.825  35.264  25.374  1.00  0.00    -0.237 OA
ATOM     70  O   UNL A   1      47.200  35.304  27.418  1.00  0.00    -0.744 OA
ENDBRANCH  66  67
ENDBRANCH  47  61
BRANCH  48  71
ATOM     71  C   UNL A   1      37.736  31.948  30.628  1.00  0.00    -0.014 A 
ATOM     72  C   UNL A   1      37.897  33.110  29.847  1.00  0.00     0.010 A 
ATOM     73  C   UNL A   1      36.423  31.566  30.970  1.00  0.00     0.010 A 
ATOM     74  C   UNL A   1      36.783  33.818  29.361  1.00  0.00     0.020 A 
ATOM     75  C   UNL A   1      35.309  32.267  30.489  1.00  0.00     0.020 A 
ATOM     76  C   UNL A   1      35.493  33.375  29.664  1.00  0.00     0.054 A 
BRANCH  76  77
ATOM     77  S   UNL A   1      34.062  34.175  28.873  1.00  0.00     0.124 S 
ATOM     78  O   UNL A   1      33.510  33.094  28.062  1.00  0.00    -0.237 OA
ATOM     79  O   UNL A   1      33.251  34.583  30.017  1.00  0.00    -0.237 OA
ATOM     80  O   UNL A   1      34.659  35.275  28.117  1.00  0.00    -0.744 OA
ENDBRANCH  76  77
ENDBRANCH  48  71
BRANCH  60  81
ATOM     81  C   UNL A   1      42.617  28.925  33.423  1.00  0.00    -0.014 A 
ATOM     82  C   UNL A   1      41.692  27.865  33.411  1.00  0.00     0.010 A 
ATOM     83  C   UNL A   1      43.357  29.162  34.595  1.00  0.00     0.010 A 
ATOM     84  C   UNL A   1      41.509  27.070  34.555  1.00  0.00     0.020 A 
ATOM     85  C   UNL A   1      43.192  28.366  35.728  1.00  0.00     0.020 A 
ATOM     86  C   UNL A   1      42.264  27.327  35.706  1.00  0.00     0.054 A 
BRANCH  86  87
ATOM     87  S   UNL A   1      42.060  26.280  37.175  1.00  0.00     0.124 S 
ATOM     88  O   UNL A   1      40.710  26.617  37.619  1.00  0.00    -0.237 OA
ATOM     89  O   UNL A   1      42.228  24.932  36.638  1.00  0.00    -0.237 OA
ATOM     90  O   UNL A   1      43.132  26.719  38.067  1.00  0.00    -0.744 OA
ENDBRANCH  86  87
ENDBRANCH  60  81
ENDBRANCH  34  35
ENDBRANCH  26  29
ENDBRANCH  24  25
ENDBRANCH  23  24
ENDBRANCH  22  23
ENDBRANCH   1  22
TORSDOF 19
ENDMDL
MODEL 3
REMARK VINA RESULT:     -10.7      4.157      9.871
REMARK SMILES C[C@@H](Cc1cnn(-c2ccccc2)n1)C(=O)NCCCCCCNC(=O)c1ccc(-c2c3nc(c(-c4ccc(S(=O)(=O)[O-])cc4)c4ccc([nH]4)c(-c4ccc(S(=O)(=O)[O-])cc4)c4nc(c(-c5ccc(S(=O)(=O)[O-])cc5)c5ccc2[nH]5)C=C4)C=C3)cc1
REMARK SMILES IDX 20 1 19 2 18 3 17 4 15 5 16 6 2 8 1 9 3 10 4 11 5 12 14 13
REMARK SMILES IDX 6 14 7 15 8 16 9 17 13 18 10 19 12 20 11 21 21 22 22 23
REMARK SMILES IDX 23 24 24 25 25 26 26 28 27 29 28 30 86 31 29 32 85 33 30 34
REMARK SMILES IDX 31 35 32 36 79 37 33 38 84 39 78 40 80 41 34 42 83 43 77 44
REMARK SMILES IDX 76 45 35 47 65 48 46 49 64 50 47 51 50 52 63 53 81 54 48 55
REMARK SMILES IDX 49 56 62 58 82 59 51 60 36 61 37 62 45 63 38 64 44 65 39 66
REMARK SMILES IDX 40 67 41 68 42 69 43 70 66 71 67 72 75 73 68 74 74 75 69 76
REMARK SMILES IDX 70 77 71 78 72 79 73 80 52 81 53 82 61 83 54 84 60 85 55 86
REMARK SMILES IDX 56 87 57 88 58 89 59 90
REMARK H PARENT 17 7 24 27 80 46 50 57
REMARK Flexibility Score: inf
ROOT
ATOM      1  C   UNL A   1      32.907  29.205  26.299  1.00  0.00     0.002 C 
ENDROOT
BRANCH   1   2
ATOM      2  C   UNL A   1      32.402  27.902  26.913  1.00  0.00     0.021 C 
BRANCH   2   3
ATOM      3  C   UNL A   1      31.300  27.204  26.137  1.00  0.00     0.116 C 
BRANCH   3   4
ATOM      4  N   UNL A   1      30.753  26.021  26.753  1.00  0.00    -0.356 N 
ATOM      5  C   UNL A   1      30.723  24.752  26.260  1.00  0.00     0.223 C 
ATOM      6  O   UNL A   1      30.428  23.842  27.040  1.00  0.00    -0.275 OA
ATOM      7  H   UNL A   1      30.349  26.147  27.643  1.00  0.00     0.163 HD
BRANCH   5   8
ATOM      8  C   UNL A   1      31.010  24.431  24.790  1.00  0.00     0.081 C 
ATOM      9  C   UNL A   1      30.121  25.206  23.817  1.00  0.00     0.018 C 
BRANCH   8  10
ATOM     10  C   UNL A   1      32.500  24.288  24.428  1.00  0.00     0.073 C 
BRANCH  10  11
ATOM     11  C   UNL A   1      33.195  22.986  24.658  1.00  0.00     0.084 A 
ATOM     12  C   UNL A   1      34.544  22.757  24.987  1.00  0.00     0.161 A 
ATOM     13  N   UNL A   1      32.573  21.798  24.515  1.00  0.00    -0.153 NA
ATOM     14  N   UNL A   1      34.797  21.453  25.013  1.00  0.00    -0.157 NA
ATOM     15  N   UNL A   1      33.600  20.918  24.673  1.00  0.00    -0.151 N 
BRANCH  15  16
ATOM     16  C   UNL A   1      33.529  19.560  24.306  1.00  0.00     0.086 A 
ATOM     17  C   UNL A   1      34.536  18.662  24.670  1.00  0.00     0.030 A 
ATOM     18  C   UNL A   1      32.526  19.184  23.405  1.00  0.00     0.030 A 
ATOM     19  C   UNL A   1      34.576  17.407  24.052  1.00  0.00     0.002 A 
ATOM     20  C   UNL A   1      32.540  17.912  22.844  1.00  0.00     0.002 A 
ATOM     21  C   UNL A   1      33.581  17.035  23.143  1.00  0.00     0.000 A 
ENDBRANCH  15  16
ENDBRANCH  10  11
ENDBRANCH   8  10
ENDBRANCH   5   8
ENDBRANCH   3   4
ENDBRANCH   2   3
ENDBRANCH   1   2
BRANCH   1  22
ATOM     22  C   UNL A   1      31.850  30.121  25.663  1.00  0.00     0.002 C 
BRANCH  22  23
ATOM     23  C   UNL A   1      31.472  31.400  26.423  1.00  0.00     0.021 C 
BRANCH  23  24
ATOM     24  C   UNL A   1      32.600  32.030  27.217  1.00  0.00     0.116 C 
BRANCH  24  25
ATOM     25  N   UNL A   1      32.381  33.453  27.479  1.00  0.00    -0.352 N 
ATOM     26  C   UNL A   1      33.034  34.268  28.389  1.00  0.00     0.251 C 
ATOM     27  H   UNL A   1      31.682  33.885  26.939  1.00  0.00     0.163 HD
ATOM     28  O   UNL A   1      32.533  35.312  28.767  1.00  0.00    -0.269 OA
BRANCH  26  29
ATOM     29  C   UNL A   1      34.359  33.838  28.881  1.00  0.00     0.039 A 
ATOM     30  C   UNL A   1      34.521  33.164  30.092  1.00  0.00     0.014 A 
ATOM     31  C   UNL A   1      35.451  34.098  28.061  1.00  0.00     0.014 A 
ATOM     32  C   UNL A   1      35.790  32.690  30.425  1.00  0.00     0.010 A 
ATOM     33  C   UNL A   1      36.635  33.454  28.282  1.00  0.00     0.010 A 
ATOM     34  C   UNL A   1      36.838  32.825  29.500  1.00  0.00    -0.014 A 
BRANCH  34  35
ATOM     35  C   UNL A   1      38.146  32.223  29.723  1.00  0.00     0.031 A 
ATOM     36  C   UNL A   1      38.192  30.780  29.387  1.00  0.00     0.074 A 
ATOM     37  C   UNL A   1      39.260  32.949  29.966  1.00  0.00     0.049 A 
ATOM     38  N   UNL A   1      38.161  29.784  30.206  1.00  0.00    -0.248 NA
ATOM     39  C   UNL A   1      38.055  30.387  27.971  1.00  0.00     0.031 C 
ATOM     40  C   UNL A   1      39.402  34.415  29.948  1.00  0.00     0.029 A 
ATOM     41  N   UNL A   1      40.541  32.537  30.171  1.00  0.00    -0.354 N 
ATOM     42  C   UNL A   1      38.310  28.651  29.412  1.00  0.00     0.074 A 
ATOM     43  C   UNL A   1      37.980  29.057  28.072  1.00  0.00     0.031 C 
ATOM     44  C   UNL A   1      40.710  34.749  29.885  1.00  0.00     0.029 A 
ATOM     45  C   UNL A   1      41.497  33.546  30.069  1.00  0.00     0.049 A 
ATOM     46  H   UNL A   1      40.774  31.602  30.373  1.00  0.00     0.167 HD
ATOM     47  C   UNL A   1      39.031  27.584  29.860  1.00  0.00     0.031 A 
ATOM     48  C   UNL A   1      42.844  33.405  30.148  1.00  0.00     0.031 A 
ATOM     49  C   UNL A   1      39.362  27.745  31.254  1.00  0.00     0.049 A 
ATOM     50  C   UNL A   1      43.097  32.144  30.880  1.00  0.00     0.074 A 
ATOM     51  C   UNL A   1      38.708  27.648  32.461  1.00  0.00     0.029 A 
ATOM     52  N   UNL A   1      40.498  28.488  31.456  1.00  0.00    -0.354 N 
ATOM     53  N   UNL A   1      42.735  31.958  32.122  1.00  0.00    -0.248 NA
ATOM     54  C   UNL A   1      43.410  30.934  30.132  1.00  0.00     0.031 C 
ATOM     55  C   UNL A   1      39.401  28.520  33.354  1.00  0.00     0.029 A 
ATOM     56  C   UNL A   1      40.494  29.078  32.691  1.00  0.00     0.049 A 
ATOM     57  H   UNL A   1      41.224  28.584  30.797  1.00  0.00     0.167 HD
ATOM     58  C   UNL A   1      42.363  30.629  32.174  1.00  0.00     0.074 A 
ATOM     59  C   UNL A   1      42.954  30.016  30.990  1.00  0.00     0.031 C 
ATOM     60  C   UNL A   1      41.348  30.212  32.984  1.00  0.00     0.031 A 
BRANCH  47  61
ATOM     61  C   UNL A   1      39.880  26.690  28.980  1.00  0.00    -0.014 A 
ATOM     62  C   UNL A   1      39.296  25.518  28.451  1.00  0.00     0.010 A 
ATOM     63  C   UNL A   1      41.282  26.799  28.878  1.00  0.00     0.010 A 
ATOM     64  C   UNL A   1      40.079  24.494  27.896  1.00  0.00     0.020 A 
ATOM     65  C   UNL A   1      42.068  25.801  28.296  1.00  0.00     0.020 A 
ATOM     66  C   UNL A   1      41.464  24.642  27.830  1.00  0.00     0.054 A 
BRANCH  66  67
ATOM     67  S   UNL A   1      42.472  23.291  27.173  1.00  0.00     0.124 S 
ATOM     68  O   UNL A   1      41.982  22.147  27.936  1.00  0.00    -0.237 OA
ATOM     69  O   UNL A   1      42.121  23.306  25.756  1.00  0.00    -0.237 OA
ATOM     70  O   UNL A   1      43.840  23.708  27.475  1.00  0.00    -0.744 OA
ENDBRANCH  66  67
ENDBRANCH  47  61
BRANCH  48  71
ATOM     71  C   UNL A   1      43.910  34.127  29.412  1.00  0.00    -0.014 A 
ATOM     72  C   UNL A   1      45.245  34.111  29.863  1.00  0.00     0.010 A 
ATOM     73  C   UNL A   1      43.670  34.565  28.094  1.00  0.00     0.010 A 
ATOM     74  C   UNL A   1      46.306  34.447  29.002  1.00  0.00     0.020 A 
ATOM     75  C   UNL A   1      44.722  34.901  27.231  1.00  0.00     0.020 A 
ATOM     76  C   UNL A   1      46.038  34.815  27.681  1.00  0.00     0.054 A 
BRANCH  76  77
ATOM     77  S   UNL A   1      47.419  35.055  26.520  1.00  0.00     0.124 S 
ATOM     78  O   UNL A   1      48.547  35.279  27.421  1.00  0.00    -0.237 OA
ATOM     79  O   UNL A   1      47.440  33.794  25.784  1.00  0.00    -0.237 OA
ATOM     80  O   UNL A   1      47.011  36.219  25.737  1.00  0.00    -0.744 OA
ENDBRANCH  76  77
ENDBRANCH  48  71
BRANCH  60  81
ATOM     81  C   UNL A   1      41.020  31.039  34.196  1.00  0.00    -0.014 A 
ATOM     82  C   UNL A   1      39.964  31.965  34.283  1.00  0.00     0.010 A 
ATOM     83  C   UNL A   1      41.785  30.777  35.347  1.00  0.00     0.010 A 
ATOM     84  C   UNL A   1      39.692  32.618  35.498  1.00  0.00     0.020 A 
ATOM     85  C   UNL A   1      41.509  31.408  36.558  1.00  0.00     0.020 A 
ATOM     86  C   UNL A   1      40.467  32.332  36.628  1.00  0.00     0.054 A 
BRANCH  86  87
ATOM     87  S   UNL A   1      40.097  33.144  38.209  1.00  0.00     0.124 S 
ATOM     88  O   UNL A   1      39.820  34.518  37.802  1.00  0.00    -0.237 OA
ATOM     89  O   UNL A   1      38.947  32.388  38.700  1.00  0.00    -0.237 OA
ATOM     90  O   UNL A   1      41.322  32.965  38.987  1.00  0.00    -0.744 OA
ENDBRANCH  86  87
ENDBRANCH  60  81
ENDBRANCH  34  35
ENDBRANCH  26  29
ENDBRANCH  24  25
ENDBRANCH  23  24
ENDBRANCH  22  23
ENDBRANCH   1  22
TORSDOF 19
ENDMDL
