MODEL 1
REMARK VINA RESULT:     -11.8      0.000      0.000
REMARK SMILES Cc1[nH]c2ccccc2c1/N=N\c1ccccc1C(=O)NCCCCCCNC(=O)c1ccc(-c2c3nc(c(-c4ccc(S(=O)(=O)[O-])cc4)c4ccc([nH]4)c(-c4ccc(S(=O)(=O)[O-])cc4)c4nc(c(-c5ccc(S(=O)(=O)[O-])cc5)c5ccc2[nH]5)C=C4)C=C3)cc1
REMARK SMILES IDX 25 1 24 2 23 3 22 4 21 5 19 6 20 7 18 9 13 10 14 11 15 12
REMARK SMILES IDX 17 13 16 14 12 15 11 16 10 17 1 18 2 19 3 20 4 21 9 23 5 24
REMARK SMILES IDX 8 25 6 26 7 27 26 28 27 29 28 30 29 31 30 33 31 34 32 35
REMARK SMILES IDX 90 36 33 37 89 38 34 39 35 40 36 41 83 42 37 43 88 44 82 45
REMARK SMILES IDX 84 46 38 47 87 48 81 49 80 50 39 52 69 53 50 54 68 55 51 56
REMARK SMILES IDX 54 57 67 58 85 59 52 60 53 61 66 63 86 64 55 65 40 66 41 67
REMARK SMILES IDX 49 68 42 69 48 70 43 71 44 72 45 73 46 74 47 75 70 76 71 77
REMARK SMILES IDX 79 78 72 79 78 80 73 81 74 82 75 83 76 84 77 85 56 86 57 87
REMARK SMILES IDX 65 88 58 89 64 90 59 91 60 92 61 93 62 94 63 95
REMARK H PARENT 21 8 3 22 28 32 84 51 54 62
REMARK Flexibility Score: inf
ROOT
ATOM      1  C   UNL A   1      33.386  28.771  26.692  1.00  0.00     0.002 C 
ENDROOT
BRANCH   1   2
ATOM      2  C   UNL A   1      31.915  28.356  26.774  1.00  0.00     0.002 C 
BRANCH   2   3
ATOM      3  C   UNL A   1      31.147  28.261  25.452  1.00  0.00     0.021 C 
BRANCH   3   4
ATOM      4  C   UNL A   1      30.934  26.853  24.912  1.00  0.00     0.116 C 
BRANCH   4   5
ATOM      5  N   UNL A   1      30.760  25.848  25.939  1.00  0.00    -0.352 N 
ATOM      6  C   UNL A   1      31.598  24.819  26.296  1.00  0.00     0.253 C 
ATOM      7  O   UNL A   1      31.251  24.049  27.194  1.00  0.00    -0.269 OA
ATOM      8  H   UNL A   1      29.924  25.910  26.456  1.00  0.00     0.163 HD
BRANCH   6   9
ATOM      9  C   UNL A   1      32.868  24.547  25.577  1.00  0.00     0.067 A 
ATOM     10  C   UNL A   1      33.022  23.571  24.575  1.00  0.00     0.098 A 
ATOM     11  C   UNL A   1      34.296  23.401  23.999  1.00  0.00     0.031 A 
ATOM     12  C   UNL A   1      35.363  24.241  24.333  1.00  0.00     0.002 A 
ATOM     13  C   UNL A   1      33.938  25.412  25.879  1.00  0.00     0.016 A 
ATOM     14  C   UNL A   1      35.177  25.264  25.255  1.00  0.00     0.001 A 
BRANCH  10  15
ATOM     15  N   UNL A   1      31.963  22.743  24.133  1.00  0.00    -0.150 NA
ATOM     16  N   UNL A   1      31.646  21.818  24.920  1.00  0.00    -0.148 NA
BRANCH  16  17
ATOM     17  C   UNL A   1      32.559  20.751  24.989  1.00  0.00     0.114 A 
ATOM     18  C   UNL A   1      33.629  21.270  27.311  1.00  0.00     0.067 C 
ATOM     19  C   UNL A   1      33.424  20.538  26.040  1.00  0.00     0.041 A 
ATOM     20  N   UNL A   1      34.180  19.442  25.708  1.00  0.00    -0.357 N 
ATOM     21  C   UNL A   1      33.705  18.857  24.555  1.00  0.00     0.048 A 
ATOM     22  H   UNL A   1      34.954  19.119  26.222  1.00  0.00     0.166 HD
ATOM     23  C   UNL A   1      32.676  19.669  24.070  1.00  0.00     0.027 A 
ATOM     24  C   UNL A   1      34.108  17.674  23.924  1.00  0.00     0.027 A 
ATOM     25  C   UNL A   1      32.015  19.267  22.891  1.00  0.00     0.012 A 
ATOM     26  C   UNL A   1      33.426  17.291  22.768  1.00  0.00     0.002 A 
ATOM     27  C   UNL A   1      32.396  18.075  22.255  1.00  0.00     0.001 A 
ENDBRANCH  16  17
ENDBRANCH  10  15
ENDBRANCH   6   9
ENDBRANCH   4   5
ENDBRANCH   3   4
ENDBRANCH   2   3
ENDBRANCH   1   2
BRANCH   1  28
ATOM     28  C   UNL A   1      33.773  30.091  27.359  1.00  0.00     0.021 C 
BRANCH  28  29
ATOM     29  C   UNL A   1      35.194  30.168  27.902  1.00  0.00     0.116 C 
BRANCH  29  30
ATOM     30  N   UNL A   1      35.283  30.885  29.162  1.00  0.00    -0.352 N 
ATOM     31  C   UNL A   1      36.329  30.961  30.053  1.00  0.00     0.251 C 
ATOM     32  H   UNL A   1      34.476  31.390  29.416  1.00  0.00     0.163 HD
ATOM     33  O   UNL A   1      36.179  31.519  31.129  1.00  0.00    -0.269 OA
BRANCH  31  34
ATOM     34  C   UNL A   1      37.623  30.330  29.713  1.00  0.00     0.039 A 
ATOM     35  C   UNL A   1      38.019  30.287  28.373  1.00  0.00     0.014 A 
ATOM     36  C   UNL A   1      38.452  29.803  30.707  1.00  0.00     0.014 A 
ATOM     37  C   UNL A   1      39.280  29.788  28.039  1.00  0.00     0.010 A 
ATOM     38  C   UNL A   1      39.735  29.371  30.381  1.00  0.00     0.010 A 
ATOM     39  C   UNL A   1      40.164  29.368  29.045  1.00  0.00    -0.014 A 
BRANCH  39  40
ATOM     40  C   UNL A   1      41.555  28.957  28.730  1.00  0.00     0.031 A 
ATOM     41  C   UNL A   1      42.670  29.964  28.753  1.00  0.00     0.074 A 
ATOM     42  C   UNL A   1      41.799  27.687  28.347  1.00  0.00     0.049 A 
ATOM     43  N   UNL A   1      43.930  29.807  28.438  1.00  0.00    -0.248 NA
ATOM     44  C   UNL A   1      42.315  31.331  29.163  1.00  0.00     0.031 C 
ATOM     45  C   UNL A   1      40.798  26.621  28.262  1.00  0.00     0.029 A 
ATOM     46  N   UNL A   1      42.964  27.079  27.952  1.00  0.00    -0.354 N 
ATOM     47  C   UNL A   1      44.517  31.057  28.601  1.00  0.00     0.074 A 
ATOM     48  C   UNL A   1      43.463  31.969  28.989  1.00  0.00     0.031 C 
ATOM     49  C   UNL A   1      41.398  25.484  27.877  1.00  0.00     0.029 A 
ATOM     50  C   UNL A   1      42.813  25.750  27.637  1.00  0.00     0.049 A 
ATOM     51  H   UNL A   1      43.827  27.550  27.900  1.00  0.00     0.167 HD
ATOM     52  C   UNL A   1      45.818  31.409  28.457  1.00  0.00     0.031 A 
ATOM     53  C   UNL A   1      43.709  24.845  27.196  1.00  0.00     0.031 A 
ATOM     54  C   UNL A   1      46.858  30.499  28.055  1.00  0.00     0.049 A 
ATOM     55  C   UNL A   1      45.135  25.272  26.984  1.00  0.00     0.074 A 
ATOM     56  C   UNL A   1      48.213  30.745  27.918  1.00  0.00     0.029 A 
ATOM     57  N   UNL A   1      46.658  29.169  27.713  1.00  0.00    -0.354 N 
ATOM     58  N   UNL A   1      45.684  26.443  27.197  1.00  0.00    -0.248 NA
ATOM     59  C   UNL A   1      46.061  24.252  26.472  1.00  0.00     0.031 C 
ATOM     60  C   UNL A   1      48.822  29.580  27.436  1.00  0.00     0.029 A 
ATOM     61  C   UNL A   1      47.857  28.590  27.332  1.00  0.00     0.049 A 
ATOM     62  H   UNL A   1      45.790  28.705  27.738  1.00  0.00     0.167 HD
ATOM     63  C   UNL A   1      47.026  26.297  26.866  1.00  0.00     0.074 A 
ATOM     64  C   UNL A   1      47.207  24.921  26.450  1.00  0.00     0.031 C 
ATOM     65  C   UNL A   1      48.019  27.221  26.907  1.00  0.00     0.031 A 
BRANCH  52  66
ATOM     66  C   UNL A   1      46.171  32.852  28.714  1.00  0.00    -0.014 A 
ATOM     67  C   UNL A   1      46.534  33.293  30.000  1.00  0.00     0.010 A 
ATOM     68  C   UNL A   1      46.130  33.782  27.660  1.00  0.00     0.010 A 
ATOM     69  C   UNL A   1      46.780  34.648  30.241  1.00  0.00     0.020 A 
ATOM     70  C   UNL A   1      46.408  35.133  27.891  1.00  0.00     0.020 A 
ATOM     71  C   UNL A   1      46.702  35.561  29.187  1.00  0.00     0.054 A 
BRANCH  71  72
ATOM     72  S   UNL A   1      46.996  37.316  29.534  1.00  0.00     0.124 S 
ATOM     73  O   UNL A   1      46.112  37.965  28.569  1.00  0.00    -0.237 OA
ATOM     74  O   UNL A   1      46.595  37.441  30.933  1.00  0.00    -0.237 OA
ATOM     75  O   UNL A   1      48.425  37.486  29.282  1.00  0.00    -0.744 OA
ENDBRANCH  71  72
ENDBRANCH  52  66
BRANCH  53  76
ATOM     76  C   UNL A   1      43.281  23.440  26.957  1.00  0.00    -0.014 A 
ATOM     77  C   UNL A   1      43.178  22.950  25.643  1.00  0.00     0.010 A 
ATOM     78  C   UNL A   1      43.020  22.574  28.034  1.00  0.00     0.010 A 
ATOM     79  C   UNL A   1      42.822  21.618  25.410  1.00  0.00     0.020 A 
ATOM     80  C   UNL A   1      42.688  21.234  27.805  1.00  0.00     0.020 A 
ATOM     81  C   UNL A   1      42.587  20.766  26.493  1.00  0.00     0.054 A 
BRANCH  81  82
ATOM     82  S   UNL A   1      42.204  19.025  26.163  1.00  0.00     0.124 S 
ATOM     83  O   UNL A   1      40.802  19.091  25.765  1.00  0.00    -0.237 OA
ATOM     84  O   UNL A   1      43.149  18.691  25.101  1.00  0.00    -0.237 OA
ATOM     85  O   UNL A   1      42.461  18.369  27.444  1.00  0.00    -0.744 OA
ENDBRANCH  81  82
ENDBRANCH  53  76
BRANCH  65  86
ATOM     86  C   UNL A   1      49.399  26.771  26.507  1.00  0.00    -0.014 A 
ATOM     87  C   UNL A   1      50.252  26.135  27.427  1.00  0.00     0.010 A 
ATOM     88  C   UNL A   1      49.824  26.930  25.175  1.00  0.00     0.010 A 
ATOM     89  C   UNL A   1      51.510  25.679  27.025  1.00  0.00     0.020 A 
ATOM     90  C   UNL A   1      51.070  26.452  24.763  1.00  0.00     0.020 A 
ATOM     91  C   UNL A   1      51.909  25.837  25.694  1.00  0.00     0.054 A 
BRANCH  91  92
ATOM     92  S   UNL A   1      53.521  25.179  25.183  1.00  0.00     0.124 S 
ATOM     93  O   UNL A   1      53.330  23.741  25.354  1.00  0.00    -0.237 OA
ATOM     94  O   UNL A   1      53.630  25.638  23.800  1.00  0.00    -0.237 OA
ATOM     95  O   UNL A   1      54.460  25.798  26.115  1.00  0.00    -0.744 OA
ENDBRANCH  91  92
ENDBRANCH  65  86
ENDBRANCH  39  40
ENDBRANCH  31  34
ENDBRANCH  29  30
ENDBRANCH  28  29
ENDBRANCH   1  28
TORSDOF 18
ENDMDL
MODEL 2
REMARK VINA RESULT:     -11.6      4.010      9.789
REMARK SMILES Cc1[nH]c2ccccc2c1/N=N\c1ccccc1C(=O)NCCCCCCNC(=O)c1ccc(-c2c3nc(c(-c4ccc(S(=O)(=O)[O-])cc4)c4ccc([nH]4)c(-c4ccc(S(=O)(=O)[O-])cc4)c4nc(c(-c5ccc(S(=O)(=O)[O-])cc5)c5ccc2[nH]5)C=C4)C=C3)cc1
REMARK SMILES IDX 25 1 24 2 23 3 22 4 21 5 19 6 20 7 18 9 13 10 14 11 15 12
REMARK SMILES IDX 17 13 16 14 12 15 11 16 10 17 1 18 2 19 3 20 4 21 9 23 5 24
REMARK SMILES IDX 8 25 6 26 7 27 26 28 27 29 28 30 29 31 30 33 31 34 32 35
REMARK SMILES IDX 90 36 33 37 89 38 34 39 35 40 36 41 83 42 37 43 88 44 82 45
REMARK SMILES IDX 84 46 38 47 87 48 81 49 80 50 39 52 69 53 50 54 68 55 51 56
REMARK SMILES IDX 54 57 67 58 85 59 52 60 53 61 66 63 86 64 55 65 40 66 41 67
REMARK SMILES IDX 49 68 42 69 48 70 43 71 44 72 45 73 46 74 47 75 70 76 71 77
REMARK SMILES IDX 79 78 72 79 78 80 73 81 74 82 75 83 76 84 77 85 56 86 57 87
REMARK SMILES IDX 65 88 58 89 64 90 59 91 60 92 61 93 62 94 63 95
REMARK H PARENT 21 8 3 22 28 32 84 51 54 62
REMARK Flexibility Score: inf
ROOT
ATOM      1  C   UNL A   1      34.915  23.972  23.472  1.00  0.00     0.002 C 
ENDROOT
BRANCH   1   2
ATOM      2  C   UNL A   1      34.050  23.399  22.347  1.00  0.00     0.002 C 
BRANCH   2   3
ATOM      3  C   UNL A   1      33.196  24.394  21.556  1.00  0.00     0.021 C 
BRANCH   3   4
ATOM      4  C   UNL A   1      33.318  25.852  21.980  1.00  0.00     0.116 C 
BRANCH   4   5
ATOM      5  N   UNL A   1      32.065  26.579  21.958  1.00  0.00    -0.352 N 
ATOM      6  C   UNL A   1      31.476  27.319  22.954  1.00  0.00     0.253 C 
ATOM      7  O   UNL A   1      30.383  27.847  22.739  1.00  0.00    -0.269 OA
ATOM      8  H   UNL A   1      31.566  26.536  21.110  1.00  0.00     0.163 HD
BRANCH   6   9
ATOM      9  C   UNL A   1      32.066  27.433  24.312  1.00  0.00     0.067 A 
ATOM     10  C   UNL A   1      31.484  26.906  25.479  1.00  0.00     0.098 A 
ATOM     11  C   UNL A   1      32.141  27.116  26.706  1.00  0.00     0.031 A 
ATOM     12  C   UNL A   1      33.390  27.743  26.764  1.00  0.00     0.002 A 
ATOM     13  C   UNL A   1      33.341  28.028  24.375  1.00  0.00     0.016 A 
ATOM     14  C   UNL A   1      34.003  28.176  25.594  1.00  0.00     0.001 A 
BRANCH  10  15
ATOM     15  N   UNL A   1      30.263  26.191  25.479  1.00  0.00    -0.150 NA
ATOM     16  N   UNL A   1      30.251  25.156  26.189  1.00  0.00    -0.148 NA
BRANCH  16  17
ATOM     17  C   UNL A   1      30.981  24.069  25.677  1.00  0.00     0.114 A 
ATOM     18  C   UNL A   1      30.083  24.080  23.229  1.00  0.00     0.067 C 
ATOM     19  C   UNL A   1      30.883  23.609  24.382  1.00  0.00     0.041 A 
ATOM     20  N   UNL A   1      31.702  22.513  24.293  1.00  0.00    -0.357 N 
ATOM     21  C   UNL A   1      32.442  22.366  25.445  1.00  0.00     0.048 A 
ATOM     22  H   UNL A   1      31.753  21.914  23.515  1.00  0.00     0.166 HD
ATOM     23  C   UNL A   1      32.005  23.339  26.348  1.00  0.00     0.027 A 
ATOM     24  C   UNL A   1      33.464  21.454  25.739  1.00  0.00     0.027 A 
ATOM     25  C   UNL A   1      32.629  23.400  27.611  1.00  0.00     0.012 A 
ATOM     26  C   UNL A   1      34.076  21.547  26.991  1.00  0.00     0.002 A 
ATOM     27  C   UNL A   1      33.665  22.504  27.916  1.00  0.00     0.001 A 
ENDBRANCH  16  17
ENDBRANCH  10  15
ENDBRANCH   6   9
ENDBRANCH   4   5
ENDBRANCH   3   4
ENDBRANCH   2   3
ENDBRANCH   1   2
BRANCH   1  28
ATOM     28  C   UNL A   1      36.258  23.287  23.731  1.00  0.00     0.021 C 
BRANCH  28  29
ATOM     29  C   UNL A   1      36.915  23.601  25.070  1.00  0.00     0.116 C 
BRANCH  29  30
ATOM     30  N   UNL A   1      37.951  22.650  25.432  1.00  0.00    -0.352 N 
ATOM     31  C   UNL A   1      39.107  22.848  26.151  1.00  0.00     0.251 C 
ATOM     32  H   UNL A   1      37.804  21.728  25.117  1.00  0.00     0.163 HD
ATOM     33  O   UNL A   1      39.926  21.948  26.256  1.00  0.00    -0.269 OA
BRANCH  31  34
ATOM     34  C   UNL A   1      39.367  24.169  26.764  1.00  0.00     0.039 A 
ATOM     35  C   UNL A   1      38.919  24.405  28.067  1.00  0.00     0.014 A 
ATOM     36  C   UNL A   1      40.066  25.161  26.071  1.00  0.00     0.014 A 
ATOM     37  C   UNL A   1      39.240  25.607  28.702  1.00  0.00     0.010 A 
ATOM     38  C   UNL A   1      40.444  26.328  26.729  1.00  0.00     0.010 A 
ATOM     39  C   UNL A   1      40.043  26.558  28.053  1.00  0.00    -0.014 A 
BRANCH  39  40
ATOM     40  C   UNL A   1      40.508  27.784  28.751  1.00  0.00     0.031 A 
ATOM     41  C   UNL A   1      41.884  27.842  29.350  1.00  0.00     0.074 A 
ATOM     42  C   UNL A   1      39.656  28.817  28.910  1.00  0.00     0.049 A 
ATOM     43  N   UNL A   1      42.437  28.795  30.056  1.00  0.00    -0.248 NA
ATOM     44  C   UNL A   1      42.742  26.664  29.148  1.00  0.00     0.031 C 
ATOM     45  C   UNL A   1      38.287  28.873  28.394  1.00  0.00     0.029 A 
ATOM     46  N   UNL A   1      39.817  30.017  29.555  1.00  0.00    -0.354 N 
ATOM     47  C   UNL A   1      43.703  28.329  30.391  1.00  0.00     0.074 A 
ATOM     48  C   UNL A   1      43.813  26.988  29.857  1.00  0.00     0.031 C 
ATOM     49  C   UNL A   1      37.745  30.059  28.713  1.00  0.00     0.029 A 
ATOM     50  C   UNL A   1      38.707  30.827  29.498  1.00  0.00     0.049 A 
ATOM     51  H   UNL A   1      40.648  30.275  30.016  1.00  0.00     0.167 HD
ATOM     52  C   UNL A   1      44.691  28.966  31.067  1.00  0.00     0.031 A 
ATOM     53  C   UNL A   1      38.483  32.047  30.024  1.00  0.00     0.031 A 
ATOM     54  C   UNL A   1      44.568  30.293  31.608  1.00  0.00     0.049 A 
ATOM     55  C   UNL A   1      39.570  32.710  30.822  1.00  0.00     0.074 A 
ATOM     56  C   UNL A   1      45.521  31.044  32.274  1.00  0.00     0.029 A 
ATOM     57  N   UNL A   1      43.417  31.066  31.557  1.00  0.00    -0.354 N 
ATOM     58  N   UNL A   1      40.781  32.279  31.082  1.00  0.00    -0.248 NA
ATOM     59  C   UNL A   1      39.259  34.025  31.399  1.00  0.00     0.031 C 
ATOM     60  C   UNL A   1      44.928  32.246  32.677  1.00  0.00     0.029 A 
ATOM     61  C   UNL A   1      43.623  32.271  32.208  1.00  0.00     0.049 A 
ATOM     62  H   UNL A   1      42.576  30.797  31.121  1.00  0.00     0.167 HD
ATOM     63  C   UNL A   1      41.386  33.279  31.834  1.00  0.00     0.074 A 
ATOM     64  C   UNL A   1      40.411  34.342  31.977  1.00  0.00     0.031 C 
ATOM     65  C   UNL A   1      42.637  33.314  32.354  1.00  0.00     0.031 A 
BRANCH  52  66
ATOM     66  C   UNL A   1      45.978  28.209  31.274  1.00  0.00    -0.014 A 
ATOM     67  C   UNL A   1      46.226  27.510  32.470  1.00  0.00     0.010 A 
ATOM     68  C   UNL A   1      46.958  28.203  30.265  1.00  0.00     0.010 A 
ATOM     69  C   UNL A   1      47.456  26.880  32.681  1.00  0.00     0.020 A 
ATOM     70  C   UNL A   1      48.177  27.546  30.460  1.00  0.00     0.020 A 
ATOM     71  C   UNL A   1      48.429  26.914  31.679  1.00  0.00     0.054 A 
BRANCH  71  72
ATOM     72  S   UNL A   1      50.027  26.116  31.991  1.00  0.00     0.124 S 
ATOM     73  O   UNL A   1      50.345  25.560  30.678  1.00  0.00    -0.237 OA
ATOM     74  O   UNL A   1      50.866  27.231  32.421  1.00  0.00    -0.237 OA
ATOM     75  O   UNL A   1      49.726  25.130  33.027  1.00  0.00    -0.744 OA
ENDBRANCH  71  72
ENDBRANCH  52  66
BRANCH  53  76
ATOM     76  C   UNL A   1      37.181  32.726  29.781  1.00  0.00    -0.014 A 
ATOM     77  C   UNL A   1      36.151  32.634  30.734  1.00  0.00     0.010 A 
ATOM     78  C   UNL A   1      36.978  33.502  28.626  1.00  0.00     0.010 A 
ATOM     79  C   UNL A   1      34.942  33.307  30.537  1.00  0.00     0.020 A 
ATOM     80  C   UNL A   1      35.779  34.197  28.437  1.00  0.00     0.020 A 
ATOM     81  C   UNL A   1      34.766  34.091  29.393  1.00  0.00     0.054 A 
BRANCH  81  82
ATOM     82  S   UNL A   1      33.218  35.016  29.201  1.00  0.00     0.124 S 
ATOM     83  O   UNL A   1      32.518  34.230  28.189  1.00  0.00    -0.237 OA
ATOM     84  O   UNL A   1      32.652  34.964  30.546  1.00  0.00    -0.237 OA
ATOM     85  O   UNL A   1      33.661  36.340  28.770  1.00  0.00    -0.744 OA
ENDBRANCH  81  82
ENDBRANCH  53  76
BRANCH  65  86
ATOM     86  C   UNL A   1      43.036  34.550  33.117  1.00  0.00    -0.014 A 
ATOM     87  C   UNL A   1      42.846  34.639  34.508  1.00  0.00     0.010 A 
ATOM     88  C   UNL A   1      43.669  35.611  32.442  1.00  0.00     0.010 A 
ATOM     89  C   UNL A   1      43.268  35.773  35.207  1.00  0.00     0.020 A 
ATOM     90  C   UNL A   1      44.116  36.734  33.142  1.00  0.00     0.020 A 
ATOM     91  C   UNL A   1      43.904  36.812  34.520  1.00  0.00     0.054 A 
BRANCH  91  92
ATOM     92  S   UNL A   1      44.500  38.244  35.461  1.00  0.00     0.124 S 
ATOM     93  O   UNL A   1      45.942  38.172  35.243  1.00  0.00    -0.237 OA
ATOM     94  O   UNL A   1      43.821  39.360  34.809  1.00  0.00    -0.237 OA
ATOM     95  O   UNL A   1      44.061  37.968  36.827  1.00  0.00    -0.744 OA
ENDBRANCH  91  92
ENDBRANCH  65  86
ENDBRANCH  39  40
ENDBRANCH  31  34
ENDBRANCH  29  30
ENDBRANCH  28  29
ENDBRANCH   1  28
TORSDOF 18
ENDMDL
MODEL 3
REMARK VINA RESULT:     -11.6      5.948     10.395
REMARK SMILES Cc1[nH]c2ccccc2c1/N=N\c1ccccc1C(=O)NCCCCCCNC(=O)c1ccc(-c2c3nc(c(-c4ccc(S(=O)(=O)[O-])cc4)c4ccc([nH]4)c(-c4ccc(S(=O)(=O)[O-])cc4)c4nc(c(-c5ccc(S(=O)(=O)[O-])cc5)c5ccc2[nH]5)C=C4)C=C3)cc1
REMARK SMILES IDX 25 1 24 2 23 3 22 4 21 5 19 6 20 7 18 9 13 10 14 11 15 12
REMARK SMILES IDX 17 13 16 14 12 15 11 16 10 17 1 18 2 19 3 20 4 21 9 23 5 24
REMARK SMILES IDX 8 25 6 26 7 27 26 28 27 29 28 30 29 31 30 33 31 34 32 35
REMARK SMILES IDX 90 36 33 37 89 38 34 39 35 40 36 41 83 42 37 43 88 44 82 45
REMARK SMILES IDX 84 46 38 47 87 48 81 49 80 50 39 52 69 53 50 54 68 55 51 56
REMARK SMILES IDX 54 57 67 58 85 59 52 60 53 61 66 63 86 64 55 65 40 66 41 67
REMARK SMILES IDX 49 68 42 69 48 70 43 71 44 72 45 73 46 74 47 75 70 76 71 77
REMARK SMILES IDX 79 78 72 79 78 80 73 81 74 82 75 83 76 84 77 85 56 86 57 87
REMARK SMILES IDX 65 88 58 89 64 90 59 91 60 92 61 93 62 94 63 95
REMARK H PARENT 21 8 3 22 28 32 84 51 54 62
REMARK Flexibility Score: inf
ROOT
ATOM      1  C   UNL A   1      32.913  29.623  25.773  1.00  0.00     0.002 C 
ENDROOT
BRANCH   1   2
ATOM      2  C   UNL A   1      31.929  29.207  24.677  1.00  0.00     0.002 C 
BRANCH   2   3
ATOM      3  C   UNL A   1      32.511  28.950  23.285  1.00  0.00     0.021 C 
BRANCH   3   4
ATOM      4  C   UNL A   1      33.790  28.124  23.245  1.00  0.00     0.116 C 
BRANCH   4   5
ATOM      5  N   UNL A   1      33.725  26.980  22.360  1.00  0.00    -0.352 N 
ATOM      6  C   UNL A   1      33.306  25.699  22.628  1.00  0.00     0.253 C 
ATOM      7  O   UNL A   1      33.350  24.855  21.731  1.00  0.00    -0.269 OA
ATOM      8  H   UNL A   1      34.023  27.142  21.435  1.00  0.00     0.163 HD
BRANCH   6   9
ATOM      9  C   UNL A   1      32.885  25.272  23.987  1.00  0.00     0.067 A 
ATOM     10  C   UNL A   1      33.763  24.801  24.980  1.00  0.00     0.098 A 
ATOM     11  C   UNL A   1      33.220  24.400  26.216  1.00  0.00     0.031 A 
ATOM     12  C   UNL A   1      31.859  24.556  26.497  1.00  0.00     0.002 A 
ATOM     13  C   UNL A   1      31.523  25.461  24.292  1.00  0.00     0.016 A 
ATOM     14  C   UNL A   1      31.014  25.111  25.543  1.00  0.00     0.001 A 
BRANCH  10  15
ATOM     15  N   UNL A   1      35.162  24.695  24.789  1.00  0.00    -0.150 NA
ATOM     16  N   UNL A   1      35.522  23.814  23.971  1.00  0.00    -0.148 NA
BRANCH  16  17
ATOM     17  C   UNL A   1      35.402  22.489  24.424  1.00  0.00     0.114 A 
ATOM     18  C   UNL A   1      37.542  22.361  25.909  1.00  0.00     0.067 C 
ATOM     19  C   UNL A   1      36.304  21.871  25.262  1.00  0.00     0.041 A 
ATOM     20  N   UNL A   1      35.868  20.580  25.422  1.00  0.00    -0.357 N 
ATOM     21  C   UNL A   1      34.629  20.412  24.845  1.00  0.00     0.048 A 
ATOM     22  H   UNL A   1      36.371  19.873  25.884  1.00  0.00     0.166 HD
ATOM     23  C   UNL A   1      34.305  21.607  24.197  1.00  0.00     0.027 A 
ATOM     24  C   UNL A   1      33.781  19.297  24.862  1.00  0.00     0.027 A 
ATOM     25  C   UNL A   1      33.063  21.688  23.535  1.00  0.00     0.012 A 
ATOM     26  C   UNL A   1      32.550  19.410  24.213  1.00  0.00     0.002 A 
ATOM     27  C   UNL A   1      32.194  20.585  23.557  1.00  0.00     0.001 A 
ENDBRANCH  16  17
ENDBRANCH  10  15
ENDBRANCH   6   9
ENDBRANCH   4   5
ENDBRANCH   3   4
ENDBRANCH   2   3
ENDBRANCH   1   2
BRANCH   1  28
ATOM     28  C   UNL A   1      32.399  30.600  26.832  1.00  0.00     0.021 C 
BRANCH  28  29
ATOM     29  C   UNL A   1      33.447  31.517  27.451  1.00  0.00     0.116 C 
BRANCH  29  30
ATOM     30  N   UNL A   1      32.977  32.881  27.623  1.00  0.00    -0.352 N 
ATOM     31  C   UNL A   1      33.410  33.850  28.499  1.00  0.00     0.251 C 
ATOM     32  H   UNL A   1      32.242  33.151  27.026  1.00  0.00     0.163 HD
ATOM     33  O   UNL A   1      32.811  34.911  28.584  1.00  0.00    -0.269 OA
BRANCH  31  34
ATOM     34  C   UNL A   1      34.582  33.583  29.362  1.00  0.00     0.039 A 
ATOM     35  C   UNL A   1      34.401  32.835  30.528  1.00  0.00     0.014 A 
ATOM     36  C   UNL A   1      35.854  34.046  29.014  1.00  0.00     0.014 A 
ATOM     37  C   UNL A   1      35.508  32.484  31.305  1.00  0.00     0.010 A 
ATOM     38  C   UNL A   1      36.963  33.638  29.750  1.00  0.00     0.010 A 
ATOM     39  C   UNL A   1      36.801  32.846  30.897  1.00  0.00    -0.014 A 
BRANCH  39  40
ATOM     40  C   UNL A   1      38.004  32.377  31.631  1.00  0.00     0.031 A 
ATOM     41  C   UNL A   1      38.852  31.270  31.072  1.00  0.00     0.074 A 
ATOM     42  C   UNL A   1      38.285  32.899  32.841  1.00  0.00     0.049 A 
ATOM     43  N   UNL A   1      39.894  30.681  31.601  1.00  0.00    -0.248 NA
ATOM     44  C   UNL A   1      38.465  30.742  29.754  1.00  0.00     0.031 C 
ATOM     45  C   UNL A   1      37.525  33.963  33.502  1.00  0.00     0.029 A 
ATOM     46  N   UNL A   1      39.284  32.603  33.734  1.00  0.00    -0.354 N 
ATOM     47  C   UNL A   1      40.279  29.707  30.688  1.00  0.00     0.074 A 
ATOM     48  C   UNL A   1      39.327  29.749  29.599  1.00  0.00     0.031 C 
ATOM     49  C   UNL A   1      38.106  34.253  34.677  1.00  0.00     0.029 A 
ATOM     50  C   UNL A   1      39.246  33.364  34.877  1.00  0.00     0.049 A 
ATOM     51  H   UNL A   1      39.965  31.910  33.570  1.00  0.00     0.167 HD
ATOM     52  C   UNL A   1      41.340  28.864  30.743  1.00  0.00     0.031 A 
ATOM     53  C   UNL A   1      40.033  33.346  35.971  1.00  0.00     0.031 A 
ATOM     54  C   UNL A   1      42.274  28.816  31.838  1.00  0.00     0.049 A 
ATOM     55  C   UNL A   1      41.167  32.361  36.038  1.00  0.00     0.074 A 
ATOM     56  C   UNL A   1      43.403  28.029  31.973  1.00  0.00     0.029 A 
ATOM     57  N   UNL A   1      42.180  29.581  32.992  1.00  0.00    -0.354 N 
ATOM     58  N   UNL A   1      41.552  31.485  35.142  1.00  0.00    -0.248 NA
ATOM     59  C   UNL A   1      41.973  32.364  37.267  1.00  0.00     0.031 C 
ATOM     60  C   UNL A   1      43.959  28.274  33.234  1.00  0.00     0.029 A 
ATOM     61  C   UNL A   1      43.211  29.260  33.860  1.00  0.00     0.049 A 
ATOM     62  H   UNL A   1      41.483  30.253  33.168  1.00  0.00     0.167 HD
ATOM     63  C   UNL A   1      42.659  30.847  35.688  1.00  0.00     0.074 A 
ATOM     64  C   UNL A   1      42.889  31.445  36.987  1.00  0.00     0.031 C 
ATOM     65  C   UNL A   1      43.419  29.856  35.157  1.00  0.00     0.031 A 
BRANCH  52  66
ATOM     66  C   UNL A   1      41.519  27.910  29.590  1.00  0.00    -0.014 A 
ATOM     67  C   UNL A   1      40.591  26.879  29.347  1.00  0.00     0.010 A 
ATOM     68  C   UNL A   1      42.633  28.039  28.740  1.00  0.00     0.010 A 
ATOM     69  C   UNL A   1      40.812  25.954  28.324  1.00  0.00     0.020 A 
ATOM     70  C   UNL A   1      42.839  27.133  27.694  1.00  0.00     0.020 A 
ATOM     71  C   UNL A   1      41.942  26.079  27.512  1.00  0.00     0.054 A 
BRANCH  71  72
ATOM     72  S   UNL A   1      42.219  24.847  26.212  1.00  0.00     0.124 S 
ATOM     73  O   UNL A   1      43.629  24.518  26.406  1.00  0.00    -0.237 OA
ATOM     74  O   UNL A   1      41.275  23.789  26.562  1.00  0.00    -0.237 OA
ATOM     75  O   UNL A   1      41.913  25.568  24.979  1.00  0.00    -0.744 OA
ENDBRANCH  71  72
ENDBRANCH  52  66
BRANCH  53  76
ATOM     76  C   UNL A   1      39.787  34.315  37.073  1.00  0.00    -0.014 A 
ATOM     77  C   UNL A   1      39.051  33.921  38.205  1.00  0.00     0.010 A 
ATOM     78  C   UNL A   1      40.321  35.615  37.021  1.00  0.00     0.010 A 
ATOM     79  C   UNL A   1      38.855  34.810  39.266  1.00  0.00     0.020 A 
ATOM     80  C   UNL A   1      40.148  36.498  38.092  1.00  0.00     0.020 A 
ATOM     81  C   UNL A   1      39.411  36.091  39.206  1.00  0.00     0.054 A 
BRANCH  81  82
ATOM     82  S   UNL A   1      39.207  37.196  40.629  1.00  0.00     0.124 S 
ATOM     83  O   UNL A   1      38.274  38.191  40.111  1.00  0.00    -0.237 OA
ATOM     84  O   UNL A   1      38.673  36.298  41.650  1.00  0.00    -0.237 OA
ATOM     85  O   UNL A   1      40.562  37.680  40.884  1.00  0.00    -0.744 OA
ENDBRANCH  81  82
ENDBRANCH  53  76
BRANCH  65  86
ATOM     86  C   UNL A   1      44.584  29.364  35.974  1.00  0.00    -0.014 A 
ATOM     87  C   UNL A   1      45.838  29.997  35.907  1.00  0.00     0.010 A 
ATOM     88  C   UNL A   1      44.403  28.294  36.870  1.00  0.00     0.010 A 
ATOM     89  C   UNL A   1      46.894  29.558  36.709  1.00  0.00     0.020 A 
ATOM     90  C   UNL A   1      45.449  27.869  37.693  1.00  0.00     0.020 A 
ATOM     91  C   UNL A   1      46.691  28.500  37.601  1.00  0.00     0.054 A 
BRANCH  91  92
ATOM     92  S   UNL A   1      48.061  27.992  38.678  1.00  0.00     0.124 S 
ATOM     93  O   UNL A   1      47.495  26.833  39.363  1.00  0.00    -0.237 OA
ATOM     94  O   UNL A   1      49.127  27.700  37.723  1.00  0.00    -0.237 OA
ATOM     95  O   UNL A   1      48.292  29.163  39.521  1.00  0.00    -0.744 OA
ENDBRANCH  91  92
ENDBRANCH  65  86
ENDBRANCH  39  40
ENDBRANCH  31  34
ENDBRANCH  29  30
ENDBRANCH  28  29
ENDBRANCH   1  28
TORSDOF 18
ENDMDL
