MODEL 1
REMARK VINA RESULT:     -11.0      0.000      0.000
REMARK SMILES Nc1cc(C(=O)NCCCCCCNC(=O)c2ccc(-c3c4nc(c(-c5ccc(S(=O)(=O)[O-])cc5)c5ccc([nH]5)c(-c5ccc(S(=O)(=O)[O-])cc5)c5nc(c(-c6ccc(S(=O)(=O)[O-])cc6)c6ccc3[nH]6)C=C5)C=C4)cc2)ccc1N1CC2(CCOCC2)C1
REMARK SMILES IDX 11 1 10 2 9 3 8 4 7 5 5 6 6 7 4 9 2 10 3 11 79 12 78 13
REMARK SMILES IDX 77 14 1 15 80 18 81 19 88 20 82 21 83 22 87 23 84 24 86 25
REMARK SMILES IDX 85 26 12 27 13 28 14 29 15 30 16 32 17 33 18 34 76 35 19 36
REMARK SMILES IDX 75 37 20 38 21 39 22 40 69 41 23 42 74 43 68 44 70 45 24 46
REMARK SMILES IDX 73 47 67 48 66 49 25 51 55 52 36 53 54 54 37 55 40 56 53 57
REMARK SMILES IDX 71 58 38 59 39 60 52 62 72 63 41 64 26 65 27 66 35 67 28 68
REMARK SMILES IDX 34 69 29 70 30 71 31 72 32 73 33 74 56 75 57 76 65 77 58 78
REMARK SMILES IDX 64 79 59 80 60 81 61 82 62 83 63 84 42 85 43 86 51 87 44 88
REMARK SMILES IDX 50 89 45 90 46 91 47 92 48 93 49 94
REMARK H PARENT 7 8 1 16 1 17 14 31 70 50 40 61
REMARK Flexibility Score: inf
ROOT
ATOM      1  C   UNL A   1      34.633  25.048  25.140  1.00  0.00     0.002 C 
ENDROOT
BRANCH   1   2
ATOM      2  C   UNL A   1      34.148  25.650  23.814  1.00  0.00     0.002 C 
BRANCH   2   3
ATOM      3  C   UNL A   1      33.436  27.006  23.950  1.00  0.00     0.021 C 
BRANCH   3   4
ATOM      4  C   UNL A   1      32.052  27.011  23.301  1.00  0.00     0.116 C 
BRANCH   4   5
ATOM      5  N   UNL A   1      31.040  26.785  24.306  1.00  0.00    -0.352 N 
ATOM      6  C   UNL A   1      30.500  25.672  24.885  1.00  0.00     0.251 C 
ATOM      7  O   UNL A   1      29.562  25.876  25.662  1.00  0.00    -0.269 OA
ATOM      8  H   UNL A   1      30.652  27.622  24.653  1.00  0.00     0.163 HD
BRANCH   6   9
ATOM      9  C   UNL A   1      30.991  24.271  24.697  1.00  0.00     0.041 A 
ATOM     10  C   UNL A   1      32.012  22.360  25.844  1.00  0.00     0.056 A 
ATOM     11  C   UNL A   1      31.419  23.626  25.869  1.00  0.00     0.041 A 
ATOM     12  C   UNL A   1      32.165  21.689  24.613  1.00  0.00     0.060 A 
ATOM     13  C   UNL A   1      31.707  22.307  23.449  1.00  0.00     0.029 A 
ATOM     14  C   UNL A   1      31.088  23.564  23.498  1.00  0.00     0.016 A 
BRANCH  10  15
ATOM     15  N   UNL A   1      32.385  21.766  27.050  1.00  0.00    -0.397 N 
ATOM     16  H   UNL A   1      32.355  22.285  27.885  1.00  0.00     0.156 HD
ATOM     17  H   UNL A   1      32.677  20.825  27.065  1.00  0.00     0.156 HD
ENDBRANCH  10  15
BRANCH  12  18
ATOM     18  N   UNL A   1      32.828  20.458  24.558  1.00  0.00    -0.369 N 
ATOM     19  C   UNL A   1      32.638  19.338  23.699  1.00  0.00     0.125 C 
ATOM     20  C   UNL A   1      34.128  20.048  24.975  1.00  0.00     0.125 C 
ATOM     21  C   UNL A   1      33.658  18.609  24.618  1.00  0.00     0.010 C 
ATOM     22  C   UNL A   1      34.676  17.702  23.937  1.00  0.00     0.039 C 
ATOM     23  C   UNL A   1      33.008  17.865  25.801  1.00  0.00     0.039 C 
ATOM     24  C   UNL A   1      33.976  16.408  23.527  1.00  0.00     0.161 C 
ATOM     25  C   UNL A   1      32.387  16.577  25.280  1.00  0.00     0.161 C 
ATOM     26  O   UNL A   1      33.388  15.764  24.663  1.00  0.00    -0.381 OA
ENDBRANCH  12  18
ENDBRANCH   6   9
ENDBRANCH   4   5
ENDBRANCH   3   4
ENDBRANCH   2   3
ENDBRANCH   1   2
BRANCH   1  27
ATOM     27  C   UNL A   1      35.782  24.045  25.002  1.00  0.00     0.021 C 
BRANCH  27  28
ATOM     28  C   UNL A   1      36.306  23.526  26.335  1.00  0.00     0.116 C 
BRANCH  28  29
ATOM     29  N   UNL A   1      37.465  22.665  26.146  1.00  0.00    -0.352 N 
ATOM     30  C   UNL A   1      38.797  22.976  26.251  1.00  0.00     0.251 C 
ATOM     31  H   UNL A   1      37.265  21.731  25.910  1.00  0.00     0.163 HD
ATOM     32  O   UNL A   1      39.644  22.213  25.800  1.00  0.00    -0.269 OA
BRANCH  30  33
ATOM     33  C   UNL A   1      39.198  24.238  26.905  1.00  0.00     0.039 A 
ATOM     34  C   UNL A   1      38.827  24.465  28.232  1.00  0.00     0.014 A 
ATOM     35  C   UNL A   1      39.932  25.197  26.201  1.00  0.00     0.014 A 
ATOM     36  C   UNL A   1      39.236  25.638  28.868  1.00  0.00     0.010 A 
ATOM     37  C   UNL A   1      40.403  26.327  26.859  1.00  0.00     0.010 A 
ATOM     38  C   UNL A   1      40.051  26.565  28.196  1.00  0.00    -0.014 A 
BRANCH  38  39
ATOM     39  C   UNL A   1      40.541  27.792  28.873  1.00  0.00     0.031 A 
ATOM     40  C   UNL A   1      41.924  27.826  29.465  1.00  0.00     0.074 A 
ATOM     41  C   UNL A   1      39.718  28.850  29.009  1.00  0.00     0.049 A 
ATOM     42  N   UNL A   1      42.507  28.782  30.141  1.00  0.00    -0.248 NA
ATOM     43  C   UNL A   1      42.752  26.619  29.297  1.00  0.00     0.031 C 
ATOM     44  C   UNL A   1      38.341  28.922  28.511  1.00  0.00     0.029 A 
ATOM     45  N   UNL A   1      39.917  30.068  29.608  1.00  0.00    -0.354 N 
ATOM     46  C   UNL A   1      43.759  28.289  30.491  1.00  0.00     0.074 A 
ATOM     47  C   UNL A   1      43.831  26.930  30.000  1.00  0.00     0.031 C 
ATOM     48  C   UNL A   1      37.831  30.129  28.802  1.00  0.00     0.029 A 
ATOM     49  C   UNL A   1      38.824  30.901  29.543  1.00  0.00     0.049 A 
ATOM     50  H   UNL A   1      40.761  30.322  30.045  1.00  0.00     0.167 HD
ATOM     51  C   UNL A   1      44.764  28.916  31.145  1.00  0.00     0.031 A 
ATOM     52  C   UNL A   1      38.638  32.142  30.032  1.00  0.00     0.031 A 
ATOM     53  C   UNL A   1      44.689  30.271  31.624  1.00  0.00     0.049 A 
ATOM     54  C   UNL A   1      39.765  32.813  30.768  1.00  0.00     0.074 A 
ATOM     55  C   UNL A   1      45.672  31.017  32.251  1.00  0.00     0.029 A 
ATOM     56  N   UNL A   1      43.568  31.083  31.531  1.00  0.00    -0.354 N 
ATOM     57  N   UNL A   1      40.965  32.353  31.033  1.00  0.00    -0.248 NA
ATOM     58  C   UNL A   1      39.519  34.175  31.261  1.00  0.00     0.031 C 
ATOM     59  C   UNL A   1      45.126  32.259  32.590  1.00  0.00     0.029 A 
ATOM     60  C   UNL A   1      43.826  32.313  32.113  1.00  0.00     0.049 A 
ATOM     61  H   UNL A   1      42.715  30.823  31.113  1.00  0.00     0.167 HD
ATOM     62  C   UNL A   1      41.627  33.382  31.695  1.00  0.00     0.074 A 
ATOM     63  C   UNL A   1      40.698  34.491  31.778  1.00  0.00     0.031 C 
ATOM     64  C   UNL A   1      42.890  33.407  32.186  1.00  0.00     0.031 A 
BRANCH  51  65
ATOM     65  C   UNL A   1      46.033  28.140  31.388  1.00  0.00    -0.014 A 
ATOM     66  C   UNL A   1      46.184  27.327  32.526  1.00  0.00     0.010 A 
ATOM     67  C   UNL A   1      47.074  28.188  30.441  1.00  0.00     0.010 A 
ATOM     68  C   UNL A   1      47.366  26.610  32.735  1.00  0.00     0.020 A 
ATOM     69  C   UNL A   1      48.245  27.449  30.630  1.00  0.00     0.020 A 
ATOM     70  C   UNL A   1      48.389  26.678  31.785  1.00  0.00     0.054 A 
BRANCH  70  71
ATOM     71  S   UNL A   1      49.901  25.718  32.071  1.00  0.00     0.124 S 
ATOM     72  O   UNL A   1      50.899  26.771  32.241  1.00  0.00    -0.237 OA
ATOM     73  O   UNL A   1      49.577  24.960  33.276  1.00  0.00    -0.237 OA
ATOM     74  O   UNL A   1      50.042  24.921  30.854  1.00  0.00    -0.744 OA
ENDBRANCH  70  71
ENDBRANCH  51  65
BRANCH  52  75
ATOM     75  C   UNL A   1      37.336  32.835  29.828  1.00  0.00    -0.014 A 
ATOM     76  C   UNL A   1      37.073  33.525  28.632  1.00  0.00     0.010 A 
ATOM     77  C   UNL A   1      36.346  32.795  30.827  1.00  0.00     0.010 A 
ATOM     78  C   UNL A   1      35.852  34.181  28.447  1.00  0.00     0.020 A 
ATOM     79  C   UNL A   1      35.112  33.425  30.633  1.00  0.00     0.020 A 
ATOM     80  C   UNL A   1      34.878  34.125  29.448  1.00  0.00     0.054 A 
BRANCH  80  81
ATOM     81  S   UNL A   1      33.285  34.945  29.168  1.00  0.00     0.124 S 
ATOM     82  O   UNL A   1      32.703  34.943  30.506  1.00  0.00    -0.237 OA
ATOM     83  O   UNL A   1      33.690  36.251  28.654  1.00  0.00    -0.237 OA
ATOM     84  O   UNL A   1      32.622  34.080  28.194  1.00  0.00    -0.744 OA
ENDBRANCH  80  81
ENDBRANCH  52  75
BRANCH  64  85
ATOM     85  C   UNL A   1      43.365  34.688  32.820  1.00  0.00    -0.014 A 
ATOM     86  C   UNL A   1      43.959  35.708  32.057  1.00  0.00     0.010 A 
ATOM     87  C   UNL A   1      43.155  34.895  34.196  1.00  0.00     0.010 A 
ATOM     88  C   UNL A   1      44.361  36.902  32.664  1.00  0.00     0.020 A 
ATOM     89  C   UNL A   1      43.526  36.098  34.800  1.00  0.00     0.020 A 
ATOM     90  C   UNL A   1      44.140  37.089  34.032  1.00  0.00     0.054 A 
BRANCH  90  91
ATOM     91  S   UNL A   1      44.624  38.667  34.785  1.00  0.00     0.124 S 
ATOM     92  O   UNL A   1      45.974  38.852  34.257  1.00  0.00    -0.237 OA
ATOM     93  O   UNL A   1      43.616  39.590  34.272  1.00  0.00    -0.237 OA
ATOM     94  O   UNL A   1      44.547  38.404  36.221  1.00  0.00    -0.744 OA
ENDBRANCH  90  91
ENDBRANCH  64  85
ENDBRANCH  38  39
ENDBRANCH  30  33
ENDBRANCH  28  29
ENDBRANCH  27  28
ENDBRANCH   1  27
TORSDOF 18
ENDMDL
MODEL 2
REMARK VINA RESULT:     -10.7      2.036      5.060
REMARK SMILES Nc1cc(C(=O)NCCCCCCNC(=O)c2ccc(-c3c4nc(c(-c5ccc(S(=O)(=O)[O-])cc5)c5ccc([nH]5)c(-c5ccc(S(=O)(=O)[O-])cc5)c5nc(c(-c6ccc(S(=O)(=O)[O-])cc6)c6ccc3[nH]6)C=C5)C=C4)cc2)ccc1N1CC2(CCOCC2)C1
REMARK SMILES IDX 11 1 10 2 9 3 8 4 7 5 5 6 6 7 4 9 2 10 3 11 79 12 78 13
REMARK SMILES IDX 77 14 1 15 80 18 81 19 88 20 82 21 83 22 87 23 84 24 86 25
REMARK SMILES IDX 85 26 12 27 13 28 14 29 15 30 16 32 17 33 18 34 76 35 19 36
REMARK SMILES IDX 75 37 20 38 21 39 22 40 69 41 23 42 74 43 68 44 70 45 24 46
REMARK SMILES IDX 73 47 67 48 66 49 25 51 55 52 36 53 54 54 37 55 40 56 53 57
REMARK SMILES IDX 71 58 38 59 39 60 52 62 72 63 41 64 26 65 27 66 35 67 28 68
REMARK SMILES IDX 34 69 29 70 30 71 31 72 32 73 33 74 56 75 57 76 65 77 58 78
REMARK SMILES IDX 64 79 59 80 60 81 61 82 62 83 63 84 42 85 43 86 51 87 44 88
REMARK SMILES IDX 50 89 45 90 46 91 47 92 48 93 49 94
REMARK H PARENT 7 8 1 16 1 17 14 31 70 50 40 61
REMARK Flexibility Score: inf
ROOT
ATOM      1  C   UNL A   1      35.230  21.744  25.657  1.00  0.00     0.002 C 
ENDROOT
BRANCH   1   2
ATOM      2  C   UNL A   1      34.001  21.257  24.875  1.00  0.00     0.002 C 
BRANCH   2   3
ATOM      3  C   UNL A   1      33.370  22.315  23.956  1.00  0.00     0.021 C 
BRANCH   3   4
ATOM      4  C   UNL A   1      31.906  22.593  24.299  1.00  0.00     0.116 C 
BRANCH   4   5
ATOM      5  N   UNL A   1      31.823  23.274  25.570  1.00  0.00    -0.352 N 
ATOM      6  C   UNL A   1      31.462  24.534  25.957  1.00  0.00     0.251 C 
ATOM      7  O   UNL A   1      31.611  24.787  27.156  1.00  0.00    -0.269 OA
ATOM      8  H   UNL A   1      32.084  22.702  26.328  1.00  0.00     0.163 HD
BRANCH   6   9
ATOM      9  C   UNL A   1      30.860  25.576  25.068  1.00  0.00     0.041 A 
ATOM     10  C   UNL A   1      30.749  27.985  24.634  1.00  0.00     0.056 A 
ATOM     11  C   UNL A   1      31.302  26.888  25.300  1.00  0.00     0.041 A 
ATOM     12  C   UNL A   1      29.736  27.779  23.675  1.00  0.00     0.060 A 
ATOM     13  C   UNL A   1      29.319  26.473  23.411  1.00  0.00     0.029 A 
ATOM     14  C   UNL A   1      29.905  25.383  24.068  1.00  0.00     0.016 A 
BRANCH  10  15
ATOM     15  N   UNL A   1      31.260  29.258  24.891  1.00  0.00    -0.397 N 
ATOM     16  H   UNL A   1      32.200  29.366  25.162  1.00  0.00     0.156 HD
ATOM     17  H   UNL A   1      30.679  30.049  24.801  1.00  0.00     0.156 HD
ENDBRANCH  10  15
BRANCH  12  18
ATOM     18  N   UNL A   1      29.115  28.869  23.057  1.00  0.00    -0.369 N 
ATOM     19  C   UNL A   1      29.654  29.909  22.247  1.00  0.00     0.125 C 
ATOM     20  C   UNL A   1      27.772  29.099  22.638  1.00  0.00     0.125 C 
ATOM     21  C   UNL A   1      28.241  30.550  22.335  1.00  0.00     0.010 C 
ATOM     22  C   UNL A   1      27.697  31.199  21.067  1.00  0.00     0.039 C 
ATOM     23  C   UNL A   1      28.068  31.512  23.527  1.00  0.00     0.039 C 
ATOM     24  C   UNL A   1      28.397  32.541  20.869  1.00  0.00     0.161 C 
ATOM     25  C   UNL A   1      28.765  32.824  23.196  1.00  0.00     0.161 C 
ATOM     26  O   UNL A   1      28.207  33.389  22.007  1.00  0.00    -0.381 OA
ENDBRANCH  12  18
ENDBRANCH   6   9
ENDBRANCH   4   5
ENDBRANCH   3   4
ENDBRANCH   2   3
ENDBRANCH   1   2
BRANCH   1  27
ATOM     27  C   UNL A   1      35.288  23.258  25.875  1.00  0.00     0.021 C 
BRANCH  27  28
ATOM     28  C   UNL A   1      36.669  23.859  25.640  1.00  0.00     0.116 C 
BRANCH  28  29
ATOM     29  N   UNL A   1      37.717  22.872  25.856  1.00  0.00    -0.352 N 
ATOM     30  C   UNL A   1      38.996  23.058  26.315  1.00  0.00     0.251 C 
ATOM     31  H   UNL A   1      37.473  21.942  25.644  1.00  0.00     0.163 HD
ATOM     32  O   UNL A   1      39.832  22.171  26.184  1.00  0.00    -0.269 OA
BRANCH  30  33
ATOM     33  C   UNL A   1      39.357  24.338  26.959  1.00  0.00     0.039 A 
ATOM     34  C   UNL A   1      38.967  24.568  28.279  1.00  0.00     0.014 A 
ATOM     35  C   UNL A   1      40.073  25.308  26.252  1.00  0.00     0.014 A 
ATOM     36  C   UNL A   1      39.338  25.759  28.907  1.00  0.00     0.010 A 
ATOM     37  C   UNL A   1      40.507  26.457  26.903  1.00  0.00     0.010 A 
ATOM     38  C   UNL A   1      40.136  26.699  28.233  1.00  0.00    -0.014 A 
BRANCH  38  39
ATOM     39  C   UNL A   1      40.586  27.946  28.902  1.00  0.00     0.031 A 
ATOM     40  C   UNL A   1      41.960  28.021  29.509  1.00  0.00     0.074 A 
ATOM     41  C   UNL A   1      39.735  28.984  29.015  1.00  0.00     0.049 A 
ATOM     42  N   UNL A   1      42.511  28.999  30.181  1.00  0.00    -0.248 NA
ATOM     43  C   UNL A   1      42.821  26.834  29.366  1.00  0.00     0.031 C 
ATOM     44  C   UNL A   1      38.363  29.015  28.501  1.00  0.00     0.029 A 
ATOM     45  N   UNL A   1      39.896  30.213  29.603  1.00  0.00    -0.354 N 
ATOM     46  C   UNL A   1      43.770  28.542  30.552  1.00  0.00     0.074 A 
ATOM     47  C   UNL A   1      43.883  27.181  30.077  1.00  0.00     0.031 C 
ATOM     48  C   UNL A   1      37.819  30.213  28.772  1.00  0.00     0.029 A 
ATOM     49  C   UNL A   1      38.783  31.017  29.516  1.00  0.00     0.049 A 
ATOM     50  H   UNL A   1      40.728  30.493  30.047  1.00  0.00     0.167 HD
ATOM     51  C   UNL A   1      44.752  29.202  31.211  1.00  0.00     0.031 A 
ATOM     52  C   UNL A   1      38.560  32.259  29.988  1.00  0.00     0.031 A 
ATOM     53  C   UNL A   1      44.637  30.560  31.673  1.00  0.00     0.049 A 
ATOM     54  C   UNL A   1      39.661  32.967  30.729  1.00  0.00     0.074 A 
ATOM     55  C   UNL A   1      45.592  31.338  32.303  1.00  0.00     0.029 A 
ATOM     56  N   UNL A   1      43.497  31.342  31.558  1.00  0.00    -0.354 N 
ATOM     57  N   UNL A   1      40.869  32.541  31.014  1.00  0.00    -0.248 NA
ATOM     58  C   UNL A   1      39.374  34.327  31.204  1.00  0.00     0.031 C 
ATOM     59  C   UNL A   1      45.011  32.569  32.622  1.00  0.00     0.029 A 
ATOM     60  C   UNL A   1      43.717  32.585  32.128  1.00  0.00     0.049 A 
ATOM     61  H   UNL A   1      42.656  31.056  31.133  1.00  0.00     0.167 HD
ATOM     62  C   UNL A   1      41.496  33.593  31.672  1.00  0.00     0.074 A 
ATOM     63  C   UNL A   1      40.539  34.678  31.731  1.00  0.00     0.031 C 
ATOM     64  C   UNL A   1      42.753  33.656  32.177  1.00  0.00     0.031 A 
BRANCH  51  65
ATOM     65  C   UNL A   1      46.037  28.461  31.477  1.00  0.00    -0.014 A 
ATOM     66  C   UNL A   1      47.117  28.529  30.579  1.00  0.00     0.010 A 
ATOM     67  C   UNL A   1      46.183  27.720  32.665  1.00  0.00     0.010 A 
ATOM     68  C   UNL A   1      48.304  27.838  30.842  1.00  0.00     0.020 A 
ATOM     69  C   UNL A   1      47.378  27.053  32.947  1.00  0.00     0.020 A 
ATOM     70  C   UNL A   1      48.425  27.103  32.024  1.00  0.00     0.054 A 
BRANCH  70  71
ATOM     71  S   UNL A   1      49.985  26.237  32.350  1.00  0.00     0.124 S 
ATOM     72  O   UNL A   1      50.923  26.983  31.516  1.00  0.00    -0.237 OA
ATOM     73  O   UNL A   1      50.152  26.409  33.791  1.00  0.00    -0.237 OA
ATOM     74  O   UNL A   1      49.720  24.867  31.915  1.00  0.00    -0.744 OA
ENDBRANCH  70  71
ENDBRANCH  51  65
BRANCH  52  75
ATOM     75  C   UNL A   1      37.243  32.916  29.761  1.00  0.00    -0.014 A 
ATOM     76  C   UNL A   1      36.886  33.378  28.482  1.00  0.00     0.010 A 
ATOM     77  C   UNL A   1      36.333  33.070  30.823  1.00  0.00     0.010 A 
ATOM     78  C   UNL A   1      35.652  34.002  28.274  1.00  0.00     0.020 A 
ATOM     79  C   UNL A   1      35.086  33.666  30.611  1.00  0.00     0.020 A 
ATOM     80  C   UNL A   1      34.759  34.140  29.340  1.00  0.00     0.054 A 
BRANCH  80  81
ATOM     81  S   UNL A   1      33.145  34.911  29.037  1.00  0.00     0.124 S 
ATOM     82  O   UNL A   1      32.509  34.809  30.346  1.00  0.00    -0.237 OA
ATOM     83  O   UNL A   1      33.516  36.259  28.615  1.00  0.00    -0.237 OA
ATOM     84  O   UNL A   1      32.560  34.078  27.989  1.00  0.00    -0.744 OA
ENDBRANCH  80  81
ENDBRANCH  52  75
BRANCH  64  85
ATOM     85  C   UNL A   1      43.187  34.955  32.803  1.00  0.00    -0.014 A 
ATOM     86  C   UNL A   1      42.945  35.233  34.160  1.00  0.00     0.010 A 
ATOM     87  C   UNL A   1      43.905  35.887  32.030  1.00  0.00     0.010 A 
ATOM     88  C   UNL A   1      43.387  36.432  34.725  1.00  0.00     0.020 A 
ATOM     89  C   UNL A   1      44.376  37.072  32.599  1.00  0.00     0.020 A 
ATOM     90  C   UNL A   1      44.102  37.343  33.941  1.00  0.00     0.054 A 
BRANCH  90  91
ATOM     91  S   UNL A   1      44.709  38.868  34.712  1.00  0.00     0.124 S 
ATOM     92  O   UNL A   1      43.701  39.840  34.296  1.00  0.00    -0.237 OA
ATOM     93  O   UNL A   1      44.709  38.531  36.132  1.00  0.00    -0.237 OA
ATOM     94  O   UNL A   1      46.034  39.053  34.121  1.00  0.00    -0.744 OA
ENDBRANCH  90  91
ENDBRANCH  64  85
ENDBRANCH  38  39
ENDBRANCH  30  33
ENDBRANCH  28  29
ENDBRANCH  27  28
ENDBRANCH   1  27
TORSDOF 18
ENDMDL
MODEL 3
REMARK VINA RESULT:     -10.6      3.420      8.920
REMARK SMILES Nc1cc(C(=O)NCCCCCCNC(=O)c2ccc(-c3c4nc(c(-c5ccc(S(=O)(=O)[O-])cc5)c5ccc([nH]5)c(-c5ccc(S(=O)(=O)[O-])cc5)c5nc(c(-c6ccc(S(=O)(=O)[O-])cc6)c6ccc3[nH]6)C=C5)C=C4)cc2)ccc1N1CC2(CCOCC2)C1
REMARK SMILES IDX 11 1 10 2 9 3 8 4 7 5 5 6 6 7 4 9 2 10 3 11 79 12 78 13
REMARK SMILES IDX 77 14 1 15 80 18 81 19 88 20 82 21 83 22 87 23 84 24 86 25
REMARK SMILES IDX 85 26 12 27 13 28 14 29 15 30 16 32 17 33 18 34 76 35 19 36
REMARK SMILES IDX 75 37 20 38 21 39 22 40 69 41 23 42 74 43 68 44 70 45 24 46
REMARK SMILES IDX 73 47 67 48 66 49 25 51 55 52 36 53 54 54 37 55 40 56 53 57
REMARK SMILES IDX 71 58 38 59 39 60 52 62 72 63 41 64 26 65 27 66 35 67 28 68
REMARK SMILES IDX 34 69 29 70 30 71 31 72 32 73 33 74 56 75 57 76 65 77 58 78
REMARK SMILES IDX 64 79 59 80 60 81 61 82 62 83 63 84 42 85 43 86 51 87 44 88
REMARK SMILES IDX 50 89 45 90 46 91 47 92 48 93 49 94
REMARK H PARENT 7 8 1 16 1 17 14 31 70 50 40 61
REMARK Flexibility Score: inf
ROOT
ATOM      1  C   UNL A   1      31.728  29.429  25.304  1.00  0.00     0.002 C 
ENDROOT
BRANCH   1   2
ATOM      2  C   UNL A   1      31.311  29.299  23.833  1.00  0.00     0.002 C 
BRANCH   2   3
ATOM      3  C   UNL A   1      29.883  29.782  23.529  1.00  0.00     0.021 C 
BRANCH   3   4
ATOM      4  C   UNL A   1      29.156  28.876  22.535  1.00  0.00     0.116 C 
BRANCH   4   5
ATOM      5  N   UNL A   1      28.206  28.044  23.237  1.00  0.00    -0.352 N 
ATOM      6  C   UNL A   1      28.294  26.874  23.936  1.00  0.00     0.251 C 
ATOM      7  O   UNL A   1      27.221  26.403  24.325  1.00  0.00    -0.269 OA
ATOM      8  H   UNL A   1      27.288  28.402  23.204  1.00  0.00     0.163 HD
BRANCH   6   9
ATOM      9  C   UNL A   1      29.565  26.177  24.304  1.00  0.00     0.041 A 
ATOM     10  C   UNL A   1      31.495  24.967  23.399  1.00  0.00     0.056 A 
ATOM     11  C   UNL A   1      30.341  25.735  23.220  1.00  0.00     0.041 A 
ATOM     12  C   UNL A   1      31.920  24.643  24.704  1.00  0.00     0.060 A 
ATOM     13  C   UNL A   1      31.175  25.111  25.787  1.00  0.00     0.029 A 
ATOM     14  C   UNL A   1      30.037  25.905  25.590  1.00  0.00     0.016 A 
BRANCH  10  15
ATOM     15  N   UNL A   1      32.235  24.590  22.277  1.00  0.00    -0.397 N 
ATOM     16  H   UNL A   1      32.709  23.728  22.268  1.00  0.00     0.156 HD
ATOM     17  H   UNL A   1      32.282  25.187  21.495  1.00  0.00     0.156 HD
ENDBRANCH  10  15
BRANCH  12  18
ATOM     18  N   UNL A   1      33.025  23.809  24.900  1.00  0.00    -0.369 N 
ATOM     19  C   UNL A   1      34.358  24.111  25.301  1.00  0.00     0.125 C 
ATOM     20  C   UNL A   1      33.139  22.421  25.204  1.00  0.00     0.125 C 
ATOM     21  C   UNL A   1      34.665  22.621  24.986  1.00  0.00     0.010 C 
ATOM     22  C   UNL A   1      35.600  21.891  25.946  1.00  0.00     0.039 C 
ATOM     23  C   UNL A   1      35.116  22.372  23.534  1.00  0.00     0.039 C 
ATOM     24  C   UNL A   1      37.031  22.344  25.669  1.00  0.00     0.161 C 
ATOM     25  C   UNL A   1      36.564  22.818  23.392  1.00  0.00     0.161 C 
ATOM     26  O   UNL A   1      37.391  22.093  24.306  1.00  0.00    -0.381 OA
ENDBRANCH  12  18
ENDBRANCH   6   9
ENDBRANCH   4   5
ENDBRANCH   3   4
ENDBRANCH   2   3
ENDBRANCH   1   2
BRANCH   1  27
ATOM     27  C   UNL A   1      32.769  28.405  25.765  1.00  0.00     0.021 C 
BRANCH  27  28
ATOM     28  C   UNL A   1      34.010  29.030  26.389  1.00  0.00     0.116 C 
BRANCH  28  29
ATOM     29  N   UNL A   1      33.794  30.435  26.700  1.00  0.00    -0.352 N 
ATOM     30  C   UNL A   1      34.414  31.216  27.641  1.00  0.00     0.251 C 
ATOM     31  H   UNL A   1      33.108  30.888  26.159  1.00  0.00     0.163 HD
ATOM     32  O   UNL A   1      33.932  32.299  27.958  1.00  0.00    -0.269 OA
BRANCH  30  33
ATOM     33  C   UNL A   1      35.660  30.738  28.274  1.00  0.00     0.039 A 
ATOM     34  C   UNL A   1      36.868  31.360  27.954  1.00  0.00     0.014 A 
ATOM     35  C   UNL A   1      35.631  29.671  29.177  1.00  0.00     0.014 A 
ATOM     36  C   UNL A   1      38.044  30.939  28.577  1.00  0.00     0.010 A 
ATOM     37  C   UNL A   1      36.789  29.306  29.853  1.00  0.00     0.010 A 
ATOM     38  C   UNL A   1      38.010  29.929  29.552  1.00  0.00    -0.014 A 
BRANCH  38  39
ATOM     39  C   UNL A   1      39.241  29.505  30.266  1.00  0.00     0.031 A 
ATOM     40  C   UNL A   1      39.669  30.218  31.520  1.00  0.00     0.074 A 
ATOM     41  C   UNL A   1      40.004  28.522  29.749  1.00  0.00     0.049 A 
ATOM     42  N   UNL A   1      40.739  30.031  32.248  1.00  0.00    -0.248 NA
ATOM     43  C   UNL A   1      38.794  31.299  32.005  1.00  0.00     0.031 C 
ATOM     44  C   UNL A   1      39.713  27.783  28.517  1.00  0.00     0.029 A 
ATOM     45  N   UNL A   1      41.182  27.977  30.191  1.00  0.00    -0.354 N 
ATOM     46  C   UNL A   1      40.674  30.976  33.266  1.00  0.00     0.074 A 
ATOM     47  C   UNL A   1      39.488  31.771  33.031  1.00  0.00     0.031 C 
ATOM     48  C   UNL A   1      40.671  26.863  28.319  1.00  0.00     0.029 A 
ATOM     49  C   UNL A   1      41.666  26.976  29.382  1.00  0.00     0.049 A 
ATOM     50  H   UNL A   1      41.639  28.275  31.011  1.00  0.00     0.167 HD
ATOM     51  C   UNL A   1      41.514  31.154  34.313  1.00  0.00     0.031 A 
ATOM     52  C   UNL A   1      42.788  26.237  29.478  1.00  0.00     0.031 A 
ATOM     53  C   UNL A   1      42.687  30.355  34.546  1.00  0.00     0.049 A 
ATOM     54  C   UNL A   1      43.714  26.463  30.642  1.00  0.00     0.074 A 
ATOM     55  C   UNL A   1      43.575  30.419  35.606  1.00  0.00     0.029 A 
ATOM     56  N   UNL A   1      43.139  29.346  33.707  1.00  0.00    -0.354 N 
ATOM     57  N   UNL A   1      43.602  27.320  31.629  1.00  0.00    -0.248 NA
ATOM     58  C   UNL A   1      44.912  25.616  30.711  1.00  0.00     0.031 C 
ATOM     59  C   UNL A   1      44.595  29.491  35.377  1.00  0.00     0.029 A 
ATOM     60  C   UNL A   1      44.306  28.798  34.212  1.00  0.00     0.049 A 
ATOM     61  H   UNL A   1      42.694  29.061  32.876  1.00  0.00     0.167 HD
ATOM     62  C   UNL A   1      44.697  27.092  32.454  1.00  0.00     0.074 A 
ATOM     63  C   UNL A   1      45.452  26.009  31.857  1.00  0.00     0.031 C 
ATOM     64  C   UNL A   1      45.044  27.719  33.605  1.00  0.00     0.031 A 
BRANCH  51  65
ATOM     65  C   UNL A   1      41.198  32.263  35.283  1.00  0.00    -0.014 A 
ATOM     66  C   UNL A   1      41.640  33.579  35.056  1.00  0.00     0.010 A 
ATOM     67  C   UNL A   1      40.408  31.995  36.417  1.00  0.00     0.010 A 
ATOM     68  C   UNL A   1      41.336  34.597  35.964  1.00  0.00     0.020 A 
ATOM     69  C   UNL A   1      40.075  33.016  37.311  1.00  0.00     0.020 A 
ATOM     70  C   UNL A   1      40.556  34.308  37.087  1.00  0.00     0.054 A 
BRANCH  70  71
ATOM     71  S   UNL A   1      40.155  35.654  38.235  1.00  0.00     0.124 S 
ATOM     72  O   UNL A   1      39.955  36.778  37.322  1.00  0.00    -0.237 OA
ATOM     73  O   UNL A   1      38.951  35.162  38.897  1.00  0.00    -0.237 OA
ATOM     74  O   UNL A   1      41.339  35.748  39.086  1.00  0.00    -0.744 OA
ENDBRANCH  70  71
ENDBRANCH  51  65
BRANCH  52  75
ATOM     75  C   UNL A   1      43.090  25.205  28.448  1.00  0.00    -0.014 A 
ATOM     76  C   UNL A   1      42.609  23.892  28.589  1.00  0.00     0.010 A 
ATOM     77  C   UNL A   1      43.851  25.536  27.311  1.00  0.00     0.010 A 
ATOM     78  C   UNL A   1      42.901  22.923  27.624  1.00  0.00     0.020 A 
ATOM     79  C   UNL A   1      44.119  24.577  26.329  1.00  0.00     0.020 A 
ATOM     80  C   UNL A   1      43.653  23.273  26.499  1.00  0.00     0.054 A 
BRANCH  80  81
ATOM     81  S   UNL A   1      43.981  22.011  25.237  1.00  0.00     0.124 S 
ATOM     82  O   UNL A   1      43.752  22.751  24.001  1.00  0.00    -0.237 OA
ATOM     83  O   UNL A   1      45.368  21.646  25.511  1.00  0.00    -0.237 OA
ATOM     84  O   UNL A   1      43.001  20.968  25.535  1.00  0.00    -0.744 OA
ENDBRANCH  80  81
ENDBRANCH  52  75
BRANCH  64  85
ATOM     85  C   UNL A   1      46.273  27.226  34.324  1.00  0.00    -0.014 A 
ATOM     86  C   UNL A   1      47.546  27.756  34.048  1.00  0.00     0.010 A 
ATOM     87  C   UNL A   1      46.138  26.257  35.336  1.00  0.00     0.010 A 
ATOM     88  C   UNL A   1      48.666  27.305  34.752  1.00  0.00     0.020 A 
ATOM     89  C   UNL A   1      47.250  25.827  36.063  1.00  0.00     0.020 A 
ATOM     90  C   UNL A   1      48.510  26.344  35.757  1.00  0.00     0.054 A 
BRANCH  90  91
ATOM     91  S   UNL A   1      49.971  25.813  36.690  1.00  0.00     0.124 S 
ATOM     92  O   UNL A   1      50.882  25.408  35.622  1.00  0.00    -0.237 OA
ATOM     93  O   UNL A   1      50.349  27.025  37.411  1.00  0.00    -0.237 OA
ATOM     94  O   UNL A   1      49.472  24.726  37.529  1.00  0.00    -0.744 OA
ENDBRANCH  90  91
ENDBRANCH  64  85
ENDBRANCH  38  39
ENDBRANCH  30  33
ENDBRANCH  28  29
ENDBRANCH  27  28
ENDBRANCH   1  27
TORSDOF 18
ENDMDL
