MODEL 1
REMARK VINA RESULT:      -7.8      0.000      0.000
REMARK SMILES CCc1cccc(CC)c1N1/C(=[NH+]/C(=O)CCCC(=O)NCCCCCCNC(=O)c2ccc(-c3c4nc(c(-c5ccc(S(=O)(=O)[O-])cc5)c5ccc([nH]5)c(-c5ccc(S(=O)(=O)[O-])cc5)c5nc(c(-c6ccc(S(=O)(=O)[O-])cc6)c6ccc3[nH]6)C=C5)C=C4)cc2)S[C@@H]2CS(=O)(=O)C[C@@H]21
REMARK SMILES IDX 23 1 22 2 21 3 19 4 20 5 18 7 17 8 16 9 14 10 11 11 12 12
REMARK SMILES IDX 98 13 13 14 91 15 92 16 97 17 93 19 94 20 15 21 95 22 96 23
REMARK SMILES IDX 10 24 3 25 4 26 5 27 7 28 6 29 2 30 1 31 8 32 9 33 24 34
REMARK SMILES IDX 25 35 26 36 27 37 28 38 29 39 30 41 31 42 32 43 90 44 33 45
REMARK SMILES IDX 89 46 34 47 35 48 36 49 83 50 37 51 88 52 82 53 84 54 38 55
REMARK SMILES IDX 87 56 81 57 80 58 39 60 69 61 50 62 68 63 51 64 54 65 67 66
REMARK SMILES IDX 85 67 52 68 53 69 66 71 86 72 55 73 40 74 41 75 49 76 42 77
REMARK SMILES IDX 48 78 43 79 44 80 45 81 46 82 47 83 70 84 71 85 79 86 72 87
REMARK SMILES IDX 78 88 73 89 74 90 75 91 76 92 77 93 56 94 57 95 65 96 58 97
REMARK SMILES IDX 64 98 59 99 60 100 61 101 62 102 63 103
REMARK H PARENT 21 6 13 18 28 40 84 59 54 70
REMARK Flexibility Score: inf
ROOT
ATOM      1  C   UNL A   1      39.097  24.141  26.559  1.00  0.00     0.021 C 
ENDROOT
BRANCH   1   2
ATOM      2  C   UNL A   1      39.458  22.658  26.620  1.00  0.00     0.116 C 
BRANCH   2   3
ATOM      3  N   UNL A   1      40.639  22.399  25.826  1.00  0.00    -0.356 N 
ATOM      4  C   UNL A   1      41.879  22.020  26.236  1.00  0.00     0.220 C 
ATOM      5  O   UNL A   1      42.781  21.949  25.401  1.00  0.00    -0.275 OA
ATOM      6  H   UNL A   1      40.530  22.513  24.855  1.00  0.00     0.163 HD
BRANCH   4   7
ATOM      7  C   UNL A   1      42.114  21.628  27.678  1.00  0.00     0.100 C 
BRANCH   7   8
ATOM      8  C   UNL A   1      42.307  22.758  28.687  1.00  0.00     0.022 C 
BRANCH   8   9
ATOM      9  C   UNL A   1      43.731  23.173  29.053  1.00  0.00     0.128 C 
BRANCH   9  10
ATOM     10  C   UNL A   1      44.589  23.870  27.995  1.00  0.00     0.307 C 
ATOM     11  N   UNL A   1      45.107  27.349  26.924  1.00  0.00    -0.216 N 
ATOM     12  C   UNL A   1      44.945  25.957  26.958  1.00  0.00     0.319 C 
ATOM     13  C   UNL A   1      45.959  27.869  25.815  1.00  0.00     0.212 C 
ATOM     14  N   UNL A   1      44.481  25.244  27.934  1.00  0.00    -0.204 N 
ATOM     15  S   UNL A   1      45.560  25.297  25.426  1.00  0.00    -0.029 SA
ATOM     16  C   UNL A   1      46.710  26.669  25.220  1.00  0.00     0.120 C 
ATOM     17  C   UNL A   1      46.986  28.921  26.234  1.00  0.00     0.188 C 
ATOM     18  H   UNL A   1      44.026  25.709  28.674  1.00  0.00     0.316 HD
ATOM     19  C   UNL A   1      47.979  26.460  26.028  1.00  0.00     0.156 C 
ATOM     20  S   UNL A   1      48.573  28.117  26.245  1.00  0.00     0.155 S 
ATOM     21  O   UNL A   1      45.325  23.170  27.304  1.00  0.00    -0.247 OA
ATOM     22  O   UNL A   1      49.174  28.249  27.556  1.00  0.00    -0.229 OA
ATOM     23  O   UNL A   1      49.277  28.508  25.045  1.00  0.00    -0.229 OA
BRANCH  11  24
ATOM     24  C   UNL A   1      44.354  28.298  27.663  1.00  0.00     0.134 A 
ATOM     25  C   UNL A   1      43.092  28.783  27.213  1.00  0.00    -0.001 A 
ATOM     26  C   UNL A   1      42.328  29.618  28.073  1.00  0.00     0.008 A 
ATOM     27  C   UNL A   1      42.718  29.916  29.367  1.00  0.00     0.001 A 
ATOM     28  C   UNL A   1      44.795  28.707  28.975  1.00  0.00    -0.001 A 
ATOM     29  C   UNL A   1      43.937  29.450  29.815  1.00  0.00     0.008 A 
BRANCH  25  30
ATOM     30  C   UNL A   1      42.380  28.554  25.889  1.00  0.00     0.036 C 
ATOM     31  C   UNL A   1      42.029  27.181  25.369  1.00  0.00     0.009 C 
ENDBRANCH  25  30
BRANCH  28  32
ATOM     32  C   UNL A   1      46.158  28.365  29.566  1.00  0.00     0.036 C 
ATOM     33  C   UNL A   1      46.197  27.084  30.403  1.00  0.00     0.009 C 
ENDBRANCH  28  32
ENDBRANCH  11  24
ENDBRANCH   9  10
ENDBRANCH   8   9
ENDBRANCH   7   8
ENDBRANCH   4   7
ENDBRANCH   2   3
ENDBRANCH   1   2
BRANCH   1  34
ATOM     34  C   UNL A   1      39.276  24.838  27.904  1.00  0.00     0.002 C 
BRANCH  34  35
ATOM     35  C   UNL A   1      39.735  26.297  27.782  1.00  0.00     0.002 C 
BRANCH  35  36
ATOM     36  C   UNL A   1      40.289  26.909  29.071  1.00  0.00     0.021 C 
BRANCH  36  37
ATOM     37  C   UNL A   1      39.374  27.947  29.713  1.00  0.00     0.116 C 
BRANCH  37  38
ATOM     38  N   UNL A   1      38.640  27.386  30.838  1.00  0.00    -0.352 N 
ATOM     39  C   UNL A   1      38.654  27.772  32.154  1.00  0.00     0.251 C 
ATOM     40  H   UNL A   1      38.052  26.625  30.624  1.00  0.00     0.163 HD
ATOM     41  O   UNL A   1      38.185  27.043  33.021  1.00  0.00    -0.269 OA
BRANCH  39  42
ATOM     42  C   UNL A   1      39.245  29.076  32.507  1.00  0.00     0.039 A 
ATOM     43  C   UNL A   1      38.495  30.241  32.336  1.00  0.00     0.014 A 
ATOM     44  C   UNL A   1      40.544  29.133  33.020  1.00  0.00     0.014 A 
ATOM     45  C   UNL A   1      39.033  31.468  32.730  1.00  0.00     0.010 A 
ATOM     46  C   UNL A   1      41.047  30.342  33.479  1.00  0.00     0.010 A 
ATOM     47  C   UNL A   1      40.302  31.522  33.328  1.00  0.00    -0.014 A 
BRANCH  47  48
ATOM     48  C   UNL A   1      40.911  32.799  33.773  1.00  0.00     0.031 A 
ATOM     49  C   UNL A   1      41.853  33.524  32.850  1.00  0.00     0.074 A 
ATOM     50  C   UNL A   1      40.703  33.248  35.026  1.00  0.00     0.049 A 
ATOM     51  N   UNL A   1      42.621  34.552  33.094  1.00  0.00    -0.248 NA
ATOM     52  C   UNL A   1      41.968  32.998  31.478  1.00  0.00     0.031 C 
ATOM     53  C   UNL A   1      39.825  32.622  36.018  1.00  0.00     0.029 A 
ATOM     54  N   UNL A   1      41.234  34.326  35.688  1.00  0.00    -0.354 N 
ATOM     55  C   UNL A   1      43.332  34.776  31.921  1.00  0.00     0.074 A 
ATOM     56  C   UNL A   1      42.939  33.750  30.982  1.00  0.00     0.031 C 
ATOM     57  C   UNL A   1      39.872  33.333  37.157  1.00  0.00     0.029 A 
ATOM     58  C   UNL A   1      40.821  34.431  36.995  1.00  0.00     0.049 A 
ATOM     59  H   UNL A   1      41.855  34.964  35.265  1.00  0.00     0.167 HD
ATOM     60  C   UNL A   1      44.225  35.756  31.648  1.00  0.00     0.031 A 
ATOM     61  C   UNL A   1      41.184  35.299  37.960  1.00  0.00     0.031 A 
ATOM     62  C   UNL A   1      44.599  36.780  32.585  1.00  0.00     0.049 A 
ATOM     63  C   UNL A   1      42.193  36.369  37.641  1.00  0.00     0.074 A 
ATOM     64  C   UNL A   1      45.456  37.848  32.394  1.00  0.00     0.029 A 
ATOM     65  N   UNL A   1      44.134  36.865  33.890  1.00  0.00    -0.354 N 
ATOM     66  N   UNL A   1      42.825  36.594  36.513  1.00  0.00    -0.248 NA
ATOM     67  C   UNL A   1      42.534  37.309  38.719  1.00  0.00     0.031 C 
ATOM     68  C   UNL A   1      45.553  38.548  33.599  1.00  0.00     0.029 A 
ATOM     69  C   UNL A   1      44.701  37.958  34.521  1.00  0.00     0.049 A 
ATOM     70  H   UNL A   1      43.497  36.240  34.306  1.00  0.00     0.167 HD
ATOM     71  C   UNL A   1      43.604  37.725  36.733  1.00  0.00     0.074 A 
ATOM     72  C   UNL A   1      43.366  38.137  38.101  1.00  0.00     0.031 C 
ATOM     73  C   UNL A   1      44.431  38.369  35.876  1.00  0.00     0.031 A 
BRANCH  60  74
ATOM     74  C   UNL A   1      44.865  35.760  30.286  1.00  0.00    -0.014 A 
ATOM     75  C   UNL A   1      44.317  36.502  29.223  1.00  0.00     0.010 A 
ATOM     76  C   UNL A   1      46.054  35.038  30.072  1.00  0.00     0.010 A 
ATOM     77  C   UNL A   1      44.921  36.487  27.963  1.00  0.00     0.020 A 
ATOM     78  C   UNL A   1      46.679  35.047  28.821  1.00  0.00     0.020 A 
ATOM     79  C   UNL A   1      46.097  35.757  27.770  1.00  0.00     0.054 A 
BRANCH  79  80
ATOM     80  S   UNL A   1      46.868  35.773  26.129  1.00  0.00     0.124 S 
ATOM     81  O   UNL A   1      46.799  37.189  25.779  1.00  0.00    -0.237 OA
ATOM     82  O   UNL A   1      48.208  35.258  26.399  1.00  0.00    -0.237 OA
ATOM     83  O   UNL A   1      46.013  34.893  25.335  1.00  0.00    -0.744 OA
ENDBRANCH  79  80
ENDBRANCH  60  74
BRANCH  61  84
ATOM     84  C   UNL A   1      40.580  35.196  39.318  1.00  0.00    -0.014 A 
ATOM     85  C   UNL A   1      41.240  34.492  40.339  1.00  0.00     0.010 A 
ATOM     86  C   UNL A   1      39.347  35.814  39.601  1.00  0.00     0.010 A 
ATOM     87  C   UNL A   1      40.673  34.393  41.613  1.00  0.00     0.020 A 
ATOM     88  C   UNL A   1      38.791  35.742  40.880  1.00  0.00     0.020 A 
ATOM     89  C   UNL A   1      39.453  35.022  41.877  1.00  0.00     0.054 A 
BRANCH  89  90
ATOM     90  S   UNL A   1      38.763  34.927  43.552  1.00  0.00     0.124 S 
ATOM     91  O   UNL A   1      39.680  35.775  44.307  1.00  0.00    -0.237 OA
ATOM     92  O   UNL A   1      37.414  35.457  43.368  1.00  0.00    -0.237 OA
ATOM     93  O   UNL A   1      38.825  33.500  43.866  1.00  0.00    -0.744 OA
ENDBRANCH  89  90
ENDBRANCH  61  84
BRANCH  73  94
ATOM     94  C   UNL A   1      45.095  39.634  36.348  1.00  0.00    -0.014 A 
ATOM     95  C   UNL A   1      46.362  39.618  36.954  1.00  0.00     0.010 A 
ATOM     96  C   UNL A   1      44.481  40.870  36.069  1.00  0.00     0.010 A 
ATOM     97  C   UNL A   1      47.003  40.819  37.276  1.00  0.00     0.020 A 
ATOM     98  C   UNL A   1      45.129  42.071  36.363  1.00  0.00     0.020 A 
ATOM     99  C   UNL A   1      46.386  42.038  36.969  1.00  0.00     0.054 A 
BRANCH  99 100
ATOM    100  S   UNL A   1      47.280  43.578  37.308  1.00  0.00     0.124 S 
ATOM    101  O   UNL A   1      47.851  43.894  36.001  1.00  0.00    -0.237 OA
ATOM    102  O   UNL A   1      46.217  44.472  37.762  1.00  0.00    -0.237 OA
ATOM    103  O   UNL A   1      48.249  43.200  38.335  1.00  0.00    -0.744 OA
ENDBRANCH  99 100
ENDBRANCH  73  94
ENDBRANCH  47  48
ENDBRANCH  39  42
ENDBRANCH  37  38
ENDBRANCH  36  37
ENDBRANCH  35  36
ENDBRANCH  34  35
ENDBRANCH   1  34
TORSDOF 22
ENDMDL
MODEL 2
REMARK VINA RESULT:      -7.6      4.217     10.507
REMARK SMILES CCc1cccc(CC)c1N1/C(=[NH+]/C(=O)CCCC(=O)NCCCCCCNC(=O)c2ccc(-c3c4nc(c(-c5ccc(S(=O)(=O)[O-])cc5)c5ccc([nH]5)c(-c5ccc(S(=O)(=O)[O-])cc5)c5nc(c(-c6ccc(S(=O)(=O)[O-])cc6)c6ccc3[nH]6)C=C5)C=C4)cc2)S[C@@H]2CS(=O)(=O)C[C@@H]21
REMARK SMILES IDX 23 1 22 2 21 3 19 4 20 5 18 7 17 8 16 9 14 10 11 11 12 12
REMARK SMILES IDX 98 13 13 14 91 15 92 16 97 17 93 19 94 20 15 21 95 22 96 23
REMARK SMILES IDX 10 24 3 25 4 26 5 27 7 28 6 29 2 30 1 31 8 32 9 33 24 34
REMARK SMILES IDX 25 35 26 36 27 37 28 38 29 39 30 41 31 42 32 43 90 44 33 45
REMARK SMILES IDX 89 46 34 47 35 48 36 49 83 50 37 51 88 52 82 53 84 54 38 55
REMARK SMILES IDX 87 56 81 57 80 58 39 60 69 61 50 62 68 63 51 64 54 65 67 66
REMARK SMILES IDX 85 67 52 68 53 69 66 71 86 72 55 73 40 74 41 75 49 76 42 77
REMARK SMILES IDX 48 78 43 79 44 80 45 81 46 82 47 83 70 84 71 85 79 86 72 87
REMARK SMILES IDX 78 88 73 89 74 90 75 91 76 92 77 93 56 94 57 95 65 96 58 97
REMARK SMILES IDX 64 98 59 99 60 100 61 101 62 102 63 103
REMARK H PARENT 21 6 13 18 28 40 84 59 54 70
REMARK Flexibility Score: inf
ROOT
ATOM      1  C   UNL A   1      45.459  39.080  28.493  1.00  0.00     0.021 C 
ENDROOT
BRANCH   1   2
ATOM      2  C   UNL A   1      44.252  38.148  28.405  1.00  0.00     0.116 C 
BRANCH   2   3
ATOM      3  N   UNL A   1      44.452  37.170  27.359  1.00  0.00    -0.356 N 
ATOM      4  C   UNL A   1      44.329  35.817  27.419  1.00  0.00     0.220 C 
ATOM      5  O   UNL A   1      44.646  35.150  26.433  1.00  0.00    -0.275 OA
ATOM      6  H   UNL A   1      44.715  37.533  26.483  1.00  0.00     0.163 HD
BRANCH   4   7
ATOM      7  C   UNL A   1      43.746  35.162  28.652  1.00  0.00     0.100 C 
BRANCH   7   8
ATOM      8  C   UNL A   1      42.233  34.964  28.690  1.00  0.00     0.022 C 
BRANCH   8   9
ATOM      9  C   UNL A   1      41.608  34.355  29.944  1.00  0.00     0.128 C 
BRANCH   9  10
ATOM     10  C   UNL A   1      40.083  34.290  30.047  1.00  0.00     0.307 C 
ATOM     11  N   UNL A   1      37.636  31.739  31.059  1.00  0.00    -0.216 N 
ATOM     12  C   UNL A   1      38.298  32.794  30.416  1.00  0.00     0.319 C 
ATOM     13  C   UNL A   1      36.146  31.817  31.053  1.00  0.00     0.212 C 
ATOM     14  N   UNL A   1      39.555  33.097  30.496  1.00  0.00    -0.204 N 
ATOM     15  S   UNL A   1      37.089  33.722  29.501  1.00  0.00    -0.029 SA
ATOM     16  C   UNL A   1      35.769  33.245  30.631  1.00  0.00     0.120 C 
ATOM     17  C   UNL A   1      35.482  31.520  32.397  1.00  0.00     0.188 C 
ATOM     18  H   UNL A   1      40.166  32.439  30.901  1.00  0.00     0.316 HD
ATOM     19  C   UNL A   1      35.758  34.115  31.875  1.00  0.00     0.156 C 
ATOM     20  S   UNL A   1      34.942  33.080  33.062  1.00  0.00     0.155 S 
ATOM     21  O   UNL A   1      39.446  35.300  29.755  1.00  0.00    -0.247 OA
ATOM     22  O   UNL A   1      35.533  33.280  34.369  1.00  0.00    -0.229 OA
ATOM     23  O   UNL A   1      33.517  33.183  32.849  1.00  0.00    -0.229 OA
BRANCH  11  24
ATOM     24  C   UNL A   1      38.219  30.513  31.474  1.00  0.00     0.134 A 
ATOM     25  C   UNL A   1      38.367  29.405  30.591  1.00  0.00    -0.001 A 
ATOM     26  C   UNL A   1      39.091  28.264  31.032  1.00  0.00     0.008 A 
ATOM     27  C   UNL A   1      39.733  28.214  32.256  1.00  0.00     0.001 A 
ATOM     28  C   UNL A   1      38.804  30.400  32.788  1.00  0.00    -0.001 A 
ATOM     29  C   UNL A   1      39.600  29.282  33.119  1.00  0.00     0.008 A 
BRANCH  25  30
ATOM     30  C   UNL A   1      37.846  29.216  29.174  1.00  0.00     0.036 C 
ATOM     31  C   UNL A   1      38.753  29.016  27.984  1.00  0.00     0.009 C 
ENDBRANCH  25  30
BRANCH  28  32
ATOM     32  C   UNL A   1      38.652  31.446  33.887  1.00  0.00     0.036 C 
ATOM     33  C   UNL A   1      39.753  32.507  33.927  1.00  0.00     0.009 C 
ENDBRANCH  28  32
ENDBRANCH  11  24
ENDBRANCH   9  10
ENDBRANCH   8   9
ENDBRANCH   7   8
ENDBRANCH   4   7
ENDBRANCH   2   3
ENDBRANCH   1   2
BRANCH   1  34
ATOM     34  C   UNL A   1      45.420  39.965  29.735  1.00  0.00     0.002 C 
BRANCH  34  35
ATOM     35  C   UNL A   1      44.830  41.357  29.477  1.00  0.00     0.002 C 
BRANCH  35  36
ATOM     36  C   UNL A   1      45.748  42.525  29.848  1.00  0.00     0.021 C 
BRANCH  36  37
ATOM     37  C   UNL A   1      46.307  42.453  31.265  1.00  0.00     0.116 C 
BRANCH  37  38
ATOM     38  N   UNL A   1      45.475  43.193  32.203  1.00  0.00    -0.352 N 
ATOM     39  C   UNL A   1      44.505  42.723  33.050  1.00  0.00     0.251 C 
ATOM     40  H   UNL A   1      45.632  44.165  32.234  1.00  0.00     0.163 HD
ATOM     41  O   UNL A   1      43.718  43.496  33.585  1.00  0.00    -0.269 OA
BRANCH  39  42
ATOM     42  C   UNL A   1      44.422  41.273  33.303  1.00  0.00     0.039 A 
ATOM     43  C   UNL A   1      43.427  40.519  32.677  1.00  0.00     0.014 A 
ATOM     44  C   UNL A   1      45.345  40.664  34.159  1.00  0.00     0.014 A 
ATOM     45  C   UNL A   1      43.390  39.137  32.869  1.00  0.00     0.010 A 
ATOM     46  C   UNL A   1      45.351  39.282  34.288  1.00  0.00     0.010 A 
ATOM     47  C   UNL A   1      44.367  38.506  33.656  1.00  0.00    -0.014 A 
BRANCH  47  48
ATOM     48  C   UNL A   1      44.376  37.040  33.880  1.00  0.00     0.031 A 
ATOM     49  C   UNL A   1      45.136  36.158  32.927  1.00  0.00     0.074 A 
ATOM     50  C   UNL A   1      43.628  36.501  34.862  1.00  0.00     0.049 A 
ATOM     51  N   UNL A   1      45.140  34.855  32.833  1.00  0.00    -0.248 NA
ATOM     52  C   UNL A   1      45.978  36.836  31.926  1.00  0.00     0.031 C 
ATOM     53  C   UNL A   1      42.836  37.254  35.837  1.00  0.00     0.029 A 
ATOM     54  N   UNL A   1      43.396  35.189  35.188  1.00  0.00    -0.354 N 
ATOM     55  C   UNL A   1      45.955  34.560  31.746  1.00  0.00     0.074 A 
ATOM     56  C   UNL A   1      46.390  35.819  31.186  1.00  0.00     0.031 C 
ATOM     57  C   UNL A   1      42.213  36.391  36.657  1.00  0.00     0.029 A 
ATOM     58  C   UNL A   1      42.518  35.027  36.234  1.00  0.00     0.049 A 
ATOM     59  H   UNL A   1      43.818  34.434  34.716  1.00  0.00     0.167 HD
ATOM     60  C   UNL A   1      46.316  33.347  31.267  1.00  0.00     0.031 A 
ATOM     61  C   UNL A   1      42.000  33.906  36.776  1.00  0.00     0.031 A 
ATOM     62  C   UNL A   1      45.889  32.100  31.840  1.00  0.00     0.049 A 
ATOM     63  C   UNL A   1      42.400  32.569  36.213  1.00  0.00     0.074 A 
ATOM     64  C   UNL A   1      46.236  30.816  31.461  1.00  0.00     0.029 A 
ATOM     65  N   UNL A   1      45.021  31.982  32.917  1.00  0.00    -0.354 N 
ATOM     66  N   UNL A   1      43.206  32.305  35.212  1.00  0.00    -0.248 NA
ATOM     67  C   UNL A   1      41.829  31.376  36.856  1.00  0.00     0.031 C 
ATOM     68  C   UNL A   1      45.537  29.920  32.274  1.00  0.00     0.029 A 
ATOM     69  C   UNL A   1      44.809  30.646  33.205  1.00  0.00     0.049 A 
ATOM     70  H   UNL A   1      44.617  32.737  33.403  1.00  0.00     0.167 HD
ATOM     71  C   UNL A   1      43.273  30.918  35.134  1.00  0.00     0.074 A 
ATOM     72  C   UNL A   1      42.425  30.398  36.186  1.00  0.00     0.031 C 
ATOM     73  C   UNL A   1      43.982  30.147  34.275  1.00  0.00     0.031 A 
BRANCH  60  74
ATOM     74  C   UNL A   1      47.211  33.312  30.056  1.00  0.00    -0.014 A 
ATOM     75  C   UNL A   1      48.609  33.407  30.178  1.00  0.00     0.010 A 
ATOM     76  C   UNL A   1      46.647  33.146  28.777  1.00  0.00     0.010 A 
ATOM     77  C   UNL A   1      49.423  33.381  29.042  1.00  0.00     0.020 A 
ATOM     78  C   UNL A   1      47.460  33.086  27.641  1.00  0.00     0.020 A 
ATOM     79  C   UNL A   1      48.841  33.223  27.781  1.00  0.00     0.054 A 
BRANCH  79  80
ATOM     80  S   UNL A   1      49.925  33.173  26.327  1.00  0.00     0.124 S 
ATOM     81  O   UNL A   1      51.071  33.956  26.779  1.00  0.00    -0.237 OA
ATOM     82  O   UNL A   1      50.170  31.742  26.161  1.00  0.00    -0.237 OA
ATOM     83  O   UNL A   1      49.123  33.792  25.275  1.00  0.00    -0.744 OA
ENDBRANCH  79  80
ENDBRANCH  60  74
BRANCH  61  84
ATOM     84  C   UNL A   1      41.052  34.004  37.920  1.00  0.00    -0.014 A 
ATOM     85  C   UNL A   1      41.532  34.048  39.240  1.00  0.00     0.010 A 
ATOM     86  C   UNL A   1      39.664  34.068  37.695  1.00  0.00     0.010 A 
ATOM     87  C   UNL A   1      40.642  34.138  40.316  1.00  0.00     0.020 A 
ATOM     88  C   UNL A   1      38.774  34.188  38.765  1.00  0.00     0.020 A 
ATOM     89  C   UNL A   1      39.268  34.210  40.071  1.00  0.00     0.054 A 
BRANCH  89  90
ATOM     90  S   UNL A   1      38.136  34.382  41.479  1.00  0.00     0.124 S 
ATOM     91  O   UNL A   1      37.918  35.825  41.518  1.00  0.00    -0.237 OA
ATOM     92  O   UNL A   1      36.990  33.579  41.061  1.00  0.00    -0.237 OA
ATOM     93  O   UNL A   1      38.898  33.831  42.598  1.00  0.00    -0.744 OA
ENDBRANCH  89  90
ENDBRANCH  61  84
BRANCH  73  94
ATOM     94  C   UNL A   1      43.944  28.655  34.467  1.00  0.00    -0.014 A 
ATOM     95  C   UNL A   1      42.999  27.852  33.808  1.00  0.00     0.010 A 
ATOM     96  C   UNL A   1      44.953  28.041  35.233  1.00  0.00     0.010 A 
ATOM     97  C   UNL A   1      43.062  26.459  33.915  1.00  0.00     0.020 A 
ATOM     98  C   UNL A   1      45.037  26.651  35.319  1.00  0.00     0.020 A 
ATOM     99  C   UNL A   1      44.087  25.867  34.662  1.00  0.00     0.054 A 
BRANCH  99 100
ATOM    100  S   UNL A   1      44.204  24.058  34.704  1.00  0.00     0.124 S 
ATOM    101  O   UNL A   1      44.941  23.829  35.943  1.00  0.00    -0.237 OA
ATOM    102  O   UNL A   1      42.802  23.647  34.721  1.00  0.00    -0.237 OA
ATOM    103  O   UNL A   1      44.929  23.727  33.478  1.00  0.00    -0.744 OA
ENDBRANCH  99 100
ENDBRANCH  73  94
ENDBRANCH  47  48
ENDBRANCH  39  42
ENDBRANCH  37  38
ENDBRANCH  36  37
ENDBRANCH  35  36
ENDBRANCH  34  35
ENDBRANCH   1  34
TORSDOF 22
ENDMDL
MODEL 3
REMARK VINA RESULT:      -7.2      6.012     14.610
REMARK SMILES CCc1cccc(CC)c1N1/C(=[NH+]/C(=O)CCCC(=O)NCCCCCCNC(=O)c2ccc(-c3c4nc(c(-c5ccc(S(=O)(=O)[O-])cc5)c5ccc([nH]5)c(-c5ccc(S(=O)(=O)[O-])cc5)c5nc(c(-c6ccc(S(=O)(=O)[O-])cc6)c6ccc3[nH]6)C=C5)C=C4)cc2)S[C@@H]2CS(=O)(=O)C[C@@H]21
REMARK SMILES IDX 23 1 22 2 21 3 19 4 20 5 18 7 17 8 16 9 14 10 11 11 12 12
REMARK SMILES IDX 98 13 13 14 91 15 92 16 97 17 93 19 94 20 15 21 95 22 96 23
REMARK SMILES IDX 10 24 3 25 4 26 5 27 7 28 6 29 2 30 1 31 8 32 9 33 24 34
REMARK SMILES IDX 25 35 26 36 27 37 28 38 29 39 30 41 31 42 32 43 90 44 33 45
REMARK SMILES IDX 89 46 34 47 35 48 36 49 83 50 37 51 88 52 82 53 84 54 38 55
REMARK SMILES IDX 87 56 81 57 80 58 39 60 69 61 50 62 68 63 51 64 54 65 67 66
REMARK SMILES IDX 85 67 52 68 53 69 66 71 86 72 55 73 40 74 41 75 49 76 42 77
REMARK SMILES IDX 48 78 43 79 44 80 45 81 46 82 47 83 70 84 71 85 79 86 72 87
REMARK SMILES IDX 78 88 73 89 74 90 75 91 76 92 77 93 56 94 57 95 65 96 58 97
REMARK SMILES IDX 64 98 59 99 60 100 61 101 62 102 63 103
REMARK H PARENT 21 6 13 18 28 40 84 59 54 70
REMARK Flexibility Score: inf
ROOT
ATOM      1  C   UNL A   1      50.995  31.007  32.331  1.00  0.00     0.021 C 
ENDROOT
BRANCH   1   2
ATOM      2  C   UNL A   1      51.690  29.839  31.633  1.00  0.00     0.116 C 
BRANCH   2   3
ATOM      3  N   UNL A   1      51.869  28.741  32.556  1.00  0.00    -0.356 N 
ATOM      4  C   UNL A   1      50.929  27.943  33.130  1.00  0.00     0.220 C 
ATOM      5  O   UNL A   1      51.286  27.122  33.975  1.00  0.00    -0.275 OA
ATOM      6  H   UNL A   1      52.801  28.544  32.806  1.00  0.00     0.163 HD
BRANCH   4   7
ATOM      7  C   UNL A   1      49.487  28.025  32.676  1.00  0.00     0.100 C 
BRANCH   7   8
ATOM      8  C   UNL A   1      49.086  27.183  31.468  1.00  0.00     0.022 C 
BRANCH   8   9
ATOM      9  C   UNL A   1      47.617  26.794  31.305  1.00  0.00     0.128 C 
BRANCH   9  10
ATOM     10  C   UNL A   1      46.664  27.010  32.482  1.00  0.00     0.307 C 
ATOM     11  N   UNL A   1      45.308  24.901  35.171  1.00  0.00    -0.216 N 
ATOM     12  C   UNL A   1      45.474  25.855  34.158  1.00  0.00     0.319 C 
ATOM     13  C   UNL A   1      44.326  25.258  36.235  1.00  0.00     0.212 C 
ATOM     14  N   UNL A   1      46.423  25.910  33.278  1.00  0.00    -0.204 N 
ATOM     15  S   UNL A   1      44.174  27.057  34.320  1.00  0.00    -0.029 SA
ATOM     16  C   UNL A   1      44.028  26.758  36.092  1.00  0.00     0.120 C 
ATOM     17  C   UNL A   1      44.804  24.996  37.664  1.00  0.00     0.188 C 
ATOM     18  H   UNL A   1      47.004  25.121  33.172  1.00  0.00     0.316 HD
ATOM     19  C   UNL A   1      45.079  27.524  36.875  1.00  0.00     0.156 C 
ATOM     20  S   UNL A   1      45.208  26.579  38.370  1.00  0.00     0.155 S 
ATOM     21  O   UNL A   1      46.212  28.140  32.652  1.00  0.00    -0.247 OA
ATOM     22  O   UNL A   1      46.584  26.570  38.822  1.00  0.00    -0.229 OA
ATOM     23  O   UNL A   1      44.124  26.964  39.245  1.00  0.00    -0.229 OA
BRANCH  11  24
ATOM     24  C   UNL A   1      45.775  23.561  35.143  1.00  0.00     0.134 A 
ATOM     25  C   UNL A   1      47.004  23.171  35.751  1.00  0.00    -0.001 A 
ATOM     26  C   UNL A   1      47.335  21.790  35.811  1.00  0.00     0.008 A 
ATOM     27  C   UNL A   1      46.477  20.796  35.377  1.00  0.00     0.001 A 
ATOM     28  C   UNL A   1      44.942  22.517  34.598  1.00  0.00    -0.001 A 
ATOM     29  C   UNL A   1      45.284  21.160  34.788  1.00  0.00     0.008 A 
BRANCH  25  30
ATOM     30  C   UNL A   1      48.091  24.029  36.380  1.00  0.00     0.036 C 
ATOM     31  C   UNL A   1      48.563  23.848  37.802  1.00  0.00     0.009 C 
ENDBRANCH  25  30
BRANCH  28  32
ATOM     32  C   UNL A   1      43.651  22.765  33.825  1.00  0.00     0.036 C 
ATOM     33  C   UNL A   1      43.841  23.183  32.365  1.00  0.00     0.009 C 
ENDBRANCH  28  32
ENDBRANCH  11  24
ENDBRANCH   9  10
ENDBRANCH   8   9
ENDBRANCH   7   8
ENDBRANCH   4   7
ENDBRANCH   2   3
ENDBRANCH   1   2
BRANCH   1  34
ATOM     34  C   UNL A   1      51.949  31.807  33.213  1.00  0.00     0.002 C 
BRANCH  34  35
ATOM     35  C   UNL A   1      51.318  33.073  33.806  1.00  0.00     0.002 C 
BRANCH  35  36
ATOM     36  C   UNL A   1      51.872  34.389  33.252  1.00  0.00     0.021 C 
BRANCH  36  37
ATOM     37  C   UNL A   1      51.248  34.821  31.929  1.00  0.00     0.116 C 
BRANCH  37  38
ATOM     38  N   UNL A   1      50.286  35.897  32.120  1.00  0.00    -0.352 N 
ATOM     39  C   UNL A   1      49.001  35.996  31.651  1.00  0.00     0.251 C 
ATOM     40  H   UNL A   1      50.602  36.657  32.660  1.00  0.00     0.163 HD
ATOM     41  O   UNL A   1      48.411  37.070  31.678  1.00  0.00    -0.269 OA
BRANCH  39  42
ATOM     42  C   UNL A   1      48.344  34.790  31.114  1.00  0.00     0.039 A 
ATOM     43  C   UNL A   1      48.015  34.731  29.758  1.00  0.00     0.014 A 
ATOM     44  C   UNL A   1      48.065  33.715  31.963  1.00  0.00     0.014 A 
ATOM     45  C   UNL A   1      47.450  33.564  29.240  1.00  0.00     0.010 A 
ATOM     46  C   UNL A   1      47.573  32.532  31.431  1.00  0.00     0.010 A 
ATOM     47  C   UNL A   1      47.249  32.448  30.068  1.00  0.00    -0.014 A 
BRANCH  47  48
ATOM     48  C   UNL A   1      46.663  31.184  29.560  1.00  0.00     0.031 A 
ATOM     49  C   UNL A   1      45.199  30.914  29.782  1.00  0.00     0.074 A 
ATOM     50  C   UNL A   1      47.453  30.248  29.001  1.00  0.00     0.049 A 
ATOM     51  N   UNL A   1      44.522  29.816  29.578  1.00  0.00    -0.248 NA
ATOM     52  C   UNL A   1      44.400  32.020  30.339  1.00  0.00     0.031 C 
ATOM     53  C   UNL A   1      48.889  30.388  28.749  1.00  0.00     0.029 A 
ATOM     54  N   UNL A   1      47.162  28.980  28.564  1.00  0.00    -0.354 N 
ATOM     55  C   UNL A   1      43.229  30.086  30.010  1.00  0.00     0.074 A 
ATOM     56  C   UNL A   1      43.227  31.435  30.529  1.00  0.00     0.031 C 
ATOM     57  C   UNL A   1      49.350  29.255  28.193  1.00  0.00     0.029 A 
ATOM     58  C   UNL A   1      48.258  28.291  28.099  1.00  0.00     0.049 A 
ATOM     59  H   UNL A   1      46.254  28.600  28.582  1.00  0.00     0.167 HD
ATOM     60  C   UNL A   1      42.139  29.286  29.967  1.00  0.00     0.031 A 
ATOM     61  C   UNL A   1      48.373  27.019  27.667  1.00  0.00     0.031 A 
ATOM     62  C   UNL A   1      42.148  27.950  29.436  1.00  0.00     0.049 A 
ATOM     63  C   UNL A   1      47.152  26.140  27.647  1.00  0.00     0.074 A 
ATOM     64  C   UNL A   1      41.088  27.072  29.300  1.00  0.00     0.029 A 
ATOM     65  N   UNL A   1      43.274  27.301  28.949  1.00  0.00    -0.354 N 
ATOM     66  N   UNL A   1      45.926  26.425  28.019  1.00  0.00    -0.248 NA
ATOM     67  C   UNL A   1      47.324  24.770  27.141  1.00  0.00     0.031 C 
ATOM     68  C   UNL A   1      41.583  25.872  28.782  1.00  0.00     0.029 A 
ATOM     69  C   UNL A   1      42.937  26.027  28.529  1.00  0.00     0.049 A 
ATOM     70  H   UNL A   1      44.178  27.689  28.911  1.00  0.00     0.167 HD
ATOM     71  C   UNL A   1      45.174  25.286  27.751  1.00  0.00     0.074 A 
ATOM     72  C   UNL A   1      46.081  24.308  27.189  1.00  0.00     0.031 C 
ATOM     73  C   UNL A   1      43.850  25.076  27.945  1.00  0.00     0.031 A 
BRANCH  60  74
ATOM     74  C   UNL A   1      40.848  29.831  30.519  1.00  0.00    -0.014 A 
ATOM     75  C   UNL A   1      39.958  30.560  29.710  1.00  0.00     0.010 A 
ATOM     76  C   UNL A   1      40.502  29.579  31.860  1.00  0.00     0.010 A 
ATOM     77  C   UNL A   1      38.769  31.065  30.242  1.00  0.00     0.020 A 
ATOM     78  C   UNL A   1      39.298  30.055  32.387  1.00  0.00     0.020 A 
ATOM     79  C   UNL A   1      38.448  30.811  31.579  1.00  0.00     0.054 A 
BRANCH  79  80
ATOM     80  S   UNL A   1      36.887  31.462  32.234  1.00  0.00     0.124 S 
ATOM     81  O   UNL A   1      35.970  30.355  31.981  1.00  0.00    -0.237 OA
ATOM     82  O   UNL A   1      37.207  31.704  33.639  1.00  0.00    -0.237 OA
ATOM     83  O   UNL A   1      36.650  32.663  31.436  1.00  0.00    -0.744 OA
ENDBRANCH  79  80
ENDBRANCH  60  74
BRANCH  61  84
ATOM     84  C   UNL A   1      49.695  26.506  27.211  1.00  0.00    -0.014 A 
ATOM     85  C   UNL A   1      49.990  26.419  25.840  1.00  0.00     0.010 A 
ATOM     86  C   UNL A   1      50.672  26.116  28.146  1.00  0.00     0.010 A 
ATOM     87  C   UNL A   1      51.230  25.935  25.411  1.00  0.00     0.020 A 
ATOM     88  C   UNL A   1      51.922  25.661  27.722  1.00  0.00     0.020 A 
ATOM     89  C   UNL A   1      52.190  25.562  26.356  1.00  0.00     0.054 A 
BRANCH  89  90
ATOM     90  S   UNL A   1      53.812  24.990  25.776  1.00  0.00     0.124 S 
ATOM     91  O   UNL A   1      54.596  25.006  27.007  1.00  0.00    -0.237 OA
ATOM     92  O   UNL A   1      53.505  23.668  25.236  1.00  0.00    -0.237 OA
ATOM     93  O   UNL A   1      54.189  25.989  24.778  1.00  0.00    -0.744 OA
ENDBRANCH  89  90
ENDBRANCH  61  84
BRANCH  73  94
ATOM     94  C   UNL A   1      43.266  23.768  27.482  1.00  0.00    -0.014 A 
ATOM     95  C   UNL A   1      43.177  23.444  26.119  1.00  0.00     0.010 A 
ATOM     96  C   UNL A   1      42.912  22.802  28.444  1.00  0.00     0.010 A 
ATOM     97  C   UNL A   1      42.738  22.176  25.724  1.00  0.00     0.020 A 
ATOM     98  C   UNL A   1      42.501  21.527  28.055  1.00  0.00     0.020 A 
ATOM     99  C   UNL A   1      42.413  21.222  26.695  1.00  0.00     0.054 A 
BRANCH  99 100
ATOM    100  S   UNL A   1      41.942  19.555  26.159  1.00  0.00     0.124 S 
ATOM    101  O   UNL A   1      42.625  19.444  24.873  1.00  0.00    -0.237 OA
ATOM    102  O   UNL A   1      42.474  18.713  27.228  1.00  0.00    -0.237 OA
ATOM    103  O   UNL A   1      40.483  19.612  26.086  1.00  0.00    -0.744 OA
ENDBRANCH  99 100
ENDBRANCH  73  94
ENDBRANCH  47  48
ENDBRANCH  39  42
ENDBRANCH  37  38
ENDBRANCH  36  37
ENDBRANCH  35  36
ENDBRANCH  34  35
ENDBRANCH   1  34
TORSDOF 22
ENDMDL
