MODEL 1
REMARK VINA RESULT:     -12.0      0.000      0.000
REMARK SMILES CC(C)n1ccc(Cn2cc(C(=O)NCCCCCCNC(=O)c3ccc(-c4c5nc(c(-c6ccc(S(=O)(=O)[O-])cc6)c6ccc([nH]6)c(-c6ccc(S(=O)(=O)[O-])cc6)c6nc(c(-c7ccc(S(=O)(=O)[O-])cc7)c7ccc4[nH]7)C=C6)C=C5)cc3)cc2Br)n1
REMARK SMILES IDX 17 1 16 2 15 3 14 4 12 5 13 6 11 8 9 9 10 10 85 11 84 12
REMARK SMILES IDX 86 13 8 14 7 15 4 16 5 17 87 18 6 19 2 20 1 21 3 22 18 23
REMARK SMILES IDX 19 24 20 25 21 26 22 27 23 29 24 30 25 31 83 32 26 33 82 34
REMARK SMILES IDX 27 35 28 36 29 37 76 38 30 39 81 40 75 41 77 42 31 43 80 44
REMARK SMILES IDX 74 45 73 46 32 48 62 49 43 50 61 51 44 52 47 53 60 54 78 55
REMARK SMILES IDX 45 56 46 57 59 59 79 60 48 61 33 62 34 63 42 64 35 65 41 66
REMARK SMILES IDX 36 67 37 68 38 69 39 70 40 71 63 72 64 73 72 74 65 75 71 76
REMARK SMILES IDX 66 77 67 78 68 79 69 80 70 81 49 82 50 83 58 84 51 85 57 86
REMARK SMILES IDX 52 87 53 88 54 89 55 90 56 91
REMARK H PARENT 14 7 21 28 77 47 47 58
REMARK Flexibility Score: inf
ROOT
ATOM      1  C   UNL A   1      31.318  29.013  24.584  1.00  0.00     0.002 C 
ENDROOT
BRANCH   1   2
ATOM      2  C   UNL A   1      31.694  28.727  23.123  1.00  0.00     0.021 C 
BRANCH   2   3
ATOM      3  C   UNL A   1      33.048  28.037  22.966  1.00  0.00     0.116 C 
BRANCH   3   4
ATOM      4  N   UNL A   1      33.098  27.270  21.739  1.00  0.00    -0.352 N 
ATOM      5  C   UNL A   1      33.024  25.926  21.483  1.00  0.00     0.252 C 
ATOM      6  O   UNL A   1      33.009  25.589  20.297  1.00  0.00    -0.269 OA
ATOM      7  H   UNL A   1      33.204  27.823  20.931  1.00  0.00     0.163 HD
BRANCH   5   8
ATOM      8  C   UNL A   1      32.874  24.938  22.548  1.00  0.00     0.058 A 
ATOM      9  N   UNL A   1      33.229  23.322  24.073  1.00  0.00    -0.335 N 
ATOM     10  C   UNL A   1      33.609  23.798  22.832  1.00  0.00     0.101 A 
ATOM     11  C   UNL A   1      32.063  23.941  24.427  1.00  0.00     0.086 A 
ATOM     12  C   UNL A   1      31.822  24.946  23.521  1.00  0.00     0.049 A 
ATOM     13  Br  UNL A   1      30.966  23.564  25.890  1.00  0.00    -0.031 Br
BRANCH   9  14
ATOM     14  C   UNL A   1      33.980  22.325  24.834  1.00  0.00     0.180 C 
BRANCH  14  15
ATOM     15  C   UNL A   1      33.559  20.930  24.458  1.00  0.00     0.082 A 
ATOM     16  N   UNL A   1      33.595  18.800  24.355  1.00  0.00    -0.270 N 
ATOM     17  C   UNL A   1      32.470  19.163  23.667  1.00  0.00     0.109 A 
ATOM     18  N   UNL A   1      34.288  19.862  24.819  1.00  0.00    -0.176 NA
ATOM     19  C   UNL A   1      32.394  20.531  23.755  1.00  0.00     0.047 A 
BRANCH  16  20
ATOM     20  C   UNL A   1      34.061  17.430  24.569  1.00  0.00     0.101 C 
ATOM     21  C   UNL A   1      33.198  16.630  25.552  1.00  0.00     0.033 C 
ATOM     22  C   UNL A   1      34.174  16.663  23.248  1.00  0.00     0.033 C 
ENDBRANCH  16  20
ENDBRANCH  14  15
ENDBRANCH   9  14
ENDBRANCH   5   8
ENDBRANCH   3   4
ENDBRANCH   2   3
ENDBRANCH   1   2
BRANCH   1  23
ATOM     23  C   UNL A   1      31.946  28.075  25.629  1.00  0.00     0.002 C 
BRANCH  23  24
ATOM     24  C   UNL A   1      32.483  28.742  26.906  1.00  0.00     0.021 C 
BRANCH  24  25
ATOM     25  C   UNL A   1      33.851  29.381  26.726  1.00  0.00     0.116 C 
BRANCH  25  26
ATOM     26  N   UNL A   1      33.823  30.821  26.987  1.00  0.00    -0.352 N 
ATOM     27  C   UNL A   1      34.573  31.550  27.893  1.00  0.00     0.251 C 
ATOM     28  H   UNL A   1      33.186  31.341  26.445  1.00  0.00     0.163 HD
ATOM     29  O   UNL A   1      34.203  32.648  28.272  1.00  0.00    -0.269 OA
BRANCH  27  30
ATOM     30  C   UNL A   1      35.836  30.968  28.382  1.00  0.00     0.039 A 
ATOM     31  C   UNL A   1      36.036  29.585  28.441  1.00  0.00     0.014 A 
ATOM     32  C   UNL A   1      36.838  31.850  28.769  1.00  0.00     0.014 A 
ATOM     33  C   UNL A   1      37.287  29.105  28.829  1.00  0.00     0.010 A 
ATOM     34  C   UNL A   1      38.108  31.387  28.966  1.00  0.00     0.010 A 
ATOM     35  C   UNL A   1      38.320  30.018  29.077  1.00  0.00    -0.014 A 
BRANCH  35  36
ATOM     36  C   UNL A   1      39.678  29.582  29.369  1.00  0.00     0.031 A 
ATOM     37  C   UNL A   1      39.949  29.336  30.809  1.00  0.00     0.074 A 
ATOM     38  C   UNL A   1      40.512  29.162  28.391  1.00  0.00     0.049 A 
ATOM     39  N   UNL A   1      40.721  30.009  31.595  1.00  0.00    -0.248 NA
ATOM     40  C   UNL A   1      39.142  28.316  31.502  1.00  0.00     0.031 C 
ATOM     41  C   UNL A   1      40.226  29.036  26.953  1.00  0.00     0.029 A 
ATOM     42  N   UNL A   1      41.745  28.604  28.491  1.00  0.00    -0.354 N 
ATOM     43  C   UNL A   1      40.695  29.338  32.815  1.00  0.00     0.074 A 
ATOM     44  C   UNL A   1      39.545  28.472  32.764  1.00  0.00     0.031 C 
ATOM     45  C   UNL A   1      41.127  28.208  26.384  1.00  0.00     0.029 A 
ATOM     46  C   UNL A   1      42.147  27.890  27.366  1.00  0.00     0.049 A 
ATOM     47  H   UNL A   1      42.309  28.697  29.294  1.00  0.00     0.167 HD
ATOM     48  C   UNL A   1      41.781  29.326  33.640  1.00  0.00     0.031 A 
ATOM     49  C   UNL A   1      43.214  27.055  27.267  1.00  0.00     0.031 A 
ATOM     50  C   UNL A   1      42.756  30.311  33.236  1.00  0.00     0.049 A 
ATOM     51  C   UNL A   1      44.134  27.408  28.377  1.00  0.00     0.074 A 
ATOM     52  C   UNL A   1      42.736  31.679  33.041  1.00  0.00     0.029 A 
ATOM     53  N   UNL A   1      43.861  29.850  32.555  1.00  0.00    -0.354 N 
ATOM     54  N   UNL A   1      44.734  28.565  28.463  1.00  0.00    -0.248 NA
ATOM     55  C   UNL A   1      44.010  26.678  29.628  1.00  0.00     0.031 C 
ATOM     56  C   UNL A   1      43.520  31.892  31.868  1.00  0.00     0.029 A 
ATOM     57  C   UNL A   1      44.050  30.664  31.468  1.00  0.00     0.049 A 
ATOM     58  H   UNL A   1      44.415  29.075  32.803  1.00  0.00     0.167 HD
ATOM     59  C   UNL A   1      44.652  28.905  29.807  1.00  0.00     0.074 A 
ATOM     60  C   UNL A   1      44.291  27.661  30.489  1.00  0.00     0.031 C 
ATOM     61  C   UNL A   1      44.595  30.213  30.204  1.00  0.00     0.031 A 
BRANCH  48  62
ATOM     62  C   UNL A   1      42.168  28.146  34.509  1.00  0.00    -0.014 A 
ATOM     63  C   UNL A   1      42.635  28.401  35.817  1.00  0.00     0.010 A 
ATOM     64  C   UNL A   1      42.370  26.844  34.008  1.00  0.00     0.010 A 
ATOM     65  C   UNL A   1      43.368  27.443  36.529  1.00  0.00     0.020 A 
ATOM     66  C   UNL A   1      43.059  25.867  34.728  1.00  0.00     0.020 A 
ATOM     67  C   UNL A   1      43.594  26.188  35.967  1.00  0.00     0.054 A 
BRANCH  67  68
ATOM     68  S   UNL A   1      44.655  25.005  36.830  1.00  0.00     0.124 S 
ATOM     69  O   UNL A   1      45.964  25.640  36.710  1.00  0.00    -0.237 OA
ATOM     70  O   UNL A   1      44.074  24.992  38.169  1.00  0.00    -0.237 OA
ATOM     71  O   UNL A   1      44.480  23.772  36.066  1.00  0.00    -0.744 OA
ENDBRANCH  67  68
ENDBRANCH  48  62
BRANCH  49  72
ATOM     72  C   UNL A   1      43.305  25.781  26.505  1.00  0.00    -0.014 A 
ATOM     73  C   UNL A   1      44.129  25.669  25.368  1.00  0.00     0.010 A 
ATOM     74  C   UNL A   1      42.798  24.586  27.058  1.00  0.00     0.010 A 
ATOM     75  C   UNL A   1      44.490  24.409  24.854  1.00  0.00     0.020 A 
ATOM     76  C   UNL A   1      43.145  23.329  26.546  1.00  0.00     0.020 A 
ATOM     77  C   UNL A   1      44.015  23.245  25.463  1.00  0.00     0.054 A 
BRANCH  77  78
ATOM     78  S   UNL A   1      44.644  21.624  24.930  1.00  0.00     0.124 S 
ATOM     79  O   UNL A   1      44.750  21.790  23.484  1.00  0.00    -0.237 OA
ATOM     80  O   UNL A   1      45.910  21.520  25.650  1.00  0.00    -0.237 OA
ATOM     81  O   UNL A   1      43.607  20.692  25.373  1.00  0.00    -0.744 OA
ENDBRANCH  77  78
ENDBRANCH  49  72
BRANCH  61  82
ATOM     82  C   UNL A   1      44.903  31.295  29.191  1.00  0.00    -0.014 A 
ATOM     83  C   UNL A   1      46.207  31.715  28.857  1.00  0.00     0.010 A 
ATOM     84  C   UNL A   1      43.828  31.784  28.428  1.00  0.00     0.010 A 
ATOM     85  C   UNL A   1      46.421  32.620  27.805  1.00  0.00     0.020 A 
ATOM     86  C   UNL A   1      44.036  32.670  27.370  1.00  0.00     0.020 A 
ATOM     87  C   UNL A   1      45.331  33.092  27.067  1.00  0.00     0.054 A 
BRANCH  87  88
ATOM     88  S   UNL A   1      45.610  34.231  25.682  1.00  0.00     0.124 S 
ATOM     89  O   UNL A   1      47.053  34.138  25.480  1.00  0.00    -0.237 OA
ATOM     90  O   UNL A   1      44.787  33.659  24.618  1.00  0.00    -0.237 OA
ATOM     91  O   UNL A   1      45.139  35.519  26.190  1.00  0.00    -0.744 OA
ENDBRANCH  87  88
ENDBRANCH  61  82
ENDBRANCH  35  36
ENDBRANCH  27  30
ENDBRANCH  25  26
ENDBRANCH  24  25
ENDBRANCH  23  24
ENDBRANCH   1  23
TORSDOF 19
ENDMDL
MODEL 2
REMARK VINA RESULT:     -11.8      2.864      7.050
REMARK SMILES CC(C)n1ccc(Cn2cc(C(=O)NCCCCCCNC(=O)c3ccc(-c4c5nc(c(-c6ccc(S(=O)(=O)[O-])cc6)c6ccc([nH]6)c(-c6ccc(S(=O)(=O)[O-])cc6)c6nc(c(-c7ccc(S(=O)(=O)[O-])cc7)c7ccc4[nH]7)C=C6)C=C5)cc3)cc2Br)n1
REMARK SMILES IDX 17 1 16 2 15 3 14 4 12 5 13 6 11 8 9 9 10 10 85 11 84 12
REMARK SMILES IDX 86 13 8 14 7 15 4 16 5 17 87 18 6 19 2 20 1 21 3 22 18 23
REMARK SMILES IDX 19 24 20 25 21 26 22 27 23 29 24 30 25 31 83 32 26 33 82 34
REMARK SMILES IDX 27 35 28 36 29 37 76 38 30 39 81 40 75 41 77 42 31 43 80 44
REMARK SMILES IDX 74 45 73 46 32 48 62 49 43 50 61 51 44 52 47 53 60 54 78 55
REMARK SMILES IDX 45 56 46 57 59 59 79 60 48 61 33 62 34 63 42 64 35 65 41 66
REMARK SMILES IDX 36 67 37 68 38 69 39 70 40 71 63 72 64 73 72 74 65 75 71 76
REMARK SMILES IDX 66 77 67 78 68 79 69 80 70 81 49 82 50 83 58 84 51 85 57 86
REMARK SMILES IDX 52 87 53 88 54 89 55 90 56 91
REMARK H PARENT 14 7 21 28 77 47 47 58
REMARK Flexibility Score: inf
ROOT
ATOM      1  C   UNL A   1      31.055  29.416  24.404  1.00  0.00     0.002 C 
ENDROOT
BRANCH   1   2
ATOM      2  C   UNL A   1      31.866  28.502  23.474  1.00  0.00     0.021 C 
BRANCH   2   3
ATOM      3  C   UNL A   1      31.011  27.472  22.736  1.00  0.00     0.116 C 
BRANCH   3   4
ATOM      4  N   UNL A   1      31.793  26.771  21.740  1.00  0.00    -0.352 N 
ATOM      5  C   UNL A   1      32.647  25.701  21.817  1.00  0.00     0.252 C 
ATOM      6  O   UNL A   1      33.099  25.276  20.752  1.00  0.00    -0.269 OA
ATOM      7  H   UNL A   1      31.690  27.131  20.830  1.00  0.00     0.163 HD
BRANCH   5   8
ATOM      8  C   UNL A   1      32.942  25.030  23.081  1.00  0.00     0.058 A 
ATOM      9  N   UNL A   1      32.924  23.660  24.864  1.00  0.00    -0.335 N 
ATOM     10  C   UNL A   1      32.132  24.275  23.913  1.00  0.00     0.101 A 
ATOM     11  C   UNL A   1      34.152  24.259  24.848  1.00  0.00     0.086 A 
ATOM     12  C   UNL A   1      34.203  25.096  23.758  1.00  0.00     0.049 A 
ATOM     13  Br  UNL A   1      35.567  24.000  26.038  1.00  0.00    -0.031 Br
BRANCH   9  14
ATOM     14  C   UNL A   1      32.474  22.562  25.719  1.00  0.00     0.180 C 
BRANCH  14  15
ATOM     15  C   UNL A   1      32.992  21.241  25.219  1.00  0.00     0.082 A 
ATOM     16  N   UNL A   1      32.967  19.295  24.348  1.00  0.00    -0.270 N 
ATOM     17  C   UNL A   1      34.286  19.539  24.617  1.00  0.00     0.109 A 
ATOM     18  N   UNL A   1      32.160  20.306  24.734  1.00  0.00    -0.176 NA
ATOM     19  C   UNL A   1      34.340  20.807  25.138  1.00  0.00     0.047 A 
BRANCH  16  20
ATOM     20  C   UNL A   1      32.430  18.078  23.738  1.00  0.00     0.101 C 
ATOM     21  C   UNL A   1      32.273  18.166  22.216  1.00  0.00     0.033 C 
ATOM     22  C   UNL A   1      33.279  16.852  24.093  1.00  0.00     0.033 C 
ENDBRANCH  16  20
ENDBRANCH  14  15
ENDBRANCH   9  14
ENDBRANCH   5   8
ENDBRANCH   3   4
ENDBRANCH   2   3
ENDBRANCH   1   2
BRANCH   1  23
ATOM     23  C   UNL A   1      31.803  29.938  25.643  1.00  0.00     0.002 C 
BRANCH  23  24
ATOM     24  C   UNL A   1      31.412  31.342  26.132  1.00  0.00     0.021 C 
BRANCH  24  25
ATOM     25  C   UNL A   1      32.350  31.898  27.190  1.00  0.00     0.116 C 
BRANCH  25  26
ATOM     26  N   UNL A   1      32.199  33.344  27.355  1.00  0.00    -0.352 N 
ATOM     27  C   UNL A   1      32.897  34.197  28.192  1.00  0.00     0.251 C 
ATOM     28  H   UNL A   1      31.507  33.767  26.797  1.00  0.00     0.163 HD
ATOM     29  O   UNL A   1      32.437  35.281  28.507  1.00  0.00    -0.269 OA
BRANCH  27  30
ATOM     30  C   UNL A   1      34.217  33.764  28.687  1.00  0.00     0.039 A 
ATOM     31  C   UNL A   1      34.395  33.285  29.989  1.00  0.00     0.014 A 
ATOM     32  C   UNL A   1      35.284  33.831  27.799  1.00  0.00     0.014 A 
ATOM     33  C   UNL A   1      35.652  32.808  30.360  1.00  0.00     0.010 A 
ATOM     34  C   UNL A   1      36.456  33.197  28.102  1.00  0.00     0.010 A 
ATOM     35  C   UNL A   1      36.673  32.758  29.402  1.00  0.00    -0.014 A 
BRANCH  35  36
ATOM     36  C   UNL A   1      37.970  32.164  29.691  1.00  0.00     0.031 A 
ATOM     37  C   UNL A   1      38.084  30.728  29.325  1.00  0.00     0.074 A 
ATOM     38  C   UNL A   1      39.047  32.926  29.986  1.00  0.00     0.049 A 
ATOM     39  N   UNL A   1      38.203  29.717  30.118  1.00  0.00    -0.248 NA
ATOM     40  C   UNL A   1      37.880  30.353  27.914  1.00  0.00     0.031 C 
ATOM     41  C   UNL A   1      39.128  34.393  30.037  1.00  0.00     0.029 A 
ATOM     42  N   UNL A   1      40.343  32.558  30.150  1.00  0.00    -0.354 N 
ATOM     43  C   UNL A   1      38.350  28.605  29.294  1.00  0.00     0.074 A 
ATOM     44  C   UNL A   1      37.907  29.021  27.987  1.00  0.00     0.031 C 
ATOM     45  C   UNL A   1      40.419  34.778  29.944  1.00  0.00     0.029 A 
ATOM     46  C   UNL A   1      41.259  33.596  30.008  1.00  0.00     0.049 A 
ATOM     47  H   UNL A   1      40.614  31.632  30.351  1.00  0.00     0.167 HD
ATOM     48  C   UNL A   1      39.100  27.531  29.677  1.00  0.00     0.031 A 
ATOM     49  C   UNL A   1      42.608  33.487  29.896  1.00  0.00     0.031 A 
ATOM     50  C   UNL A   1      39.410  27.588  31.086  1.00  0.00     0.049 A 
ATOM     51  C   UNL A   1      42.971  32.152  30.436  1.00  0.00     0.074 A 
ATOM     52  C   UNL A   1      38.663  27.667  32.246  1.00  0.00     0.029 A 
ATOM     53  N   UNL A   1      40.681  27.998  31.427  1.00  0.00    -0.354 N 
ATOM     54  N   UNL A   1      42.799  31.818  31.686  1.00  0.00    -0.248 NA
ATOM     55  C   UNL A   1      43.066  31.040  29.504  1.00  0.00     0.031 C 
ATOM     56  C   UNL A   1      39.380  28.576  33.080  1.00  0.00     0.029 A 
ATOM     57  C   UNL A   1      40.564  28.927  32.427  1.00  0.00     0.049 A 
ATOM     58  H   UNL A   1      41.521  27.680  31.024  1.00  0.00     0.167 HD
ATOM     59  C   UNL A   1      42.315  30.517  31.641  1.00  0.00     0.074 A 
ATOM     60  C   UNL A   1      42.600  30.058  30.281  1.00  0.00     0.031 C 
ATOM     61  C   UNL A   1      41.471  30.042  32.607  1.00  0.00     0.031 A 
BRANCH  48  62
ATOM     62  C   UNL A   1      39.925  26.694  28.721  1.00  0.00    -0.014 A 
ATOM     63  C   UNL A   1      39.588  25.332  28.561  1.00  0.00     0.010 A 
ATOM     64  C   UNL A   1      41.174  27.101  28.210  1.00  0.00     0.010 A 
ATOM     65  C   UNL A   1      40.501  24.413  28.030  1.00  0.00     0.020 A 
ATOM     66  C   UNL A   1      42.072  26.201  27.635  1.00  0.00     0.020 A 
ATOM     67  C   UNL A   1      41.749  24.853  27.590  1.00  0.00     0.054 A 
BRANCH  67  68
ATOM     68  S   UNL A   1      42.972  23.644  27.033  1.00  0.00     0.124 S 
ATOM     69  O   UNL A   1      44.205  24.194  27.587  1.00  0.00    -0.237 OA
ATOM     70  O   UNL A   1      42.490  22.412  27.650  1.00  0.00    -0.237 OA
ATOM     71  O   UNL A   1      42.859  23.693  25.577  1.00  0.00    -0.744 OA
ENDBRANCH  67  68
ENDBRANCH  48  62
BRANCH  49  72
ATOM     72  C   UNL A   1      43.522  34.303  29.054  1.00  0.00    -0.014 A 
ATOM     73  C   UNL A   1      44.741  34.792  29.561  1.00  0.00     0.010 A 
ATOM     74  C   UNL A   1      43.329  34.368  27.657  1.00  0.00     0.010 A 
ATOM     75  C   UNL A   1      45.753  35.256  28.700  1.00  0.00     0.020 A 
ATOM     76  C   UNL A   1      44.328  34.837  26.794  1.00  0.00     0.020 A 
ATOM     77  C   UNL A   1      45.548  35.252  27.319  1.00  0.00     0.054 A 
BRANCH  77  78
ATOM     78  S   UNL A   1      46.925  35.653  26.199  1.00  0.00     0.124 S 
ATOM     79  O   UNL A   1      48.091  35.455  27.054  1.00  0.00    -0.237 OA
ATOM     80  O   UNL A   1      46.755  34.680  25.123  1.00  0.00    -0.237 OA
ATOM     81  O   UNL A   1      46.663  37.041  25.818  1.00  0.00    -0.744 OA
ENDBRANCH  77  78
ENDBRANCH  49  72
BRANCH  61  82
ATOM     82  C   UNL A   1      41.290  30.848  33.875  1.00  0.00    -0.014 A 
ATOM     83  C   UNL A   1      40.304  31.842  34.045  1.00  0.00     0.010 A 
ATOM     84  C   UNL A   1      42.045  30.459  34.995  1.00  0.00     0.010 A 
ATOM     85  C   UNL A   1      40.102  32.445  35.296  1.00  0.00     0.020 A 
ATOM     86  C   UNL A   1      41.836  31.042  36.246  1.00  0.00     0.020 A 
ATOM     87  C   UNL A   1      40.872  32.039  36.391  1.00  0.00     0.054 A 
BRANCH  87  88
ATOM     88  S   UNL A   1      40.584  32.791  38.018  1.00  0.00     0.124 S 
ATOM     89  O   UNL A   1      40.850  34.204  37.767  1.00  0.00    -0.237 OA
ATOM     90  O   UNL A   1      39.190  32.450  38.292  1.00  0.00    -0.237 OA
ATOM     91  O   UNL A   1      41.555  32.124  38.886  1.00  0.00    -0.744 OA
ENDBRANCH  87  88
ENDBRANCH  61  82
ENDBRANCH  35  36
ENDBRANCH  27  30
ENDBRANCH  25  26
ENDBRANCH  24  25
ENDBRANCH  23  24
ENDBRANCH   1  23
TORSDOF 19
ENDMDL
MODEL 3
REMARK VINA RESULT:     -11.7      2.994      8.941
REMARK SMILES CC(C)n1ccc(Cn2cc(C(=O)NCCCCCCNC(=O)c3ccc(-c4c5nc(c(-c6ccc(S(=O)(=O)[O-])cc6)c6ccc([nH]6)c(-c6ccc(S(=O)(=O)[O-])cc6)c6nc(c(-c7ccc(S(=O)(=O)[O-])cc7)c7ccc4[nH]7)C=C6)C=C5)cc3)cc2Br)n1
REMARK SMILES IDX 17 1 16 2 15 3 14 4 12 5 13 6 11 8 9 9 10 10 85 11 84 12
REMARK SMILES IDX 86 13 8 14 7 15 4 16 5 17 87 18 6 19 2 20 1 21 3 22 18 23
REMARK SMILES IDX 19 24 20 25 21 26 22 27 23 29 24 30 25 31 83 32 26 33 82 34
REMARK SMILES IDX 27 35 28 36 29 37 76 38 30 39 81 40 75 41 77 42 31 43 80 44
REMARK SMILES IDX 74 45 73 46 32 48 62 49 43 50 61 51 44 52 47 53 60 54 78 55
REMARK SMILES IDX 45 56 46 57 59 59 79 60 48 61 33 62 34 63 42 64 35 65 41 66
REMARK SMILES IDX 36 67 37 68 38 69 39 70 40 71 63 72 64 73 72 74 65 75 71 76
REMARK SMILES IDX 66 77 67 78 68 79 69 80 70 81 49 82 50 83 58 84 51 85 57 86
REMARK SMILES IDX 52 87 53 88 54 89 55 90 56 91
REMARK H PARENT 14 7 21 28 77 47 47 58
REMARK Flexibility Score: inf
ROOT
ATOM      1  C   UNL A   1      39.859  23.831  27.333  1.00  0.00     0.002 C 
ENDROOT
BRANCH   1   2
ATOM      2  C   UNL A   1      38.513  24.089  26.641  1.00  0.00     0.021 C 
BRANCH   2   3
ATOM      3  C   UNL A   1      37.860  22.823  26.089  1.00  0.00     0.116 C 
BRANCH   3   4
ATOM      4  N   UNL A   1      37.736  22.892  24.648  1.00  0.00    -0.352 N 
ATOM      5  C   UNL A   1      36.651  22.911  23.811  1.00  0.00     0.252 C 
ATOM      6  O   UNL A   1      36.880  23.067  22.610  1.00  0.00    -0.269 OA
ATOM      7  H   UNL A   1      38.600  22.937  24.178  1.00  0.00     0.163 HD
BRANCH   5   8
ATOM      8  C   UNL A   1      35.280  22.843  24.313  1.00  0.00     0.058 A 
ATOM      9  N   UNL A   1      33.257  22.148  25.006  1.00  0.00    -0.335 N 
ATOM     10  C   UNL A   1      34.306  21.873  24.150  1.00  0.00     0.101 A 
ATOM     11  C   UNL A   1      33.405  23.428  25.462  1.00  0.00     0.086 A 
ATOM     12  C   UNL A   1      34.641  23.881  25.066  1.00  0.00     0.049 A 
ATOM     13  Br  UNL A   1      32.200  24.426  26.480  1.00  0.00    -0.031 Br
BRANCH   9  14
ATOM     14  C   UNL A   1      32.193  21.199  25.332  1.00  0.00     0.180 C 
BRANCH  14  15
ATOM     15  C   UNL A   1      32.553  19.810  24.881  1.00  0.00     0.082 A 
ATOM     16  N   UNL A   1      33.136  17.762  25.013  1.00  0.00    -0.270 N 
ATOM     17  C   UNL A   1      32.928  17.980  23.679  1.00  0.00     0.109 A 
ATOM     18  N   UNL A   1      32.942  18.871  25.758  1.00  0.00    -0.176 NA
ATOM     19  C   UNL A   1      32.506  19.281  23.566  1.00  0.00     0.047 A 
BRANCH  16  20
ATOM     20  C   UNL A   1      33.552  16.497  25.618  1.00  0.00     0.101 C 
ATOM     21  C   UNL A   1      32.548  15.356  25.417  1.00  0.00     0.033 C 
ATOM     22  C   UNL A   1      34.930  16.060  25.112  1.00  0.00     0.033 C 
ENDBRANCH  16  20
ENDBRANCH  14  15
ENDBRANCH   9  14
ENDBRANCH   5   8
ENDBRANCH   3   4
ENDBRANCH   2   3
ENDBRANCH   1   2
BRANCH   1  23
ATOM     23  C   UNL A   1      40.204  22.354  27.589  1.00  0.00     0.002 C 
BRANCH  23  24
ATOM     24  C   UNL A   1      41.420  21.798  26.831  1.00  0.00     0.021 C 
BRANCH  24  25
ATOM     25  C   UNL A   1      41.449  22.190  25.363  1.00  0.00     0.116 C 
BRANCH  25  26
ATOM     26  N   UNL A   1      42.812  22.421  24.882  1.00  0.00    -0.352 N 
ATOM     27  C   UNL A   1      43.568  23.577  24.950  1.00  0.00     0.251 C 
ATOM     28  H   UNL A   1      43.249  21.651  24.451  1.00  0.00     0.163 HD
ATOM     29  O   UNL A   1      44.514  23.752  24.202  1.00  0.00    -0.269 OA
BRANCH  27  30
ATOM     30  C   UNL A   1      43.206  24.590  25.959  1.00  0.00     0.039 A 
ATOM     31  C   UNL A   1      43.617  24.482  27.291  1.00  0.00     0.014 A 
ATOM     32  C   UNL A   1      42.449  25.674  25.532  1.00  0.00     0.014 A 
ATOM     33  C   UNL A   1      43.315  25.521  28.171  1.00  0.00     0.010 A 
ATOM     34  C   UNL A   1      42.317  26.767  26.342  1.00  0.00     0.010 A 
ATOM     35  C   UNL A   1      42.674  26.665  27.681  1.00  0.00    -0.014 A 
BRANCH  35  36
ATOM     36  C   UNL A   1      42.435  27.832  28.517  1.00  0.00     0.031 A 
ATOM     37  C   UNL A   1      43.457  28.904  28.385  1.00  0.00     0.074 A 
ATOM     38  C   UNL A   1      41.245  28.034  29.127  1.00  0.00     0.049 A 
ATOM     39  N   UNL A   1      44.316  29.291  29.267  1.00  0.00    -0.248 NA
ATOM     40  C   UNL A   1      43.655  29.512  27.057  1.00  0.00     0.031 C 
ATOM     41  C   UNL A   1      40.036  27.201  29.044  1.00  0.00     0.029 A 
ATOM     42  N   UNL A   1      40.807  29.113  29.824  1.00  0.00    -0.354 N 
ATOM     43  C   UNL A   1      44.989  30.366  28.693  1.00  0.00     0.074 A 
ATOM     44  C   UNL A   1      44.712  30.295  27.280  1.00  0.00     0.031 C 
ATOM     45  C   UNL A   1      38.962  27.925  29.424  1.00  0.00     0.029 A 
ATOM     46  C   UNL A   1      39.423  29.201  29.940  1.00  0.00     0.049 A 
ATOM     47  H   UNL A   1      41.419  29.779  30.216  1.00  0.00     0.167 HD
ATOM     48  C   UNL A   1      45.466  31.392  29.454  1.00  0.00     0.031 A 
ATOM     49  C   UNL A   1      38.706  30.267  30.380  1.00  0.00     0.031 A 
ATOM     50  C   UNL A   1      45.458  31.049  30.857  1.00  0.00     0.049 A 
ATOM     51  C   UNL A   1      39.641  31.115  31.161  1.00  0.00     0.074 A 
ATOM     52  C   UNL A   1      46.011  30.035  31.615  1.00  0.00     0.029 A 
ATOM     53  N   UNL A   1      44.443  31.581  31.621  1.00  0.00    -0.354 N 
ATOM     54  N   UNL A   1      40.202  30.720  32.272  1.00  0.00    -0.248 NA
ATOM     55  C   UNL A   1      40.327  32.194  30.468  1.00  0.00     0.031 C 
ATOM     56  C   UNL A   1      44.998  29.691  32.558  1.00  0.00     0.029 A 
ATOM     57  C   UNL A   1      43.926  30.569  32.387  1.00  0.00     0.049 A 
ATOM     58  H   UNL A   1      44.143  32.518  31.617  1.00  0.00     0.167 HD
ATOM     59  C   UNL A   1      41.514  31.166  32.183  1.00  0.00     0.074 A 
ATOM     60  C   UNL A   1      41.503  32.153  31.102  1.00  0.00     0.031 C 
ATOM     61  C   UNL A   1      42.535  30.485  32.786  1.00  0.00     0.031 A 
BRANCH  48  62
ATOM     62  C   UNL A   1      45.503  32.836  28.996  1.00  0.00    -0.014 A 
ATOM     63  C   UNL A   1      46.648  33.606  29.298  1.00  0.00     0.010 A 
ATOM     64  C   UNL A   1      44.367  33.542  28.553  1.00  0.00     0.010 A 
ATOM     65  C   UNL A   1      46.614  35.005  29.273  1.00  0.00     0.020 A 
ATOM     66  C   UNL A   1      44.336  34.935  28.478  1.00  0.00     0.020 A 
ATOM     67  C   UNL A   1      45.446  35.660  28.884  1.00  0.00     0.054 A 
BRANCH  67  68
ATOM     68  S   UNL A   1      45.364  37.464  28.984  1.00  0.00     0.124 S 
ATOM     69  O   UNL A   1      45.863  37.708  30.334  1.00  0.00    -0.237 OA
ATOM     70  O   UNL A   1      46.245  37.873  27.895  1.00  0.00    -0.237 OA
ATOM     71  O   UNL A   1      43.947  37.751  28.776  1.00  0.00    -0.744 OA
ENDBRANCH  67  68
ENDBRANCH  48  62
BRANCH  49  72
ATOM     72  C   UNL A   1      37.391  30.749  29.879  1.00  0.00    -0.014 A 
ATOM     73  C   UNL A   1      36.422  31.271  30.758  1.00  0.00     0.010 A 
ATOM     74  C   UNL A   1      37.192  30.958  28.497  1.00  0.00     0.010 A 
ATOM     75  C   UNL A   1      35.341  32.035  30.278  1.00  0.00     0.020 A 
ATOM     76  C   UNL A   1      36.114  31.708  28.011  1.00  0.00     0.020 A 
ATOM     77  C   UNL A   1      35.208  32.269  28.907  1.00  0.00     0.054 A 
BRANCH  77  78
ATOM     78  S   UNL A   1      33.937  33.422  28.305  1.00  0.00     0.124 S 
ATOM     79  O   UNL A   1      34.708  34.319  27.451  1.00  0.00    -0.237 OA
ATOM     80  O   UNL A   1      33.004  32.536  27.614  1.00  0.00    -0.237 OA
ATOM     81  O   UNL A   1      33.416  34.028  29.531  1.00  0.00    -0.744 OA
ENDBRANCH  77  78
ENDBRANCH  49  72
BRANCH  61  82
ATOM     82  C   UNL A   1      42.196  29.400  33.785  1.00  0.00    -0.014 A 
ATOM     83  C   UNL A   1      42.072  28.035  33.456  1.00  0.00     0.010 A 
ATOM     84  C   UNL A   1      42.168  29.765  35.142  1.00  0.00     0.010 A 
ATOM     85  C   UNL A   1      41.899  27.068  34.460  1.00  0.00     0.020 A 
ATOM     86  C   UNL A   1      42.015  28.807  36.146  1.00  0.00     0.020 A 
ATOM     87  C   UNL A   1      41.872  27.463  35.801  1.00  0.00     0.054 A 
BRANCH  87  88
ATOM     88  S   UNL A   1      41.687  26.210  37.102  1.00  0.00     0.124 S 
ATOM     89  O   UNL A   1      42.868  26.436  37.930  1.00  0.00    -0.237 OA
ATOM     90  O   UNL A   1      40.409  26.563  37.716  1.00  0.00    -0.237 OA
ATOM     91  O   UNL A   1      41.681  24.945  36.368  1.00  0.00    -0.744 OA
ENDBRANCH  87  88
ENDBRANCH  61  82
ENDBRANCH  35  36
ENDBRANCH  27  30
ENDBRANCH  25  26
ENDBRANCH  24  25
ENDBRANCH  23  24
ENDBRANCH   1  23
TORSDOF 19
ENDMDL
