MODEL 1
REMARK VINA RESULT:     -11.3      0.000      0.000
REMARK SMILES C[C@H]1CC[C@@]2(CO)C(C(=O)NCCCCCCNC(=O)c3ccc(-c4c5nc(c(-c6ccc(S(=O)(=O)[O-])cc6)c6ccc([nH]6)c(-c6ccc(S(=O)(=O)[O-])cc6)c6nc(c(-c7ccc(S(=O)(=O)[O-])cc7)c7ccc4[nH]7)C=C6)C=C5)cc3)=C[C@@H](O)C[C@@H]2[C@@]1(C)CCc1ccoc1
REMARK SMILES IDX 14 1 13 2 12 3 11 4 9 5 10 6 8 8 1 9 2 10 3 11 86 12 4 13
REMARK SMILES IDX 85 14 87 15 5 16 84 17 82 18 81 19 88 20 89 21 90 22 91 23
REMARK SMILES IDX 94 24 92 25 93 26 6 27 7 28 83 30 15 32 16 33 17 34 18 35
REMARK SMILES IDX 19 36 20 38 21 39 22 40 80 41 23 42 79 43 24 44 25 45 26 46
REMARK SMILES IDX 73 47 27 48 78 49 72 50 74 51 28 52 77 53 71 54 70 55 29 57
REMARK SMILES IDX 59 58 40 59 58 60 41 61 44 62 57 63 75 64 42 65 43 66 56 68
REMARK SMILES IDX 76 69 45 70 30 71 31 72 39 73 32 74 38 75 33 76 34 77 35 78
REMARK SMILES IDX 36 79 37 80 60 81 61 82 69 83 62 84 68 85 63 86 64 87 65 88
REMARK SMILES IDX 66 89 67 90 46 91 47 92 55 93 48 94 54 95 49 96 50 97 51 98
REMARK SMILES IDX 52 99 53 100
REMARK H PARENT 11 7 7 29 83 31 18 37 74 56 44 67
REMARK Flexibility Score: inf
ROOT
ATOM      1  C   UNL A   1      35.612  20.679  25.222  1.00  0.00     0.002 C 
ENDROOT
BRANCH   1   2
ATOM      2  C   UNL A   1      34.712  21.478  26.168  1.00  0.00     0.021 C 
BRANCH   2   3
ATOM      3  C   UNL A   1      33.228  21.315  25.837  1.00  0.00     0.116 C 
BRANCH   3   4
ATOM      4  N   UNL A   1      32.430  22.240  26.641  1.00  0.00    -0.352 N 
ATOM      5  C   UNL A   1      32.064  23.544  26.410  1.00  0.00     0.247 C 
ATOM      6  O   UNL A   1      31.503  24.203  27.276  1.00  0.00    -0.270 OA
ATOM      7  H   UNL A   1      32.100  21.866  27.489  1.00  0.00     0.163 HD
BRANCH   5   8
ATOM      8  C   UNL A   1      32.266  24.069  25.038  1.00  0.00     0.024 C 
ATOM      9  C   UNL A   1      31.560  27.875  26.957  1.00  0.00     0.008 C 
ATOM     10  C   UNL A   1      32.600  28.195  25.849  1.00  0.00    -0.008 C 
ATOM     11  C   UNL A   1      33.907  27.449  26.141  1.00  0.00     0.005 C 
ATOM     12  C   UNL A   1      32.100  27.897  24.377  1.00  0.00    -0.026 C 
ATOM     13  C   UNL A   1      33.748  25.931  26.051  1.00  0.00     0.015 C 
ATOM     14  C   UNL A   1      31.786  26.350  24.352  1.00  0.00     0.011 C 
ATOM     15  C   UNL A   1      33.206  28.235  23.363  1.00  0.00     0.012 C 
ATOM     16  C   UNL A   1      32.976  25.403  24.801  1.00  0.00     0.027 C 
ATOM     17  C   UNL A   1      31.041  25.817  23.094  1.00  0.00     0.041 C 
ATOM     18  C   UNL A   1      30.994  24.265  22.929  1.00  0.00     0.138 C 
ATOM     19  C   UNL A   1      31.613  23.455  24.036  1.00  0.00     0.014 C 
BRANCH  12  20
ATOM     20  C   UNL A   1      30.848  28.835  24.108  1.00  0.00     0.012 C 
BRANCH  20  21
ATOM     21  C   UNL A   1      30.416  29.110  22.643  1.00  0.00     0.039 C 
BRANCH  21  22
ATOM     22  C   UNL A   1      29.368  30.165  22.518  1.00  0.00    -0.010 A 
ATOM     23  C   UNL A   1      28.553  30.672  23.568  1.00  0.00     0.045 A 
ATOM     24  C   UNL A   1      28.974  30.858  21.390  1.00  0.00     0.198 A 
ATOM     25  C   UNL A   1      27.676  31.556  22.990  1.00  0.00     0.195 A 
ATOM     26  O   UNL A   1      27.929  31.677  21.664  1.00  0.00    -0.472 OA
ENDBRANCH  21  22
ENDBRANCH  20  21
ENDBRANCH  12  20
BRANCH  16  27
ATOM     27  C   UNL A   1      34.045  25.035  23.690  1.00  0.00     0.168 C 
BRANCH  27  28
ATOM     28  O   UNL A   1      35.147  24.246  24.131  1.00  0.00    -0.395 OA
ATOM     29  H   UNL A   1      35.556  23.809  23.368  1.00  0.00     0.210 HD
ENDBRANCH  27  28
ENDBRANCH  16  27
BRANCH  18  30
ATOM     30  O   UNL A   1      29.608  23.895  22.913  1.00  0.00    -0.389 OA
ATOM     31  H   UNL A   1      29.512  22.990  23.250  1.00  0.00     0.211 HD
ENDBRANCH  18  30
ENDBRANCH   5   8
ENDBRANCH   3   4
ENDBRANCH   2   3
ENDBRANCH   1   2
BRANCH   1  32
ATOM     32  C   UNL A   1      37.016  21.270  25.039  1.00  0.00     0.002 C 
BRANCH  32  33
ATOM     33  C   UNL A   1      38.165  20.257  25.091  1.00  0.00     0.021 C 
BRANCH  33  34
ATOM     34  C   UNL A   1      39.284  20.615  26.063  1.00  0.00     0.116 C 
BRANCH  34  35
ATOM     35  N   UNL A   1      40.315  19.589  26.093  1.00  0.00    -0.352 N 
ATOM     36  C   UNL A   1      41.681  19.728  26.089  1.00  0.00     0.251 C 
ATOM     37  H   UNL A   1      39.986  18.661  26.120  1.00  0.00     0.163 HD
ATOM     38  O   UNL A   1      42.399  18.771  25.847  1.00  0.00    -0.269 OA
BRANCH  36  39
ATOM     39  C   UNL A   1      42.266  21.052  26.381  1.00  0.00     0.039 A 
ATOM     40  C   UNL A   1      42.533  21.925  25.327  1.00  0.00     0.014 A 
ATOM     41  C   UNL A   1      42.557  21.418  27.700  1.00  0.00     0.014 A 
ATOM     42  C   UNL A   1      43.053  23.190  25.601  1.00  0.00     0.010 A 
ATOM     43  C   UNL A   1      43.000  22.706  27.976  1.00  0.00     0.010 A 
ATOM     44  C   UNL A   1      43.265  23.598  26.928  1.00  0.00    -0.014 A 
BRANCH  44  45
ATOM     45  C   UNL A   1      43.775  24.956  27.240  1.00  0.00     0.031 A 
ATOM     46  C   UNL A   1      45.232  25.276  27.050  1.00  0.00     0.074 A 
ATOM     47  C   UNL A   1      42.932  25.879  27.742  1.00  0.00     0.049 A 
ATOM     48  N   UNL A   1      45.868  26.392  27.292  1.00  0.00    -0.248 NA
ATOM     49  C   UNL A   1      46.093  24.192  26.545  1.00  0.00     0.031 C 
ATOM     50  C   UNL A   1      41.507  25.668  28.009  1.00  0.00     0.029 A 
ATOM     51  N   UNL A   1      43.151  27.179  28.119  1.00  0.00    -0.354 N 
ATOM     52  C   UNL A   1      47.200  26.141  26.985  1.00  0.00     0.074 A 
ATOM     53  C   UNL A   1      47.292  24.753  26.594  1.00  0.00     0.031 C 
ATOM     54  C   UNL A   1      40.973  26.809  28.471  1.00  0.00     0.029 A 
ATOM     55  C   UNL A   1      42.023  27.818  28.577  1.00  0.00     0.049 A 
ATOM     56  H   UNL A   1      44.033  27.614  28.068  1.00  0.00     0.167 HD
ATOM     57  C   UNL A   1      48.250  26.998  27.007  1.00  0.00     0.031 A 
ATOM     58  C   UNL A   1      41.853  29.073  29.035  1.00  0.00     0.031 A 
ATOM     59  C   UNL A   1      48.147  28.379  27.396  1.00  0.00     0.049 A 
ATOM     60  C   UNL A   1      43.036  30.000  29.067  1.00  0.00     0.074 A 
ATOM     61  C   UNL A   1      49.135  29.347  27.403  1.00  0.00     0.029 A 
ATOM     62  N   UNL A   1      46.989  28.987  27.857  1.00  0.00    -0.354 N 
ATOM     63  N   UNL A   1      44.276  29.766  28.703  1.00  0.00    -0.248 NA
ATOM     64  C   UNL A   1      42.797  31.363  29.558  1.00  0.00     0.031 C 
ATOM     65  C   UNL A   1      48.590  30.523  27.927  1.00  0.00     0.029 A 
ATOM     66  C   UNL A   1      47.243  30.309  28.180  1.00  0.00     0.049 A 
ATOM     67  H   UNL A   1      46.113  28.544  27.941  1.00  0.00     0.167 HD
ATOM     68  C   UNL A   1      44.958  30.963  28.896  1.00  0.00     0.074 A 
ATOM     69  C   UNL A   1      43.989  31.919  29.393  1.00  0.00     0.031 C 
ATOM     70  C   UNL A   1      46.267  31.245  28.680  1.00  0.00     0.031 A 
BRANCH  57  71
ATOM     71  C   UNL A   1      49.600  26.456  26.611  1.00  0.00    -0.014 A 
ATOM     72  C   UNL A   1      50.461  25.873  27.560  1.00  0.00     0.010 A 
ATOM     73  C   UNL A   1      50.006  26.507  25.265  1.00  0.00     0.010 A 
ATOM     74  C   UNL A   1      51.719  25.396  27.178  1.00  0.00     0.020 A 
ATOM     75  C   UNL A   1      51.249  26.000  24.873  1.00  0.00     0.020 A 
ATOM     76  C   UNL A   1      52.105  25.465  25.837  1.00  0.00     0.054 A 
BRANCH  76  77
ATOM     77  S   UNL A   1      53.737  24.827  25.370  1.00  0.00     0.124 S 
ATOM     78  O   UNL A   1      53.434  23.436  25.042  1.00  0.00    -0.237 OA
ATOM     79  O   UNL A   1      54.098  25.674  24.234  1.00  0.00    -0.237 OA
ATOM     80  O   UNL A   1      54.545  25.022  26.570  1.00  0.00    -0.744 OA
ENDBRANCH  76  77
ENDBRANCH  57  71
BRANCH  58  81
ATOM     81  C   UNL A   1      40.506  29.523  29.478  1.00  0.00    -0.014 A 
ATOM     82  C   UNL A   1      40.128  29.431  30.829  1.00  0.00     0.010 A 
ATOM     83  C   UNL A   1      39.600  30.076  28.552  1.00  0.00     0.010 A 
ATOM     84  C   UNL A   1      38.867  29.871  31.244  1.00  0.00     0.020 A 
ATOM     85  C   UNL A   1      38.351  30.544  28.969  1.00  0.00     0.020 A 
ATOM     86  C   UNL A   1      37.989  30.430  30.312  1.00  0.00     0.054 A 
BRANCH  86  87
ATOM     87  S   UNL A   1      36.383  31.049  30.885  1.00  0.00     0.124 S 
ATOM     88  O   UNL A   1      36.092  30.154  32.001  1.00  0.00    -0.237 OA
ATOM     89  O   UNL A   1      36.691  32.432  31.245  1.00  0.00    -0.237 OA
ATOM     90  O   UNL A   1      35.520  30.897  29.717  1.00  0.00    -0.744 OA
ENDBRANCH  86  87
ENDBRANCH  58  81
BRANCH  70  91
ATOM     91  C   UNL A   1      46.725  32.655  28.949  1.00  0.00    -0.014 A 
ATOM     92  C   UNL A   1      46.657  33.649  27.958  1.00  0.00     0.010 A 
ATOM     93  C   UNL A   1      47.181  33.000  30.236  1.00  0.00     0.010 A 
ATOM     94  C   UNL A   1      47.068  34.954  28.238  1.00  0.00     0.020 A 
ATOM     95  C   UNL A   1      47.562  34.310  30.529  1.00  0.00     0.020 A 
ATOM     96  C   UNL A   1      47.517  35.277  29.523  1.00  0.00     0.054 A 
BRANCH  96  97
ATOM     97  S   UNL A   1      48.004  36.988  29.872  1.00  0.00     0.124 S 
ATOM     98  O   UNL A   1      49.124  36.805  30.791  1.00  0.00    -0.237 OA
ATOM     99  O   UNL A   1      48.355  37.496  28.547  1.00  0.00    -0.237 OA
ATOM    100  O   UNL A   1      46.805  37.577  30.461  1.00  0.00    -0.744 OA
ENDBRANCH  96  97
ENDBRANCH  70  91
ENDBRANCH  44  45
ENDBRANCH  36  39
ENDBRANCH  34  35
ENDBRANCH  33  34
ENDBRANCH  32  33
ENDBRANCH   1  32
TORSDOF 22
ENDMDL
MODEL 2
REMARK VINA RESULT:     -11.3      5.789      8.123
REMARK SMILES C[C@H]1CC[C@@]2(CO)C(C(=O)NCCCCCCNC(=O)c3ccc(-c4c5nc(c(-c6ccc(S(=O)(=O)[O-])cc6)c6ccc([nH]6)c(-c6ccc(S(=O)(=O)[O-])cc6)c6nc(c(-c7ccc(S(=O)(=O)[O-])cc7)c7ccc4[nH]7)C=C6)C=C5)cc3)=C[C@@H](O)C[C@@H]2[C@@]1(C)CCc1ccoc1
REMARK SMILES IDX 14 1 13 2 12 3 11 4 9 5 10 6 8 8 1 9 2 10 3 11 86 12 4 13
REMARK SMILES IDX 85 14 87 15 5 16 84 17 82 18 81 19 88 20 89 21 90 22 91 23
REMARK SMILES IDX 94 24 92 25 93 26 6 27 7 28 83 30 15 32 16 33 17 34 18 35
REMARK SMILES IDX 19 36 20 38 21 39 22 40 80 41 23 42 79 43 24 44 25 45 26 46
REMARK SMILES IDX 73 47 27 48 78 49 72 50 74 51 28 52 77 53 71 54 70 55 29 57
REMARK SMILES IDX 59 58 40 59 58 60 41 61 44 62 57 63 75 64 42 65 43 66 56 68
REMARK SMILES IDX 76 69 45 70 30 71 31 72 39 73 32 74 38 75 33 76 34 77 35 78
REMARK SMILES IDX 36 79 37 80 60 81 61 82 69 83 62 84 68 85 63 86 64 87 65 88
REMARK SMILES IDX 66 89 67 90 46 91 47 92 55 93 48 94 54 95 49 96 50 97 51 98
REMARK SMILES IDX 52 99 53 100
REMARK H PARENT 11 7 7 29 83 31 18 37 74 56 44 67
REMARK Flexibility Score: inf
ROOT
ATOM      1  C   UNL A   1      38.089  23.216  26.074  1.00  0.00     0.002 C 
ENDROOT
BRANCH   1   2
ATOM      2  C   UNL A   1      36.603  22.917  25.858  1.00  0.00     0.021 C 
BRANCH   2   3
ATOM      3  C   UNL A   1      35.846  24.113  25.280  1.00  0.00     0.116 C 
BRANCH   3   4
ATOM      4  N   UNL A   1      35.453  23.838  23.898  1.00  0.00    -0.352 N 
ATOM      5  C   UNL A   1      34.271  23.374  23.376  1.00  0.00     0.247 C 
ATOM      6  O   UNL A   1      34.180  23.074  22.192  1.00  0.00    -0.270 OA
ATOM      7  H   UNL A   1      36.155  24.017  23.231  1.00  0.00     0.163 HD
BRANCH   5   8
ATOM      8  C   UNL A   1      33.091  23.372  24.274  1.00  0.00     0.024 C 
ATOM      9  C   UNL A   1      33.834  27.625  24.401  1.00  0.00     0.008 C 
ATOM     10  C   UNL A   1      32.287  27.507  24.481  1.00  0.00    -0.008 C 
ATOM     11  C   UNL A   1      31.752  26.887  23.185  1.00  0.00     0.005 C 
ATOM     12  C   UNL A   1      31.756  26.715  25.744  1.00  0.00    -0.026 C 
ATOM     13  C   UNL A   1      32.210  25.440  22.995  1.00  0.00     0.015 C 
ATOM     14  C   UNL A   1      32.374  25.267  25.614  1.00  0.00     0.011 C 
ATOM     15  C   UNL A   1      30.220  26.645  25.719  1.00  0.00     0.012 C 
ATOM     16  C   UNL A   1      32.078  24.518  24.248  1.00  0.00     0.027 C 
ATOM     17  C   UNL A   1      32.219  24.337  26.851  1.00  0.00     0.041 C 
ATOM     18  C   UNL A   1      32.557  22.829  26.624  1.00  0.00     0.138 C 
ATOM     19  C   UNL A   1      33.060  22.455  25.257  1.00  0.00     0.014 C 
BRANCH  12  20
ATOM     20  C   UNL A   1      32.217  27.521  27.031  1.00  0.00     0.012 C 
BRANCH  20  21
ATOM     21  C   UNL A   1      31.893  29.036  27.125  1.00  0.00     0.039 C 
BRANCH  21  22
ATOM     22  C   UNL A   1      33.101  29.893  27.307  1.00  0.00    -0.010 A 
ATOM     23  C   UNL A   1      34.451  29.448  27.352  1.00  0.00     0.045 A 
ATOM     24  C   UNL A   1      33.168  31.264  27.463  1.00  0.00     0.198 A 
ATOM     25  C   UNL A   1      35.219  30.555  27.622  1.00  0.00     0.195 A 
ATOM     26  O   UNL A   1      34.444  31.665  27.687  1.00  0.00    -0.472 OA
ENDBRANCH  21  22
ENDBRANCH  20  21
ENDBRANCH  12  20
BRANCH  16  27
ATOM     27  C   UNL A   1      30.692  23.755  24.145  1.00  0.00     0.168 C 
BRANCH  27  28
ATOM     28  O   UNL A   1      30.164  23.609  22.830  1.00  0.00    -0.395 OA
ATOM     29  H   UNL A   1      29.761  22.732  22.739  1.00  0.00     0.210 HD
ENDBRANCH  27  28
ENDBRANCH  16  27
BRANCH  18  30
ATOM     30  O   UNL A   1      33.626  22.507  27.526  1.00  0.00    -0.389 OA
ATOM     31  H   UNL A   1      33.970  21.624  27.316  1.00  0.00     0.211 HD
ENDBRANCH  18  30
ENDBRANCH   5   8
ENDBRANCH   3   4
ENDBRANCH   2   3
ENDBRANCH   1   2
BRANCH   1  32
ATOM     32  C   UNL A   1      38.986  21.971  26.091  1.00  0.00     0.002 C 
BRANCH  32  33
ATOM     33  C   UNL A   1      40.285  22.111  26.890  1.00  0.00     0.021 C 
BRANCH  33  34
ATOM     34  C   UNL A   1      40.641  23.544  27.277  1.00  0.00     0.116 C 
BRANCH  34  35
ATOM     35  N   UNL A   1      41.293  24.247  26.181  1.00  0.00    -0.352 N 
ATOM     36  C   UNL A   1      41.451  25.596  25.986  1.00  0.00     0.251 C 
ATOM     37  H   UNL A   1      41.675  23.671  25.480  1.00  0.00     0.163 HD
ATOM     38  O   UNL A   1      41.781  26.027  24.893  1.00  0.00    -0.269 OA
BRANCH  36  39
ATOM     39  C   UNL A   1      41.215  26.515  27.118  1.00  0.00     0.039 A 
ATOM     40  C   UNL A   1      40.238  26.197  28.060  1.00  0.00     0.014 A 
ATOM     41  C   UNL A   1      41.959  27.695  27.234  1.00  0.00     0.014 A 
ATOM     42  C   UNL A   1      40.035  27.043  29.150  1.00  0.00     0.010 A 
ATOM     43  C   UNL A   1      41.810  28.494  28.361  1.00  0.00     0.010 A 
ATOM     44  C   UNL A   1      40.837  28.184  29.321  1.00  0.00    -0.014 A 
BRANCH  44  45
ATOM     45  C   UNL A   1      40.666  29.071  30.497  1.00  0.00     0.031 A 
ATOM     46  C   UNL A   1      41.545  28.898  31.706  1.00  0.00     0.074 A 
ATOM     47  C   UNL A   1      39.685  29.994  30.491  1.00  0.00     0.049 A 
ATOM     48  N   UNL A   1      41.528  29.555  32.835  1.00  0.00    -0.248 NA
ATOM     49  C   UNL A   1      42.558  27.830  31.647  1.00  0.00     0.031 C 
ATOM     50  C   UNL A   1      38.745  30.222  29.392  1.00  0.00     0.029 A 
ATOM     51  N   UNL A   1      39.314  30.911  31.441  1.00  0.00    -0.354 N 
ATOM     52  C   UNL A   1      42.514  28.973  33.625  1.00  0.00     0.074 A 
ATOM     53  C   UNL A   1      43.069  27.874  32.868  1.00  0.00     0.031 C 
ATOM     54  C   UNL A   1      37.930  31.239  29.715  1.00  0.00     0.029 A 
ATOM     55  C   UNL A   1      38.258  31.704  31.058  1.00  0.00     0.049 A 
ATOM     56  H   UNL A   1      39.761  30.994  32.314  1.00  0.00     0.167 HD
ATOM     57  C   UNL A   1      42.933  29.336  34.861  1.00  0.00     0.031 A 
ATOM     58  C   UNL A   1      37.622  32.691  31.718  1.00  0.00     0.031 A 
ATOM     59  C   UNL A   1      42.374  30.434  35.605  1.00  0.00     0.049 A 
ATOM     60  C   UNL A   1      38.094  33.065  33.096  1.00  0.00     0.074 A 
ATOM     61  C   UNL A   1      42.759  30.921  36.841  1.00  0.00     0.029 A 
ATOM     62  N   UNL A   1      41.303  31.210  35.185  1.00  0.00    -0.354 N 
ATOM     63  N   UNL A   1      39.076  32.551  33.798  1.00  0.00    -0.248 NA
ATOM     64  C   UNL A   1      37.380  34.159  33.765  1.00  0.00     0.031 C 
ATOM     65  C   UNL A   1      41.882  31.950  37.197  1.00  0.00     0.029 A 
ATOM     66  C   UNL A   1      40.995  32.153  36.151  1.00  0.00     0.049 A 
ATOM     67  H   UNL A   1      40.833  31.107  34.326  1.00  0.00     0.167 HD
ATOM     68  C   UNL A   1      39.115  33.279  34.982  1.00  0.00     0.074 A 
ATOM     69  C   UNL A   1      38.069  34.278  34.892  1.00  0.00     0.031 C 
ATOM     70  C   UNL A   1      39.943  33.135  36.047  1.00  0.00     0.031 A 
BRANCH  57  71
ATOM     71  C   UNL A   1      44.040  28.527  35.488  1.00  0.00    -0.014 A 
ATOM     72  C   UNL A   1      45.383  28.705  35.105  1.00  0.00     0.010 A 
ATOM     73  C   UNL A   1      43.738  27.591  36.494  1.00  0.00     0.010 A 
ATOM     74  C   UNL A   1      46.393  27.930  35.681  1.00  0.00     0.020 A 
ATOM     75  C   UNL A   1      44.749  26.838  37.096  1.00  0.00     0.020 A 
ATOM     76  C   UNL A   1      46.070  26.999  36.671  1.00  0.00     0.054 A 
BRANCH  76  77
ATOM     77  S   UNL A   1      47.403  26.017  37.410  1.00  0.00     0.124 S 
ATOM     78  O   UNL A   1      46.839  24.670  37.377  1.00  0.00    -0.237 OA
ATOM     79  O   UNL A   1      48.518  26.253  36.495  1.00  0.00    -0.237 OA
ATOM     80  O   UNL A   1      47.562  26.591  38.743  1.00  0.00    -0.744 OA
ENDBRANCH  76  77
ENDBRANCH  57  71
BRANCH  58  81
ATOM     81  C   UNL A   1      36.489  33.405  31.068  1.00  0.00    -0.014 A 
ATOM     82  C   UNL A   1      35.274  33.590  31.751  1.00  0.00     0.010 A 
ATOM     83  C   UNL A   1      36.628  33.930  29.770  1.00  0.00     0.010 A 
ATOM     84  C   UNL A   1      34.217  34.275  31.145  1.00  0.00     0.020 A 
ATOM     85  C   UNL A   1      35.585  34.641  29.172  1.00  0.00     0.020 A 
ATOM     86  C   UNL A   1      34.381  34.802  29.860  1.00  0.00     0.054 A 
BRANCH  86  87
ATOM     87  S   UNL A   1      33.017  35.739  29.119  1.00  0.00     0.124 S 
ATOM     88  O   UNL A   1      32.240  36.126  30.292  1.00  0.00    -0.237 OA
ATOM     89  O   UNL A   1      33.718  36.825  28.435  1.00  0.00    -0.237 OA
ATOM     90  O   UNL A   1      32.376  34.770  28.234  1.00  0.00    -0.744 OA
ENDBRANCH  86  87
ENDBRANCH  58  81
BRANCH  70  91
ATOM     91  C   UNL A   1      39.774  34.101  37.191  1.00  0.00    -0.014 A 
ATOM     92  C   UNL A   1      40.297  35.404  37.132  1.00  0.00     0.010 A 
ATOM     93  C   UNL A   1      39.031  33.710  38.321  1.00  0.00     0.010 A 
ATOM     94  C   UNL A   1      40.110  36.288  38.198  1.00  0.00     0.020 A 
ATOM     95  C   UNL A   1      38.814  34.601  39.373  1.00  0.00     0.020 A 
ATOM     96  C   UNL A   1      39.367  35.881  39.311  1.00  0.00     0.054 A 
BRANCH  96  97
ATOM     97  S   UNL A   1      39.101  37.063  40.661  1.00  0.00     0.124 S 
ATOM     98  O   UNL A   1      38.310  38.100  40.005  1.00  0.00    -0.237 OA
ATOM     99  O   UNL A   1      38.387  36.260  41.651  1.00  0.00    -0.237 OA
ATOM    100  O   UNL A   1      40.453  37.460  41.045  1.00  0.00    -0.744 OA
ENDBRANCH  96  97
ENDBRANCH  70  91
ENDBRANCH  44  45
ENDBRANCH  36  39
ENDBRANCH  34  35
ENDBRANCH  33  34
ENDBRANCH  32  33
ENDBRANCH   1  32
TORSDOF 22
ENDMDL
MODEL 3
REMARK VINA RESULT:     -11.2      0.546      7.850
REMARK SMILES C[C@H]1CC[C@@]2(CO)C(C(=O)NCCCCCCNC(=O)c3ccc(-c4c5nc(c(-c6ccc(S(=O)(=O)[O-])cc6)c6ccc([nH]6)c(-c6ccc(S(=O)(=O)[O-])cc6)c6nc(c(-c7ccc(S(=O)(=O)[O-])cc7)c7ccc4[nH]7)C=C6)C=C5)cc3)=C[C@@H](O)C[C@@H]2[C@@]1(C)CCc1ccoc1
REMARK SMILES IDX 14 1 13 2 12 3 11 4 9 5 10 6 8 8 1 9 2 10 3 11 86 12 4 13
REMARK SMILES IDX 85 14 87 15 5 16 84 17 82 18 81 19 88 20 89 21 90 22 91 23
REMARK SMILES IDX 94 24 92 25 93 26 6 27 7 28 83 30 15 32 16 33 17 34 18 35
REMARK SMILES IDX 19 36 20 38 21 39 22 40 80 41 23 42 79 43 24 44 25 45 26 46
REMARK SMILES IDX 73 47 27 48 78 49 72 50 74 51 28 52 77 53 71 54 70 55 29 57
REMARK SMILES IDX 59 58 40 59 58 60 41 61 44 62 57 63 75 64 42 65 43 66 56 68
REMARK SMILES IDX 76 69 45 70 30 71 31 72 39 73 32 74 38 75 33 76 34 77 35 78
REMARK SMILES IDX 36 79 37 80 60 81 61 82 69 83 62 84 68 85 63 86 64 87 65 88
REMARK SMILES IDX 66 89 67 90 46 91 47 92 55 93 48 94 54 95 49 96 50 97 51 98
REMARK SMILES IDX 52 99 53 100
REMARK H PARENT 11 7 7 29 83 31 18 37 74 56 44 67
REMARK Flexibility Score: inf
ROOT
ATOM      1  C   UNL A   1      35.537  21.265  24.641  1.00  0.00     0.002 C 
ENDROOT
BRANCH   1   2
ATOM      2  C   UNL A   1      34.812  21.323  25.988  1.00  0.00     0.021 C 
BRANCH   2   3
ATOM      3  C   UNL A   1      34.766  22.738  26.565  1.00  0.00     0.116 C 
BRANCH   3   4
ATOM      4  N   UNL A   1      33.423  23.033  27.064  1.00  0.00    -0.352 N 
ATOM      5  C   UNL A   1      32.444  23.861  26.572  1.00  0.00     0.247 C 
ATOM      6  O   UNL A   1      31.426  24.084  27.214  1.00  0.00    -0.270 OA
ATOM      7  H   UNL A   1      33.181  22.559  27.892  1.00  0.00     0.163 HD
BRANCH   5   8
ATOM      8  C   UNL A   1      32.620  24.367  25.189  1.00  0.00     0.024 C 
ATOM      9  C   UNL A   1      31.403  28.113  26.965  1.00  0.00     0.008 C 
ATOM     10  C   UNL A   1      32.428  28.525  25.873  1.00  0.00    -0.008 C 
ATOM     11  C   UNL A   1      33.807  27.953  26.221  1.00  0.00     0.005 C 
ATOM     12  C   UNL A   1      32.011  28.125  24.399  1.00  0.00    -0.026 C 
ATOM     13  C   UNL A   1      33.836  26.425  26.177  1.00  0.00     0.015 C 
ATOM     14  C   UNL A   1      31.887  26.551  24.417  1.00  0.00     0.011 C 
ATOM     15  C   UNL A   1      33.096  28.566  23.403  1.00  0.00     0.012 C 
ATOM     16  C   UNL A   1      33.169  25.770  24.927  1.00  0.00     0.027 C 
ATOM     17  C   UNL A   1      31.248  25.895  23.159  1.00  0.00     0.041 C 
ATOM     18  C   UNL A   1      31.395  24.344  23.043  1.00  0.00     0.138 C 
ATOM     19  C   UNL A   1      32.075  23.649  24.191  1.00  0.00     0.014 C 
BRANCH  12  20
ATOM     20  C   UNL A   1      30.662  28.895  24.069  1.00  0.00     0.012 C 
BRANCH  20  21
ATOM     21  C   UNL A   1      30.379  29.320  22.604  1.00  0.00     0.039 C 
BRANCH  21  22
ATOM     22  C   UNL A   1      29.379  30.422  22.485  1.00  0.00    -0.010 A 
ATOM     23  C   UNL A   1      28.964  31.298  23.525  1.00  0.00     0.045 A 
ATOM     24  C   UNL A   1      28.664  30.819  21.373  1.00  0.00     0.198 A 
ATOM     25  C   UNL A   1      27.973  32.091  22.998  1.00  0.00     0.195 A 
ATOM     26  O   UNL A   1      27.788  31.806  21.685  1.00  0.00    -0.472 OA
ENDBRANCH  21  22
ENDBRANCH  20  21
ENDBRANCH  12  20
BRANCH  16  27
ATOM     27  C   UNL A   1      34.307  25.503  23.855  1.00  0.00     0.168 C 
BRANCH  27  28
ATOM     28  O   UNL A   1      35.225  24.462  24.175  1.00  0.00    -0.395 OA
ATOM     29  H   UNL A   1      35.866  24.363  23.455  1.00  0.00     0.210 HD
ENDBRANCH  27  28
ENDBRANCH  16  27
BRANCH  18  30
ATOM     30  O   UNL A   1      30.065  23.807  23.005  1.00  0.00    -0.389 OA
ATOM     31  H   UNL A   1      30.108  22.838  23.027  1.00  0.00     0.211 HD
ENDBRANCH  18  30
ENDBRANCH   5   8
ENDBRANCH   3   4
ENDBRANCH   2   3
ENDBRANCH   1   2
BRANCH   1  32
ATOM     32  C   UNL A   1      37.026  21.633  24.710  1.00  0.00     0.002 C 
BRANCH  32  33
ATOM     33  C   UNL A   1      37.961  20.497  25.139  1.00  0.00     0.021 C 
BRANCH  33  34
ATOM     34  C   UNL A   1      39.241  20.956  25.830  1.00  0.00     0.116 C 
BRANCH  34  35
ATOM     35  N   UNL A   1      40.171  19.853  26.019  1.00  0.00    -0.352 N 
ATOM     36  C   UNL A   1      41.538  19.880  26.147  1.00  0.00     0.251 C 
ATOM     37  H   UNL A   1      39.761  18.958  26.062  1.00  0.00     0.163 HD
ATOM     38  O   UNL A   1      42.189  18.854  26.031  1.00  0.00    -0.269 OA
BRANCH  36  39
ATOM     39  C   UNL A   1      42.205  21.167  26.427  1.00  0.00     0.039 A 
ATOM     40  C   UNL A   1      42.495  22.027  25.368  1.00  0.00     0.014 A 
ATOM     41  C   UNL A   1      42.549  21.512  27.738  1.00  0.00     0.014 A 
ATOM     42  C   UNL A   1      43.093  23.259  25.630  1.00  0.00     0.010 A 
ATOM     43  C   UNL A   1      43.071  22.772  28.005  1.00  0.00     0.010 A 
ATOM     44  C   UNL A   1      43.361  23.650  26.952  1.00  0.00    -0.014 A 
BRANCH  44  45
ATOM     45  C   UNL A   1      43.956  24.976  27.253  1.00  0.00     0.031 A 
ATOM     46  C   UNL A   1      43.094  26.083  27.794  1.00  0.00     0.074 A 
ATOM     47  C   UNL A   1      45.259  25.191  26.986  1.00  0.00     0.049 A 
ATOM     48  N   UNL A   1      43.424  27.312  28.091  1.00  0.00    -0.248 NA
ATOM     49  C   UNL A   1      41.668  25.776  28.006  1.00  0.00     0.031 C 
ATOM     50  C   UNL A   1      46.181  24.205  26.420  1.00  0.00     0.029 A 
ATOM     51  N   UNL A   1      46.032  26.310  27.156  1.00  0.00    -0.354 N 
ATOM     52  C   UNL A   1      42.250  27.928  28.509  1.00  0.00     0.074 A 
ATOM     53  C   UNL A   1      41.189  26.955  28.374  1.00  0.00     0.031 C 
ATOM     54  C   UNL A   1      47.404  24.751  26.324  1.00  0.00     0.029 A 
ATOM     55  C   UNL A   1      47.343  26.136  26.777  1.00  0.00     0.049 A 
ATOM     56  H   UNL A   1      45.684  27.158  27.514  1.00  0.00     0.167 HD
ATOM     57  C   UNL A   1      42.074  29.185  28.985  1.00  0.00     0.031 A 
ATOM     58  C   UNL A   1      48.378  26.998  26.789  1.00  0.00     0.031 A 
ATOM     59  C   UNL A   1      43.138  30.144  29.117  1.00  0.00     0.049 A 
ATOM     60  C   UNL A   1      48.156  28.393  27.304  1.00  0.00     0.074 A 
ATOM     61  C   UNL A   1      43.082  31.425  29.636  1.00  0.00     0.029 A 
ATOM     62  N   UNL A   1      44.450  29.932  28.719  1.00  0.00    -0.354 N 
ATOM     63  N   UNL A   1      47.054  28.935  27.764  1.00  0.00    -0.248 NA
ATOM     64  C   UNL A   1      49.320  29.288  27.314  1.00  0.00     0.031 C 
ATOM     65  C   UNL A   1      44.344  32.010  29.494  1.00  0.00     0.029 A 
ATOM     66  C   UNL A   1      45.206  31.068  28.953  1.00  0.00     0.049 A 
ATOM     67  H   UNL A   1      44.794  29.095  28.329  1.00  0.00     0.167 HD
ATOM     68  C   UNL A   1      47.398  30.228  28.144  1.00  0.00     0.074 A 
ATOM     69  C   UNL A   1      48.814  30.378  27.874  1.00  0.00     0.031 C 
ATOM     70  C   UNL A   1      46.614  31.202  28.670  1.00  0.00     0.031 A 
BRANCH  57  71
ATOM     71  C   UNL A   1      40.679  29.592  29.380  1.00  0.00    -0.014 A 
ATOM     72  C   UNL A   1      40.313  29.732  30.733  1.00  0.00     0.010 A 
ATOM     73  C   UNL A   1      39.722  29.866  28.386  1.00  0.00     0.010 A 
ATOM     74  C   UNL A   1      39.007  30.089  31.081  1.00  0.00     0.020 A 
ATOM     75  C   UNL A   1      38.424  30.256  28.730  1.00  0.00     0.020 A 
ATOM     76  C   UNL A   1      38.070  30.346  30.077  1.00  0.00     0.054 A 
BRANCH  76  77
ATOM     77  S   UNL A   1      36.388  30.821  30.560  1.00  0.00     0.124 S 
ATOM     78  O   UNL A   1      36.609  32.122  31.185  1.00  0.00    -0.237 OA
ATOM     79  O   UNL A   1      35.686  30.852  29.278  1.00  0.00    -0.237 OA
ATOM     80  O   UNL A   1      35.973  29.756  31.469  1.00  0.00    -0.744 OA
ENDBRANCH  76  77
ENDBRANCH  57  71
BRANCH  58  81
ATOM     81  C   UNL A   1      49.718  26.552  26.318  1.00  0.00    -0.014 A 
ATOM     82  C   UNL A   1      50.086  26.693  24.969  1.00  0.00     0.010 A 
ATOM     83  C   UNL A   1      50.647  26.006  27.225  1.00  0.00     0.010 A 
ATOM     84  C   UNL A   1      51.351  26.288  24.532  1.00  0.00     0.020 A 
ATOM     85  C   UNL A   1      51.922  25.629  26.798  1.00  0.00     0.020 A 
ATOM     86  C   UNL A   1      52.264  25.764  25.451  1.00  0.00     0.054 A 
BRANCH  86  87
ATOM     87  S   UNL A   1      53.920  25.303  24.873  1.00  0.00     0.124 S 
ATOM     88  O   UNL A   1      53.836  23.846  24.841  1.00  0.00    -0.237 OA
ATOM     89  O   UNL A   1      53.993  25.963  23.572  1.00  0.00    -0.237 OA
ATOM     90  O   UNL A   1      54.806  25.857  25.894  1.00  0.00    -0.744 OA
ENDBRANCH  86  87
ENDBRANCH  58  81
BRANCH  70  91
ATOM     91  C   UNL A   1      47.275  32.509  29.020  1.00  0.00    -0.014 A 
ATOM     92  C   UNL A   1      47.225  33.611  28.149  1.00  0.00     0.010 A 
ATOM     93  C   UNL A   1      47.911  32.650  30.268  1.00  0.00     0.010 A 
ATOM     94  C   UNL A   1      47.828  34.820  28.505  1.00  0.00     0.020 A 
ATOM     95  C   UNL A   1      48.486  33.867  30.641  1.00  0.00     0.020 A 
ATOM     96  C   UNL A   1      48.453  34.940  29.750  1.00  0.00     0.054 A 
BRANCH  96  97
ATOM     97  S   UNL A   1      49.190  36.534  30.205  1.00  0.00     0.124 S 
ATOM     98  O   UNL A   1      49.412  36.368  31.639  1.00  0.00    -0.237 OA
ATOM     99  O   UNL A   1      50.397  36.574  29.383  1.00  0.00    -0.237 OA
ATOM    100  O   UNL A   1      48.163  37.507  29.843  1.00  0.00    -0.744 OA
ENDBRANCH  96  97
ENDBRANCH  70  91
ENDBRANCH  44  45
ENDBRANCH  36  39
ENDBRANCH  34  35
ENDBRANCH  33  34
ENDBRANCH  32  33
ENDBRANCH   1  32
TORSDOF 22
ENDMDL
