MODEL 1
REMARK VINA RESULT:     -10.9      0.000      0.000
REMARK SMILES CS(=O)(=O)c1ccc(C2=NN(c3ccc(C(=O)NCCCCCCNC(=O)c4ccc(-c5c6nc(c(-c7ccc(S(=O)(=O)[O-])cc7)c7ccc([nH]7)c(-c7ccc(S(=O)(=O)[O-])cc7)c7nc(c(-c8ccc(S(=O)(=O)[O-])cc8)c8ccc5[nH]8)C=C7)C=C6)cc4)cc3)[C@H](c3cccs3)C2)cc1
REMARK SMILES IDX 21 1 20 2 19 3 18 4 16 5 17 6 15 8 12 9 13 10 89 11 14 12
REMARK SMILES IDX 88 13 11 14 9 15 10 16 96 17 90 18 8 19 5 20 6 21 98 22 7 23
REMARK SMILES IDX 97 24 2 25 1 26 3 27 4 28 91 29 92 30 95 31 93 32 94 33
REMARK SMILES IDX 22 34 23 35 24 36 25 37 26 38 27 40 28 41 29 42 87 43 30 44
REMARK SMILES IDX 86 45 31 46 32 47 33 48 80 49 34 50 85 51 79 52 81 53 35 54
REMARK SMILES IDX 84 55 78 56 77 57 36 59 66 60 47 61 65 62 48 63 51 64 64 65
REMARK SMILES IDX 82 66 49 67 50 68 63 70 83 71 52 72 37 73 38 74 46 75 39 76
REMARK SMILES IDX 45 77 40 78 41 79 42 80 43 81 44 82 67 83 68 84 76 85 69 86
REMARK SMILES IDX 75 87 70 88 71 89 72 90 73 91 74 92 53 93 54 94 62 95 55 96
REMARK SMILES IDX 61 97 56 98 57 99 58 100 59 101 60 102
REMARK H PARENT 18 7 25 39 81 58 51 69
REMARK Flexibility Score: inf
ROOT
ATOM      1  C   UNL A   1      37.844  28.631  30.340  1.00  0.00     0.002 C 
ENDROOT
BRANCH   1   2
ATOM      2  C   UNL A   1      36.492  29.332  30.145  1.00  0.00     0.021 C 
BRANCH   2   3
ATOM      3  C   UNL A   1      36.113  29.493  28.673  1.00  0.00     0.116 C 
BRANCH   3   4
ATOM      4  N   UNL A   1      35.240  30.642  28.514  1.00  0.00    -0.352 N 
ATOM      5  C   UNL A   1      34.157  30.860  27.704  1.00  0.00     0.251 C 
ATOM      6  O   UNL A   1      33.590  31.950  27.770  1.00  0.00    -0.269 OA
ATOM      7  H   UNL A   1      35.469  31.404  29.094  1.00  0.00     0.163 HD
BRANCH   5   8
ATOM      8  C   UNL A   1      33.598  29.798  26.827  1.00  0.00     0.039 A 
ATOM      9  C   UNL A   1      32.804  27.631  25.217  1.00  0.00     0.060 A 
ATOM     10  C   UNL A   1      33.118  27.435  26.564  1.00  0.00     0.029 A 
ATOM     11  C   UNL A   1      32.792  28.934  24.716  1.00  0.00     0.029 A 
ATOM     12  C   UNL A   1      33.517  28.508  27.364  1.00  0.00     0.016 A 
ATOM     13  C   UNL A   1      33.160  30.014  25.520  1.00  0.00     0.016 A 
BRANCH   9  14
ATOM     14  N   UNL A   1      32.499  26.561  24.403  1.00  0.00    -0.257 N 
ATOM     15  C   UNL A   1      32.494  24.538  23.804  1.00  0.00     0.071 C 
ATOM     16  N   UNL A   1      32.800  25.307  24.800  1.00  0.00    -0.176 NA
ATOM     17  C   UNL A   1      31.994  25.236  22.566  1.00  0.00     0.091 C 
ATOM     18  C   UNL A   1      31.766  26.646  23.137  1.00  0.00     0.154 C 
BRANCH  15  19
ATOM     19  C   UNL A   1      32.666  23.084  23.870  1.00  0.00    -0.002 A 
ATOM     20  C   UNL A   1      32.792  20.316  24.037  1.00  0.00     0.067 A 
ATOM     21  C   UNL A   1      32.164  20.915  22.939  1.00  0.00     0.021 A 
ATOM     22  C   UNL A   1      33.366  21.096  25.047  1.00  0.00     0.021 A 
ATOM     23  C   UNL A   1      32.089  22.303  22.864  1.00  0.00     0.011 A 
ATOM     24  C   UNL A   1      33.311  22.490  24.957  1.00  0.00     0.011 A 
BRANCH  20  25
ATOM     25  S   UNL A   1      32.814  18.539  24.092  1.00  0.00     0.175 S 
ATOM     26  C   UNL A   1      34.491  18.049  24.367  1.00  0.00     0.163 C 
ATOM     27  O   UNL A   1      32.453  18.079  22.762  1.00  0.00    -0.224 OA
ATOM     28  O   UNL A   1      32.045  18.152  25.257  1.00  0.00    -0.224 OA
ENDBRANCH  20  25
ENDBRANCH  15  19
BRANCH  18  29
ATOM     29  C   UNL A   1      30.320  27.108  23.247  1.00  0.00     0.030 A 
ATOM     30  C   UNL A   1      29.275  26.390  23.810  1.00  0.00     0.017 A 
ATOM     31  S   UNL A   1      29.751  28.605  22.630  1.00  0.00    -0.147 S 
ATOM     32  C   UNL A   1      28.027  27.073  23.746  1.00  0.00     0.012 A 
ATOM     33  C   UNL A   1      28.153  28.307  23.153  1.00  0.00     0.065 A 
ENDBRANCH  18  29
ENDBRANCH   9  14
ENDBRANCH   5   8
ENDBRANCH   3   4
ENDBRANCH   2   3
ENDBRANCH   1   2
BRANCH   1  34
ATOM     34  C   UNL A   1      38.238  28.408  31.805  1.00  0.00     0.002 C 
BRANCH  34  35
ATOM     35  C   UNL A   1      37.248  28.973  32.827  1.00  0.00     0.021 C 
BRANCH  35  36
ATOM     36  C   UNL A   1      37.772  30.179  33.599  1.00  0.00     0.116 C 
BRANCH  36  37
ATOM     37  N   UNL A   1      37.400  31.427  32.949  1.00  0.00    -0.352 N 
ATOM     38  C   UNL A   1      38.149  32.242  32.138  1.00  0.00     0.251 C 
ATOM     39  H   UNL A   1      36.479  31.729  33.115  1.00  0.00     0.163 HD
ATOM     40  O   UNL A   1      37.762  33.380  31.892  1.00  0.00    -0.269 OA
BRANCH  38  41
ATOM     41  C   UNL A   1      39.421  31.748  31.572  1.00  0.00     0.039 A 
ATOM     42  C   UNL A   1      40.458  31.402  32.441  1.00  0.00     0.014 A 
ATOM     43  C   UNL A   1      39.600  31.644  30.189  1.00  0.00     0.014 A 
ATOM     44  C   UNL A   1      41.657  30.910  31.922  1.00  0.00     0.010 A 
ATOM     45  C   UNL A   1      40.764  31.077  29.679  1.00  0.00     0.010 A 
ATOM     46  C   UNL A   1      41.809  30.714  30.540  1.00  0.00    -0.014 A 
BRANCH  46  47
ATOM     47  C   UNL A   1      43.055  30.122  29.987  1.00  0.00     0.031 A 
ATOM     48  C   UNL A   1      44.321  30.932  29.918  1.00  0.00     0.074 A 
ATOM     49  C   UNL A   1      43.028  28.866  29.502  1.00  0.00     0.049 A 
ATOM     50  N   UNL A   1      45.497  30.582  29.464  1.00  0.00    -0.248 NA
ATOM     51  C   UNL A   1      44.253  32.324  30.393  1.00  0.00     0.031 C 
ATOM     52  C   UNL A   1      41.847  27.998  29.462  1.00  0.00     0.029 A 
ATOM     53  N   UNL A   1      44.021  28.096  28.949  1.00  0.00    -0.354 N 
ATOM     54  C   UNL A   1      46.302  31.709  29.585  1.00  0.00     0.074 A 
ATOM     55  C   UNL A   1      45.467  32.769  30.105  1.00  0.00     0.031 C 
ATOM     56  C   UNL A   1      42.191  26.809  28.945  1.00  0.00     0.029 A 
ATOM     57  C   UNL A   1      43.603  26.841  28.576  1.00  0.00     0.049 A 
ATOM     58  H   UNL A   1      44.945  28.415  28.830  1.00  0.00     0.167 HD
ATOM     59  C   UNL A   1      47.621  31.844  29.305  1.00  0.00     0.031 A 
ATOM     60  C   UNL A   1      44.276  25.828  27.996  1.00  0.00     0.031 A 
ATOM     61  C   UNL A   1      48.447  30.783  28.790  1.00  0.00     0.049 A 
ATOM     62  C   UNL A   1      45.739  25.999  27.698  1.00  0.00     0.074 A 
ATOM     63  C   UNL A   1      49.808  30.797  28.539  1.00  0.00     0.029 A 
ATOM     64  N   UNL A   1      47.989  29.523  28.434  1.00  0.00    -0.354 N 
ATOM     65  N   UNL A   1      46.505  27.045  27.903  1.00  0.00    -0.248 NA
ATOM     66  C   UNL A   1      46.434  24.849  27.104  1.00  0.00     0.031 C 
ATOM     67  C   UNL A   1      50.160  29.570  27.967  1.00  0.00     0.029 A 
ATOM     68  C   UNL A   1      49.033  28.763  27.931  1.00  0.00     0.049 A 
ATOM     69  H   UNL A   1      47.059  29.213  28.526  1.00  0.00     0.167 HD
ATOM     70  C   UNL A   1      47.777  26.671  27.484  1.00  0.00     0.074 A 
ATOM     71  C   UNL A   1      47.680  25.296  27.036  1.00  0.00     0.031 C 
ATOM     72  C   UNL A   1      48.921  27.400  27.471  1.00  0.00     0.031 A 
BRANCH  59  73
ATOM     73  C   UNL A   1      48.249  33.197  29.530  1.00  0.00    -0.014 A 
ATOM     74  C   UNL A   1      48.837  33.537  30.762  1.00  0.00     0.010 A 
ATOM     75  C   UNL A   1      48.283  34.132  28.479  1.00  0.00     0.010 A 
ATOM     76  C   UNL A   1      49.403  34.801  30.954  1.00  0.00     0.020 A 
ATOM     77  C   UNL A   1      48.878  35.384  28.655  1.00  0.00     0.020 A 
ATOM     78  C   UNL A   1      49.417  35.718  29.898  1.00  0.00     0.054 A 
BRANCH  78  79
ATOM     79  S   UNL A   1      50.173  37.344  30.171  1.00  0.00     0.124 S 
ATOM     80  O   UNL A   1      50.583  37.717  28.820  1.00  0.00    -0.237 OA
ATOM     81  O   UNL A   1      49.067  38.121  30.729  1.00  0.00    -0.237 OA
ATOM     82  O   UNL A   1      51.266  37.068  31.099  1.00  0.00    -0.744 OA
ENDBRANCH  78  79
ENDBRANCH  59  73
BRANCH  60  83
ATOM     83  C   UNL A   1      43.564  24.562  27.668  1.00  0.00    -0.014 A 
ATOM     84  C   UNL A   1      43.347  23.581  28.650  1.00  0.00     0.010 A 
ATOM     85  C   UNL A   1      43.065  24.350  26.369  1.00  0.00     0.010 A 
ATOM     86  C   UNL A   1      42.657  22.405  28.337  1.00  0.00     0.020 A 
ATOM     87  C   UNL A   1      42.348  23.192  26.060  1.00  0.00     0.020 A 
ATOM     88  C   UNL A   1      42.155  22.222  27.045  1.00  0.00     0.054 A 
BRANCH  88  89
ATOM     89  S   UNL A   1      41.203  20.721  26.679  1.00  0.00     0.124 S 
ATOM     90  O   UNL A   1      42.066  20.039  25.721  1.00  0.00    -0.237 OA
ATOM     91  O   UNL A   1      41.093  20.092  27.993  1.00  0.00    -0.237 OA
ATOM     92  O   UNL A   1      39.948  21.237  26.137  1.00  0.00    -0.744 OA
ENDBRANCH  88  89
ENDBRANCH  60  83
BRANCH  72  93
ATOM     93  C   UNL A   1      50.170  26.718  26.977  1.00  0.00    -0.014 A 
ATOM     94  C   UNL A   1      51.113  26.177  27.869  1.00  0.00     0.010 A 
ATOM     95  C   UNL A   1      50.384  26.583  25.592  1.00  0.00     0.010 A 
ATOM     96  C   UNL A   1      52.267  25.555  27.387  1.00  0.00     0.020 A 
ATOM     97  C   UNL A   1      51.519  25.931  25.105  1.00  0.00     0.020 A 
ATOM     98  C   UNL A   1      52.463  25.437  26.007  1.00  0.00     0.054 A 
BRANCH  98  99
ATOM     99  S   UNL A   1      53.958  24.603  25.408  1.00  0.00     0.124 S 
ATOM    100  O   UNL A   1      54.422  25.519  24.370  1.00  0.00    -0.237 OA
ATOM    101  O   UNL A   1      54.790  24.539  26.606  1.00  0.00    -0.237 OA
ATOM    102  O   UNL A   1      53.466  23.314  24.927  1.00  0.00    -0.744 OA
ENDBRANCH  98  99
ENDBRANCH  72  93
ENDBRANCH  46  47
ENDBRANCH  38  41
ENDBRANCH  36  37
ENDBRANCH  35  36
ENDBRANCH  34  35
ENDBRANCH   1  34
TORSDOF 20
ENDMDL
MODEL 2
REMARK VINA RESULT:     -10.1      3.418      5.746
REMARK SMILES CS(=O)(=O)c1ccc(C2=NN(c3ccc(C(=O)NCCCCCCNC(=O)c4ccc(-c5c6nc(c(-c7ccc(S(=O)(=O)[O-])cc7)c7ccc([nH]7)c(-c7ccc(S(=O)(=O)[O-])cc7)c7nc(c(-c8ccc(S(=O)(=O)[O-])cc8)c8ccc5[nH]8)C=C7)C=C6)cc4)cc3)[C@H](c3cccs3)C2)cc1
REMARK SMILES IDX 21 1 20 2 19 3 18 4 16 5 17 6 15 8 12 9 13 10 89 11 14 12
REMARK SMILES IDX 88 13 11 14 9 15 10 16 96 17 90 18 8 19 5 20 6 21 98 22 7 23
REMARK SMILES IDX 97 24 2 25 1 26 3 27 4 28 91 29 92 30 95 31 93 32 94 33
REMARK SMILES IDX 22 34 23 35 24 36 25 37 26 38 27 40 28 41 29 42 87 43 30 44
REMARK SMILES IDX 86 45 31 46 32 47 33 48 80 49 34 50 85 51 79 52 81 53 35 54
REMARK SMILES IDX 84 55 78 56 77 57 36 59 66 60 47 61 65 62 48 63 51 64 64 65
REMARK SMILES IDX 82 66 49 67 50 68 63 70 83 71 52 72 37 73 38 74 46 75 39 76
REMARK SMILES IDX 45 77 40 78 41 79 42 80 43 81 44 82 67 83 68 84 76 85 69 86
REMARK SMILES IDX 75 87 70 88 71 89 72 90 73 91 74 92 53 93 54 94 62 95 55 96
REMARK SMILES IDX 61 97 56 98 57 99 58 100 59 101 60 102
REMARK H PARENT 18 7 25 39 81 58 51 69
REMARK Flexibility Score: inf
ROOT
ATOM      1  C   UNL A   1      38.849  29.086  29.009  1.00  0.00     0.002 C 
ENDROOT
BRANCH   1   2
ATOM      2  C   UNL A   1      37.349  29.342  29.206  1.00  0.00     0.021 C 
BRANCH   2   3
ATOM      3  C   UNL A   1      36.625  29.668  27.898  1.00  0.00     0.116 C 
BRANCH   3   4
ATOM      4  N   UNL A   1      35.571  30.633  28.148  1.00  0.00    -0.352 N 
ATOM      5  C   UNL A   1      34.303  30.751  27.643  1.00  0.00     0.251 C 
ATOM      6  O   UNL A   1      33.605  31.686  28.032  1.00  0.00    -0.269 OA
ATOM      7  H   UNL A   1      35.812  31.331  28.800  1.00  0.00     0.163 HD
BRANCH   5   8
ATOM      8  C   UNL A   1      33.722  29.741  26.720  1.00  0.00     0.039 A 
ATOM      9  C   UNL A   1      32.800  27.619  25.118  1.00  0.00     0.060 A 
ATOM     10  C   UNL A   1      32.644  27.579  26.505  1.00  0.00     0.029 A 
ATOM     11  C   UNL A   1      33.327  28.774  24.538  1.00  0.00     0.029 A 
ATOM     12  C   UNL A   1      33.104  28.628  27.304  1.00  0.00     0.016 A 
ATOM     13  C   UNL A   1      33.761  29.840  25.329  1.00  0.00     0.016 A 
BRANCH   9  14
ATOM     14  N   UNL A   1      32.429  26.545  24.337  1.00  0.00    -0.257 N 
ATOM     15  C   UNL A   1      32.294  24.509  23.804  1.00  0.00     0.071 C 
ATOM     16  N   UNL A   1      32.645  25.288  24.777  1.00  0.00    -0.176 NA
ATOM     17  C   UNL A   1      31.849  25.197  22.540  1.00  0.00     0.091 C 
ATOM     18  C   UNL A   1      31.712  26.637  23.063  1.00  0.00     0.154 C 
BRANCH  15  19
ATOM     19  C   UNL A   1      32.369  23.049  23.918  1.00  0.00    -0.002 A 
ATOM     20  C   UNL A   1      32.716  20.306  24.160  1.00  0.00     0.067 A 
ATOM     21  C   UNL A   1      32.854  21.122  25.287  1.00  0.00     0.021 A 
ATOM     22  C   UNL A   1      32.395  20.854  22.913  1.00  0.00     0.021 A 
ATOM     23  C   UNL A   1      32.695  22.499  25.162  1.00  0.00     0.011 A 
ATOM     24  C   UNL A   1      32.210  22.236  22.795  1.00  0.00     0.011 A 
BRANCH  20  25
ATOM     25  S   UNL A   1      32.976  18.561  24.381  1.00  0.00     0.175 S 
ATOM     26  C   UNL A   1      32.476  17.768  22.881  1.00  0.00     0.163 C 
ATOM     27  O   UNL A   1      32.050  18.132  25.414  1.00  0.00    -0.224 OA
ATOM     28  O   UNL A   1      34.405  18.371  24.523  1.00  0.00    -0.224 OA
ENDBRANCH  20  25
ENDBRANCH  15  19
BRANCH  18  29
ATOM     29  C   UNL A   1      30.298  27.197  23.146  1.00  0.00     0.030 A 
ATOM     30  C   UNL A   1      29.875  28.420  22.648  1.00  0.00     0.017 A 
ATOM     31  S   UNL A   1      29.002  26.390  23.930  1.00  0.00    -0.147 S 
ATOM     32  C   UNL A   1      28.497  28.680  22.899  1.00  0.00     0.012 A 
ATOM     33  C   UNL A   1      27.895  27.638  23.564  1.00  0.00     0.065 A 
ENDBRANCH  18  29
ENDBRANCH   9  14
ENDBRANCH   5   8
ENDBRANCH   3   4
ENDBRANCH   2   3
ENDBRANCH   1   2
BRANCH   1  34
ATOM     34  C   UNL A   1      39.475  28.147  30.049  1.00  0.00     0.002 C 
BRANCH  34  35
ATOM     35  C   UNL A   1      38.483  27.554  31.052  1.00  0.00     0.021 C 
BRANCH  35  36
ATOM     36  C   UNL A   1      38.834  27.830  32.510  1.00  0.00     0.116 C 
BRANCH  36  37
ATOM     37  N   UNL A   1      37.975  28.858  33.078  1.00  0.00    -0.352 N 
ATOM     38  C   UNL A   1      38.244  30.181  33.319  1.00  0.00     0.251 C 
ATOM     39  H   UNL A   1      37.069  28.561  33.322  1.00  0.00     0.163 HD
ATOM     40  O   UNL A   1      37.495  30.836  34.038  1.00  0.00    -0.269 OA
BRANCH  38  41
ATOM     41  C   UNL A   1      39.439  30.810  32.719  1.00  0.00     0.039 A 
ATOM     42  C   UNL A   1      40.675  30.649  33.349  1.00  0.00     0.014 A 
ATOM     43  C   UNL A   1      39.339  31.574  31.551  1.00  0.00     0.014 A 
ATOM     44  C   UNL A   1      41.817  31.215  32.780  1.00  0.00     0.010 A 
ATOM     45  C   UNL A   1      40.490  32.067  30.944  1.00  0.00     0.010 A 
ATOM     46  C   UNL A   1      41.740  31.903  31.557  1.00  0.00    -0.014 A 
BRANCH  46  47
ATOM     47  C   UNL A   1      42.962  32.445  30.910  1.00  0.00     0.031 A 
ATOM     48  C   UNL A   1      43.354  33.885  31.102  1.00  0.00     0.074 A 
ATOM     49  C   UNL A   1      43.693  31.646  30.108  1.00  0.00     0.049 A 
ATOM     50  N   UNL A   1      44.383  34.529  30.612  1.00  0.00    -0.248 NA
ATOM     51  C   UNL A   1      42.464  34.717  31.928  1.00  0.00     0.031 C 
ATOM     52  C   UNL A   1      43.384  30.247  29.799  1.00  0.00     0.029 A 
ATOM     53  N   UNL A   1      44.845  31.893  29.405  1.00  0.00    -0.354 N 
ATOM     54  C   UNL A   1      44.255  35.841  31.056  1.00  0.00     0.074 A 
ATOM     55  C   UNL A   1      43.024  35.913  31.810  1.00  0.00     0.031 C 
ATOM     56  C   UNL A   1      44.339  29.753  28.996  1.00  0.00     0.029 A 
ATOM     57  C   UNL A   1      45.303  30.807  28.697  1.00  0.00     0.049 A 
ATOM     58  H   UNL A   1      45.300  32.767  29.406  1.00  0.00     0.167 HD
ATOM     59  C   UNL A   1      45.097  36.886  30.868  1.00  0.00     0.031 A 
ATOM     60  C   UNL A   1      46.375  30.672  27.892  1.00  0.00     0.031 A 
ATOM     61  C   UNL A   1      46.323  36.806  30.117  1.00  0.00     0.049 A 
ATOM     62  C   UNL A   1      47.296  31.844  27.701  1.00  0.00     0.074 A 
ATOM     63  C   UNL A   1      47.280  37.788  29.926  1.00  0.00     0.029 A 
ATOM     64  N   UNL A   1      46.757  35.685  29.424  1.00  0.00    -0.354 N 
ATOM     65  N   UNL A   1      47.206  33.053  28.203  1.00  0.00    -0.248 NA
ATOM     66  C   UNL A   1      48.472  31.630  26.847  1.00  0.00     0.031 C 
ATOM     67  C   UNL A   1      48.256  37.284  29.061  1.00  0.00     0.029 A 
ATOM     68  C   UNL A   1      47.949  35.963  28.773  1.00  0.00     0.049 A 
ATOM     69  H   UNL A   1      46.289  34.820  29.398  1.00  0.00     0.167 HD
ATOM     70  C   UNL A   1      48.326  33.738  27.743  1.00  0.00     0.074 A 
ATOM     71  C   UNL A   1      49.087  32.800  26.943  1.00  0.00     0.031 C 
ATOM     72  C   UNL A   1      48.690  35.026  27.964  1.00  0.00     0.031 A 
BRANCH  59  73
ATOM     73  C   UNL A   1      44.707  38.215  31.466  1.00  0.00    -0.014 A 
ATOM     74  C   UNL A   1      45.145  38.600  32.746  1.00  0.00     0.010 A 
ATOM     75  C   UNL A   1      43.917  39.109  30.719  1.00  0.00     0.010 A 
ATOM     76  C   UNL A   1      44.763  39.832  33.286  1.00  0.00     0.020 A 
ATOM     77  C   UNL A   1      43.560  40.355  31.241  1.00  0.00     0.020 A 
ATOM     78  C   UNL A   1      43.969  40.701  32.530  1.00  0.00     0.054 A 
BRANCH  78  79
ATOM     79  S   UNL A   1      43.502  42.298  33.251  1.00  0.00     0.124 S 
ATOM     80  O   UNL A   1      43.967  43.236  32.233  1.00  0.00    -0.237 OA
ATOM     81  O   UNL A   1      42.051  42.178  33.379  1.00  0.00    -0.237 OA
ATOM     82  O   UNL A   1      44.234  42.337  34.514  1.00  0.00    -0.744 OA
ENDBRANCH  78  79
ENDBRANCH  59  73
BRANCH  60  83
ATOM     83  C   UNL A   1      46.629  29.370  27.215  1.00  0.00    -0.014 A 
ATOM     84  C   UNL A   1      47.470  28.406  27.798  1.00  0.00     0.010 A 
ATOM     85  C   UNL A   1      45.997  29.076  25.993  1.00  0.00     0.010 A 
ATOM     86  C   UNL A   1      47.684  27.178  27.164  1.00  0.00     0.020 A 
ATOM     87  C   UNL A   1      46.182  27.838  25.373  1.00  0.00     0.020 A 
ATOM     88  C   UNL A   1      47.032  26.899  25.959  1.00  0.00     0.054 A 
BRANCH  88  89
ATOM     89  S   UNL A   1      47.270  25.273  25.190  1.00  0.00     0.124 S 
ATOM     90  O   UNL A   1      45.961  25.021  24.599  1.00  0.00    -0.237 OA
ATOM     91  O   UNL A   1      48.354  25.528  24.246  1.00  0.00    -0.237 OA
ATOM     92  O   UNL A   1      47.626  24.412  26.316  1.00  0.00    -0.744 OA
ENDBRANCH  88  89
ENDBRANCH  60  83
BRANCH  72  93
ATOM     93  C   UNL A   1      49.983  35.494  27.349  1.00  0.00    -0.014 A 
ATOM     94  C   UNL A   1      51.211  35.343  28.018  1.00  0.00     0.010 A 
ATOM     95  C   UNL A   1      49.973  36.061  26.060  1.00  0.00     0.010 A 
ATOM     96  C   UNL A   1      52.396  35.791  27.431  1.00  0.00     0.020 A 
ATOM     97  C   UNL A   1      51.160  36.479  25.454  1.00  0.00     0.020 A 
ATOM     98  C   UNL A   1      52.363  36.357  26.152  1.00  0.00     0.054 A 
BRANCH  98  99
ATOM     99  S   UNL A   1      53.919  36.908  25.402  1.00  0.00     0.124 S 
ATOM    100  O   UNL A   1      53.501  38.102  24.674  1.00  0.00    -0.237 OA
ATOM    101  O   UNL A   1      54.768  37.148  26.567  1.00  0.00    -0.237 OA
ATOM    102  O   UNL A   1      54.321  35.778  24.568  1.00  0.00    -0.744 OA
ENDBRANCH  98  99
ENDBRANCH  72  93
ENDBRANCH  46  47
ENDBRANCH  38  41
ENDBRANCH  36  37
ENDBRANCH  35  36
ENDBRANCH  34  35
ENDBRANCH   1  34
TORSDOF 20
ENDMDL
MODEL 3
REMARK VINA RESULT:     -10.1      3.443      9.004
REMARK SMILES CS(=O)(=O)c1ccc(C2=NN(c3ccc(C(=O)NCCCCCCNC(=O)c4ccc(-c5c6nc(c(-c7ccc(S(=O)(=O)[O-])cc7)c7ccc([nH]7)c(-c7ccc(S(=O)(=O)[O-])cc7)c7nc(c(-c8ccc(S(=O)(=O)[O-])cc8)c8ccc5[nH]8)C=C7)C=C6)cc4)cc3)[C@H](c3cccs3)C2)cc1
REMARK SMILES IDX 21 1 20 2 19 3 18 4 16 5 17 6 15 8 12 9 13 10 89 11 14 12
REMARK SMILES IDX 88 13 11 14 9 15 10 16 96 17 90 18 8 19 5 20 6 21 98 22 7 23
REMARK SMILES IDX 97 24 2 25 1 26 3 27 4 28 91 29 92 30 95 31 93 32 94 33
REMARK SMILES IDX 22 34 23 35 24 36 25 37 26 38 27 40 28 41 29 42 87 43 30 44
REMARK SMILES IDX 86 45 31 46 32 47 33 48 80 49 34 50 85 51 79 52 81 53 35 54
REMARK SMILES IDX 84 55 78 56 77 57 36 59 66 60 47 61 65 62 48 63 51 64 64 65
REMARK SMILES IDX 82 66 49 67 50 68 63 70 83 71 52 72 37 73 38 74 46 75 39 76
REMARK SMILES IDX 45 77 40 78 41 79 42 80 43 81 44 82 67 83 68 84 76 85 69 86
REMARK SMILES IDX 75 87 70 88 71 89 72 90 73 91 74 92 53 93 54 94 62 95 55 96
REMARK SMILES IDX 61 97 56 98 57 99 58 100 59 101 60 102
REMARK H PARENT 18 7 25 39 81 58 51 69
REMARK Flexibility Score: inf
ROOT
ATOM      1  C   UNL A   1      38.896  29.115  28.830  1.00  0.00     0.002 C 
ENDROOT
BRANCH   1   2
ATOM      2  C   UNL A   1      37.397  29.367  29.039  1.00  0.00     0.021 C 
BRANCH   2   3
ATOM      3  C   UNL A   1      36.680  29.785  27.754  1.00  0.00     0.116 C 
BRANCH   3   4
ATOM      4  N   UNL A   1      35.621  30.726  28.067  1.00  0.00    -0.352 N 
ATOM      5  C   UNL A   1      34.320  30.809  27.644  1.00  0.00     0.251 C 
ATOM      6  O   UNL A   1      33.625  31.730  28.074  1.00  0.00    -0.269 OA
ATOM      7  H   UNL A   1      35.886  31.434  28.697  1.00  0.00     0.163 HD
BRANCH   5   8
ATOM      8  C   UNL A   1      33.705  29.778  26.768  1.00  0.00     0.039 A 
ATOM      9  C   UNL A   1      32.794  27.654  25.162  1.00  0.00     0.060 A 
ATOM     10  C   UNL A   1      33.082  27.448  26.514  1.00  0.00     0.029 A 
ATOM     11  C   UNL A   1      32.868  28.952  24.654  1.00  0.00     0.029 A 
ATOM     12  C   UNL A   1      33.539  28.499  27.312  1.00  0.00     0.016 A 
ATOM     13  C   UNL A   1      33.294  30.013  25.455  1.00  0.00     0.016 A 
BRANCH   9  14
ATOM     14  N   UNL A   1      32.431  26.600  24.352  1.00  0.00    -0.257 N 
ATOM     15  C   UNL A   1      32.290  24.576  23.774  1.00  0.00     0.071 C 
ATOM     16  N   UNL A   1      32.627  25.332  24.770  1.00  0.00    -0.176 NA
ATOM     17  C   UNL A   1      31.878  25.294  22.515  1.00  0.00     0.091 C 
ATOM     18  C   UNL A   1      31.741  26.724  23.065  1.00  0.00     0.154 C 
BRANCH  15  19
ATOM     19  C   UNL A   1      32.351  23.114  23.860  1.00  0.00    -0.002 A 
ATOM     20  C   UNL A   1      32.668  20.364  24.066  1.00  0.00     0.067 A 
ATOM     21  C   UNL A   1      32.700  21.153  25.221  1.00  0.00     0.021 A 
ATOM     22  C   UNL A   1      32.469  20.944  22.808  1.00  0.00     0.021 A 
ATOM     23  C   UNL A   1      32.556  22.533  25.115  1.00  0.00     0.011 A 
ATOM     24  C   UNL A   1      32.299  22.328  22.706  1.00  0.00     0.011 A 
BRANCH  20  25
ATOM     25  S   UNL A   1      32.903  18.614  24.269  1.00  0.00     0.175 S 
ATOM     26  C   UNL A   1      32.341  17.839  22.781  1.00  0.00     0.163 C 
ATOM     27  O   UNL A   1      32.001  18.195  25.327  1.00  0.00    -0.224 OA
ATOM     28  O   UNL A   1      34.331  18.396  24.366  1.00  0.00    -0.224 OA
ENDBRANCH  20  25
ENDBRANCH  15  19
BRANCH  18  29
ATOM     29  C   UNL A   1      30.331  27.294  23.130  1.00  0.00     0.030 A 
ATOM     30  C   UNL A   1      29.927  28.529  22.645  1.00  0.00     0.017 A 
ATOM     31  S   UNL A   1      29.014  26.485  23.876  1.00  0.00    -0.147 S 
ATOM     32  C   UNL A   1      28.547  28.796  22.873  1.00  0.00     0.012 A 
ATOM     33  C   UNL A   1      27.924  27.748  23.509  1.00  0.00     0.065 A 
ENDBRANCH  18  29
ENDBRANCH   9  14
ENDBRANCH   5   8
ENDBRANCH   3   4
ENDBRANCH   2   3
ENDBRANCH   1   2
BRANCH   1  34
ATOM     34  C   UNL A   1      39.517  28.120  29.819  1.00  0.00     0.002 C 
BRANCH  34  35
ATOM     35  C   UNL A   1      38.514  27.443  30.757  1.00  0.00     0.021 C 
BRANCH  35  36
ATOM     36  C   UNL A   1      38.684  27.820  32.225  1.00  0.00     0.116 C 
BRANCH  36  37
ATOM     37  N   UNL A   1      37.697  28.805  32.638  1.00  0.00    -0.352 N 
ATOM     38  C   UNL A   1      37.850  30.151  32.856  1.00  0.00     0.251 C 
ATOM     39  H   UNL A   1      36.788  28.456  32.779  1.00  0.00     0.163 HD
ATOM     40  O   UNL A   1      36.976  30.777  33.448  1.00  0.00    -0.269 OA
BRANCH  38  41
ATOM     41  C   UNL A   1      39.070  30.839  32.385  1.00  0.00     0.039 A 
ATOM     42  C   UNL A   1      40.260  30.666  33.095  1.00  0.00     0.014 A 
ATOM     43  C   UNL A   1      39.038  31.667  31.258  1.00  0.00     0.014 A 
ATOM     44  C   UNL A   1      41.427  31.289  32.647  1.00  0.00     0.010 A 
ATOM     45  C   UNL A   1      40.217  32.220  30.768  1.00  0.00     0.010 A 
ATOM     46  C   UNL A   1      41.422  32.045  31.464  1.00  0.00    -0.014 A 
BRANCH  46  47
ATOM     47  C   UNL A   1      42.675  32.650  30.942  1.00  0.00     0.031 A 
ATOM     48  C   UNL A   1      43.601  31.854  30.063  1.00  0.00     0.074 A 
ATOM     49  C   UNL A   1      42.999  33.907  31.303  1.00  0.00     0.049 A 
ATOM     50  N   UNL A   1      44.735  32.217  29.522  1.00  0.00    -0.248 NA
ATOM     51  C   UNL A   1      43.219  30.461  29.777  1.00  0.00     0.031 C 
ATOM     52  C   UNL A   1      42.211  34.762  32.195  1.00  0.00     0.029 A 
ATOM     53  N   UNL A   1      44.077  34.687  30.966  1.00  0.00    -0.354 N 
ATOM     54  C   UNL A   1      45.209  31.098  28.846  1.00  0.00     0.074 A 
ATOM     55  C   UNL A   1      44.266  30.029  29.088  1.00  0.00     0.031 C 
ATOM     56  C   UNL A   1      42.814  35.955  32.308  1.00  0.00     0.029 A 
ATOM     57  C   UNL A   1      44.052  35.939  31.535  1.00  0.00     0.049 A 
ATOM     58  H   UNL A   1      44.801  34.378  30.374  1.00  0.00     0.167 HD
ATOM     59  C   UNL A   1      46.319  30.977  28.078  1.00  0.00     0.031 A 
ATOM     60  C   UNL A   1      44.928  36.959  31.451  1.00  0.00     0.031 A 
ATOM     61  C   UNL A   1      47.252  32.047  27.839  1.00  0.00     0.049 A 
ATOM     62  C   UNL A   1      46.150  36.803  30.591  1.00  0.00     0.074 A 
ATOM     63  C   UNL A   1      48.369  32.047  27.022  1.00  0.00     0.029 A 
ATOM     64  N   UNL A   1      47.187  33.303  28.426  1.00  0.00    -0.354 N 
ATOM     65  N   UNL A   1      46.534  35.765  29.886  1.00  0.00    -0.248 NA
ATOM     66  C   UNL A   1      47.049  37.961  30.502  1.00  0.00     0.031 C 
ATOM     67  C   UNL A   1      49.017  33.278  27.168  1.00  0.00     0.029 A 
ATOM     68  C   UNL A   1      48.263  34.074  28.017  1.00  0.00     0.049 A 
ATOM     69  H   UNL A   1      46.479  33.603  29.041  1.00  0.00     0.167 HD
ATOM     70  C   UNL A   1      47.710  36.153  29.252  1.00  0.00     0.074 A 
ATOM     71  C   UNL A   1      47.958  37.527  29.640  1.00  0.00     0.031 C 
ATOM     72  C   UNL A   1      48.510  35.436  28.424  1.00  0.00     0.031 A 
BRANCH  59  73
ATOM     73  C   UNL A   1      46.597  29.631  27.458  1.00  0.00    -0.014 A 
ATOM     74  C   UNL A   1      46.099  29.292  26.186  1.00  0.00     0.010 A 
ATOM     75  C   UNL A   1      47.401  28.701  28.143  1.00  0.00     0.010 A 
ATOM     76  C   UNL A   1      46.359  28.034  25.634  1.00  0.00     0.020 A 
ATOM     77  C   UNL A   1      47.691  27.455  27.581  1.00  0.00     0.020 A 
ATOM     78  C   UNL A   1      47.151  27.122  26.338  1.00  0.00     0.054 A 
BRANCH  78  79
ATOM     79  S   UNL A   1      47.485  25.503  25.590  1.00  0.00     0.124 S 
ATOM     80  O   UNL A   1      48.941  25.515  25.482  1.00  0.00    -0.237 OA
ATOM     81  O   UNL A   1      46.935  24.576  26.577  1.00  0.00    -0.237 OA
ATOM     82  O   UNL A   1      46.766  25.553  24.319  1.00  0.00    -0.744 OA
ENDBRANCH  78  79
ENDBRANCH  59  73
BRANCH  60  83
ATOM     83  C   UNL A   1      44.667  38.217  32.204  1.00  0.00    -0.014 A 
ATOM     84  C   UNL A   1      43.781  39.187  31.702  1.00  0.00     0.010 A 
ATOM     85  C   UNL A   1      45.282  38.434  33.450  1.00  0.00     0.010 A 
ATOM     86  C   UNL A   1      43.527  40.356  32.428  1.00  0.00     0.020 A 
ATOM     87  C   UNL A   1      45.006  39.584  34.193  1.00  0.00     0.020 A 
ATOM     88  C   UNL A   1      44.135  40.543  33.673  1.00  0.00     0.054 A 
BRANCH  88  89
ATOM     89  S   UNL A   1      43.737  42.033  34.628  1.00  0.00     0.124 S 
ATOM     90  O   UNL A   1      44.032  41.609  35.992  1.00  0.00    -0.237 OA
ATOM     91  O   UNL A   1      44.649  43.023  34.060  1.00  0.00    -0.237 OA
ATOM     92  O   UNL A   1      42.324  42.260  34.333  1.00  0.00    -0.744 OA
ENDBRANCH  88  89
ENDBRANCH  60  83
BRANCH  72  93
ATOM     93  C   UNL A   1      49.722  36.132  27.861  1.00  0.00    -0.014 A 
ATOM     94  C   UNL A   1      49.673  36.806  26.627  1.00  0.00     0.010 A 
ATOM     95  C   UNL A   1      50.921  36.142  28.598  1.00  0.00     0.010 A 
ATOM     96  C   UNL A   1      50.812  37.438  26.121  1.00  0.00     0.020 A 
ATOM     97  C   UNL A   1      52.052  36.802  28.113  1.00  0.00     0.020 A 
ATOM     98  C   UNL A   1      51.995  37.431  26.868  1.00  0.00     0.054 A 
BRANCH  98  99
ATOM     99  S   UNL A   1      53.451  38.280  26.199  1.00  0.00     0.124 S 
ATOM    100  O   UNL A   1      54.539  37.415  26.646  1.00  0.00    -0.237 OA
ATOM    101  O   UNL A   1      53.193  38.274  24.762  1.00  0.00    -0.237 OA
ATOM    102  O   UNL A   1      53.404  39.597  26.830  1.00  0.00    -0.744 OA
ENDBRANCH  98  99
ENDBRANCH  72  93
ENDBRANCH  46  47
ENDBRANCH  38  41
ENDBRANCH  36  37
ENDBRANCH  35  36
ENDBRANCH  34  35
ENDBRANCH   1  34
TORSDOF 20
ENDMDL
