MODEL 1
REMARK VINA RESULT:     -12.1      0.000      0.000
REMARK SMILES CN1C(=O)[C@@H]2CC=CC[C@]2(C(=O)NCCCCCCNC(=O)c2ccc(-c3c4nc(c(-c5ccc(S(=O)(=O)[O-])cc5)c5ccc([nH]5)c(-c5ccc(S(=O)(=O)[O-])cc5)c5nc(c(-c6ccc(S(=O)(=O)[O-])cc6)c6ccc3[nH]6)C=C5)C=C4)cc2)[C@H]1c1ccccc1
REMARK SMILES IDX 17 1 16 2 15 3 14 4 13 5 11 6 12 7 10 9 1 10 2 11 3 12 83 13
REMARK SMILES IDX 4 14 5 15 6 16 9 17 7 18 8 19 84 20 85 21 89 22 86 23 88 24
REMARK SMILES IDX 87 25 18 26 19 27 20 28 21 29 22 31 23 32 24 33 82 34 25 35
REMARK SMILES IDX 81 36 26 37 27 38 28 39 75 40 29 41 80 42 74 43 76 44 30 45
REMARK SMILES IDX 79 46 73 47 72 48 31 50 61 51 42 52 60 53 43 54 46 55 59 56
REMARK SMILES IDX 77 57 44 58 45 59 58 61 78 62 47 63 32 64 33 65 41 66 34 67
REMARK SMILES IDX 40 68 35 69 36 70 37 71 38 72 39 73 62 74 63 75 71 76 64 77
REMARK SMILES IDX 70 78 65 79 66 80 67 81 68 82 69 83 48 84 49 85 57 86 50 87
REMARK SMILES IDX 56 88 51 89 52 90 53 91 54 92 55 93
REMARK H PARENT 13 8 20 30 76 49 46 60
REMARK Flexibility Score: inf
ROOT
ATOM      1  C   UNL A   1      40.191  21.550  26.418  1.00  0.00     0.002 C 
ENDROOT
BRANCH   1   2
ATOM      2  C   UNL A   1      38.812  21.844  25.811  1.00  0.00     0.002 C 
BRANCH   2   3
ATOM      3  C   UNL A   1      38.197  23.210  26.105  1.00  0.00     0.021 C 
BRANCH   3   4
ATOM      4  C   UNL A   1      36.710  23.381  25.816  1.00  0.00     0.116 C 
BRANCH   4   5
ATOM      5  N   UNL A   1      35.693  23.248  26.858  1.00  0.00    -0.356 N 
ATOM      6  C   UNL A   1      34.310  23.064  26.722  1.00  0.00     0.229 C 
ATOM      7  O   UNL A   1      33.706  22.523  27.650  1.00  0.00    -0.274 OA
ATOM      8  H   UNL A   1      36.025  23.296  27.783  1.00  0.00     0.163 HD
BRANCH   6   9
ATOM      9  C   UNL A   1      33.547  23.658  25.503  1.00  0.00     0.089 C 
ATOM     10  C   UNL A   1      32.684  22.701  21.988  1.00  0.00     0.147 C 
ATOM     11  N   UNL A   1      32.599  22.955  23.412  1.00  0.00    -0.337 N 
ATOM     12  C   UNL A   1      31.571  23.594  24.063  1.00  0.00     0.227 C 
ATOM     13  C   UNL A   1      33.701  22.671  24.281  1.00  0.00     0.131 C 
ATOM     14  O   UNL A   1      30.526  23.941  23.548  1.00  0.00    -0.275 OA
ATOM     15  C   UNL A   1      31.972  23.757  25.538  1.00  0.00     0.101 C 
ATOM     16  C   UNL A   1      31.261  24.976  26.122  1.00  0.00     0.041 C 
ATOM     17  C   UNL A   1      34.180  25.083  25.371  1.00  0.00     0.047 C 
ATOM     18  C   UNL A   1      32.101  26.188  26.271  1.00  0.00    -0.030 C 
ATOM     19  C   UNL A   1      33.391  26.236  25.933  1.00  0.00    -0.030 C 
BRANCH  13  20
ATOM     20  C   UNL A   1      33.746  21.168  24.631  1.00  0.00    -0.024 A 
ATOM     21  C   UNL A   1      34.948  20.448  24.746  1.00  0.00     0.006 A 
ATOM     22  C   UNL A   1      32.555  20.430  24.711  1.00  0.00     0.006 A 
ATOM     23  C   UNL A   1      34.970  19.053  24.719  1.00  0.00     0.000 A 
ATOM     24  C   UNL A   1      32.573  19.029  24.679  1.00  0.00     0.000 A 
ATOM     25  C   UNL A   1      33.782  18.343  24.640  1.00  0.00     0.000 A 
ENDBRANCH  13  20
ENDBRANCH   6   9
ENDBRANCH   4   5
ENDBRANCH   3   4
ENDBRANCH   2   3
ENDBRANCH   1   2
BRANCH   1  26
ATOM     26  C   UNL A   1      40.640  22.410  27.608  1.00  0.00     0.021 C 
BRANCH  26  27
ATOM     27  C   UNL A   1      41.920  23.219  27.414  1.00  0.00     0.116 C 
BRANCH  27  28
ATOM     28  N   UNL A   1      41.849  24.089  26.255  1.00  0.00    -0.352 N 
ATOM     29  C   UNL A   1      41.405  25.379  26.131  1.00  0.00     0.251 C 
ATOM     30  H   UNL A   1      42.175  23.686  25.418  1.00  0.00     0.163 HD
ATOM     31  O   UNL A   1      41.220  25.837  25.005  1.00  0.00    -0.269 OA
BRANCH  29  32
ATOM     32  C   UNL A   1      41.150  26.223  27.320  1.00  0.00     0.039 A 
ATOM     33  C   UNL A   1      42.066  27.235  27.624  1.00  0.00     0.014 A 
ATOM     34  C   UNL A   1      40.072  25.984  28.176  1.00  0.00     0.014 A 
ATOM     35  C   UNL A   1      41.885  28.017  28.765  1.00  0.00     0.010 A 
ATOM     36  C   UNL A   1      39.846  26.819  29.271  1.00  0.00     0.010 A 
ATOM     37  C   UNL A   1      40.761  27.832  29.588  1.00  0.00    -0.014 A 
BRANCH  37  38
ATOM     38  C   UNL A   1      40.550  28.703  30.773  1.00  0.00     0.031 A 
ATOM     39  C   UNL A   1      41.405  28.554  32.004  1.00  0.00     0.074 A 
ATOM     40  C   UNL A   1      39.577  29.635  30.734  1.00  0.00     0.049 A 
ATOM     41  N   UNL A   1      41.409  29.277  33.095  1.00  0.00    -0.248 NA
ATOM     42  C   UNL A   1      42.362  27.435  32.026  1.00  0.00     0.031 C 
ATOM     43  C   UNL A   1      38.648  29.838  29.618  1.00  0.00     0.029 A 
ATOM     44  N   UNL A   1      39.218  30.598  31.643  1.00  0.00    -0.354 N 
ATOM     45  C   UNL A   1      42.361  28.703  33.929  1.00  0.00     0.074 A 
ATOM     46  C   UNL A   1      42.869  27.535  33.246  1.00  0.00     0.031 C 
ATOM     47  C   UNL A   1      37.864  30.895  29.885  1.00  0.00     0.029 A 
ATOM     48  C   UNL A   1      38.206  31.419  31.203  1.00  0.00     0.049 A 
ATOM     49  H   UNL A   1      39.644  30.692  32.525  1.00  0.00     0.167 HD
ATOM     50  C   UNL A   1      42.790  29.123  35.144  1.00  0.00     0.031 A 
ATOM     51  C   UNL A   1      37.625  32.484  31.788  1.00  0.00     0.031 A 
ATOM     52  C   UNL A   1      42.276  30.288  35.819  1.00  0.00     0.049 A 
ATOM     53  C   UNL A   1      38.125  32.935  33.132  1.00  0.00     0.074 A 
ATOM     54  C   UNL A   1      42.677  30.828  37.029  1.00  0.00     0.029 A 
ATOM     55  N   UNL A   1      41.248  31.088  35.346  1.00  0.00    -0.354 N 
ATOM     56  N   UNL A   1      39.080  32.422  33.872  1.00  0.00    -0.248 NA
ATOM     57  C   UNL A   1      37.484  34.123  33.708  1.00  0.00     0.031 C 
ATOM     58  C   UNL A   1      41.848  31.919  37.316  1.00  0.00     0.029 A 
ATOM     59  C   UNL A   1      40.982  32.103  36.250  1.00  0.00     0.049 A 
ATOM     60  H   UNL A   1      40.776  30.955  34.492  1.00  0.00     0.167 HD
ATOM     61  C   UNL A   1      39.172  33.244  34.991  1.00  0.00     0.074 A 
ATOM     62  C   UNL A   1      38.195  34.298  34.813  1.00  0.00     0.031 C 
ATOM     63  C   UNL A   1      39.992  33.136  36.068  1.00  0.00     0.031 A 
BRANCH  50  64
ATOM     64  C   UNL A   1      43.865  28.312  35.827  1.00  0.00    -0.014 A 
ATOM     65  C   UNL A   1      45.229  28.598  35.633  1.00  0.00     0.010 A 
ATOM     66  C   UNL A   1      43.507  27.277  36.710  1.00  0.00     0.010 A 
ATOM     67  C   UNL A   1      46.213  27.840  36.272  1.00  0.00     0.020 A 
ATOM     68  C   UNL A   1      44.487  26.536  37.378  1.00  0.00     0.020 A 
ATOM     69  C   UNL A   1      45.835  26.812  37.142  1.00  0.00     0.054 A 
BRANCH  69  70
ATOM     70  S   UNL A   1      47.134  25.860  37.979  1.00  0.00     0.124 S 
ATOM     71  O   UNL A   1      47.565  24.947  36.924  1.00  0.00    -0.237 OA
ATOM     72  O   UNL A   1      48.098  26.894  38.348  1.00  0.00    -0.237 OA
ATOM     73  O   UNL A   1      46.438  25.232  39.098  1.00  0.00    -0.744 OA
ENDBRANCH  69  70
ENDBRANCH  50  64
BRANCH  51  74
ATOM     74  C   UNL A   1      36.530  33.210  31.089  1.00  0.00    -0.014 A 
ATOM     75  C   UNL A   1      35.234  33.256  31.633  1.00  0.00     0.010 A 
ATOM     76  C   UNL A   1      36.783  33.874  29.875  1.00  0.00     0.010 A 
ATOM     77  C   UNL A   1      34.208  33.932  30.966  1.00  0.00     0.020 A 
ATOM     78  C   UNL A   1      35.769  34.580  29.223  1.00  0.00     0.020 A 
ATOM     79  C   UNL A   1      34.484  34.593  29.765  1.00  0.00     0.054 A 
BRANCH  79  80
ATOM     80  S   UNL A   1      33.150  35.504  28.942  1.00  0.00     0.124 S 
ATOM     81  O   UNL A   1      32.372  35.996  30.074  1.00  0.00    -0.237 OA
ATOM     82  O   UNL A   1      33.880  36.518  28.185  1.00  0.00    -0.237 OA
ATOM     83  O   UNL A   1      32.493  34.484  28.126  1.00  0.00    -0.744 OA
ENDBRANCH  79  80
ENDBRANCH  51  74
BRANCH  63  84
ATOM     84  C   UNL A   1      39.883  34.211  37.118  1.00  0.00    -0.014 A 
ATOM     85  C   UNL A   1      39.201  33.990  38.330  1.00  0.00     0.010 A 
ATOM     86  C   UNL A   1      40.476  35.465  36.888  1.00  0.00     0.010 A 
ATOM     87  C   UNL A   1      39.056  35.024  39.258  1.00  0.00     0.020 A 
ATOM     88  C   UNL A   1      40.365  36.491  37.829  1.00  0.00     0.020 A 
ATOM     89  C   UNL A   1      39.632  36.272  38.996  1.00  0.00     0.054 A 
BRANCH  89  90
ATOM     90  S   UNL A   1      39.420  37.602  40.209  1.00  0.00     0.124 S 
ATOM     91  O   UNL A   1      38.807  36.894  41.330  1.00  0.00    -0.237 OA
ATOM     92  O   UNL A   1      40.789  38.060  40.427  1.00  0.00    -0.237 OA
ATOM     93  O   UNL A   1      38.551  38.557  39.527  1.00  0.00    -0.744 OA
ENDBRANCH  89  90
ENDBRANCH  63  84
ENDBRANCH  37  38
ENDBRANCH  29  32
ENDBRANCH  27  28
ENDBRANCH  26  27
ENDBRANCH   1  26
TORSDOF 17
ENDMDL
MODEL 2
REMARK VINA RESULT:     -12.0      6.343     11.947
REMARK SMILES CN1C(=O)[C@@H]2CC=CC[C@]2(C(=O)NCCCCCCNC(=O)c2ccc(-c3c4nc(c(-c5ccc(S(=O)(=O)[O-])cc5)c5ccc([nH]5)c(-c5ccc(S(=O)(=O)[O-])cc5)c5nc(c(-c6ccc(S(=O)(=O)[O-])cc6)c6ccc3[nH]6)C=C5)C=C4)cc2)[C@H]1c1ccccc1
REMARK SMILES IDX 17 1 16 2 15 3 14 4 13 5 11 6 12 7 10 9 1 10 2 11 3 12 83 13
REMARK SMILES IDX 4 14 5 15 6 16 9 17 7 18 8 19 84 20 85 21 89 22 86 23 88 24
REMARK SMILES IDX 87 25 18 26 19 27 20 28 21 29 22 31 23 32 24 33 82 34 25 35
REMARK SMILES IDX 81 36 26 37 27 38 28 39 75 40 29 41 80 42 74 43 76 44 30 45
REMARK SMILES IDX 79 46 73 47 72 48 31 50 61 51 42 52 60 53 43 54 46 55 59 56
REMARK SMILES IDX 77 57 44 58 45 59 58 61 78 62 47 63 32 64 33 65 41 66 34 67
REMARK SMILES IDX 40 68 35 69 36 70 37 71 38 72 39 73 62 74 63 75 71 76 64 77
REMARK SMILES IDX 70 78 65 79 66 80 67 81 68 82 69 83 48 84 49 85 57 86 50 87
REMARK SMILES IDX 56 88 51 89 52 90 53 91 54 92 55 93
REMARK H PARENT 13 8 20 30 76 49 46 60
REMARK Flexibility Score: inf
ROOT
ATOM      1  C   UNL A   1      33.230  30.429  27.168  1.00  0.00     0.002 C 
ENDROOT
BRANCH   1   2
ATOM      2  C   UNL A   1      33.531  28.926  27.222  1.00  0.00     0.002 C 
BRANCH   2   3
ATOM      3  C   UNL A   1      34.201  28.303  25.998  1.00  0.00     0.021 C 
BRANCH   3   4
ATOM      4  C   UNL A   1      33.291  27.835  24.869  1.00  0.00     0.116 C 
BRANCH   4   5
ATOM      5  N   UNL A   1      33.773  26.985  23.781  1.00  0.00    -0.356 N 
ATOM      6  C   UNL A   1      33.168  25.857  23.209  1.00  0.00     0.229 C 
ATOM      7  O   UNL A   1      33.469  25.566  22.050  1.00  0.00    -0.274 OA
ATOM      8  H   UNL A   1      34.643  27.240  23.398  1.00  0.00     0.163 HD
BRANCH   6   9
ATOM      9  C   UNL A   1      32.262  24.924  24.064  1.00  0.00     0.089 C 
ATOM     10  C   UNL A   1      32.409  21.524  25.624  1.00  0.00     0.147 C 
ATOM     11  N   UNL A   1      32.429  22.961  25.435  1.00  0.00    -0.337 N 
ATOM     12  C   UNL A   1      31.813  23.893  26.235  1.00  0.00     0.227 C 
ATOM     13  C   UNL A   1      33.004  23.545  24.262  1.00  0.00     0.131 C 
ATOM     14  O   UNL A   1      31.252  23.651  27.286  1.00  0.00    -0.275 OA
ATOM     15  C   UNL A   1      31.988  25.272  25.579  1.00  0.00     0.101 C 
ATOM     16  C   UNL A   1      30.831  26.179  25.993  1.00  0.00     0.041 C 
ATOM     17  C   UNL A   1      30.924  24.919  23.254  1.00  0.00     0.047 C 
ATOM     18  C   UNL A   1      29.778  26.371  24.968  1.00  0.00    -0.030 C 
ATOM     19  C   UNL A   1      29.817  25.809  23.757  1.00  0.00    -0.030 C 
BRANCH  13  20
ATOM     20  C   UNL A   1      34.541  23.619  24.387  1.00  0.00    -0.024 A 
ATOM     21  C   UNL A   1      35.411  23.051  23.439  1.00  0.00     0.006 A 
ATOM     22  C   UNL A   1      35.127  24.147  25.547  1.00  0.00     0.006 A 
ATOM     23  C   UNL A   1      36.757  22.823  23.727  1.00  0.00     0.000 A 
ATOM     24  C   UNL A   1      36.477  23.915  25.842  1.00  0.00     0.000 A 
ATOM     25  C   UNL A   1      37.281  23.215  24.949  1.00  0.00     0.000 A 
ENDBRANCH  13  20
ENDBRANCH   6   9
ENDBRANCH   4   5
ENDBRANCH   3   4
ENDBRANCH   2   3
ENDBRANCH   1   2
BRANCH   1  26
ATOM     26  C   UNL A   1      34.228  31.378  27.847  1.00  0.00     0.021 C 
BRANCH  26  27
ATOM     27  C   UNL A   1      35.563  30.767  28.268  1.00  0.00     0.116 C 
BRANCH  27  28
ATOM     28  N   UNL A   1      35.612  30.486  29.692  1.00  0.00    -0.352 N 
ATOM     29  C   UNL A   1      36.549  29.827  30.441  1.00  0.00     0.251 C 
ATOM     30  H   UNL A   1      34.843  30.827  30.204  1.00  0.00     0.163 HD
ATOM     31  O   UNL A   1      36.267  29.504  31.594  1.00  0.00    -0.269 OA
BRANCH  29  32
ATOM     32  C   UNL A   1      37.885  29.502  29.892  1.00  0.00     0.039 A 
ATOM     33  C   UNL A   1      38.903  29.156  30.785  1.00  0.00     0.014 A 
ATOM     34  C   UNL A   1      38.166  29.608  28.527  1.00  0.00     0.014 A 
ATOM     35  C   UNL A   1      40.188  28.892  30.307  1.00  0.00     0.010 A 
ATOM     36  C   UNL A   1      39.428  29.265  28.042  1.00  0.00     0.010 A 
ATOM     37  C   UNL A   1      40.457  28.922  28.928  1.00  0.00    -0.014 A 
BRANCH  37  38
ATOM     38  C   UNL A   1      41.816  28.592  28.425  1.00  0.00     0.031 A 
ATOM     39  C   UNL A   1      42.894  29.641  28.363  1.00  0.00     0.074 A 
ATOM     40  C   UNL A   1      42.074  27.332  28.021  1.00  0.00     0.049 A 
ATOM     41  N   UNL A   1      44.152  29.509  28.025  1.00  0.00    -0.248 NA
ATOM     42  C   UNL A   1      42.508  31.022  28.700  1.00  0.00     0.031 C 
ATOM     43  C   UNL A   1      41.095  26.241  27.982  1.00  0.00     0.029 A 
ATOM     44  N   UNL A   1      43.236  26.749  27.585  1.00  0.00    -0.354 N 
ATOM     45  C   UNL A   1      44.703  30.782  28.106  1.00  0.00     0.074 A 
ATOM     46  C   UNL A   1      43.632  31.684  28.463  1.00  0.00     0.031 C 
ATOM     47  C   UNL A   1      41.710  25.111  27.600  1.00  0.00     0.029 A 
ATOM     48  C   UNL A   1      43.114  25.402  27.330  1.00  0.00     0.049 A 
ATOM     49  H   UNL A   1      44.077  27.246  27.466  1.00  0.00     0.167 HD
ATOM     50  C   UNL A   1      45.991  31.164  27.922  1.00  0.00     0.031 A 
ATOM     51  C   UNL A   1      44.031  24.499  26.934  1.00  0.00     0.031 A 
ATOM     52  C   UNL A   1      47.054  30.259  27.563  1.00  0.00     0.049 A 
ATOM     53  C   UNL A   1      45.454  24.945  26.746  1.00  0.00     0.074 A 
ATOM     54  C   UNL A   1      48.401  30.534  27.402  1.00  0.00     0.029 A 
ATOM     55  N   UNL A   1      46.889  28.906  27.306  1.00  0.00    -0.354 N 
ATOM     56  N   UNL A   1      45.972  26.141  26.901  1.00  0.00    -0.248 NA
ATOM     57  C   UNL A   1      46.420  23.914  26.350  1.00  0.00     0.031 C 
ATOM     58  C   UNL A   1      49.039  29.359  26.987  1.00  0.00     0.029 A 
ATOM     59  C   UNL A   1      48.104  28.337  26.962  1.00  0.00     0.049 A 
ATOM     60  H   UNL A   1      46.034  28.421  27.361  1.00  0.00     0.167 HD
ATOM     61  C   UNL A   1      47.332  25.999  26.648  1.00  0.00     0.074 A 
ATOM     62  C   UNL A   1      47.556  24.597  26.358  1.00  0.00     0.031 C 
ATOM     63  C   UNL A   1      48.309  26.942  26.657  1.00  0.00     0.031 A 
BRANCH  50  64
ATOM     64  C   UNL A   1      46.322  32.626  28.097  1.00  0.00    -0.014 A 
ATOM     65  C   UNL A   1      46.635  33.157  29.363  1.00  0.00     0.010 A 
ATOM     66  C   UNL A   1      46.362  33.474  26.976  1.00  0.00     0.010 A 
ATOM     67  C   UNL A   1      46.939  34.513  29.510  1.00  0.00     0.020 A 
ATOM     68  C   UNL A   1      46.699  34.826  27.113  1.00  0.00     0.020 A 
ATOM     69  C   UNL A   1      46.969  35.340  28.383  1.00  0.00     0.054 A 
BRANCH  69  70
ATOM     70  S   UNL A   1      47.394  37.090  28.600  1.00  0.00     0.124 S 
ATOM     71  O   UNL A   1      47.009  37.322  29.990  1.00  0.00    -0.237 OA
ATOM     72  O   UNL A   1      48.831  37.105  28.336  1.00  0.00    -0.237 OA
ATOM     73  O   UNL A   1      46.572  37.773  27.605  1.00  0.00    -0.744 OA
ENDBRANCH  69  70
ENDBRANCH  50  64
BRANCH  51  74
ATOM     74  C   UNL A   1      43.633  23.080  26.722  1.00  0.00    -0.014 A 
ATOM     75  C   UNL A   1      44.060  22.375  25.583  1.00  0.00     0.010 A 
ATOM     76  C   UNL A   1      42.831  22.421  27.671  1.00  0.00     0.010 A 
ATOM     77  C   UNL A   1      43.674  21.045  25.386  1.00  0.00     0.020 A 
ATOM     78  C   UNL A   1      42.471  21.083  27.495  1.00  0.00     0.020 A 
ATOM     79  C   UNL A   1      42.884  20.407  26.347  1.00  0.00     0.054 A 
BRANCH  79  80
ATOM     80  S   UNL A   1      42.435  18.668  26.095  1.00  0.00     0.124 S 
ATOM     81  O   UNL A   1      43.334  18.275  25.015  1.00  0.00    -0.237 OA
ATOM     82  O   UNL A   1      42.715  18.077  27.401  1.00  0.00    -0.237 OA
ATOM     83  O   UNL A   1      41.018  18.729  25.740  1.00  0.00    -0.744 OA
ENDBRANCH  79  80
ENDBRANCH  51  74
BRANCH  63  84
ATOM     84  C   UNL A   1      49.713  26.473  26.375  1.00  0.00    -0.014 A 
ATOM     85  C   UNL A   1      50.231  26.448  25.067  1.00  0.00     0.010 A 
ATOM     86  C   UNL A   1      50.528  26.052  27.441  1.00  0.00     0.010 A 
ATOM     87  C   UNL A   1      51.512  25.945  24.824  1.00  0.00     0.020 A 
ATOM     88  C   UNL A   1      51.822  25.583  27.207  1.00  0.00     0.020 A 
ATOM     89  C   UNL A   1      52.296  25.507  25.897  1.00  0.00     0.054 A 
BRANCH  89  90
ATOM     90  S   UNL A   1      53.949  24.847  25.556  1.00  0.00     0.124 S 
ATOM     91  O   UNL A   1      54.419  25.738  24.499  1.00  0.00    -0.237 OA
ATOM     92  O   UNL A   1      54.623  24.988  26.844  1.00  0.00    -0.237 OA
ATOM     93  O   UNL A   1      53.693  23.470  25.141  1.00  0.00    -0.744 OA
ENDBRANCH  89  90
ENDBRANCH  63  84
ENDBRANCH  37  38
ENDBRANCH  29  32
ENDBRANCH  27  28
ENDBRANCH  26  27
ENDBRANCH   1  26
TORSDOF 17
ENDMDL
MODEL 3
REMARK VINA RESULT:     -11.9      0.979      2.631
REMARK SMILES CN1C(=O)[C@@H]2CC=CC[C@]2(C(=O)NCCCCCCNC(=O)c2ccc(-c3c4nc(c(-c5ccc(S(=O)(=O)[O-])cc5)c5ccc([nH]5)c(-c5ccc(S(=O)(=O)[O-])cc5)c5nc(c(-c6ccc(S(=O)(=O)[O-])cc6)c6ccc3[nH]6)C=C5)C=C4)cc2)[C@H]1c1ccccc1
REMARK SMILES IDX 17 1 16 2 15 3 14 4 13 5 11 6 12 7 10 9 1 10 2 11 3 12 83 13
REMARK SMILES IDX 4 14 5 15 6 16 9 17 7 18 8 19 84 20 85 21 89 22 86 23 88 24
REMARK SMILES IDX 87 25 18 26 19 27 20 28 21 29 22 31 23 32 24 33 82 34 25 35
REMARK SMILES IDX 81 36 26 37 27 38 28 39 75 40 29 41 80 42 74 43 76 44 30 45
REMARK SMILES IDX 79 46 73 47 72 48 31 50 61 51 42 52 60 53 43 54 46 55 59 56
REMARK SMILES IDX 77 57 44 58 45 59 58 61 78 62 47 63 32 64 33 65 41 66 34 67
REMARK SMILES IDX 40 68 35 69 36 70 37 71 38 72 39 73 62 74 63 75 71 76 64 77
REMARK SMILES IDX 70 78 65 79 66 80 67 81 68 82 69 83 48 84 49 85 57 86 50 87
REMARK SMILES IDX 56 88 51 89 52 90 53 91 54 92 55 93
REMARK H PARENT 13 8 20 30 76 49 46 60
REMARK Flexibility Score: inf
ROOT
ATOM      1  C   UNL A   1      40.159  21.753  26.335  1.00  0.00     0.002 C 
ENDROOT
BRANCH   1   2
ATOM      2  C   UNL A   1      38.697  22.048  25.971  1.00  0.00     0.002 C 
BRANCH   2   3
ATOM      3  C   UNL A   1      38.275  23.514  25.905  1.00  0.00     0.021 C 
BRANCH   3   4
ATOM      4  C   UNL A   1      36.864  23.811  25.413  1.00  0.00     0.116 C 
BRANCH   4   5
ATOM      5  N   UNL A   1      36.390  23.380  24.099  1.00  0.00    -0.356 N 
ATOM      6  C   UNL A   1      35.082  23.095  23.684  1.00  0.00     0.229 C 
ATOM      7  O   UNL A   1      34.820  23.203  22.484  1.00  0.00    -0.274 OA
ATOM      8  H   UNL A   1      37.085  23.275  23.411  1.00  0.00     0.163 HD
BRANCH   6   9
ATOM      9  C   UNL A   1      34.040  22.517  24.685  1.00  0.00     0.089 C 
ATOM     10  C   UNL A   1      31.613  23.764  27.248  1.00  0.00     0.147 C 
ATOM     11  N   UNL A   1      32.183  23.243  26.022  1.00  0.00    -0.337 N 
ATOM     12  C   UNL A   1      31.688  22.200  25.276  1.00  0.00     0.227 C 
ATOM     13  C   UNL A   1      33.449  23.705  25.540  1.00  0.00     0.131 C 
ATOM     14  O   UNL A   1      30.632  21.634  25.480  1.00  0.00    -0.275 OA
ATOM     15  C   UNL A   1      32.687  21.911  24.143  1.00  0.00     0.101 C 
ATOM     16  C   UNL A   1      32.576  20.443  23.736  1.00  0.00     0.041 C 
ATOM     17  C   UNL A   1      34.866  21.422  25.437  1.00  0.00     0.047 C 
ATOM     18  C   UNL A   1      33.652  19.561  24.245  1.00  0.00    -0.030 C 
ATOM     19  C   UNL A   1      34.663  19.994  25.003  1.00  0.00    -0.030 C 
BRANCH  13  20
ATOM     20  C   UNL A   1      33.293  25.053  24.802  1.00  0.00    -0.024 A 
ATOM     21  C   UNL A   1      34.037  26.197  25.140  1.00  0.00     0.006 A 
ATOM     22  C   UNL A   1      32.283  25.215  23.842  1.00  0.00     0.006 A 
ATOM     23  C   UNL A   1      33.655  27.470  24.714  1.00  0.00     0.000 A 
ATOM     24  C   UNL A   1      31.892  26.492  23.417  1.00  0.00     0.000 A 
ATOM     25  C   UNL A   1      32.553  27.622  23.887  1.00  0.00     0.000 A 
ENDBRANCH  13  20
ENDBRANCH   6   9
ENDBRANCH   4   5
ENDBRANCH   3   4
ENDBRANCH   2   3
ENDBRANCH   1   2
BRANCH   1  26
ATOM     26  C   UNL A   1      40.683  22.309  27.667  1.00  0.00     0.021 C 
BRANCH  26  27
ATOM     27  C   UNL A   1      41.885  23.248  27.583  1.00  0.00     0.116 C 
BRANCH  27  28
ATOM     28  N   UNL A   1      41.830  24.106  26.413  1.00  0.00    -0.352 N 
ATOM     29  C   UNL A   1      41.399  25.398  26.271  1.00  0.00     0.251 C 
ATOM     30  H   UNL A   1      42.157  23.690  25.583  1.00  0.00     0.163 HD
ATOM     31  O   UNL A   1      41.226  25.844  25.139  1.00  0.00    -0.269 OA
BRANCH  29  32
ATOM     32  C   UNL A   1      41.145  26.258  27.448  1.00  0.00     0.039 A 
ATOM     33  C   UNL A   1      42.053  27.282  27.731  1.00  0.00     0.014 A 
ATOM     34  C   UNL A   1      40.073  26.023  28.315  1.00  0.00     0.014 A 
ATOM     35  C   UNL A   1      41.872  28.081  28.861  1.00  0.00     0.010 A 
ATOM     36  C   UNL A   1      39.847  26.873  29.398  1.00  0.00     0.010 A 
ATOM     37  C   UNL A   1      40.755  27.899  29.693  1.00  0.00    -0.014 A 
BRANCH  37  38
ATOM     38  C   UNL A   1      40.544  28.786  30.866  1.00  0.00     0.031 A 
ATOM     39  C   UNL A   1      41.396  28.652  32.101  1.00  0.00     0.074 A 
ATOM     40  C   UNL A   1      39.573  29.720  30.813  1.00  0.00     0.049 A 
ATOM     41  N   UNL A   1      41.400  29.390  33.182  1.00  0.00    -0.248 NA
ATOM     42  C   UNL A   1      42.351  27.532  32.139  1.00  0.00     0.031 C 
ATOM     43  C   UNL A   1      38.646  29.909  29.693  1.00  0.00     0.029 A 
ATOM     44  N   UNL A   1      39.214  30.695  31.708  1.00  0.00    -0.354 N 
ATOM     45  C   UNL A   1      42.350  28.825  34.025  1.00  0.00     0.074 A 
ATOM     46  C   UNL A   1      42.857  27.647  33.359  1.00  0.00     0.031 C 
ATOM     47  C   UNL A   1      37.864  30.971  29.945  1.00  0.00     0.029 A 
ATOM     48  C   UNL A   1      38.205  31.513  31.255  1.00  0.00     0.049 A 
ATOM     49  H   UNL A   1      39.639  30.800  32.590  1.00  0.00     0.167 HD
ATOM     50  C   UNL A   1      42.778  29.261  35.235  1.00  0.00     0.031 A 
ATOM     51  C   UNL A   1      37.625  32.586  31.826  1.00  0.00     0.031 A 
ATOM     52  C   UNL A   1      42.265  30.436  35.894  1.00  0.00     0.049 A 
ATOM     53  C   UNL A   1      38.124  33.055  33.163  1.00  0.00     0.074 A 
ATOM     54  C   UNL A   1      42.664  30.992  37.097  1.00  0.00     0.029 A 
ATOM     55  N   UNL A   1      41.239  31.232  35.408  1.00  0.00    -0.354 N 
ATOM     56  N   UNL A   1      39.076  32.550  33.912  1.00  0.00    -0.248 NA
ATOM     57  C   UNL A   1      37.483  34.251  33.723  1.00  0.00     0.031 C 
ATOM     58  C   UNL A   1      41.838  32.089  37.367  1.00  0.00     0.029 A 
ATOM     59  C   UNL A   1      40.974  32.260  36.298  1.00  0.00     0.049 A 
ATOM     60  H   UNL A   1      40.768  31.088  34.555  1.00  0.00     0.167 HD
ATOM     61  C   UNL A   1      39.168  33.386  35.020  1.00  0.00     0.074 A 
ATOM     62  C   UNL A   1      38.193  34.441  34.826  1.00  0.00     0.031 C 
ATOM     63  C   UNL A   1      39.986  33.292  36.100  1.00  0.00     0.031 A 
BRANCH  50  64
ATOM     64  C   UNL A   1      43.849  28.458  35.931  1.00  0.00    -0.014 A 
ATOM     65  C   UNL A   1      45.215  28.738  35.734  1.00  0.00     0.010 A 
ATOM     66  C   UNL A   1      43.488  27.436  36.828  1.00  0.00     0.010 A 
ATOM     67  C   UNL A   1      46.196  27.986  36.385  1.00  0.00     0.020 A 
ATOM     68  C   UNL A   1      44.466  26.702  37.508  1.00  0.00     0.020 A 
ATOM     69  C   UNL A   1      45.815  26.972  37.269  1.00  0.00     0.054 A 
BRANCH  69  70
ATOM     70  S   UNL A   1      47.111  26.029  38.121  1.00  0.00     0.124 S 
ATOM     71  O   UNL A   1      46.362  25.401  39.206  1.00  0.00    -0.237 OA
ATOM     72  O   UNL A   1      47.584  25.123  37.077  1.00  0.00    -0.237 OA
ATOM     73  O   UNL A   1      48.067  27.052  38.536  1.00  0.00    -0.744 OA
ENDBRANCH  69  70
ENDBRANCH  50  64
BRANCH  51  74
ATOM     74  C   UNL A   1      36.532  33.305  31.115  1.00  0.00    -0.014 A 
ATOM     75  C   UNL A   1      36.782  33.989  29.912  1.00  0.00     0.010 A 
ATOM     76  C   UNL A   1      35.225  33.298  31.636  1.00  0.00     0.010 A 
ATOM     77  C   UNL A   1      35.752  34.670  29.255  1.00  0.00     0.020 A 
ATOM     78  C   UNL A   1      34.186  33.948  30.965  1.00  0.00     0.020 A 
ATOM     79  C   UNL A   1      34.459  34.642  29.786  1.00  0.00     0.054 A 
BRANCH  79  80
ATOM     80  S   UNL A   1      33.129  35.491  28.892  1.00  0.00     0.124 S 
ATOM     81  O   UNL A   1      33.871  36.444  28.075  1.00  0.00    -0.237 OA
ATOM     82  O   UNL A   1      32.487  34.397  28.167  1.00  0.00    -0.237 OA
ATOM     83  O   UNL A   1      32.321  36.077  29.960  1.00  0.00    -0.744 OA
ENDBRANCH  79  80
ENDBRANCH  51  74
BRANCH  63  84
ATOM     84  C   UNL A   1      39.877  34.381  37.135  1.00  0.00    -0.014 A 
ATOM     85  C   UNL A   1      39.009  34.265  38.237  1.00  0.00     0.010 A 
ATOM     86  C   UNL A   1      40.661  35.542  37.002  1.00  0.00     0.010 A 
ATOM     87  C   UNL A   1      38.876  35.319  39.145  1.00  0.00     0.020 A 
ATOM     88  C   UNL A   1      40.559  36.581  37.929  1.00  0.00     0.020 A 
ATOM     89  C   UNL A   1      39.647  36.474  38.980  1.00  0.00     0.054 A 
BRANCH  89  90
ATOM     90  S   UNL A   1      39.448  37.832  40.164  1.00  0.00     0.124 S 
ATOM     91  O   UNL A   1      40.690  38.579  39.980  1.00  0.00    -0.237 OA
ATOM     92  O   UNL A   1      38.237  38.497  39.691  1.00  0.00    -0.237 OA
ATOM     93  O   UNL A   1      39.316  37.153  41.451  1.00  0.00    -0.744 OA
ENDBRANCH  89  90
ENDBRANCH  63  84
ENDBRANCH  37  38
ENDBRANCH  29  32
ENDBRANCH  27  28
ENDBRANCH  26  27
ENDBRANCH   1  26
TORSDOF 17
ENDMDL
