MODEL 1
REMARK VINA RESULT:      -8.9      0.000      0.000
REMARK SMILES Cc1cc(N2CCC[C@H]2C2CCCC2)cc(C(=O)NCCCCCCNC(=O)c2ccc(-c3c4nc(c(-c5ccc(S(=O)(=O)[O-])cc5)c5ccc([nH]5)c(-c5ccc(S(=O)(=O)[O-])cc5)c5nc(c(-c6ccc(S(=O)(=O)[O-])cc6)c6ccc3[nH]6)C=C5)C=C4)cc2)c1N
REMARK SMILES IDX 23 1 22 2 21 3 20 4 19 5 17 6 18 7 16 9 1 10 2 11 3 12 89 13
REMARK SMILES IDX 4 14 15 15 90 16 5 19 6 20 9 21 7 22 8 23 10 24 11 25 14 26
REMARK SMILES IDX 12 27 13 28 24 29 25 30 26 31 27 32 28 34 29 35 30 36 88 37
REMARK SMILES IDX 31 38 87 39 32 40 33 41 34 42 81 43 35 44 86 45 80 46 82 47
REMARK SMILES IDX 36 48 85 49 79 50 78 51 37 53 67 54 48 55 66 56 49 57 52 58
REMARK SMILES IDX 65 59 83 60 50 61 51 62 64 64 84 65 53 66 38 67 39 68 47 69
REMARK SMILES IDX 40 70 46 71 41 72 42 73 43 74 44 75 45 76 68 77 69 78 77 79
REMARK SMILES IDX 70 80 76 81 71 82 72 83 73 84 74 85 75 86 54 87 55 88 63 89
REMARK SMILES IDX 56 90 62 91 57 92 58 93 59 94 60 95 61 96
REMARK H PARENT 19 8 90 17 90 18 26 33 82 52 52 63
REMARK Flexibility Score: inf
ROOT
ATOM      1  C   UNL A   1      35.149  32.654  30.577  1.00  0.00     0.002 C 
ENDROOT
BRANCH   1   2
ATOM      2  C   UNL A   1      34.782  32.954  32.040  1.00  0.00     0.002 C 
BRANCH   2   3
ATOM      3  C   UNL A   1      35.905  32.904  33.092  1.00  0.00     0.021 C 
BRANCH   3   4
ATOM      4  C   UNL A   1      37.173  32.138  32.676  1.00  0.00     0.116 C 
BRANCH   4   5
ATOM      5  N   UNL A   1      36.999  30.700  32.827  1.00  0.00    -0.352 N 
ATOM      6  C   UNL A   1      37.792  29.652  33.238  1.00  0.00     0.253 C 
ATOM      7  O   UNL A   1      37.204  28.567  33.332  1.00  0.00    -0.269 OA
ATOM      8  H   UNL A   1      36.095  30.405  32.574  1.00  0.00     0.163 HD
BRANCH   6   9
ATOM      9  C   UNL A   1      39.257  29.720  33.598  1.00  0.00     0.065 A 
ATOM     10  C   UNL A   1      42.513  27.883  32.718  1.00  0.00     0.046 C 
ATOM     11  C   UNL A   1      41.524  28.820  33.361  1.00  0.00    -0.025 A 
ATOM     12  C   UNL A   1      41.998  29.816  34.236  1.00  0.00     0.031 A 
ATOM     13  C   UNL A   1      40.144  28.747  33.058  1.00  0.00     0.047 A 
ATOM     14  C   UNL A   1      41.156  30.812  34.743  1.00  0.00     0.038 A 
ATOM     15  C   UNL A   1      39.805  30.783  34.335  1.00  0.00     0.042 A 
BRANCH  13  16
ATOM     16  N   UNL A   1      39.666  27.641  32.339  1.00  0.00    -0.398 N 
ATOM     17  H   UNL A   1      40.257  27.172  31.706  1.00  0.00     0.156 HD
ATOM     18  H   UNL A   1      38.740  27.333  32.468  1.00  0.00     0.156 HD
ENDBRANCH  13  16
BRANCH  14  19
ATOM     19  N   UNL A   1      41.627  31.831  35.587  1.00  0.00    -0.368 N 
ATOM     20  C   UNL A   1      43.007  31.688  36.075  1.00  0.00     0.117 C 
ATOM     21  C   UNL A   1      40.750  32.299  36.710  1.00  0.00     0.085 C 
ATOM     22  C   UNL A   1      42.887  31.568  37.589  1.00  0.00     0.024 C 
ATOM     23  C   UNL A   1      41.691  32.434  37.925  1.00  0.00     0.027 C 
BRANCH  21  24
ATOM     24  C   UNL A   1      40.027  33.641  36.446  1.00  0.00     0.011 C 
ATOM     25  C   UNL A   1      40.083  34.685  37.570  1.00  0.00     0.006 C 
ATOM     26  C   UNL A   1      40.584  34.403  35.263  1.00  0.00     0.006 C 
ATOM     27  C   UNL A   1      39.757  36.009  36.897  1.00  0.00     0.000 C 
ATOM     28  C   UNL A   1      40.211  35.855  35.460  1.00  0.00     0.000 C 
ENDBRANCH  21  24
ENDBRANCH  14  19
ENDBRANCH   6   9
ENDBRANCH   4   5
ENDBRANCH   3   4
ENDBRANCH   2   3
ENDBRANCH   1   2
BRANCH   1  29
ATOM     29  C   UNL A   1      34.334  33.329  29.472  1.00  0.00     0.021 C 
BRANCH  29  30
ATOM     30  C   UNL A   1      34.492  32.798  28.050  1.00  0.00     0.116 C 
BRANCH  30  31
ATOM     31  N   UNL A   1      33.811  31.528  27.875  1.00  0.00    -0.352 N 
ATOM     32  C   UNL A   1      34.318  30.254  27.781  1.00  0.00     0.251 C 
ATOM     33  H   UNL A   1      32.830  31.589  27.815  1.00  0.00     0.163 HD
ATOM     34  O   UNL A   1      33.583  29.354  27.376  1.00  0.00    -0.269 OA
BRANCH  32  35
ATOM     35  C   UNL A   1      35.722  29.937  28.147  1.00  0.00     0.039 A 
ATOM     36  C   UNL A   1      36.716  30.074  27.169  1.00  0.00     0.014 A 
ATOM     37  C   UNL A   1      36.066  29.424  29.401  1.00  0.00     0.014 A 
ATOM     38  C   UNL A   1      38.044  29.735  27.457  1.00  0.00     0.010 A 
ATOM     39  C   UNL A   1      37.402  29.141  29.706  1.00  0.00     0.010 A 
ATOM     40  C   UNL A   1      38.406  29.283  28.735  1.00  0.00    -0.014 A 
BRANCH  40  41
ATOM     41  C   UNL A   1      39.821  28.948  29.062  1.00  0.00     0.031 A 
ATOM     42  C   UNL A   1      40.726  29.975  29.696  1.00  0.00     0.074 A 
ATOM     43  C   UNL A   1      40.313  27.731  28.752  1.00  0.00     0.049 A 
ATOM     44  N   UNL A   1      41.995  29.878  30.006  1.00  0.00    -0.248 NA
ATOM     45  C   UNL A   1      40.132  31.284  30.009  1.00  0.00     0.031 C 
ATOM     46  C   UNL A   1      39.558  26.650  28.114  1.00  0.00     0.029 A 
ATOM     47  N   UNL A   1      41.568  27.197  28.927  1.00  0.00    -0.354 N 
ATOM     48  C   UNL A   1      42.356  31.116  30.530  1.00  0.00     0.074 A 
ATOM     49  C   UNL A   1      41.181  31.959  30.462  1.00  0.00     0.031 C 
ATOM     50  C   UNL A   1      40.357  25.581  27.968  1.00  0.00     0.029 A 
ATOM     51  C   UNL A   1      41.690  25.907  28.465  1.00  0.00     0.049 A 
ATOM     52  H   UNL A   1      42.309  27.693  29.344  1.00  0.00     0.167 HD
ATOM     53  C   UNL A   1      43.550  31.512  31.035  1.00  0.00     0.031 A 
ATOM     54  C   UNL A   1      42.755  25.081  28.433  1.00  0.00     0.031 A 
ATOM     55  C   UNL A   1      44.716  30.671  31.121  1.00  0.00     0.049 A 
ATOM     56  C   UNL A   1      44.073  25.548  28.991  1.00  0.00     0.074 A 
ATOM     57  C   UNL A   1      45.953  30.970  31.668  1.00  0.00     0.029 A 
ATOM     58  N   UNL A   1      44.793  29.370  30.649  1.00  0.00    -0.354 N 
ATOM     59  N   UNL A   1      44.374  26.704  29.533  1.00  0.00    -0.248 NA
ATOM     60  C   UNL A   1      45.191  24.596  28.941  1.00  0.00     0.031 C 
ATOM     61  C   UNL A   1      46.793  29.868  31.481  1.00  0.00     0.029 A 
ATOM     62  C   UNL A   1      46.062  28.861  30.872  1.00  0.00     0.049 A 
ATOM     63  H   UNL A   1      44.055  28.880  30.219  1.00  0.00     0.167 HD
ATOM     64  C   UNL A   1      45.708  26.604  29.916  1.00  0.00     0.074 A 
ATOM     65  C   UNL A   1      46.150  25.275  29.556  1.00  0.00     0.031 C 
ATOM     66  C   UNL A   1      46.493  27.534  30.514  1.00  0.00     0.031 A 
BRANCH  53  67
ATOM     67  C   UNL A   1      43.664  32.929  31.539  1.00  0.00    -0.014 A 
ATOM     68  C   UNL A   1      43.597  33.219  32.913  1.00  0.00     0.010 A 
ATOM     69  C   UNL A   1      43.908  33.975  30.631  1.00  0.00     0.010 A 
ATOM     70  C   UNL A   1      43.737  34.533  33.367  1.00  0.00     0.020 A 
ATOM     71  C   UNL A   1      44.075  35.288  31.082  1.00  0.00     0.020 A 
ATOM     72  C   UNL A   1      43.974  35.560  32.449  1.00  0.00     0.054 A 
BRANCH  72  73
ATOM     73  S   UNL A   1      44.187  37.253  33.065  1.00  0.00     0.124 S 
ATOM     74  O   UNL A   1      44.289  38.015  31.820  1.00  0.00    -0.237 OA
ATOM     75  O   UNL A   1      42.958  37.470  33.831  1.00  0.00    -0.237 OA
ATOM     76  O   UNL A   1      45.407  37.187  33.857  1.00  0.00    -0.744 OA
ENDBRANCH  72  73
ENDBRANCH  53  67
BRANCH  54  77
ATOM     77  C   UNL A   1      42.621  23.716  27.852  1.00  0.00    -0.014 A 
ATOM     78  C   UNL A   1      42.099  22.659  28.618  1.00  0.00     0.010 A 
ATOM     79  C   UNL A   1      43.025  23.466  26.527  1.00  0.00     0.010 A 
ATOM     80  C   UNL A   1      42.005  21.372  28.079  1.00  0.00     0.020 A 
ATOM     81  C   UNL A   1      42.906  22.187  25.976  1.00  0.00     0.020 A 
ATOM     82  C   UNL A   1      42.410  21.144  26.760  1.00  0.00     0.054 A 
BRANCH  82  83
ATOM     83  S   UNL A   1      42.244  19.476  26.067  1.00  0.00     0.124 S 
ATOM     84  O   UNL A   1      42.713  18.642  27.169  1.00  0.00    -0.237 OA
ATOM     85  O   UNL A   1      40.815  19.395  25.775  1.00  0.00    -0.237 OA
ATOM     86  O   UNL A   1      43.112  19.508  24.892  1.00  0.00    -0.744 OA
ENDBRANCH  82  83
ENDBRANCH  54  77
BRANCH  66  87
ATOM     87  C   UNL A   1      47.905  27.137  30.856  1.00  0.00    -0.014 A 
ATOM     88  C   UNL A   1      48.219  26.547  32.092  1.00  0.00     0.010 A 
ATOM     89  C   UNL A   1      48.924  27.310  29.900  1.00  0.00     0.010 A 
ATOM     90  C   UNL A   1      49.532  26.162  32.378  1.00  0.00     0.020 A 
ATOM     91  C   UNL A   1      50.233  26.903  30.172  1.00  0.00     0.020 A 
ATOM     92  C   UNL A   1      50.531  26.344  31.415  1.00  0.00     0.054 A 
BRANCH  92  93
ATOM     93  S   UNL A   1      52.219  25.797  31.794  1.00  0.00     0.124 S 
ATOM     94  O   UNL A   1      52.587  26.683  32.895  1.00  0.00    -0.237 OA
ATOM     95  O   UNL A   1      52.029  24.394  32.153  1.00  0.00    -0.237 OA
ATOM     96  O   UNL A   1      52.945  26.022  30.545  1.00  0.00    -0.744 OA
ENDBRANCH  92  93
ENDBRANCH  66  87
ENDBRANCH  40  41
ENDBRANCH  32  35
ENDBRANCH  30  31
ENDBRANCH  29  30
ENDBRANCH   1  29
TORSDOF 19
ENDMDL
MODEL 2
REMARK VINA RESULT:      -8.7      4.329     11.333
REMARK SMILES Cc1cc(N2CCC[C@H]2C2CCCC2)cc(C(=O)NCCCCCCNC(=O)c2ccc(-c3c4nc(c(-c5ccc(S(=O)(=O)[O-])cc5)c5ccc([nH]5)c(-c5ccc(S(=O)(=O)[O-])cc5)c5nc(c(-c6ccc(S(=O)(=O)[O-])cc6)c6ccc3[nH]6)C=C5)C=C4)cc2)c1N
REMARK SMILES IDX 23 1 22 2 21 3 20 4 19 5 17 6 18 7 16 9 1 10 2 11 3 12 89 13
REMARK SMILES IDX 4 14 15 15 90 16 5 19 6 20 9 21 7 22 8 23 10 24 11 25 14 26
REMARK SMILES IDX 12 27 13 28 24 29 25 30 26 31 27 32 28 34 29 35 30 36 88 37
REMARK SMILES IDX 31 38 87 39 32 40 33 41 34 42 81 43 35 44 86 45 80 46 82 47
REMARK SMILES IDX 36 48 85 49 79 50 78 51 37 53 67 54 48 55 66 56 49 57 52 58
REMARK SMILES IDX 65 59 83 60 50 61 51 62 64 64 84 65 53 66 38 67 39 68 47 69
REMARK SMILES IDX 40 70 46 71 41 72 42 73 43 74 44 75 45 76 68 77 69 78 77 79
REMARK SMILES IDX 70 80 76 81 71 82 72 83 73 84 74 85 75 86 54 87 55 88 63 89
REMARK SMILES IDX 56 90 62 91 57 92 58 93 59 94 60 95 61 96
REMARK H PARENT 19 8 90 17 90 18 26 33 82 52 52 63
REMARK Flexibility Score: inf
ROOT
ATOM      1  C   UNL A   1      34.956  29.650  27.649  1.00  0.00     0.002 C 
ENDROOT
BRANCH   1   2
ATOM      2  C   UNL A   1      33.884  29.175  26.654  1.00  0.00     0.002 C 
BRANCH   2   3
ATOM      3  C   UNL A   1      32.432  29.069  27.152  1.00  0.00     0.021 C 
BRANCH   3   4
ATOM      4  C   UNL A   1      32.031  27.707  27.746  1.00  0.00     0.116 C 
BRANCH   4   5
ATOM      5  N   UNL A   1      30.921  27.113  27.015  1.00  0.00    -0.352 N 
ATOM      6  C   UNL A   1      30.779  26.429  25.828  1.00  0.00     0.253 C 
ATOM      7  O   UNL A   1      29.642  25.982  25.623  1.00  0.00    -0.269 OA
ATOM      8  H   UNL A   1      30.062  27.230  27.481  1.00  0.00     0.163 HD
BRANCH   6   9
ATOM      9  C   UNL A   1      31.861  26.162  24.809  1.00  0.00     0.065 A 
ATOM     10  C   UNL A   1      33.818  28.099  22.132  1.00  0.00     0.046 C 
ATOM     11  C   UNL A   1      33.290  26.984  22.996  1.00  0.00    -0.025 A 
ATOM     12  C   UNL A   1      33.882  25.710  22.900  1.00  0.00     0.031 A 
ATOM     13  C   UNL A   1      32.255  27.212  23.933  1.00  0.00     0.047 A 
ATOM     14  C   UNL A   1      33.546  24.674  23.779  1.00  0.00     0.038 A 
ATOM     15  C   UNL A   1      32.590  24.962  24.778  1.00  0.00     0.042 A 
BRANCH  13  16
ATOM     16  N   UNL A   1      31.553  28.426  23.885  1.00  0.00    -0.398 N 
ATOM     17  H   UNL A   1      31.700  29.051  23.137  1.00  0.00     0.156 HD
ATOM     18  H   UNL A   1      30.914  28.654  24.598  1.00  0.00     0.156 HD
ENDBRANCH  13  16
BRANCH  14  19
ATOM     19  N   UNL A   1      34.156  23.411  23.715  1.00  0.00    -0.368 N 
ATOM     20  C   UNL A   1      33.380  22.345  23.063  1.00  0.00     0.117 C 
ATOM     21  C   UNL A   1      34.811  22.864  24.948  1.00  0.00     0.085 C 
ATOM     22  C   UNL A   1      33.138  21.303  24.148  1.00  0.00     0.024 C 
ATOM     23  C   UNL A   1      34.382  21.383  25.007  1.00  0.00     0.027 C 
BRANCH  21  24
ATOM     24  C   UNL A   1      36.354  22.972  24.958  1.00  0.00     0.011 C 
ATOM     25  C   UNL A   1      36.972  23.898  26.016  1.00  0.00     0.006 C 
ATOM     26  C   UNL A   1      37.048  21.655  25.230  1.00  0.00     0.006 C 
ATOM     27  C   UNL A   1      38.422  23.452  26.133  1.00  0.00     0.000 C 
ATOM     28  C   UNL A   1      38.425  21.985  25.761  1.00  0.00     0.000 C 
ENDBRANCH  21  24
ENDBRANCH  14  19
ENDBRANCH   6   9
ENDBRANCH   4   5
ENDBRANCH   3   4
ENDBRANCH   2   3
ENDBRANCH   1   2
BRANCH   1  29
ATOM     29  C   UNL A   1      34.952  31.120  28.073  1.00  0.00     0.021 C 
BRANCH  29  30
ATOM     30  C   UNL A   1      36.043  31.584  29.033  1.00  0.00     0.116 C 
BRANCH  30  31
ATOM     31  N   UNL A   1      35.947  30.910  30.316  1.00  0.00    -0.352 N 
ATOM     32  C   UNL A   1      36.777  29.979  30.895  1.00  0.00     0.251 C 
ATOM     33  H   UNL A   1      35.165  31.161  30.858  1.00  0.00     0.163 HD
ATOM     34  O   UNL A   1      36.369  29.351  31.872  1.00  0.00    -0.269 OA
BRANCH  32  35
ATOM     35  C   UNL A   1      38.141  29.709  30.373  1.00  0.00     0.039 A 
ATOM     36  C   UNL A   1      38.337  29.700  28.986  1.00  0.00     0.014 A 
ATOM     37  C   UNL A   1      39.206  29.376  31.214  1.00  0.00     0.014 A 
ATOM     38  C   UNL A   1      39.596  29.398  28.451  1.00  0.00     0.010 A 
ATOM     39  C   UNL A   1      40.477  29.131  30.682  1.00  0.00     0.010 A 
ATOM     40  C   UNL A   1      40.685  29.129  29.293  1.00  0.00    -0.014 A 
BRANCH  40  41
ATOM     41  C   UNL A   1      42.036  28.835  28.736  1.00  0.00     0.031 A 
ATOM     42  C   UNL A   1      42.387  27.445  28.267  1.00  0.00     0.074 A 
ATOM     43  C   UNL A   1      42.970  29.807  28.686  1.00  0.00     0.049 A 
ATOM     44  N   UNL A   1      43.525  26.993  27.801  1.00  0.00    -0.248 NA
ATOM     45  C   UNL A   1      41.328  26.426  28.348  1.00  0.00     0.031 C 
ATOM     46  C   UNL A   1      42.775  31.191  29.129  1.00  0.00     0.029 A 
ATOM     47  N   UNL A   1      44.272  29.782  28.247  1.00  0.00    -0.354 N 
ATOM     48  C   UNL A   1      43.325  25.639  27.551  1.00  0.00     0.074 A 
ATOM     49  C   UNL A   1      41.969  25.334  27.953  1.00  0.00     0.031 C 
ATOM     50  C   UNL A   1      43.907  31.882  28.922  1.00  0.00     0.029 A 
ATOM     51  C   UNL A   1      44.921  30.989  28.369  1.00  0.00     0.049 A 
ATOM     52  H   UNL A   1      44.699  28.975  27.879  1.00  0.00     0.167 HD
ATOM     53  C   UNL A   1      44.185  24.734  27.023  1.00  0.00     0.031 A 
ATOM     54  C   UNL A   1      46.190  31.339  28.079  1.00  0.00     0.031 A 
ATOM     55  C   UNL A   1      45.529  25.037  26.605  1.00  0.00     0.049 A 
ATOM     56  C   UNL A   1      47.129  30.313  27.503  1.00  0.00     0.074 A 
ATOM     57  C   UNL A   1      46.454  24.196  26.008  1.00  0.00     0.029 A 
ATOM     58  N   UNL A   1      46.143  26.273  26.739  1.00  0.00    -0.354 N 
ATOM     59  N   UNL A   1      46.899  29.052  27.223  1.00  0.00    -0.248 NA
ATOM     60  C   UNL A   1      48.495  30.759  27.195  1.00  0.00     0.031 C 
ATOM     61  C   UNL A   1      47.643  24.910  25.828  1.00  0.00     0.029 A 
ATOM     62  C   UNL A   1      47.440  26.211  26.257  1.00  0.00     0.049 A 
ATOM     63  H   UNL A   1      45.719  27.076  27.120  1.00  0.00     0.167 HD
ATOM     64  C   UNL A   1      48.083  28.565  26.678  1.00  0.00     0.074 A 
ATOM     65  C   UNL A   1      49.019  29.668  26.655  1.00  0.00     0.031 C 
ATOM     66  C   UNL A   1      48.365  27.315  26.235  1.00  0.00     0.031 A 
BRANCH  53  67
ATOM     67  C   UNL A   1      43.701  23.315  26.864  1.00  0.00    -0.014 A 
ATOM     68  C   UNL A   1      43.026  22.656  27.907  1.00  0.00     0.010 A 
ATOM     69  C   UNL A   1      43.865  22.654  25.632  1.00  0.00     0.010 A 
ATOM     70  C   UNL A   1      42.556  21.352  27.733  1.00  0.00     0.020 A 
ATOM     71  C   UNL A   1      43.372  21.360  25.444  1.00  0.00     0.020 A 
ATOM     72  C   UNL A   1      42.731  20.711  26.504  1.00  0.00     0.054 A 
BRANCH  72  73
ATOM     73  S   UNL A   1      42.081  19.031  26.291  1.00  0.00     0.124 S 
ATOM     74  O   UNL A   1      42.973  18.491  25.265  1.00  0.00    -0.237 OA
ATOM     75  O   UNL A   1      42.245  18.455  27.627  1.00  0.00    -0.237 OA
ATOM     76  O   UNL A   1      40.702  19.239  25.872  1.00  0.00    -0.744 OA
ENDBRANCH  72  73
ENDBRANCH  53  67
BRANCH  54  77
ATOM     77  C   UNL A   1      46.654  32.732  28.328  1.00  0.00    -0.014 A 
ATOM     78  C   UNL A   1      47.214  33.091  29.566  1.00  0.00     0.010 A 
ATOM     79  C   UNL A   1      46.530  33.711  27.324  1.00  0.00     0.010 A 
ATOM     80  C   UNL A   1      47.619  34.408  29.807  1.00  0.00     0.020 A 
ATOM     81  C   UNL A   1      46.960  35.022  27.551  1.00  0.00     0.020 A 
ATOM     82  C   UNL A   1      47.489  35.365  28.796  1.00  0.00     0.054 A 
BRANCH  82  83
ATOM     83  S   UNL A   1      48.056  37.059  29.116  1.00  0.00     0.124 S 
ATOM     84  O   UNL A   1      48.430  36.993  30.525  1.00  0.00    -0.237 OA
ATOM     85  O   UNL A   1      49.161  37.206  28.172  1.00  0.00    -0.237 OA
ATOM     86  O   UNL A   1      46.879  37.873  28.817  1.00  0.00    -0.744 OA
ENDBRANCH  82  83
ENDBRANCH  54  77
BRANCH  66  87
ATOM     87  C   UNL A   1      49.731  27.076  25.649  1.00  0.00    -0.014 A 
ATOM     88  C   UNL A   1      50.038  27.455  24.330  1.00  0.00     0.010 A 
ATOM     89  C   UNL A   1      50.741  26.511  26.452  1.00  0.00     0.010 A 
ATOM     90  C   UNL A   1      51.320  27.246  23.815  1.00  0.00     0.020 A 
ATOM     91  C   UNL A   1      52.031  26.326  25.949  1.00  0.00     0.020 A 
ATOM     92  C   UNL A   1      52.309  26.682  24.629  1.00  0.00     0.054 A 
BRANCH  92  93
ATOM     93  S   UNL A   1      53.977  26.463  23.951  1.00  0.00     0.124 S 
ATOM     94  O   UNL A   1      53.699  26.149  22.552  1.00  0.00    -0.237 OA
ATOM     95  O   UNL A   1      54.596  27.764  24.192  1.00  0.00    -0.237 OA
ATOM     96  O   UNL A   1      54.529  25.362  24.737  1.00  0.00    -0.744 OA
ENDBRANCH  92  93
ENDBRANCH  66  87
ENDBRANCH  40  41
ENDBRANCH  32  35
ENDBRANCH  30  31
ENDBRANCH  29  30
ENDBRANCH   1  29
TORSDOF 19
ENDMDL
MODEL 3
REMARK VINA RESULT:      -8.4      4.156      8.305
REMARK SMILES Cc1cc(N2CCC[C@H]2C2CCCC2)cc(C(=O)NCCCCCCNC(=O)c2ccc(-c3c4nc(c(-c5ccc(S(=O)(=O)[O-])cc5)c5ccc([nH]5)c(-c5ccc(S(=O)(=O)[O-])cc5)c5nc(c(-c6ccc(S(=O)(=O)[O-])cc6)c6ccc3[nH]6)C=C5)C=C4)cc2)c1N
REMARK SMILES IDX 23 1 22 2 21 3 20 4 19 5 17 6 18 7 16 9 1 10 2 11 3 12 89 13
REMARK SMILES IDX 4 14 15 15 90 16 5 19 6 20 9 21 7 22 8 23 10 24 11 25 14 26
REMARK SMILES IDX 12 27 13 28 24 29 25 30 26 31 27 32 28 34 29 35 30 36 88 37
REMARK SMILES IDX 31 38 87 39 32 40 33 41 34 42 81 43 35 44 86 45 80 46 82 47
REMARK SMILES IDX 36 48 85 49 79 50 78 51 37 53 67 54 48 55 66 56 49 57 52 58
REMARK SMILES IDX 65 59 83 60 50 61 51 62 64 64 84 65 53 66 38 67 39 68 47 69
REMARK SMILES IDX 40 70 46 71 41 72 42 73 43 74 44 75 45 76 68 77 69 78 77 79
REMARK SMILES IDX 70 80 76 81 71 82 72 83 73 84 74 85 75 86 54 87 55 88 63 89
REMARK SMILES IDX 56 90 62 91 57 92 58 93 59 94 60 95 61 96
REMARK H PARENT 19 8 90 17 90 18 26 33 82 52 52 63
REMARK Flexibility Score: inf
ROOT
ATOM      1  C   UNL A   1      34.596  29.941  27.531  1.00  0.00     0.002 C 
ENDROOT
BRANCH   1   2
ATOM      2  C   UNL A   1      34.272  28.850  26.497  1.00  0.00     0.002 C 
BRANCH   2   3
ATOM      3  C   UNL A   1      32.792  28.504  26.251  1.00  0.00     0.021 C 
BRANCH   3   4
ATOM      4  C   UNL A   1      32.130  27.614  27.318  1.00  0.00     0.116 C 
BRANCH   4   5
ATOM      5  N   UNL A   1      30.902  27.012  26.821  1.00  0.00    -0.352 N 
ATOM      6  C   UNL A   1      30.589  25.994  25.948  1.00  0.00     0.253 C 
ATOM      7  O   UNL A   1      29.384  25.715  25.892  1.00  0.00    -0.269 OA
ATOM      8  H   UNL A   1      30.098  27.434  27.202  1.00  0.00     0.163 HD
BRANCH   6   9
ATOM      9  C   UNL A   1      31.560  25.201  25.107  1.00  0.00     0.065 A 
ATOM     10  C   UNL A   1      32.843  25.153  21.487  1.00  0.00     0.046 C 
ATOM     11  C   UNL A   1      32.605  24.788  22.929  1.00  0.00    -0.025 A 
ATOM     12  C   UNL A   1      33.366  23.752  23.504  1.00  0.00     0.031 A 
ATOM     13  C   UNL A   1      31.675  25.501  23.721  1.00  0.00     0.047 A 
ATOM     14  C   UNL A   1      33.306  23.466  24.872  1.00  0.00     0.038 A 
ATOM     15  C   UNL A   1      32.453  24.269  25.661  1.00  0.00     0.042 A 
BRANCH  13  16
ATOM     16  N   UNL A   1      30.797  26.397  23.092  1.00  0.00    -0.398 N 
ATOM     17  H   UNL A   1      30.845  26.532  22.117  1.00  0.00     0.156 HD
ATOM     18  H   UNL A   1      30.132  26.891  23.624  1.00  0.00     0.156 HD
ENDBRANCH  13  16
BRANCH  14  19
ATOM     19  N   UNL A   1      34.088  22.459  25.461  1.00  0.00    -0.368 N 
ATOM     20  C   UNL A   1      35.181  22.911  26.335  1.00  0.00     0.117 C 
ATOM     21  C   UNL A   1      34.572  21.329  24.604  1.00  0.00     0.085 C 
ATOM     22  C   UNL A   1      36.459  22.419  25.666  1.00  0.00     0.024 C 
ATOM     23  C   UNL A   1      36.045  21.117  25.014  1.00  0.00     0.027 C 
BRANCH  21  24
ATOM     24  C   UNL A   1      33.780  20.011  24.768  1.00  0.00     0.011 C 
ATOM     25  C   UNL A   1      32.627  19.774  23.782  1.00  0.00     0.006 C 
ATOM     26  C   UNL A   1      34.628  18.771  24.585  1.00  0.00     0.006 C 
ATOM     27  C   UNL A   1      32.365  18.276  23.833  1.00  0.00     0.000 C 
ATOM     28  C   UNL A   1      33.688  17.646  24.212  1.00  0.00     0.000 C 
ENDBRANCH  21  24
ENDBRANCH  14  19
ENDBRANCH   6   9
ENDBRANCH   4   5
ENDBRANCH   3   4
ENDBRANCH   2   3
ENDBRANCH   1   2
BRANCH   1  29
ATOM     29  C   UNL A   1      33.668  31.154  27.619  1.00  0.00     0.021 C 
BRANCH  29  30
ATOM     30  C   UNL A   1      34.266  32.469  28.112  1.00  0.00     0.116 C 
BRANCH  30  31
ATOM     31  N   UNL A   1      34.049  32.655  29.535  1.00  0.00    -0.352 N 
ATOM     32  C   UNL A   1      34.831  32.297  30.607  1.00  0.00     0.251 C 
ATOM     33  H   UNL A   1      33.208  33.111  29.770  1.00  0.00     0.163 HD
ATOM     34  O   UNL A   1      34.335  32.318  31.734  1.00  0.00    -0.269 OA
BRANCH  32  35
ATOM     35  C   UNL A   1      36.248  31.882  30.443  1.00  0.00     0.039 A 
ATOM     36  C   UNL A   1      36.871  32.103  29.208  1.00  0.00     0.014 A 
ATOM     37  C   UNL A   1      36.944  31.201  31.446  1.00  0.00     0.014 A 
ATOM     38  C   UNL A   1      38.189  31.680  28.995  1.00  0.00     0.010 A 
ATOM     39  C   UNL A   1      38.279  30.830  31.252  1.00  0.00     0.010 A 
ATOM     40  C   UNL A   1      38.915  31.056  30.020  1.00  0.00    -0.014 A 
BRANCH  40  41
ATOM     41  C   UNL A   1      40.328  30.628  29.814  1.00  0.00     0.031 A 
ATOM     42  C   UNL A   1      41.462  31.604  30.010  1.00  0.00     0.074 A 
ATOM     43  C   UNL A   1      40.598  29.370  29.410  1.00  0.00     0.049 A 
ATOM     44  N   UNL A   1      42.747  31.424  29.828  1.00  0.00    -0.248 NA
ATOM     45  C   UNL A   1      41.104  32.962  30.449  1.00  0.00     0.031 C 
ATOM     46  C   UNL A   1      39.597  28.329  29.158  1.00  0.00     0.029 A 
ATOM     47  N   UNL A   1      41.793  28.751  29.133  1.00  0.00    -0.354 N 
ATOM     48  C   UNL A   1      43.348  32.646  30.112  1.00  0.00     0.074 A 
ATOM     49  C   UNL A   1      42.284  33.570  30.442  1.00  0.00     0.031 C 
ATOM     50  C   UNL A   1      40.221  27.201  28.784  1.00  0.00     0.029 A 
ATOM     51  C   UNL A   1      41.660  27.443  28.729  1.00  0.00     0.049 A 
ATOM     52  H   UNL A   1      42.664  29.203  29.217  1.00  0.00     0.167 HD
ATOM     53  C   UNL A   1      44.664  32.968  30.114  1.00  0.00     0.031 A 
ATOM     54  C   UNL A   1      42.585  26.540  28.348  1.00  0.00     0.031 A 
ATOM     55  C   UNL A   1      45.727  32.047  29.805  1.00  0.00     0.049 A 
ATOM     56  C   UNL A   1      44.041  26.926  28.348  1.00  0.00     0.074 A 
ATOM     57  C   UNL A   1      47.094  32.271  29.835  1.00  0.00     0.029 A 
ATOM     58  N   UNL A   1      45.548  30.731  29.410  1.00  0.00    -0.354 N 
ATOM     59  N   UNL A   1      44.589  28.072  28.676  1.00  0.00    -0.248 NA
ATOM     60  C   UNL A   1      45.003  25.893  27.938  1.00  0.00     0.031 C 
ATOM     61  C   UNL A   1      47.738  31.105  29.409  1.00  0.00     0.029 A 
ATOM     62  C   UNL A   1      46.776  30.137  29.171  1.00  0.00     0.049 A 
ATOM     63  H   UNL A   1      44.675  30.284  29.313  1.00  0.00     0.167 HD
ATOM     64  C   UNL A   1      45.961  27.886  28.540  1.00  0.00     0.074 A 
ATOM     65  C   UNL A   1      46.159  26.517  28.114  1.00  0.00     0.031 C 
ATOM     66  C   UNL A   1      46.965  28.772  28.750  1.00  0.00     0.031 A 
BRANCH  53  67
ATOM     67  C   UNL A   1      45.040  34.387  30.462  1.00  0.00    -0.014 A 
ATOM     68  C   UNL A   1      45.369  34.749  31.780  1.00  0.00     0.010 A 
ATOM     69  C   UNL A   1      45.129  35.355  29.445  1.00  0.00     0.010 A 
ATOM     70  C   UNL A   1      45.746  36.061  32.080  1.00  0.00     0.020 A 
ATOM     71  C   UNL A   1      45.532  36.661  29.735  1.00  0.00     0.020 A 
ATOM     72  C   UNL A   1      45.825  37.009  31.057  1.00  0.00     0.054 A 
BRANCH  72  73
ATOM     73  S   UNL A   1      46.350  38.697  31.466  1.00  0.00     0.124 S 
ATOM     74  O   UNL A   1      45.749  38.886  32.786  1.00  0.00    -0.237 OA
ATOM     75  O   UNL A   1      47.811  38.587  31.455  1.00  0.00    -0.237 OA
ATOM     76  O   UNL A   1      45.783  39.509  30.400  1.00  0.00    -0.744 OA
ENDBRANCH  72  73
ENDBRANCH  53  67
BRANCH  54  77
ATOM     77  C   UNL A   1      42.166  25.172  27.933  1.00  0.00    -0.014 A 
ATOM     78  C   UNL A   1      42.251  24.093  28.831  1.00  0.00     0.010 A 
ATOM     79  C   UNL A   1      41.685  24.942  26.631  1.00  0.00     0.010 A 
ATOM     80  C   UNL A   1      41.886  22.805  28.428  1.00  0.00     0.020 A 
ATOM     81  C   UNL A   1      41.293  23.660  26.233  1.00  0.00     0.020 A 
ATOM     82  C   UNL A   1      41.409  22.597  27.130  1.00  0.00     0.054 A 
BRANCH  82  83
ATOM     83  S   UNL A   1      40.905  20.925  26.639  1.00  0.00     0.124 S 
ATOM     84  O   UNL A   1      39.640  21.177  25.958  1.00  0.00    -0.237 OA
ATOM     85  O   UNL A   1      42.011  20.499  25.785  1.00  0.00    -0.237 OA
ATOM     86  O   UNL A   1      40.801  20.214  27.912  1.00  0.00    -0.744 OA
ENDBRANCH  82  83
ENDBRANCH  54  77
BRANCH  66  87
ATOM     87  C   UNL A   1      48.376  28.283  28.563  1.00  0.00    -0.014 A 
ATOM     88  C   UNL A   1      49.029  27.535  29.558  1.00  0.00     0.010 A 
ATOM     89  C   UNL A   1      49.040  28.532  27.346  1.00  0.00     0.010 A 
ATOM     90  C   UNL A   1      50.331  27.069  29.352  1.00  0.00     0.020 A 
ATOM     91  C   UNL A   1      50.331  28.045  27.126  1.00  0.00     0.020 A 
ATOM     92  C   UNL A   1      50.974  27.328  28.136  1.00  0.00     0.054 A 
BRANCH  92  93
ATOM     93  S   UNL A   1      52.646  26.675  27.876  1.00  0.00     0.124 S 
ATOM     94  O   UNL A   1      52.385  25.478  27.081  1.00  0.00    -0.237 OA
ATOM     95  O   UNL A   1      53.311  27.766  27.169  1.00  0.00    -0.237 OA
ATOM     96  O   UNL A   1      53.136  26.427  29.231  1.00  0.00    -0.744 OA
ENDBRANCH  92  93
ENDBRANCH  66  87
ENDBRANCH  40  41
ENDBRANCH  32  35
ENDBRANCH  30  31
ENDBRANCH  29  30
ENDBRANCH   1  29
TORSDOF 19
ENDMDL
