MODEL 1
REMARK VINA RESULT:     -10.6      0.000      0.000
REMARK SMILES C[C@H](C(=O)NCCCCCCNC(=O)c1ccc(-c2c3nc(c(-c4ccc(S(=O)(=O)[O-])cc4)c4ccc([nH]4)c(-c4ccc(S(=O)(=O)[O-])cc4)c4nc(c(-c5ccc(S(=O)(=O)[O-])cc5)c5ccc2[nH]5)C=C4)C=C3)cc1)c1cccc(C(=O)c2ccccc2)c1
REMARK SMILES IDX 8 1 7 2 6 3 5 4 3 5 4 6 2 8 1 9 75 10 76 11 88 12 77 13
REMARK SMILES IDX 79 14 78 15 80 16 81 17 82 18 83 19 87 20 84 21 86 22 85 23
REMARK SMILES IDX 9 24 10 25 11 26 12 27 13 28 14 30 15 31 16 32 74 33 17 34
REMARK SMILES IDX 73 35 18 36 19 37 20 38 67 39 21 40 72 41 66 42 68 43 22 44
REMARK SMILES IDX 71 45 65 46 64 47 23 49 53 50 34 51 52 52 35 53 38 54 51 55
REMARK SMILES IDX 69 56 36 57 37 58 50 60 70 61 39 62 24 63 25 64 33 65 26 66
REMARK SMILES IDX 32 67 27 68 28 69 29 70 30 71 31 72 54 73 55 74 63 75 56 76
REMARK SMILES IDX 62 77 57 78 58 79 59 80 60 81 61 82 40 83 41 84 49 85 42 86
REMARK SMILES IDX 48 87 43 88 44 89 45 90 46 91 47 92
REMARK H PARENT 5 7 12 29 68 48 38 59
REMARK Flexibility Score: inf
ROOT
ATOM      1  C   UNL A   1      31.269  27.028  27.110  1.00  0.00     0.002 C 
ENDROOT
BRANCH   1   2
ATOM      2  C   UNL A   1      30.397  26.092  26.265  1.00  0.00     0.021 C 
BRANCH   2   3
ATOM      3  C   UNL A   1      30.916  24.665  26.175  1.00  0.00     0.116 C 
BRANCH   3   4
ATOM      4  N   UNL A   1      30.494  24.001  24.954  1.00  0.00    -0.356 N 
ATOM      5  C   UNL A   1      31.093  23.929  23.735  1.00  0.00     0.227 C 
ATOM      6  O   UNL A   1      30.588  23.167  22.904  1.00  0.00    -0.274 OA
ATOM      7  H   UNL A   1      29.634  23.526  25.020  1.00  0.00     0.163 HD
BRANCH   5   8
ATOM      8  C   UNL A   1      32.308  24.780  23.365  1.00  0.00     0.105 C 
ATOM      9  C   UNL A   1      33.172  24.082  22.303  1.00  0.00     0.023 C 
BRANCH   8  10
ATOM     10  C   UNL A   1      32.062  26.254  23.054  1.00  0.00    -0.035 A 
ATOM     11  C   UNL A   1      33.073  27.170  22.745  1.00  0.00     0.004 A 
ATOM     12  C   UNL A   1      30.737  26.733  23.089  1.00  0.00     0.016 A 
ATOM     13  C   UNL A   1      32.803  28.535  22.628  1.00  0.00     0.001 A 
ATOM     14  C   UNL A   1      30.446  28.096  22.926  1.00  0.00     0.023 A 
ATOM     15  C   UNL A   1      31.496  28.998  22.736  1.00  0.00     0.012 A 
BRANCH  14  16
ATOM     16  C   UNL A   1      29.054  28.629  22.879  1.00  0.00     0.193 C 
ATOM     17  O   UNL A   1      28.100  27.922  23.192  1.00  0.00    -0.289 OA
BRANCH  16  18
ATOM     18  C   UNL A   1      28.782  30.043  22.559  1.00  0.00     0.022 A 
ATOM     19  C   UNL A   1      28.944  30.988  23.577  1.00  0.00     0.012 A 
ATOM     20  C   UNL A   1      28.362  30.434  21.284  1.00  0.00     0.012 A 
ATOM     21  C   UNL A   1      28.730  32.338  23.305  1.00  0.00     0.001 A 
ATOM     22  C   UNL A   1      28.157  31.788  21.017  1.00  0.00     0.001 A 
ATOM     23  C   UNL A   1      28.345  32.737  22.024  1.00  0.00     0.000 A 
ENDBRANCH  16  18
ENDBRANCH  14  16
ENDBRANCH   8  10
ENDBRANCH   5   8
ENDBRANCH   3   4
ENDBRANCH   2   3
ENDBRANCH   1   2
BRANCH   1  24
ATOM     24  C   UNL A   1      32.164  27.989  26.320  1.00  0.00     0.002 C 
BRANCH  24  25
ATOM     25  C   UNL A   1      33.669  27.778  26.492  1.00  0.00     0.021 C 
BRANCH  25  26
ATOM     26  C   UNL A   1      34.536  28.952  26.050  1.00  0.00     0.116 C 
BRANCH  26  27
ATOM     27  N   UNL A   1      33.986  30.231  26.465  1.00  0.00    -0.352 N 
ATOM     28  C   UNL A   1      34.365  31.040  27.506  1.00  0.00     0.251 C 
ATOM     29  H   UNL A   1      33.235  30.564  25.923  1.00  0.00     0.163 HD
ATOM     30  O   UNL A   1      33.673  32.006  27.816  1.00  0.00    -0.269 OA
BRANCH  28  31
ATOM     31  C   UNL A   1      35.594  30.729  28.267  1.00  0.00     0.039 A 
ATOM     32  C   UNL A   1      35.561  29.703  29.212  1.00  0.00     0.014 A 
ATOM     33  C   UNL A   1      36.776  31.443  28.043  1.00  0.00     0.014 A 
ATOM     34  C   UNL A   1      36.729  29.353  29.893  1.00  0.00     0.010 A 
ATOM     35  C   UNL A   1      37.954  31.041  28.664  1.00  0.00     0.010 A 
ATOM     36  C   UNL A   1      37.944  29.996  29.600  1.00  0.00    -0.014 A 
BRANCH  36  37
ATOM     37  C   UNL A   1      39.209  29.587  30.259  1.00  0.00     0.031 A 
ATOM     38  C   UNL A   1      39.696  30.314  31.484  1.00  0.00     0.074 A 
ATOM     39  C   UNL A   1      39.949  28.595  29.723  1.00  0.00     0.049 A 
ATOM     40  N   UNL A   1      40.796  30.131  32.168  1.00  0.00    -0.248 NA
ATOM     41  C   UNL A   1      38.847  31.404  31.994  1.00  0.00     0.031 C 
ATOM     42  C   UNL A   1      39.604  27.836  28.518  1.00  0.00     0.029 A 
ATOM     43  N   UNL A   1      41.147  28.055  30.121  1.00  0.00    -0.354 N 
ATOM     44  C   UNL A   1      40.779  31.087  33.177  1.00  0.00     0.074 A 
ATOM     45  C   UNL A   1      39.587  31.884  32.983  1.00  0.00     0.031 C 
ATOM     46  C   UNL A   1      40.550  26.910  28.295  1.00  0.00     0.029 A 
ATOM     47  C   UNL A   1      41.591  27.038  29.309  1.00  0.00     0.049 A 
ATOM     48  H   UNL A   1      41.642  28.367  30.913  1.00  0.00     0.167 HD
ATOM     49  C   UNL A   1      41.663  31.272  34.186  1.00  0.00     0.031 A 
ATOM     50  C   UNL A   1      42.715  26.296  29.367  1.00  0.00     0.031 A 
ATOM     51  C   UNL A   1      42.846  30.475  34.377  1.00  0.00     0.049 A 
ATOM     52  C   UNL A   1      43.696  26.539  30.482  1.00  0.00     0.074 A 
ATOM     53  C   UNL A   1      43.779  30.551  35.396  1.00  0.00     0.029 A 
ATOM     54  N   UNL A   1      43.262  29.458  33.531  1.00  0.00    -0.354 N 
ATOM     55  N   UNL A   1      43.629  27.407  31.464  1.00  0.00    -0.248 NA
ATOM     56  C   UNL A   1      44.898  25.696  30.503  1.00  0.00     0.031 C 
ATOM     57  C   UNL A   1      44.791  29.624  35.133  1.00  0.00     0.029 A 
ATOM     58  C   UNL A   1      44.453  28.919  33.988  1.00  0.00     0.049 A 
ATOM     59  H   UNL A   1      42.781  29.163  32.724  1.00  0.00     0.167 HD
ATOM     60  C   UNL A   1      44.764  27.192  32.236  1.00  0.00     0.074 A 
ATOM     61  C   UNL A   1      45.491  26.103  31.616  1.00  0.00     0.031 C 
ATOM     62  C   UNL A   1      45.167  27.835  33.361  1.00  0.00     0.031 A 
BRANCH  49  63
ATOM     63  C   UNL A   1      41.388  32.390  35.159  1.00  0.00    -0.014 A 
ATOM     64  C   UNL A   1      40.658  32.166  36.341  1.00  0.00     0.010 A 
ATOM     65  C   UNL A   1      41.908  33.675  34.913  1.00  0.00     0.010 A 
ATOM     66  C   UNL A   1      40.415  33.212  37.234  1.00  0.00     0.020 A 
ATOM     67  C   UNL A   1      41.695  34.717  35.821  1.00  0.00     0.020 A 
ATOM     68  C   UNL A   1      40.936  34.483  36.968  1.00  0.00     0.054 A 
BRANCH  68  69
ATOM     69  S   UNL A   1      40.626  35.814  38.159  1.00  0.00     0.124 S 
ATOM     70  O   UNL A   1      41.979  36.303  38.422  1.00  0.00    -0.237 OA
ATOM     71  O   UNL A   1      39.767  36.723  37.407  1.00  0.00    -0.237 OA
ATOM     72  O   UNL A   1      39.982  35.135  39.281  1.00  0.00    -0.744 OA
ENDBRANCH  68  69
ENDBRANCH  49  63
BRANCH  50  73
ATOM     73  C   UNL A   1      42.966  25.242  28.344  1.00  0.00    -0.014 A 
ATOM     74  C   UNL A   1      43.812  25.495  27.251  1.00  0.00     0.010 A 
ATOM     75  C   UNL A   1      42.366  23.975  28.464  1.00  0.00     0.010 A 
ATOM     76  C   UNL A   1      44.038  24.509  26.285  1.00  0.00     0.020 A 
ATOM     77  C   UNL A   1      42.614  22.976  27.518  1.00  0.00     0.020 A 
ATOM     78  C   UNL A   1      43.438  23.254  26.428  1.00  0.00     0.054 A 
BRANCH  78  79
ATOM     79  S   UNL A   1      43.783  21.976  25.187  1.00  0.00     0.124 S 
ATOM     80  O   UNL A   1      43.469  22.668  23.942  1.00  0.00    -0.237 OA
ATOM     81  O   UNL A   1      45.197  21.690  25.415  1.00  0.00    -0.237 OA
ATOM     82  O   UNL A   1      42.871  20.894  25.549  1.00  0.00    -0.744 OA
ENDBRANCH  78  79
ENDBRANCH  50  73
BRANCH  62  83
ATOM     83  C   UNL A   1      46.434  27.357  34.020  1.00  0.00    -0.014 A 
ATOM     84  C   UNL A   1      47.683  27.922  33.706  1.00  0.00     0.010 A 
ATOM     85  C   UNL A   1      46.363  26.362  35.013  1.00  0.00     0.010 A 
ATOM     86  C   UNL A   1      48.842  27.476  34.349  1.00  0.00     0.020 A 
ATOM     87  C   UNL A   1      47.513  25.938  35.682  1.00  0.00     0.020 A 
ATOM     88  C   UNL A   1      48.748  26.488  35.335  1.00  0.00     0.054 A 
BRANCH  88  89
ATOM     89  S   UNL A   1      50.260  25.962  36.187  1.00  0.00     0.124 S 
ATOM     90  O   UNL A   1      51.155  27.092  35.946  1.00  0.00    -0.237 OA
ATOM     91  O   UNL A   1      49.810  25.801  37.568  1.00  0.00    -0.237 OA
ATOM     92  O   UNL A   1      50.627  24.721  35.510  1.00  0.00    -0.744 OA
ENDBRANCH  88  89
ENDBRANCH  62  83
ENDBRANCH  36  37
ENDBRANCH  28  31
ENDBRANCH  26  27
ENDBRANCH  25  26
ENDBRANCH  24  25
ENDBRANCH   1  24
TORSDOF 19
ENDMDL
MODEL 2
REMARK VINA RESULT:     -10.4      3.076      5.282
REMARK SMILES C[C@H](C(=O)NCCCCCCNC(=O)c1ccc(-c2c3nc(c(-c4ccc(S(=O)(=O)[O-])cc4)c4ccc([nH]4)c(-c4ccc(S(=O)(=O)[O-])cc4)c4nc(c(-c5ccc(S(=O)(=O)[O-])cc5)c5ccc2[nH]5)C=C4)C=C3)cc1)c1cccc(C(=O)c2ccccc2)c1
REMARK SMILES IDX 8 1 7 2 6 3 5 4 3 5 4 6 2 8 1 9 75 10 76 11 88 12 77 13
REMARK SMILES IDX 79 14 78 15 80 16 81 17 82 18 83 19 87 20 84 21 86 22 85 23
REMARK SMILES IDX 9 24 10 25 11 26 12 27 13 28 14 30 15 31 16 32 74 33 17 34
REMARK SMILES IDX 73 35 18 36 19 37 20 38 67 39 21 40 72 41 66 42 68 43 22 44
REMARK SMILES IDX 71 45 65 46 64 47 23 49 53 50 34 51 52 52 35 53 38 54 51 55
REMARK SMILES IDX 69 56 36 57 37 58 50 60 70 61 39 62 24 63 25 64 33 65 26 66
REMARK SMILES IDX 32 67 27 68 28 69 29 70 30 71 31 72 54 73 55 74 63 75 56 76
REMARK SMILES IDX 62 77 57 78 58 79 59 80 60 81 61 82 40 83 41 84 49 85 42 86
REMARK SMILES IDX 48 87 43 88 44 89 45 90 46 91 47 92
REMARK H PARENT 5 7 12 29 68 48 38 59
REMARK Flexibility Score: inf
ROOT
ATOM      1  C   UNL A   1      31.489  27.883  24.595  1.00  0.00     0.002 C 
ENDROOT
BRANCH   1   2
ATOM      2  C   UNL A   1      30.271  27.399  23.800  1.00  0.00     0.021 C 
BRANCH   2   3
ATOM      3  C   UNL A   1      29.641  26.123  24.338  1.00  0.00     0.116 C 
BRANCH   3   4
ATOM      4  N   UNL A   1      30.074  24.944  23.610  1.00  0.00    -0.356 N 
ATOM      5  C   UNL A   1      30.838  23.890  24.006  1.00  0.00     0.227 C 
ATOM      6  O   UNL A   1      30.932  22.938  23.224  1.00  0.00    -0.274 OA
ATOM      7  H   UNL A   1      29.764  24.901  22.676  1.00  0.00     0.163 HD
BRANCH   5   8
ATOM      8  C   UNL A   1      31.597  23.880  25.333  1.00  0.00     0.105 C 
ATOM      9  C   UNL A   1      30.880  23.007  26.375  1.00  0.00     0.023 C 
BRANCH   8  10
ATOM     10  C   UNL A   1      33.100  23.622  25.278  1.00  0.00    -0.035 A 
ATOM     11  C   UNL A   1      34.071  24.630  25.317  1.00  0.00     0.004 A 
ATOM     12  C   UNL A   1      33.547  22.290  25.170  1.00  0.00     0.016 A 
ATOM     13  C   UNL A   1      35.420  24.344  25.101  1.00  0.00     0.001 A 
ATOM     14  C   UNL A   1      34.906  21.985  24.999  1.00  0.00     0.023 A 
ATOM     15  C   UNL A   1      35.834  23.028  24.925  1.00  0.00     0.012 A 
BRANCH  14  16
ATOM     16  C   UNL A   1      35.426  20.587  24.959  1.00  0.00     0.193 C 
ATOM     17  O   UNL A   1      36.613  20.353  25.165  1.00  0.00    -0.289 OA
BRANCH  16  18
ATOM     18  C   UNL A   1      34.522  19.436  24.779  1.00  0.00     0.022 A 
ATOM     19  C   UNL A   1      35.082  18.219  24.376  1.00  0.00     0.012 A 
ATOM     20  C   UNL A   1      33.145  19.550  24.989  1.00  0.00     0.012 A 
ATOM     21  C   UNL A   1      34.267  17.100  24.227  1.00  0.00     0.001 A 
ATOM     22  C   UNL A   1      32.335  18.424  24.846  1.00  0.00     0.001 A 
ATOM     23  C   UNL A   1      32.896  17.201  24.471  1.00  0.00     0.000 A 
ENDBRANCH  16  18
ENDBRANCH  14  16
ENDBRANCH   8  10
ENDBRANCH   5   8
ENDBRANCH   3   4
ENDBRANCH   2   3
ENDBRANCH   1   2
BRANCH   1  24
ATOM     24  C   UNL A   1      31.284  28.006  26.109  1.00  0.00     0.002 C 
BRANCH  24  25
ATOM     25  C   UNL A   1      32.458  27.540  26.972  1.00  0.00     0.021 C 
BRANCH  25  26
ATOM     26  C   UNL A   1      33.747  28.329  26.780  1.00  0.00     0.116 C 
BRANCH  26  27
ATOM     27  N   UNL A   1      33.605  29.722  27.168  1.00  0.00    -0.352 N 
ATOM     28  C   UNL A   1      34.472  30.518  27.872  1.00  0.00     0.251 C 
ATOM     29  H   UNL A   1      32.767  30.156  26.885  1.00  0.00     0.163 HD
ATOM     30  O   UNL A   1      34.110  31.625  28.261  1.00  0.00    -0.269 OA
BRANCH  28  31
ATOM     31  C   UNL A   1      35.831  30.026  28.182  1.00  0.00     0.039 A 
ATOM     32  C   UNL A   1      36.825  30.129  27.208  1.00  0.00     0.014 A 
ATOM     33  C   UNL A   1      36.126  29.474  29.433  1.00  0.00     0.014 A 
ATOM     34  C   UNL A   1      38.130  29.730  27.508  1.00  0.00     0.010 A 
ATOM     35  C   UNL A   1      37.440  29.150  29.754  1.00  0.00     0.010 A 
ATOM     36  C   UNL A   1      38.456  29.269  28.794  1.00  0.00    -0.014 A 
BRANCH  36  37
ATOM     37  C   UNL A   1      39.852  28.912  29.152  1.00  0.00     0.031 A 
ATOM     38  C   UNL A   1      40.740  29.916  29.836  1.00  0.00     0.074 A 
ATOM     39  C   UNL A   1      40.337  27.700  28.812  1.00  0.00     0.049 A 
ATOM     40  N   UNL A   1      41.996  29.802  30.184  1.00  0.00    -0.248 NA
ATOM     41  C   UNL A   1      40.147  31.227  30.149  1.00  0.00     0.031 C 
ATOM     42  C   UNL A   1      39.587  26.652  28.116  1.00  0.00     0.029 A 
ATOM     43  N   UNL A   1      41.578  27.146  29.005  1.00  0.00    -0.354 N 
ATOM     44  C   UNL A   1      42.347  31.026  30.743  1.00  0.00     0.074 A 
ATOM     45  C   UNL A   1      41.188  31.885  30.638  1.00  0.00     0.031 C 
ATOM     46  C   UNL A   1      40.372  25.572  27.970  1.00  0.00     0.029 A 
ATOM     47  C   UNL A   1      41.692  25.865  28.517  1.00  0.00     0.049 A 
ATOM     48  H   UNL A   1      42.317  27.620  29.450  1.00  0.00     0.167 HD
ATOM     49  C   UNL A   1      43.520  31.394  31.312  1.00  0.00     0.031 A 
ATOM     50  C   UNL A   1      42.744  25.022  28.502  1.00  0.00     0.031 A 
ATOM     51  C   UNL A   1      44.669  30.534  31.418  1.00  0.00     0.049 A 
ATOM     52  C   UNL A   1      44.045  25.465  29.115  1.00  0.00     0.074 A 
ATOM     53  C   UNL A   1      45.887  30.797  32.019  1.00  0.00     0.029 A 
ATOM     54  N   UNL A   1      44.746  29.246  30.907  1.00  0.00    -0.354 N 
ATOM     55  N   UNL A   1      44.337  26.605  29.697  1.00  0.00    -0.248 NA
ATOM     56  C   UNL A   1      45.155  24.504  29.080  1.00  0.00     0.031 C 
ATOM     57  C   UNL A   1      46.721  29.693  31.818  1.00  0.00     0.029 A 
ATOM     58  C   UNL A   1      46.000  28.714  31.154  1.00  0.00     0.049 A 
ATOM     59  H   UNL A   1      44.016  28.781  30.438  1.00  0.00     0.167 HD
ATOM     60  C   UNL A   1      45.654  26.484  30.124  1.00  0.00     0.074 A 
ATOM     61  C   UNL A   1      46.096  25.157  29.748  1.00  0.00     0.031 C 
ATOM     62  C   UNL A   1      46.427  27.391  30.774  1.00  0.00     0.031 A 
BRANCH  49  63
ATOM     63  C   UNL A   1      43.622  32.795  31.857  1.00  0.00    -0.014 A 
ATOM     64  C   UNL A   1      43.352  33.073  33.210  1.00  0.00     0.010 A 
ATOM     65  C   UNL A   1      44.039  33.844  31.016  1.00  0.00     0.010 A 
ATOM     66  C   UNL A   1      43.455  34.377  33.701  1.00  0.00     0.020 A 
ATOM     67  C   UNL A   1      44.175  35.145  31.511  1.00  0.00     0.020 A 
ATOM     68  C   UNL A   1      43.866  35.406  32.847  1.00  0.00     0.054 A 
BRANCH  68  69
ATOM     69  S   UNL A   1      44.015  37.084  33.519  1.00  0.00     0.124 S 
ATOM     70  O   UNL A   1      44.292  37.866  32.316  1.00  0.00    -0.237 OA
ATOM     71  O   UNL A   1      42.705  37.304  34.123  1.00  0.00    -0.237 OA
ATOM     72  O   UNL A   1      45.126  36.983  34.463  1.00  0.00    -0.744 OA
ENDBRANCH  68  69
ENDBRANCH  49  63
BRANCH  50  73
ATOM     73  C   UNL A   1      42.606  23.668  27.897  1.00  0.00    -0.014 A 
ATOM     74  C   UNL A   1      43.000  23.436  26.568  1.00  0.00     0.010 A 
ATOM     75  C   UNL A   1      42.087  22.600  28.651  1.00  0.00     0.010 A 
ATOM     76  C   UNL A   1      42.858  22.168  25.997  1.00  0.00     0.020 A 
ATOM     77  C   UNL A   1      41.974  21.322  28.095  1.00  0.00     0.020 A 
ATOM     78  C   UNL A   1      42.348  21.118  26.767  1.00  0.00     0.054 A 
BRANCH  78  79
ATOM     79  S   UNL A   1      42.218  19.470  26.018  1.00  0.00     0.124 S 
ATOM     80  O   UNL A   1      42.718  18.611  27.086  1.00  0.00    -0.237 OA
ATOM     81  O   UNL A   1      40.789  19.365  25.736  1.00  0.00    -0.237 OA
ATOM     82  O   UNL A   1      43.073  19.563  24.837  1.00  0.00    -0.744 OA
ENDBRANCH  78  79
ENDBRANCH  50  73
BRANCH  62  83
ATOM     83  C   UNL A   1      47.821  26.968  31.156  1.00  0.00    -0.014 A 
ATOM     84  C   UNL A   1      48.923  27.233  30.323  1.00  0.00     0.010 A 
ATOM     85  C   UNL A   1      48.038  26.344  32.399  1.00  0.00     0.010 A 
ATOM     86  C   UNL A   1      50.211  26.852  30.712  1.00  0.00     0.020 A 
ATOM     87  C   UNL A   1      49.327  25.991  32.806  1.00  0.00     0.020 A 
ATOM     88  C   UNL A   1      50.404  26.235  31.952  1.00  0.00     0.054 A 
BRANCH  88  89
ATOM     89  S   UNL A   1      52.090  25.793  32.452  1.00  0.00     0.124 S 
ATOM     90  O   UNL A   1      52.894  26.740  31.682  1.00  0.00    -0.237 OA
ATOM     91  O   UNL A   1      52.065  26.018  33.895  1.00  0.00    -0.237 OA
ATOM     92  O   UNL A   1      52.218  24.395  32.048  1.00  0.00    -0.744 OA
ENDBRANCH  88  89
ENDBRANCH  62  83
ENDBRANCH  36  37
ENDBRANCH  28  31
ENDBRANCH  26  27
ENDBRANCH  25  26
ENDBRANCH  24  25
ENDBRANCH   1  24
TORSDOF 19
ENDMDL
MODEL 3
REMARK VINA RESULT:     -10.3      0.407      8.156
REMARK SMILES C[C@H](C(=O)NCCCCCCNC(=O)c1ccc(-c2c3nc(c(-c4ccc(S(=O)(=O)[O-])cc4)c4ccc([nH]4)c(-c4ccc(S(=O)(=O)[O-])cc4)c4nc(c(-c5ccc(S(=O)(=O)[O-])cc5)c5ccc2[nH]5)C=C4)C=C3)cc1)c1cccc(C(=O)c2ccccc2)c1
REMARK SMILES IDX 8 1 7 2 6 3 5 4 3 5 4 6 2 8 1 9 75 10 76 11 88 12 77 13
REMARK SMILES IDX 79 14 78 15 80 16 81 17 82 18 83 19 87 20 84 21 86 22 85 23
REMARK SMILES IDX 9 24 10 25 11 26 12 27 13 28 14 30 15 31 16 32 74 33 17 34
REMARK SMILES IDX 73 35 18 36 19 37 20 38 67 39 21 40 72 41 66 42 68 43 22 44
REMARK SMILES IDX 71 45 65 46 64 47 23 49 53 50 34 51 52 52 35 53 38 54 51 55
REMARK SMILES IDX 69 56 36 57 37 58 50 60 70 61 39 62 24 63 25 64 33 65 26 66
REMARK SMILES IDX 32 67 27 68 28 69 29 70 30 71 31 72 54 73 55 74 63 75 56 76
REMARK SMILES IDX 62 77 57 78 58 79 59 80 60 81 61 82 40 83 41 84 49 85 42 86
REMARK SMILES IDX 48 87 43 88 44 89 45 90 46 91 47 92
REMARK H PARENT 5 7 12 29 68 48 38 59
REMARK Flexibility Score: inf
ROOT
ATOM      1  C   UNL A   1      31.236  26.957  27.176  1.00  0.00     0.002 C 
ENDROOT
BRANCH   1   2
ATOM      2  C   UNL A   1      30.355  26.048  26.313  1.00  0.00     0.021 C 
BRANCH   2   3
ATOM      3  C   UNL A   1      30.827  24.603  26.243  1.00  0.00     0.116 C 
BRANCH   3   4
ATOM      4  N   UNL A   1      30.452  23.960  24.997  1.00  0.00    -0.356 N 
ATOM      5  C   UNL A   1      31.086  23.926  23.793  1.00  0.00     0.227 C 
ATOM      6  O   UNL A   1      30.618  23.175  22.932  1.00  0.00    -0.274 OA
ATOM      7  H   UNL A   1      29.600  23.468  25.027  1.00  0.00     0.163 HD
BRANCH   5   8
ATOM      8  C   UNL A   1      32.295  24.807  23.477  1.00  0.00     0.105 C 
ATOM      9  C   UNL A   1      33.227  24.126  22.463  1.00  0.00     0.023 C 
BRANCH   8  10
ATOM     10  C   UNL A   1      32.027  26.272  23.145  1.00  0.00    -0.035 A 
ATOM     11  C   UNL A   1      33.026  27.204  22.842  1.00  0.00     0.004 A 
ATOM     12  C   UNL A   1      30.693  26.725  23.151  1.00  0.00     0.016 A 
ATOM     13  C   UNL A   1      32.732  28.561  22.705  1.00  0.00     0.001 A 
ATOM     14  C   UNL A   1      30.379  28.081  22.968  1.00  0.00     0.023 A 
ATOM     15  C   UNL A   1      31.415  29.001  22.786  1.00  0.00     0.012 A 
BRANCH  14  16
ATOM     16  C   UNL A   1      28.978  28.587  22.890  1.00  0.00     0.193 C 
ATOM     17  O   UNL A   1      28.034  27.875  23.224  1.00  0.00    -0.289 OA
BRANCH  16  18
ATOM     18  C   UNL A   1      28.684  29.982  22.515  1.00  0.00     0.022 A 
ATOM     19  C   UNL A   1      28.774  30.962  23.509  1.00  0.00     0.012 A 
ATOM     20  C   UNL A   1      28.312  30.323  21.211  1.00  0.00     0.012 A 
ATOM     21  C   UNL A   1      28.536  32.296  23.186  1.00  0.00     0.001 A 
ATOM     22  C   UNL A   1      28.083  31.662  20.892  1.00  0.00     0.001 A 
ATOM     23  C   UNL A   1      28.200  32.646  21.876  1.00  0.00     0.000 A 
ENDBRANCH  16  18
ENDBRANCH  14  16
ENDBRANCH   8  10
ENDBRANCH   5   8
ENDBRANCH   3   4
ENDBRANCH   2   3
ENDBRANCH   1   2
BRANCH   1  24
ATOM     24  C   UNL A   1      32.043  28.015  26.413  1.00  0.00     0.002 C 
BRANCH  24  25
ATOM     25  C   UNL A   1      33.563  27.876  26.507  1.00  0.00     0.021 C 
BRANCH  25  26
ATOM     26  C   UNL A   1      34.348  29.094  26.033  1.00  0.00     0.116 C 
BRANCH  26  27
ATOM     27  N   UNL A   1      33.877  30.326  26.643  1.00  0.00    -0.352 N 
ATOM     28  C   UNL A   1      34.381  31.007  27.721  1.00  0.00     0.251 C 
ATOM     29  H   UNL A   1      33.083  30.728  26.223  1.00  0.00     0.163 HD
ATOM     30  O   UNL A   1      33.750  31.941  28.208  1.00  0.00    -0.269 OA
BRANCH  28  31
ATOM     31  C   UNL A   1      35.674  30.595  28.310  1.00  0.00     0.039 A 
ATOM     32  C   UNL A   1      36.848  31.187  27.843  1.00  0.00     0.014 A 
ATOM     33  C   UNL A   1      35.725  29.633  29.324  1.00  0.00     0.014 A 
ATOM     34  C   UNL A   1      38.070  30.857  28.433  1.00  0.00     0.010 A 
ATOM     35  C   UNL A   1      36.932  29.365  29.962  1.00  0.00     0.010 A 
ATOM     36  C   UNL A   1      38.119  29.969  29.520  1.00  0.00    -0.014 A 
BRANCH  36  37
ATOM     37  C   UNL A   1      39.399  29.665  30.208  1.00  0.00     0.031 A 
ATOM     38  C   UNL A   1      40.275  28.544  29.716  1.00  0.00     0.074 A 
ATOM     39  C   UNL A   1      39.746  30.362  31.308  1.00  0.00     0.049 A 
ATOM     40  N   UNL A   1      41.402  28.101  30.213  1.00  0.00    -0.248 NA
ATOM     41  C   UNL A   1      39.815  27.810  28.526  1.00  0.00     0.031 C 
ATOM     42  C   UNL A   1      38.966  31.449  31.905  1.00  0.00     0.029 A 
ATOM     43  N   UNL A   1      40.846  30.261  32.123  1.00  0.00    -0.354 N 
ATOM     44  C   UNL A   1      41.778  27.032  29.406  1.00  0.00     0.074 A 
ATOM     45  C   UNL A   1      40.731  26.859  28.423  1.00  0.00     0.031 C 
ATOM     46  C   UNL A   1      39.626  31.933  32.968  1.00  0.00     0.029 A 
ATOM     47  C   UNL A   1      40.851  31.164  33.160  1.00  0.00     0.049 A 
ATOM     48  H   UNL A   1      41.564  29.602  31.980  1.00  0.00     0.167 HD
ATOM     49  C   UNL A   1      42.901  26.278  29.466  1.00  0.00     0.031 A 
ATOM     50  C   UNL A   1      41.736  31.349  34.159  1.00  0.00     0.031 A 
ATOM     51  C   UNL A   1      43.941  26.458  30.445  1.00  0.00     0.049 A 
ATOM     52  C   UNL A   1      42.963  30.480  34.220  1.00  0.00     0.074 A 
ATOM     53  C   UNL A   1      45.140  25.777  30.559  1.00  0.00     0.029 A 
ATOM     54  N   UNL A   1      43.905  27.381  31.480  1.00  0.00    -0.354 N 
ATOM     55  N   UNL A   1      43.331  29.516  33.409  1.00  0.00    -0.248 NA
ATOM     56  C   UNL A   1      43.899  30.730  35.324  1.00  0.00     0.031 C 
ATOM     57  C   UNL A   1      45.801  26.245  31.699  1.00  0.00     0.029 A 
ATOM     58  C   UNL A   1      45.048  27.267  32.254  1.00  0.00     0.049 A 
ATOM     59  H   UNL A   1      43.175  28.021  31.640  1.00  0.00     0.167 HD
ATOM     60  C   UNL A   1      44.557  29.067  33.888  1.00  0.00     0.074 A 
ATOM     61  C   UNL A   1      44.873  29.874  35.048  1.00  0.00     0.031 C 
ATOM     62  C   UNL A   1      45.351  28.077  33.407  1.00  0.00     0.031 A 
BRANCH  49  63
ATOM     63  C   UNL A   1      43.060  25.180  28.446  1.00  0.00    -0.014 A 
ATOM     64  C   UNL A   1      43.586  25.441  27.168  1.00  0.00     0.010 A 
ATOM     65  C   UNL A   1      42.721  23.856  28.786  1.00  0.00     0.010 A 
ATOM     66  C   UNL A   1      43.730  24.411  26.235  1.00  0.00     0.020 A 
ATOM     67  C   UNL A   1      42.894  22.817  27.867  1.00  0.00     0.020 A 
ATOM     68  C   UNL A   1      43.382  23.104  26.591  1.00  0.00     0.054 A 
BRANCH  68  69
ATOM     69  S   UNL A   1      43.605  21.784  25.368  1.00  0.00     0.124 S 
ATOM     70  O   UNL A   1      43.461  22.512  24.109  1.00  0.00    -0.237 OA
ATOM     71  O   UNL A   1      44.950  21.299  25.662  1.00  0.00    -0.237 OA
ATOM     72  O   UNL A   1      42.527  20.845  25.669  1.00  0.00    -0.744 OA
ENDBRANCH  68  69
ENDBRANCH  49  63
BRANCH  50  73
ATOM     73  C   UNL A   1      41.502  32.411  35.176  1.00  0.00    -0.014 A 
ATOM     74  C   UNL A   1      40.941  32.094  36.426  1.00  0.00     0.010 A 
ATOM     75  C   UNL A   1      41.846  33.748  34.903  1.00  0.00     0.010 A 
ATOM     76  C   UNL A   1      40.710  33.094  37.375  1.00  0.00     0.020 A 
ATOM     77  C   UNL A   1      41.647  34.746  35.862  1.00  0.00     0.020 A 
ATOM     78  C   UNL A   1      41.068  34.414  37.087  1.00  0.00     0.054 A 
BRANCH  78  79
ATOM     79  S   UNL A   1      40.801  35.687  38.352  1.00  0.00     0.124 S 
ATOM     80  O   UNL A   1      41.962  36.551  38.164  1.00  0.00    -0.237 OA
ATOM     81  O   UNL A   1      39.515  36.257  37.959  1.00  0.00    -0.237 OA
ATOM     82  O   UNL A   1      40.781  34.928  39.601  1.00  0.00    -0.744 OA
ENDBRANCH  78  79
ENDBRANCH  50  73
BRANCH  62  83
ATOM     83  C   UNL A   1      46.660  27.833  34.110  1.00  0.00    -0.014 A 
ATOM     84  C   UNL A   1      46.770  26.895  35.153  1.00  0.00     0.010 A 
ATOM     85  C   UNL A   1      47.814  28.516  33.680  1.00  0.00     0.010 A 
ATOM     86  C   UNL A   1      48.003  26.670  35.773  1.00  0.00     0.020 A 
ATOM     87  C   UNL A   1      49.053  28.269  34.274  1.00  0.00     0.020 A 
ATOM     88  C   UNL A   1      49.137  27.358  35.328  1.00  0.00     0.054 A 
BRANCH  88  89
ATOM     89  S   UNL A   1      50.732  27.012  36.119  1.00  0.00     0.124 S 
ATOM     90  O   UNL A   1      50.325  26.625  37.468  1.00  0.00    -0.237 OA
ATOM     91  O   UNL A   1      51.272  25.936  35.292  1.00  0.00    -0.237 OA
ATOM     92  O   UNL A   1      51.449  28.281  36.025  1.00  0.00    -0.744 OA
ENDBRANCH  88  89
ENDBRANCH  62  83
ENDBRANCH  36  37
ENDBRANCH  28  31
ENDBRANCH  26  27
ENDBRANCH  25  26
ENDBRANCH  24  25
ENDBRANCH   1  24
TORSDOF 19
ENDMDL
