MODEL 1
REMARK VINA RESULT:     -11.0      0.000      0.000
REMARK SMILES CCS(=O)(=O)Nc1ccc(N2CC[NH+](C)CC2)cc1C(=O)NCCCCCCNC(=O)c1ccc(-c2c3nc(c(-c4ccc(S(=O)(=O)[O-])cc4)c4ccc([nH]4)c(-c4ccc(S(=O)(=O)[O-])cc4)c4nc(c(-c5ccc(S(=O)(=O)[O-])cc5)c5ccc2[nH]5)C=C4)C=C3)cc1
REMARK SMILES IDX 25 1 24 2 23 3 22 4 20 5 21 6 19 8 7 9 8 10 9 11 18 12 10 13
REMARK SMILES IDX 6 14 3 16 4 17 5 18 2 19 1 20 11 21 12 22 17 23 13 24 16 25
REMARK SMILES IDX 14 26 15 27 26 29 27 30 28 31 29 32 30 33 31 35 32 36 33 37
REMARK SMILES IDX 91 38 34 39 90 40 35 41 36 42 37 43 84 44 38 45 89 46 83 47
REMARK SMILES IDX 85 48 39 49 88 50 82 51 81 52 40 54 70 55 51 56 69 57 52 58
REMARK SMILES IDX 55 59 68 60 86 61 53 62 54 63 67 65 87 66 56 67 41 68 42 69
REMARK SMILES IDX 50 70 43 71 49 72 44 73 45 74 46 75 47 76 48 77 71 78 72 79
REMARK SMILES IDX 80 80 73 81 79 82 74 83 75 84 76 85 77 86 78 87 57 88 58 89
REMARK SMILES IDX 66 90 59 91 65 92 60 93 61 94 62 95 63 96 64 97
REMARK H PARENT 22 7 6 15 14 28 29 34 85 53 55 64
REMARK Flexibility Score: inf
ROOT
ATOM      1  C   UNL A   1      32.434  29.394  27.008  1.00  0.00     0.002 C 
ENDROOT
BRANCH   1   2
ATOM      2  C   UNL A   1      31.742  28.065  27.365  1.00  0.00     0.021 C 
BRANCH   2   3
ATOM      3  C   UNL A   1      31.878  26.912  26.369  1.00  0.00     0.116 C 
BRANCH   3   4
ATOM      4  N   UNL A   1      31.481  25.625  26.913  1.00  0.00    -0.352 N 
ATOM      5  C   UNL A   1      31.718  24.341  26.491  1.00  0.00     0.253 C 
ATOM      6  O   UNL A   1      31.232  23.416  27.146  1.00  0.00    -0.269 OA
ATOM      7  H   UNL A   1      30.943  25.685  27.735  1.00  0.00     0.163 HD
BRANCH   5   8
ATOM      8  C   UNL A   1      32.474  24.003  25.252  1.00  0.00     0.066 A 
ATOM      9  C   UNL A   1      32.067  24.247  23.940  1.00  0.00     0.061 A 
ATOM     10  C   UNL A   1      32.792  23.658  22.900  1.00  0.00     0.030 A 
ATOM     11  C   UNL A   1      34.046  23.100  23.131  1.00  0.00     0.028 A 
ATOM     12  C   UNL A   1      33.788  23.495  25.457  1.00  0.00     0.042 A 
ATOM     13  C   UNL A   1      34.634  23.140  24.394  1.00  0.00     0.038 A 
BRANCH   9  14
ATOM     14  N   UNL A   1      31.009  25.093  23.493  1.00  0.00    -0.283 N 
ATOM     15  H   UNL A   1      30.085  24.798  23.669  1.00  0.00     0.180 HD
BRANCH  14  16
ATOM     16  S   UNL A   1      31.217  26.545  22.696  1.00  0.00     0.232 S 
ATOM     17  O   UNL A   1      31.102  26.340  21.272  1.00  0.00    -0.207 OA
ATOM     18  O   UNL A   1      32.453  27.056  23.251  1.00  0.00    -0.207 OA
BRANCH  16  19
ATOM     19  C   UNL A   1      29.912  27.668  23.182  1.00  0.00     0.156 C 
ATOM     20  C   UNL A   1      30.352  29.117  23.294  1.00  0.00     0.023 C 
ENDBRANCH  16  19
ENDBRANCH  14  16
ENDBRANCH   9  14
BRANCH  13  21
ATOM     21  N   UNL A   1      35.989  22.935  24.542  1.00  0.00    -0.360 N 
ATOM     22  C   UNL A   1      36.698  21.706  24.162  1.00  0.00     0.178 C 
ATOM     23  C   UNL A   1      36.863  24.038  24.991  1.00  0.00     0.178 C 
ATOM     24  C   UNL A   1      37.721  21.295  25.254  1.00  0.00     0.283 C 
ATOM     25  C   UNL A   1      37.853  23.552  26.072  1.00  0.00     0.283 C 
ATOM     26  N   UNL A   1      38.648  22.388  25.634  1.00  0.00    -0.334 N 
ATOM     27  C   UNL A   1      39.553  21.962  26.698  1.00  0.00     0.332 C 
ATOM     28  H   UNL A   1      39.219  22.640  24.825  1.00  0.00     0.347 HD
ENDBRANCH  13  21
ENDBRANCH   5   8
ENDBRANCH   3   4
ENDBRANCH   2   3
ENDBRANCH   1   2
BRANCH   1  29
ATOM     29  C   UNL A   1      33.816  29.372  26.348  1.00  0.00     0.002 C 
BRANCH  29  30
ATOM     30  C   UNL A   1      35.031  29.217  27.254  1.00  0.00     0.021 C 
BRANCH  30  31
ATOM     31  C   UNL A   1      35.539  30.514  27.857  1.00  0.00     0.116 C 
BRANCH  31  32
ATOM     32  N   UNL A   1      35.421  30.555  29.307  1.00  0.00    -0.352 N 
ATOM     33  C   UNL A   1      36.309  30.118  30.259  1.00  0.00     0.251 C 
ATOM     34  H   UNL A   1      34.589  30.951  29.654  1.00  0.00     0.163 HD
ATOM     35  O   UNL A   1      35.999  30.120  31.446  1.00  0.00    -0.269 OA
BRANCH  33  36
ATOM     36  C   UNL A   1      37.630  29.614  29.833  1.00  0.00     0.039 A 
ATOM     37  C   UNL A   1      38.131  29.997  28.589  1.00  0.00     0.014 A 
ATOM     38  C   UNL A   1      38.385  28.798  30.680  1.00  0.00     0.014 A 
ATOM     39  C   UNL A   1      39.422  29.615  28.221  1.00  0.00     0.010 A 
ATOM     40  C   UNL A   1      39.702  28.499  30.353  1.00  0.00     0.010 A 
ATOM     41  C   UNL A   1      40.230  28.896  29.117  1.00  0.00    -0.014 A 
BRANCH  41  42
ATOM     42  C   UNL A   1      41.631  28.539  28.780  1.00  0.00     0.031 A 
ATOM     43  C   UNL A   1      42.697  29.602  28.796  1.00  0.00     0.074 A 
ATOM     44  C   UNL A   1      41.926  27.282  28.395  1.00  0.00     0.049 A 
ATOM     45  N   UNL A   1      43.958  29.507  28.464  1.00  0.00    -0.248 NA
ATOM     46  C   UNL A   1      42.285  30.953  29.211  1.00  0.00     0.031 C 
ATOM     47  C   UNL A   1      40.968  26.177  28.302  1.00  0.00     0.029 A 
ATOM     48  N   UNL A   1      43.115  26.722  28.003  1.00  0.00    -0.354 N 
ATOM     49  C   UNL A   1      44.483  30.785  28.614  1.00  0.00     0.074 A 
ATOM     50  C   UNL A   1      43.393  31.649  29.007  1.00  0.00     0.031 C 
ATOM     51  C   UNL A   1      41.615  25.066  27.911  1.00  0.00     0.029 A 
ATOM     52  C   UNL A   1      43.018  25.389  27.676  1.00  0.00     0.049 A 
ATOM     53  H   UNL A   1      43.960  27.227  27.959  1.00  0.00     0.167 HD
ATOM     54  C   UNL A   1      45.763  31.198  28.456  1.00  0.00     0.031 A 
ATOM     55  C   UNL A   1      43.951  24.528  27.227  1.00  0.00     0.031 A 
ATOM     56  C   UNL A   1      46.843  30.330  28.072  1.00  0.00     0.049 A 
ATOM     57  C   UNL A   1      45.362  25.015  27.039  1.00  0.00     0.074 A 
ATOM     58  C   UNL A   1      48.185  30.635  27.938  1.00  0.00     0.029 A 
ATOM     59  N   UNL A   1      46.703  28.985  27.755  1.00  0.00    -0.354 N 
ATOM     60  N   UNL A   1      45.855  26.213  27.250  1.00  0.00    -0.248 NA
ATOM     61  C   UNL A   1      46.346  24.034  26.563  1.00  0.00     0.031 C 
ATOM     62  C   UNL A   1      48.847  29.493  27.477  1.00  0.00     0.029 A 
ATOM     63  C   UNL A   1      47.931  28.456  27.396  1.00  0.00     0.049 A 
ATOM     64  H   UNL A   1      45.857  28.483  27.782  1.00  0.00     0.167 HD
ATOM     65  C   UNL A   1      47.212  26.121  26.962  1.00  0.00     0.074 A 
ATOM     66  C   UNL A   1      47.464  24.747  26.576  1.00  0.00     0.031 C 
ATOM     67  C   UNL A   1      48.164  27.085  27.016  1.00  0.00     0.031 A 
BRANCH  54  68
ATOM     68  C   UNL A   1      46.061  32.657  28.691  1.00  0.00    -0.014 A 
ATOM     69  C   UNL A   1      45.985  33.596  27.646  1.00  0.00     0.010 A 
ATOM     70  C   UNL A   1      46.381  33.103  29.987  1.00  0.00     0.010 A 
ATOM     71  C   UNL A   1      46.266  34.944  27.883  1.00  0.00     0.020 A 
ATOM     72  C   UNL A   1      46.628  34.457  30.235  1.00  0.00     0.020 A 
ATOM     73  C   UNL A   1      46.585  35.366  29.176  1.00  0.00     0.054 A 
BRANCH  73  74
ATOM     74  S   UNL A   1      46.916  37.127  29.457  1.00  0.00     0.124 S 
ATOM     75  O   UNL A   1      45.583  37.639  29.767  1.00  0.00    -0.237 OA
ATOM     76  O   UNL A   1      47.855  37.101  30.576  1.00  0.00    -0.237 OA
ATOM     77  O   UNL A   1      47.477  37.582  28.187  1.00  0.00    -0.744 OA
ENDBRANCH  73  74
ENDBRANCH  54  68
BRANCH  55  78
ATOM     78  C   UNL A   1      43.580  23.114  26.933  1.00  0.00    -0.014 A 
ATOM     79  C   UNL A   1      43.569  22.636  25.611  1.00  0.00     0.010 A 
ATOM     80  C   UNL A   1      43.249  22.233  27.980  1.00  0.00     0.010 A 
ATOM     81  C   UNL A   1      43.212  21.311  25.339  1.00  0.00     0.020 A 
ATOM     82  C   UNL A   1      42.923  20.901  27.715  1.00  0.00     0.020 A 
ATOM     83  C   UNL A   1      42.895  20.451  26.394  1.00  0.00     0.054 A 
BRANCH  83  84
ATOM     84  S   UNL A   1      42.479  18.724  26.020  1.00  0.00     0.124 S 
ATOM     85  O   UNL A   1      41.072  18.826  25.646  1.00  0.00    -0.237 OA
ATOM     86  O   UNL A   1      43.403  18.408  24.933  1.00  0.00    -0.237 OA
ATOM     87  O   UNL A   1      42.745  18.029  27.277  1.00  0.00    -0.744 OA
ENDBRANCH  83  84
ENDBRANCH  55  78
BRANCH  67  88
ATOM     88  C   UNL A   1      49.579  26.686  26.688  1.00  0.00    -0.014 A 
ATOM     89  C   UNL A   1      50.471  26.257  27.686  1.00  0.00     0.010 A 
ATOM     90  C   UNL A   1      49.998  26.676  25.344  1.00  0.00     0.010 A 
ATOM     91  C   UNL A   1      51.764  25.849  27.349  1.00  0.00     0.020 A 
ATOM     92  C   UNL A   1      51.278  26.237  25.000  1.00  0.00     0.020 A 
ATOM     93  C   UNL A   1      52.157  25.837  26.007  1.00  0.00     0.054 A 
BRANCH  93  94
ATOM     94  S   UNL A   1      53.821  25.246  25.593  1.00  0.00     0.124 S 
ATOM     95  O   UNL A   1      53.533  24.142  24.681  1.00  0.00    -0.237 OA
ATOM     96  O   UNL A   1      54.434  26.422  24.981  1.00  0.00    -0.237 OA
ATOM     97  O   UNL A   1      54.384  24.857  26.884  1.00  0.00    -0.744 OA
ENDBRANCH  93  94
ENDBRANCH  67  88
ENDBRANCH  41  42
ENDBRANCH  33  36
ENDBRANCH  31  32
ENDBRANCH  30  31
ENDBRANCH  29  30
ENDBRANCH   1  29
TORSDOF 20
ENDMDL
MODEL 2
REMARK VINA RESULT:     -10.7      6.529      9.113
REMARK SMILES CCS(=O)(=O)Nc1ccc(N2CC[NH+](C)CC2)cc1C(=O)NCCCCCCNC(=O)c1ccc(-c2c3nc(c(-c4ccc(S(=O)(=O)[O-])cc4)c4ccc([nH]4)c(-c4ccc(S(=O)(=O)[O-])cc4)c4nc(c(-c5ccc(S(=O)(=O)[O-])cc5)c5ccc2[nH]5)C=C4)C=C3)cc1
REMARK SMILES IDX 25 1 24 2 23 3 22 4 20 5 21 6 19 8 7 9 8 10 9 11 18 12 10 13
REMARK SMILES IDX 6 14 3 16 4 17 5 18 2 19 1 20 11 21 12 22 17 23 13 24 16 25
REMARK SMILES IDX 14 26 15 27 26 29 27 30 28 31 29 32 30 33 31 35 32 36 33 37
REMARK SMILES IDX 91 38 34 39 90 40 35 41 36 42 37 43 84 44 38 45 89 46 83 47
REMARK SMILES IDX 85 48 39 49 88 50 82 51 81 52 40 54 70 55 51 56 69 57 52 58
REMARK SMILES IDX 55 59 68 60 86 61 53 62 54 63 67 65 87 66 56 67 41 68 42 69
REMARK SMILES IDX 50 70 43 71 49 72 44 73 45 74 46 75 47 76 48 77 71 78 72 79
REMARK SMILES IDX 80 80 73 81 79 82 74 83 75 84 76 85 77 86 78 87 57 88 58 89
REMARK SMILES IDX 66 90 59 91 65 92 60 93 61 94 62 95 63 96 64 97
REMARK H PARENT 22 7 6 15 14 28 29 34 85 53 55 64
REMARK Flexibility Score: inf
ROOT
ATOM      1  C   UNL A   1      35.747  30.930  28.166  1.00  0.00     0.002 C 
ENDROOT
BRANCH   1   2
ATOM      2  C   UNL A   1      35.433  29.499  27.692  1.00  0.00     0.021 C 
BRANCH   2   3
ATOM      3  C   UNL A   1      34.170  29.298  26.852  1.00  0.00     0.116 C 
BRANCH   3   4
ATOM      4  N   UNL A   1      33.050  28.763  27.607  1.00  0.00    -0.352 N 
ATOM      5  C   UNL A   1      31.890  28.146  27.210  1.00  0.00     0.253 C 
ATOM      6  O   UNL A   1      31.087  27.805  28.081  1.00  0.00    -0.269 OA
ATOM      7  H   UNL A   1      33.139  28.863  28.583  1.00  0.00     0.163 HD
BRANCH   5   8
ATOM      8  C   UNL A   1      31.519  27.921  25.785  1.00  0.00     0.066 A 
ATOM      9  C   UNL A   1      31.716  26.751  25.051  1.00  0.00     0.061 A 
ATOM     10  C   UNL A   1      31.519  26.793  23.667  1.00  0.00     0.030 A 
ATOM     11  C   UNL A   1      30.860  27.866  23.073  1.00  0.00     0.028 A 
ATOM     12  C   UNL A   1      30.782  28.974  25.171  1.00  0.00     0.042 A 
ATOM     13  C   UNL A   1      30.347  28.913  23.838  1.00  0.00     0.038 A 
BRANCH   9  14
ATOM     14  N   UNL A   1      32.048  25.453  25.543  1.00  0.00    -0.283 N 
ATOM     15  H   UNL A   1      31.320  24.914  25.930  1.00  0.00     0.180 HD
BRANCH  14  16
ATOM     16  S   UNL A   1      33.575  24.780  25.510  1.00  0.00     0.232 S 
ATOM     17  O   UNL A   1      33.759  23.936  26.667  1.00  0.00    -0.207 OA
ATOM     18  O   UNL A   1      34.440  25.923  25.309  1.00  0.00    -0.207 OA
BRANCH  16  19
ATOM     19  C   UNL A   1      33.722  23.741  24.062  1.00  0.00     0.156 C 
ATOM     20  C   UNL A   1      35.128  23.669  23.493  1.00  0.00     0.023 C 
ENDBRANCH  16  19
ENDBRANCH  14  16
ENDBRANCH   9  14
BRANCH  13  21
ATOM     21  N   UNL A   1      29.394  29.760  23.313  1.00  0.00    -0.360 N 
ATOM     22  C   UNL A   1      28.325  29.352  22.393  1.00  0.00     0.178 C 
ATOM     23  C   UNL A   1      29.317  31.163  23.768  1.00  0.00     0.178 C 
ATOM     24  C   UNL A   1      28.160  30.380  21.242  1.00  0.00     0.283 C 
ATOM     25  C   UNL A   1      29.150  32.123  22.570  1.00  0.00     0.283 C 
ATOM     26  N   UNL A   1      27.996  31.775  21.717  1.00  0.00    -0.334 N 
ATOM     27  C   UNL A   1      27.898  32.703  20.594  1.00  0.00     0.332 C 
ATOM     28  H   UNL A   1      27.132  31.848  22.255  1.00  0.00     0.347 HD
ENDBRANCH  13  21
ENDBRANCH   5   8
ENDBRANCH   3   4
ENDBRANCH   2   3
ENDBRANCH   1   2
BRANCH   1  29
ATOM     29  C   UNL A   1      34.902  32.099  27.651  1.00  0.00     0.002 C 
BRANCH  29  30
ATOM     30  C   UNL A   1      33.918  32.742  28.621  1.00  0.00     0.021 C 
BRANCH  30  31
ATOM     31  C   UNL A   1      33.953  34.259  28.644  1.00  0.00     0.116 C 
BRANCH  31  32
ATOM     32  N   UNL A   1      33.056  34.837  29.634  1.00  0.00    -0.352 N 
ATOM     33  C   UNL A   1      33.162  34.834  31.002  1.00  0.00     0.251 C 
ATOM     34  H   UNL A   1      32.263  35.294  29.271  1.00  0.00     0.163 HD
ATOM     35  O   UNL A   1      32.249  35.267  31.698  1.00  0.00    -0.269 OA
BRANCH  33  36
ATOM     36  C   UNL A   1      34.375  34.271  31.629  1.00  0.00     0.039 A 
ATOM     37  C   UNL A   1      34.354  32.949  32.076  1.00  0.00     0.014 A 
ATOM     38  C   UNL A   1      35.539  35.036  31.736  1.00  0.00     0.014 A 
ATOM     39  C   UNL A   1      35.524  32.373  32.572  1.00  0.00     0.010 A 
ATOM     40  C   UNL A   1      36.723  34.434  32.141  1.00  0.00     0.010 A 
ATOM     41  C   UNL A   1      36.726  33.100  32.572  1.00  0.00    -0.014 A 
BRANCH  41  42
ATOM     42  C   UNL A   1      38.000  32.489  33.026  1.00  0.00     0.031 A 
ATOM     43  C   UNL A   1      38.522  32.789  34.406  1.00  0.00     0.074 A 
ATOM     44  C   UNL A   1      38.715  31.725  32.178  1.00  0.00     0.049 A 
ATOM     45  N   UNL A   1      39.644  32.412  34.961  1.00  0.00    -0.248 NA
ATOM     46  C   UNL A   1      37.686  33.647  35.263  1.00  0.00     0.031 C 
ATOM     47  C   UNL A   1      38.331  31.398  30.802  1.00  0.00     0.029 A 
ATOM     48  N   UNL A   1      39.920  31.090  32.343  1.00  0.00    -0.354 N 
ATOM     49  C   UNL A   1      39.657  33.001  36.221  1.00  0.00     0.074 A 
ATOM     50  C   UNL A   1      38.461  33.806  36.326  1.00  0.00     0.031 C 
ATOM     51  C   UNL A   1      39.265  30.598  30.262  1.00  0.00     0.029 A 
ATOM     52  C   UNL A   1      40.338  30.398  31.231  1.00  0.00     0.049 A 
ATOM     53  H   UNL A   1      40.438  31.128  33.181  1.00  0.00     0.167 HD
ATOM     54  C   UNL A   1      40.573  32.867  37.208  1.00  0.00     0.031 A 
ATOM     55  C   UNL A   1      41.463  29.690  31.011  1.00  0.00     0.031 A 
ATOM     56  C   UNL A   1      41.756  32.057  37.098  1.00  0.00     0.049 A 
ATOM     57  C   UNL A   1      42.476  29.573  32.116  1.00  0.00     0.074 A 
ATOM     58  C   UNL A   1      42.720  31.808  38.058  1.00  0.00     0.029 A 
ATOM     59  N   UNL A   1      42.140  31.367  35.956  1.00  0.00    -0.354 N 
ATOM     60  N   UNL A   1      42.440  30.081  33.326  1.00  0.00    -0.248 NA
ATOM     61  C   UNL A   1      43.679  28.778  31.834  1.00  0.00     0.031 C 
ATOM     62  C   UNL A   1      43.720  31.022  37.478  1.00  0.00     0.029 A 
ATOM     63  C   UNL A   1      43.342  30.719  36.179  1.00  0.00     0.049 A 
ATOM     64  H   UNL A   1      41.632  31.343  35.113  1.00  0.00     0.167 HD
ATOM     65  C   UNL A   1      43.598  29.643  33.958  1.00  0.00     0.074 A 
ATOM     66  C   UNL A   1      44.307  28.816  33.002  1.00  0.00     0.031 C 
ATOM     67  C   UNL A   1      44.033  29.898  35.216  1.00  0.00     0.031 A 
BRANCH  54  68
ATOM     68  C   UNL A   1      40.333  33.621  38.491  1.00  0.00    -0.014 A 
ATOM     69  C   UNL A   1      39.466  33.124  39.481  1.00  0.00     0.010 A 
ATOM     70  C   UNL A   1      41.019  34.826  38.729  1.00  0.00     0.010 A 
ATOM     71  C   UNL A   1      39.256  33.837  40.663  1.00  0.00     0.020 A 
ATOM     72  C   UNL A   1      40.838  35.526  39.926  1.00  0.00     0.020 A 
ATOM     73  C   UNL A   1      39.944  35.035  40.878  1.00  0.00     0.054 A 
BRANCH  73  74
ATOM     74  S   UNL A   1      39.672  35.924  42.436  1.00  0.00     0.124 S 
ATOM     75  O   UNL A   1      38.391  35.377  42.876  1.00  0.00    -0.237 OA
ATOM     76  O   UNL A   1      40.831  35.531  43.234  1.00  0.00    -0.237 OA
ATOM     77  O   UNL A   1      39.643  37.328  42.033  1.00  0.00    -0.744 OA
ENDBRANCH  73  74
ENDBRANCH  54  68
BRANCH  55  78
ATOM     78  C   UNL A   1      41.684  29.032  29.692  1.00  0.00    -0.014 A 
ATOM     79  C   UNL A   1      42.216  29.755  28.610  1.00  0.00     0.010 A 
ATOM     80  C   UNL A   1      41.375  27.669  29.517  1.00  0.00     0.010 A 
ATOM     81  C   UNL A   1      42.413  29.135  27.372  1.00  0.00     0.020 A 
ATOM     82  C   UNL A   1      41.601  27.039  28.291  1.00  0.00     0.020 A 
ATOM     83  C   UNL A   1      42.108  27.779  27.221  1.00  0.00     0.054 A 
BRANCH  83  84
ATOM     84  S   UNL A   1      42.416  26.986  25.619  1.00  0.00     0.124 S 
ATOM     85  O   UNL A   1      43.632  26.223  25.886  1.00  0.00    -0.237 OA
ATOM     86  O   UNL A   1      41.202  26.195  25.422  1.00  0.00    -0.237 OA
ATOM     87  O   UNL A   1      42.572  28.113  24.704  1.00  0.00    -0.744 OA
ENDBRANCH  83  84
ENDBRANCH  55  78
BRANCH  67  88
ATOM     88  C   UNL A   1      45.318  29.246  35.654  1.00  0.00    -0.014 A 
ATOM     89  C   UNL A   1      45.332  27.964  36.231  1.00  0.00     0.010 A 
ATOM     90  C   UNL A   1      46.540  29.904  35.418  1.00  0.00     0.010 A 
ATOM     91  C   UNL A   1      46.543  27.363  36.586  1.00  0.00     0.020 A 
ATOM     92  C   UNL A   1      47.754  29.293  35.741  1.00  0.00     0.020 A 
ATOM     93  C   UNL A   1      47.746  28.030  36.335  1.00  0.00     0.054 A 
BRANCH  93  94
ATOM     94  S   UNL A   1      49.304  27.202  36.752  1.00  0.00     0.124 S 
ATOM     95  O   UNL A   1      49.636  27.809  38.039  1.00  0.00    -0.237 OA
ATOM     96  O   UNL A   1      48.915  25.795  36.803  1.00  0.00    -0.237 OA
ATOM     97  O   UNL A   1      50.194  27.557  35.649  1.00  0.00    -0.744 OA
ENDBRANCH  93  94
ENDBRANCH  67  88
ENDBRANCH  41  42
ENDBRANCH  33  36
ENDBRANCH  31  32
ENDBRANCH  30  31
ENDBRANCH  29  30
ENDBRANCH   1  29
TORSDOF 20
ENDMDL
MODEL 3
REMARK VINA RESULT:     -10.4      1.363      8.148
REMARK SMILES CCS(=O)(=O)Nc1ccc(N2CC[NH+](C)CC2)cc1C(=O)NCCCCCCNC(=O)c1ccc(-c2c3nc(c(-c4ccc(S(=O)(=O)[O-])cc4)c4ccc([nH]4)c(-c4ccc(S(=O)(=O)[O-])cc4)c4nc(c(-c5ccc(S(=O)(=O)[O-])cc5)c5ccc2[nH]5)C=C4)C=C3)cc1
REMARK SMILES IDX 25 1 24 2 23 3 22 4 20 5 21 6 19 8 7 9 8 10 9 11 18 12 10 13
REMARK SMILES IDX 6 14 3 16 4 17 5 18 2 19 1 20 11 21 12 22 17 23 13 24 16 25
REMARK SMILES IDX 14 26 15 27 26 29 27 30 28 31 29 32 30 33 31 35 32 36 33 37
REMARK SMILES IDX 91 38 34 39 90 40 35 41 36 42 37 43 84 44 38 45 89 46 83 47
REMARK SMILES IDX 85 48 39 49 88 50 82 51 81 52 40 54 70 55 51 56 69 57 52 58
REMARK SMILES IDX 55 59 68 60 86 61 53 62 54 63 67 65 87 66 56 67 41 68 42 69
REMARK SMILES IDX 50 70 43 71 49 72 44 73 45 74 46 75 47 76 48 77 71 78 72 79
REMARK SMILES IDX 80 80 73 81 79 82 74 83 75 84 76 85 77 86 78 87 57 88 58 89
REMARK SMILES IDX 66 90 59 91 65 92 60 93 61 94 62 95 63 96 64 97
REMARK H PARENT 22 7 6 15 14 28 29 34 85 53 55 64
REMARK Flexibility Score: inf
ROOT
ATOM      1  C   UNL A   1      33.884  30.765  27.355  1.00  0.00     0.002 C 
ENDROOT
BRANCH   1   2
ATOM      2  C   UNL A   1      34.704  29.652  26.676  1.00  0.00     0.021 C 
BRANCH   2   3
ATOM      3  C   UNL A   1      34.020  28.298  26.475  1.00  0.00     0.116 C 
BRANCH   3   4
ATOM      4  N   UNL A   1      32.770  28.165  27.202  1.00  0.00    -0.352 N 
ATOM      5  C   UNL A   1      31.703  27.318  27.041  1.00  0.00     0.253 C 
ATOM      6  O   UNL A   1      30.743  27.442  27.804  1.00  0.00    -0.269 OA
ATOM      7  H   UNL A   1      32.669  28.800  27.949  1.00  0.00     0.163 HD
BRANCH   5   8
ATOM      8  C   UNL A   1      31.612  26.300  25.956  1.00  0.00     0.066 A 
ATOM      9  C   UNL A   1      30.887  26.416  24.770  1.00  0.00     0.061 A 
ATOM     10  C   UNL A   1      30.728  25.276  23.975  1.00  0.00     0.030 A 
ATOM     11  C   UNL A   1      31.508  24.143  24.189  1.00  0.00     0.028 A 
ATOM     12  C   UNL A   1      32.452  25.161  26.113  1.00  0.00     0.042 A 
ATOM     13  C   UNL A   1      32.493  24.119  25.175  1.00  0.00     0.038 A 
BRANCH   9  14
ATOM     14  N   UNL A   1      30.312  27.593  24.204  1.00  0.00    -0.283 N 
ATOM     15  H   UNL A   1      29.329  27.638  24.150  1.00  0.00     0.180 HD
BRANCH  14  16
ATOM     16  S   UNL A   1      31.178  28.899  23.629  1.00  0.00     0.232 S 
ATOM     17  O   UNL A   1      32.385  28.437  22.986  1.00  0.00    -0.207 OA
ATOM     18  O   UNL A   1      31.267  29.773  24.779  1.00  0.00    -0.207 OA
BRANCH  16  19
ATOM     19  C   UNL A   1      30.202  29.745  22.392  1.00  0.00     0.156 C 
ATOM     20  C   UNL A   1      28.752  29.298  22.337  1.00  0.00     0.023 C 
ENDBRANCH  16  19
ENDBRANCH  14  16
ENDBRANCH   9  14
BRANCH  13  21
ATOM     21  N   UNL A   1      33.492  23.169  25.142  1.00  0.00    -0.360 N 
ATOM     22  C   UNL A   1      34.119  22.570  26.327  1.00  0.00     0.178 C 
ATOM     23  C   UNL A   1      33.915  22.581  23.855  1.00  0.00     0.178 C 
ATOM     24  C   UNL A   1      35.658  22.476  26.154  1.00  0.00     0.283 C 
ATOM     25  C   UNL A   1      35.456  22.518  23.758  1.00  0.00     0.283 C 
ATOM     26  N   UNL A   1      36.069  21.805  24.897  1.00  0.00    -0.334 N 
ATOM     27  C   UNL A   1      37.523  21.791  24.761  1.00  0.00     0.332 C 
ATOM     28  H   UNL A   1      35.750  20.836  24.913  1.00  0.00     0.347 HD
ENDBRANCH  13  21
ENDBRANCH   5   8
ENDBRANCH   3   4
ENDBRANCH   2   3
ENDBRANCH   1   2
BRANCH   1  29
ATOM     29  C   UNL A   1      34.588  32.041  27.828  1.00  0.00     0.002 C 
BRANCH  29  30
ATOM     30  C   UNL A   1      36.054  31.933  28.227  1.00  0.00     0.021 C 
BRANCH  30  31
ATOM     31  C   UNL A   1      36.354  32.363  29.652  1.00  0.00     0.116 C 
BRANCH  31  32
ATOM     32  N   UNL A   1      36.079  31.323  30.633  1.00  0.00    -0.352 N 
ATOM     33  C   UNL A   1      36.857  30.253  30.999  1.00  0.00     0.251 C 
ATOM     34  H   UNL A   1      35.214  31.398  31.098  1.00  0.00     0.163 HD
ATOM     35  O   UNL A   1      36.419  29.399  31.763  1.00  0.00    -0.269 OA
BRANCH  33  36
ATOM     36  C   UNL A   1      38.216  30.125  30.437  1.00  0.00     0.039 A 
ATOM     37  C   UNL A   1      39.302  30.028  31.307  1.00  0.00     0.014 A 
ATOM     38  C   UNL A   1      38.409  30.062  29.054  1.00  0.00     0.014 A 
ATOM     39  C   UNL A   1      40.578  29.800  30.791  1.00  0.00     0.010 A 
ATOM     40  C   UNL A   1      39.662  29.741  28.548  1.00  0.00     0.010 A 
ATOM     41  C   UNL A   1      40.761  29.616  29.410  1.00  0.00    -0.014 A 
BRANCH  41  42
ATOM     42  C   UNL A   1      42.095  29.301  28.841  1.00  0.00     0.031 A 
ATOM     43  C   UNL A   1      42.386  27.910  28.345  1.00  0.00     0.074 A 
ATOM     44  C   UNL A   1      43.058  30.243  28.836  1.00  0.00     0.049 A 
ATOM     45  N   UNL A   1      43.506  27.419  27.883  1.00  0.00    -0.248 NA
ATOM     46  C   UNL A   1      41.282  26.937  28.404  1.00  0.00     0.031 C 
ATOM     47  C   UNL A   1      42.906  31.615  29.327  1.00  0.00     0.029 A 
ATOM     48  N   UNL A   1      44.361  30.189  28.408  1.00  0.00    -0.354 N 
ATOM     49  C   UNL A   1      43.246  26.080  27.614  1.00  0.00     0.074 A 
ATOM     50  C   UNL A   1      41.884  25.821  28.019  1.00  0.00     0.031 C 
ATOM     51  C   UNL A   1      44.059  32.279  29.143  1.00  0.00     0.029 A 
ATOM     52  C   UNL A   1      45.047  31.370  28.571  1.00  0.00     0.049 A 
ATOM     53  H   UNL A   1      44.767  29.379  28.021  1.00  0.00     0.167 HD
ATOM     54  C   UNL A   1      44.064  25.154  27.060  1.00  0.00     0.031 A 
ATOM     55  C   UNL A   1      46.328  31.683  28.300  1.00  0.00     0.031 A 
ATOM     56  C   UNL A   1      45.417  25.423  26.652  1.00  0.00     0.049 A 
ATOM     57  C   UNL A   1      47.224  30.632  27.705  1.00  0.00     0.074 A 
ATOM     58  C   UNL A   1      46.313  24.571  26.030  1.00  0.00     0.029 A 
ATOM     59  N   UNL A   1      46.072  26.634  26.829  1.00  0.00    -0.354 N 
ATOM     60  N   UNL A   1      46.942  29.388  27.394  1.00  0.00    -0.248 NA
ATOM     61  C   UNL A   1      48.609  31.026  27.413  1.00  0.00     0.031 C 
ATOM     62  C   UNL A   1      47.529  25.246  25.891  1.00  0.00     0.029 A 
ATOM     63  C   UNL A   1      47.370  26.542  26.357  1.00  0.00     0.049 A 
ATOM     64  H   UNL A   1      45.672  27.439  27.231  1.00  0.00     0.167 HD
ATOM     65  C   UNL A   1      48.105  28.861  26.842  1.00  0.00     0.074 A 
ATOM     66  C   UNL A   1      49.088  29.925  26.848  1.00  0.00     0.031 C 
ATOM     67  C   UNL A   1      48.335  27.612  26.369  1.00  0.00     0.031 A 
BRANCH  54  68
ATOM     68  C   UNL A   1      43.518  23.761  26.873  1.00  0.00    -0.014 A 
ATOM     69  C   UNL A   1      43.265  23.243  25.590  1.00  0.00     0.010 A 
ATOM     70  C   UNL A   1      43.294  22.944  27.995  1.00  0.00     0.010 A 
ATOM     71  C   UNL A   1      42.758  21.950  25.435  1.00  0.00     0.020 A 
ATOM     72  C   UNL A   1      42.820  21.637  27.844  1.00  0.00     0.020 A 
ATOM     73  C   UNL A   1      42.540  21.155  26.564  1.00  0.00     0.054 A 
BRANCH  73  74
ATOM     74  S   UNL A   1      41.908  19.471  26.330  1.00  0.00     0.124 S 
ATOM     75  O   UNL A   1      40.467  19.696  26.255  1.00  0.00    -0.237 OA
ATOM     76  O   UNL A   1      42.546  19.062  25.081  1.00  0.00    -0.237 OA
ATOM     77  O   UNL A   1      42.366  18.760  27.522  1.00  0.00    -0.744 OA
ENDBRANCH  73  74
ENDBRANCH  54  68
BRANCH  55  78
ATOM     78  C   UNL A   1      46.836  33.056  28.583  1.00  0.00    -0.014 A 
ATOM     79  C   UNL A   1      46.747  34.068  27.611  1.00  0.00     0.010 A 
ATOM     80  C   UNL A   1      47.402  33.361  29.835  1.00  0.00     0.010 A 
ATOM     81  C   UNL A   1      47.233  35.352  27.878  1.00  0.00     0.020 A 
ATOM     82  C   UNL A   1      47.858  34.651  30.117  1.00  0.00     0.020 A 
ATOM     83  C   UNL A   1      47.782  35.636  29.131  1.00  0.00     0.054 A 
BRANCH  83  84
ATOM     84  S   UNL A   1      48.365  37.321  29.470  1.00  0.00     0.124 S 
ATOM     85  O   UNL A   1      48.517  37.865  28.124  1.00  0.00    -0.237 OA
ATOM     86  O   UNL A   1      47.268  37.879  30.258  1.00  0.00    -0.237 OA
ATOM     87  O   UNL A   1      49.609  37.112  30.205  1.00  0.00    -0.744 OA
ENDBRANCH  83  84
ENDBRANCH  55  78
BRANCH  67  88
ATOM     88  C   UNL A   1      49.692  27.329  25.780  1.00  0.00    -0.014 A 
ATOM     89  C   UNL A   1      50.761  26.884  26.578  1.00  0.00     0.010 A 
ATOM     90  C   UNL A   1      49.878  27.446  24.389  1.00  0.00     0.010 A 
ATOM     91  C   UNL A   1      51.997  26.585  25.999  1.00  0.00     0.020 A 
ATOM     92  C   UNL A   1      51.102  27.116  23.803  1.00  0.00     0.020 A 
ATOM     93  C   UNL A   1      52.158  26.699  24.614  1.00  0.00     0.054 A 
BRANCH  93  94
ATOM     94  S   UNL A   1      53.755  26.247  23.883  1.00  0.00     0.124 S 
ATOM     95  O   UNL A   1      53.392  25.997  22.491  1.00  0.00    -0.237 OA
ATOM     96  O   UNL A   1      54.562  27.442  24.117  1.00  0.00    -0.237 OA
ATOM     97  O   UNL A   1      54.164  25.067  24.641  1.00  0.00    -0.744 OA
ENDBRANCH  93  94
ENDBRANCH  67  88
ENDBRANCH  41  42
ENDBRANCH  33  36
ENDBRANCH  31  32
ENDBRANCH  30  31
ENDBRANCH  29  30
ENDBRANCH   1  29
TORSDOF 20
ENDMDL
