MODEL 1
REMARK VINA RESULT:     -10.0      0.000      0.000
REMARK SMILES CC[C@@H](C)C(=O)Nc1cccc(C(=O)NCCCCCCNC(=O)c2ccc(-c3c4nc(c(-c5ccc(S(=O)(=O)[O-])cc5)c5ccc([nH]5)c(-c5ccc(S(=O)(=O)[O-])cc5)c5nc(c(-c6ccc(S(=O)(=O)[O-])cc6)c6ccc3[nH]6)C=C5)C=C4)cc2)c1
REMARK SMILES IDX 18 1 17 2 16 3 15 4 13 5 14 6 12 8 8 9 9 10 85 11 10 12
REMARK SMILES IDX 11 13 7 14 5 15 6 16 3 18 4 19 2 20 1 21 19 22 20 23 21 24
REMARK SMILES IDX 22 25 23 26 24 28 25 29 26 30 84 31 27 32 83 33 28 34 29 35
REMARK SMILES IDX 30 36 77 37 31 38 82 39 76 40 78 41 32 42 81 43 75 44 74 45
REMARK SMILES IDX 33 47 63 48 44 49 62 50 45 51 48 52 61 53 79 54 46 55 47 56
REMARK SMILES IDX 60 58 80 59 49 60 34 61 35 62 43 63 36 64 42 65 37 66 38 67
REMARK SMILES IDX 39 68 40 69 41 70 64 71 65 72 73 73 66 74 72 75 67 76 68 77
REMARK SMILES IDX 69 78 70 79 71 80 50 81 51 82 59 83 52 84 58 85 53 86 54 87
REMARK SMILES IDX 55 88 56 89 57 90
REMARK H PARENT 15 7 7 17 22 27 78 46 48 57
REMARK Flexibility Score: inf
ROOT
ATOM      1  C   UNL A   1      33.729  27.516  24.731  1.00  0.00     0.002 C 
ENDROOT
BRANCH   1   2
ATOM      2  C   UNL A   1      33.508  28.958  24.278  1.00  0.00     0.021 C 
BRANCH   2   3
ATOM      3  C   UNL A   1      33.449  29.130  22.766  1.00  0.00     0.116 C 
BRANCH   3   4
ATOM      4  N   UNL A   1      32.105  29.361  22.273  1.00  0.00    -0.352 N 
ATOM      5  C   UNL A   1      30.949  28.622  22.219  1.00  0.00     0.251 C 
ATOM      6  O   UNL A   1      29.936  29.231  21.866  1.00  0.00    -0.269 OA
ATOM      7  H   UNL A   1      31.995  30.261  21.887  1.00  0.00     0.163 HD
BRANCH   5   8
ATOM      8  C   UNL A   1      30.809  27.176  22.591  1.00  0.00     0.041 A 
ATOM      9  C   UNL A   1      31.523  24.851  22.649  1.00  0.00     0.041 A 
ATOM     10  C   UNL A   1      30.473  24.511  23.489  1.00  0.00     0.026 A 
ATOM     11  C   UNL A   1      31.592  26.135  22.106  1.00  0.00     0.040 A 
ATOM     12  C   UNL A   1      29.611  25.513  23.929  1.00  0.00     0.003 A 
ATOM     13  C   UNL A   1      29.806  26.839  23.517  1.00  0.00     0.014 A 
BRANCH   9  14
ATOM     14  N   UNL A   1      32.484  23.902  22.298  1.00  0.00    -0.326 N 
ATOM     15  C   UNL A   1      33.640  23.572  22.963  1.00  0.00     0.227 C 
ATOM     16  O   UNL A   1      34.558  23.070  22.307  1.00  0.00    -0.274 OA
ATOM     17  H   UNL A   1      32.311  23.403  21.467  1.00  0.00     0.169 HD
BRANCH  15  18
ATOM     18  C   UNL A   1      33.762  23.677  24.503  1.00  0.00     0.075 C 
ATOM     19  C   UNL A   1      35.110  24.265  24.919  1.00  0.00     0.018 C 
BRANCH  18  20
ATOM     20  C   UNL A   1      33.397  22.415  25.284  1.00  0.00     0.010 C 
ATOM     21  C   UNL A   1      32.342  21.527  24.635  1.00  0.00     0.005 C 
ENDBRANCH  18  20
ENDBRANCH  15  18
ENDBRANCH   9  14
ENDBRANCH   5   8
ENDBRANCH   3   4
ENDBRANCH   2   3
ENDBRANCH   1   2
BRANCH   1  22
ATOM     22  C   UNL A   1      32.615  26.918  25.601  1.00  0.00     0.002 C 
BRANCH  22  23
ATOM     23  C   UNL A   1      32.364  27.614  26.942  1.00  0.00     0.021 C 
BRANCH  23  24
ATOM     24  C   UNL A   1      33.590  28.268  27.571  1.00  0.00     0.116 C 
BRANCH  24  25
ATOM     25  N   UNL A   1      33.453  29.711  27.672  1.00  0.00    -0.352 N 
ATOM     26  C   UNL A   1      34.355  30.645  28.105  1.00  0.00     0.251 C 
ATOM     27  H   UNL A   1      32.582  30.070  27.387  1.00  0.00     0.163 HD
ATOM     28  O   UNL A   1      33.986  31.805  28.291  1.00  0.00    -0.269 OA
BRANCH  26  29
ATOM     29  C   UNL A   1      35.760  30.264  28.359  1.00  0.00     0.039 A 
ATOM     30  C   UNL A   1      36.140  29.915  29.657  1.00  0.00     0.014 A 
ATOM     31  C   UNL A   1      36.708  30.284  27.332  1.00  0.00     0.014 A 
ATOM     32  C   UNL A   1      37.463  29.557  29.918  1.00  0.00     0.010 A 
ATOM     33  C   UNL A   1      38.006  29.847  27.576  1.00  0.00     0.010 A 
ATOM     34  C   UNL A   1      38.404  29.504  28.877  1.00  0.00    -0.014 A 
BRANCH  34  35
ATOM     35  C   UNL A   1      39.818  29.139  29.137  1.00  0.00     0.031 A 
ATOM     36  C   UNL A   1      40.757  30.152  29.736  1.00  0.00     0.074 A 
ATOM     37  C   UNL A   1      40.269  27.916  28.795  1.00  0.00     0.049 A 
ATOM     38  N   UNL A   1      42.034  30.040  30.001  1.00  0.00    -0.248 NA
ATOM     39  C   UNL A   1      40.195  31.476  30.051  1.00  0.00     0.031 C 
ATOM     40  C   UNL A   1      39.465  26.860  28.173  1.00  0.00     0.029 A 
ATOM     41  N   UNL A   1      41.515  27.355  28.917  1.00  0.00    -0.354 N 
ATOM     42  C   UNL A   1      42.428  31.280  30.492  1.00  0.00     0.074 A 
ATOM     43  C   UNL A   1      41.271  32.145  30.435  1.00  0.00     0.031 C 
ATOM     44  C   UNL A   1      40.231  25.771  27.999  1.00  0.00     0.029 A 
ATOM     45  C   UNL A   1      41.586  26.063  28.455  1.00  0.00     0.049 A 
ATOM     46  H   UNL A   1      42.285  27.833  29.302  1.00  0.00     0.167 HD
ATOM     47  C   UNL A   1      43.637  31.659  30.971  1.00  0.00     0.031 A 
ATOM     48  C   UNL A   1      42.627  25.209  28.401  1.00  0.00     0.031 A 
ATOM     49  C   UNL A   1      44.782  30.790  31.034  1.00  0.00     0.049 A 
ATOM     50  C   UNL A   1      43.962  25.651  28.938  1.00  0.00     0.074 A 
ATOM     51  C   UNL A   1      46.039  31.057  31.546  1.00  0.00     0.029 A 
ATOM     52  N   UNL A   1      44.808  29.483  30.569  1.00  0.00    -0.354 N 
ATOM     53  N   UNL A   1      44.301  26.808  29.454  1.00  0.00    -0.248 NA
ATOM     54  C   UNL A   1      45.048  24.663  28.903  1.00  0.00     0.031 C 
ATOM     55  C   UNL A   1      46.843  29.931  31.339  1.00  0.00     0.029 A 
ATOM     56  C   UNL A   1      46.066  28.936  30.766  1.00  0.00     0.049 A 
ATOM     57  H   UNL A   1      44.046  29.013  30.161  1.00  0.00     0.167 HD
ATOM     58  C   UNL A   1      45.631  26.675  29.842  1.00  0.00     0.074 A 
ATOM     59  C   UNL A   1      46.028  25.321  29.508  1.00  0.00     0.031 C 
ATOM     60  C   UNL A   1      46.445  27.587  30.429  1.00  0.00     0.031 A 
BRANCH  47  61
ATOM     61  C   UNL A   1      43.781  33.082  31.449  1.00  0.00    -0.014 A 
ATOM     62  C   UNL A   1      44.157  34.114  30.568  1.00  0.00     0.010 A 
ATOM     63  C   UNL A   1      43.517  33.398  32.794  1.00  0.00     0.010 A 
ATOM     64  C   UNL A   1      44.321  35.421  31.035  1.00  0.00     0.020 A 
ATOM     65  C   UNL A   1      43.646  34.711  33.258  1.00  0.00     0.020 A 
ATOM     66  C   UNL A   1      44.068  35.710  32.378  1.00  0.00     0.054 A 
BRANCH  66  67
ATOM     67  S   UNL A   1      44.282  37.417  32.955  1.00  0.00     0.124 S 
ATOM     68  O   UNL A   1      44.154  38.172  31.712  1.00  0.00    -0.237 OA
ATOM     69  O   UNL A   1      43.179  37.575  33.901  1.00  0.00    -0.237 OA
ATOM     70  O   UNL A   1      45.615  37.418  33.551  1.00  0.00    -0.744 OA
ENDBRANCH  66  67
ENDBRANCH  47  61
BRANCH  48  71
ATOM     71  C   UNL A   1      42.435  23.841  27.845  1.00  0.00    -0.014 A 
ATOM     72  C   UNL A   1      42.121  22.763  28.691  1.00  0.00     0.010 A 
ATOM     73  C   UNL A   1      42.542  23.614  26.461  1.00  0.00     0.010 A 
ATOM     74  C   UNL A   1      41.933  21.480  28.166  1.00  0.00     0.020 A 
ATOM     75  C   UNL A   1      42.326  22.339  25.929  1.00  0.00     0.020 A 
ATOM     76  C   UNL A   1      42.033  21.278  26.787  1.00  0.00     0.054 A 
BRANCH  76  77
ATOM     77  S   UNL A   1      41.729  19.617  26.124  1.00  0.00     0.124 S 
ATOM     78  O   UNL A   1      42.134  18.765  27.237  1.00  0.00    -0.237 OA
ATOM     79  O   UNL A   1      40.297  19.650  25.839  1.00  0.00    -0.237 OA
ATOM     80  O   UNL A   1      42.590  19.557  24.944  1.00  0.00    -0.744 OA
ENDBRANCH  76  77
ENDBRANCH  48  71
BRANCH  60  81
ATOM     81  C   UNL A   1      47.833  27.136  30.806  1.00  0.00    -0.014 A 
ATOM     82  C   UNL A   1      48.100  26.514  32.038  1.00  0.00     0.010 A 
ATOM     83  C   UNL A   1      48.882  27.303  29.883  1.00  0.00     0.010 A 
ATOM     84  C   UNL A   1      49.398  26.108  32.357  1.00  0.00     0.020 A 
ATOM     85  C   UNL A   1      50.174  26.869  30.184  1.00  0.00     0.020 A 
ATOM     86  C   UNL A   1      50.428  26.289  31.427  1.00  0.00     0.054 A 
BRANCH  86  87
ATOM     87  S   UNL A   1      52.100  25.730  31.853  1.00  0.00     0.124 S 
ATOM     88  O   UNL A   1      51.888  24.309  32.116  1.00  0.00    -0.237 OA
ATOM     89  O   UNL A   1      52.859  26.040  30.643  1.00  0.00    -0.237 OA
ATOM     90  O   UNL A   1      52.448  26.535  33.022  1.00  0.00    -0.744 OA
ENDBRANCH  86  87
ENDBRANCH  60  81
ENDBRANCH  34  35
ENDBRANCH  26  29
ENDBRANCH  24  25
ENDBRANCH  23  24
ENDBRANCH  22  23
ENDBRANCH   1  22
TORSDOF 19
ENDMDL
MODEL 2
REMARK VINA RESULT:      -9.8      1.289      2.612
REMARK SMILES CC[C@@H](C)C(=O)Nc1cccc(C(=O)NCCCCCCNC(=O)c2ccc(-c3c4nc(c(-c5ccc(S(=O)(=O)[O-])cc5)c5ccc([nH]5)c(-c5ccc(S(=O)(=O)[O-])cc5)c5nc(c(-c6ccc(S(=O)(=O)[O-])cc6)c6ccc3[nH]6)C=C5)C=C4)cc2)c1
REMARK SMILES IDX 18 1 17 2 16 3 15 4 13 5 14 6 12 8 8 9 9 10 85 11 10 12
REMARK SMILES IDX 11 13 7 14 5 15 6 16 3 18 4 19 2 20 1 21 19 22 20 23 21 24
REMARK SMILES IDX 22 25 23 26 24 28 25 29 26 30 84 31 27 32 83 33 28 34 29 35
REMARK SMILES IDX 30 36 77 37 31 38 82 39 76 40 78 41 32 42 81 43 75 44 74 45
REMARK SMILES IDX 33 47 63 48 44 49 62 50 45 51 48 52 61 53 79 54 46 55 47 56
REMARK SMILES IDX 60 58 80 59 49 60 34 61 35 62 43 63 36 64 42 65 37 66 38 67
REMARK SMILES IDX 39 68 40 69 41 70 64 71 65 72 73 73 66 74 72 75 67 76 68 77
REMARK SMILES IDX 69 78 70 79 71 80 50 81 51 82 59 83 52 84 58 85 53 86 54 87
REMARK SMILES IDX 55 88 56 89 57 90
REMARK H PARENT 15 7 7 17 22 27 78 46 48 57
REMARK Flexibility Score: inf
ROOT
ATOM      1  C   UNL A   1      30.644  26.701  25.835  1.00  0.00     0.002 C 
ENDROOT
BRANCH   1   2
ATOM      2  C   UNL A   1      30.279  26.687  24.352  1.00  0.00     0.021 C 
BRANCH   2   3
ATOM      3  C   UNL A   1      30.145  25.290  23.761  1.00  0.00     0.116 C 
BRANCH   3   4
ATOM      4  N   UNL A   1      31.283  24.905  22.948  1.00  0.00    -0.352 N 
ATOM      5  C   UNL A   1      32.314  24.008  23.084  1.00  0.00     0.251 C 
ATOM      6  O   UNL A   1      33.017  23.840  22.084  1.00  0.00    -0.269 OA
ATOM      7  H   UNL A   1      31.325  25.403  22.099  1.00  0.00     0.163 HD
BRANCH   5   8
ATOM      8  C   UNL A   1      32.622  23.196  24.306  1.00  0.00     0.041 A 
ATOM      9  C   UNL A   1      33.806  21.470  25.546  1.00  0.00     0.041 A 
ATOM     10  C   UNL A   1      33.190  21.846  26.730  1.00  0.00     0.026 A 
ATOM     11  C   UNL A   1      33.412  22.052  24.341  1.00  0.00     0.040 A 
ATOM     12  C   UNL A   1      32.322  22.936  26.721  1.00  0.00     0.003 A 
ATOM     13  C   UNL A   1      32.077  23.629  25.527  1.00  0.00     0.014 A 
BRANCH   9  14
ATOM     14  N   UNL A   1      34.783  20.473  25.543  1.00  0.00    -0.326 N 
ATOM     15  C   UNL A   1      36.067  20.537  25.059  1.00  0.00     0.227 C 
ATOM     16  O   UNL A   1      36.613  19.479  24.731  1.00  0.00    -0.274 OA
ATOM     17  H   UNL A   1      34.518  19.611  25.939  1.00  0.00     0.169 HD
BRANCH  15  18
ATOM     18  C   UNL A   1      36.879  21.857  25.053  1.00  0.00     0.075 C 
ATOM     19  C   UNL A   1      36.943  22.467  23.653  1.00  0.00     0.018 C 
BRANCH  18  20
ATOM     20  C   UNL A   1      38.243  21.798  25.740  1.00  0.00     0.010 C 
ATOM     21  C   UNL A   1      38.729  23.112  26.340  1.00  0.00     0.005 C 
ENDBRANCH  18  20
ENDBRANCH  15  18
ENDBRANCH   9  14
ENDBRANCH   5   8
ENDBRANCH   3   4
ENDBRANCH   2   3
ENDBRANCH   1   2
BRANCH   1  22
ATOM     22  C   UNL A   1      31.530  27.871  26.287  1.00  0.00     0.002 C 
BRANCH  22  23
ATOM     23  C   UNL A   1      32.970  27.861  25.766  1.00  0.00     0.021 C 
BRANCH  23  24
ATOM     24  C   UNL A   1      34.028  28.294  26.776  1.00  0.00     0.116 C 
BRANCH  24  25
ATOM     25  N   UNL A   1      33.805  29.645  27.262  1.00  0.00    -0.352 N 
ATOM     26  C   UNL A   1      34.612  30.441  28.028  1.00  0.00     0.251 C 
ATOM     27  H   UNL A   1      32.945  30.047  27.002  1.00  0.00     0.163 HD
ATOM     28  O   UNL A   1      34.166  31.491  28.493  1.00  0.00    -0.269 OA
BRANCH  26  29
ATOM     29  C   UNL A   1      36.006  30.042  28.307  1.00  0.00     0.039 A 
ATOM     30  C   UNL A   1      36.324  29.537  29.571  1.00  0.00     0.014 A 
ATOM     31  C   UNL A   1      37.006  30.194  27.342  1.00  0.00     0.014 A 
ATOM     32  C   UNL A   1      37.636  29.159  29.856  1.00  0.00     0.010 A 
ATOM     33  C   UNL A   1      38.295  29.739  27.600  1.00  0.00     0.010 A 
ATOM     34  C   UNL A   1      38.630  29.241  28.868  1.00  0.00    -0.014 A 
BRANCH  34  35
ATOM     35  C   UNL A   1      40.034  28.855  29.155  1.00  0.00     0.031 A 
ATOM     36  C   UNL A   1      40.965  29.844  29.804  1.00  0.00     0.074 A 
ATOM     37  C   UNL A   1      40.482  27.637  28.794  1.00  0.00     0.049 A 
ATOM     38  N   UNL A   1      42.233  29.713  30.101  1.00  0.00    -0.248 NA
ATOM     39  C   UNL A   1      40.406  31.165  30.139  1.00  0.00     0.031 C 
ATOM     40  C   UNL A   1      39.686  26.605  28.125  1.00  0.00     0.029 A 
ATOM     41  N   UNL A   1      41.720  27.062  28.935  1.00  0.00    -0.354 N 
ATOM     42  C   UNL A   1      42.625  30.936  30.634  1.00  0.00     0.074 A 
ATOM     43  C   UNL A   1      41.478  31.814  30.568  1.00  0.00     0.031 C 
ATOM     44  C   UNL A   1      40.447  25.514  27.942  1.00  0.00     0.029 A 
ATOM     45  C   UNL A   1      41.792  25.781  28.441  1.00  0.00     0.049 A 
ATOM     46  H   UNL A   1      42.483  27.522  29.351  1.00  0.00     0.167 HD
ATOM     47  C   UNL A   1      43.824  31.291  31.154  1.00  0.00     0.031 A 
ATOM     48  C   UNL A   1      42.825  24.918  28.393  1.00  0.00     0.031 A 
ATOM     49  C   UNL A   1      44.960  30.410  31.224  1.00  0.00     0.049 A 
ATOM     50  C   UNL A   1      44.150  25.334  28.976  1.00  0.00     0.074 A 
ATOM     51  C   UNL A   1      46.205  30.652  31.776  1.00  0.00     0.029 A 
ATOM     52  N   UNL A   1      44.987  29.115  30.727  1.00  0.00    -0.354 N 
ATOM     53  N   UNL A   1      44.485  26.474  29.531  1.00  0.00    -0.248 NA
ATOM     54  C   UNL A   1      45.228  24.337  28.945  1.00  0.00     0.031 C 
ATOM     55  C   UNL A   1      47.004  29.524  31.561  1.00  0.00     0.029 A 
ATOM     56  C   UNL A   1      46.234  28.551  30.942  1.00  0.00     0.049 A 
ATOM     57  H   UNL A   1      44.232  28.663  30.286  1.00  0.00     0.167 HD
ATOM     58  C   UNL A   1      45.803  26.319  29.950  1.00  0.00     0.074 A 
ATOM     59  C   UNL A   1      46.197  24.970  29.592  1.00  0.00     0.031 C 
ATOM     60  C   UNL A   1      46.610  27.207  30.582  1.00  0.00     0.031 A 
BRANCH  47  61
ATOM     61  C   UNL A   1      43.968  32.700  31.671  1.00  0.00    -0.014 A 
ATOM     62  C   UNL A   1      43.701  33.015  33.017  1.00  0.00     0.010 A 
ATOM     63  C   UNL A   1      44.396  33.722  30.806  1.00  0.00     0.010 A 
ATOM     64  C   UNL A   1      43.804  34.333  33.471  1.00  0.00     0.020 A 
ATOM     65  C   UNL A   1      44.535  35.036  31.264  1.00  0.00     0.020 A 
ATOM     66  C   UNL A   1      44.217  35.336  32.590  1.00  0.00     0.054 A 
BRANCH  66  67
ATOM     67  S   UNL A   1      44.350  37.036  33.209  1.00  0.00     0.124 S 
ATOM     68  O   UNL A   1      45.470  36.930  34.141  1.00  0.00    -0.237 OA
ATOM     69  O   UNL A   1      44.617  37.800  31.992  1.00  0.00    -0.237 OA
ATOM     70  O   UNL A   1      43.049  37.284  33.824  1.00  0.00    -0.744 OA
ENDBRANCH  66  67
ENDBRANCH  47  61
BRANCH  48  71
ATOM     71  C   UNL A   1      42.637  23.567  27.797  1.00  0.00    -0.014 A 
ATOM     72  C   UNL A   1      43.214  23.246  26.556  1.00  0.00     0.010 A 
ATOM     73  C   UNL A   1      41.899  22.584  28.481  1.00  0.00     0.010 A 
ATOM     74  C   UNL A   1      43.043  21.974  26.001  1.00  0.00     0.020 A 
ATOM     75  C   UNL A   1      41.751  21.302  27.944  1.00  0.00     0.020 A 
ATOM     76  C   UNL A   1      42.315  21.008  26.702  1.00  0.00     0.054 A 
BRANCH  76  77
ATOM     77  S   UNL A   1      42.155  19.348  25.988  1.00  0.00     0.124 S 
ATOM     78  O   UNL A   1      40.713  19.233  25.804  1.00  0.00    -0.237 OA
ATOM     79  O   UNL A   1      42.944  19.455  24.763  1.00  0.00    -0.237 OA
ATOM     80  O   UNL A   1      42.728  18.478  27.014  1.00  0.00    -0.744 OA
ENDBRANCH  76  77
ENDBRANCH  48  71
BRANCH  60  81
ATOM     81  C   UNL A   1      47.983  26.734  30.983  1.00  0.00    -0.014 A 
ATOM     82  C   UNL A   1      49.099  26.907  30.145  1.00  0.00     0.010 A 
ATOM     83  C   UNL A   1      48.162  26.143  32.247  1.00  0.00     0.010 A 
ATOM     84  C   UNL A   1      50.359  26.458  30.547  1.00  0.00     0.020 A 
ATOM     85  C   UNL A   1      49.426  25.722  32.666  1.00  0.00     0.020 A 
ATOM     86  C   UNL A   1      50.514  25.866  31.805  1.00  0.00     0.054 A 
BRANCH  86  87
ATOM     87  S   UNL A   1      52.165  25.313  32.315  1.00  0.00     0.124 S 
ATOM     88  O   UNL A   1      52.342  26.014  33.584  1.00  0.00    -0.237 OA
ATOM     89  O   UNL A   1      52.001  23.864  32.414  1.00  0.00    -0.237 OA
ATOM     90  O   UNL A   1      53.032  25.763  31.228  1.00  0.00    -0.744 OA
ENDBRANCH  86  87
ENDBRANCH  60  81
ENDBRANCH  34  35
ENDBRANCH  26  29
ENDBRANCH  24  25
ENDBRANCH  23  24
ENDBRANCH  22  23
ENDBRANCH   1  22
TORSDOF 19
ENDMDL
MODEL 3
REMARK VINA RESULT:      -9.7      2.958      8.466
REMARK SMILES CC[C@@H](C)C(=O)Nc1cccc(C(=O)NCCCCCCNC(=O)c2ccc(-c3c4nc(c(-c5ccc(S(=O)(=O)[O-])cc5)c5ccc([nH]5)c(-c5ccc(S(=O)(=O)[O-])cc5)c5nc(c(-c6ccc(S(=O)(=O)[O-])cc6)c6ccc3[nH]6)C=C5)C=C4)cc2)c1
REMARK SMILES IDX 18 1 17 2 16 3 15 4 13 5 14 6 12 8 8 9 9 10 85 11 10 12
REMARK SMILES IDX 11 13 7 14 5 15 6 16 3 18 4 19 2 20 1 21 19 22 20 23 21 24
REMARK SMILES IDX 22 25 23 26 24 28 25 29 26 30 84 31 27 32 83 33 28 34 29 35
REMARK SMILES IDX 30 36 77 37 31 38 82 39 76 40 78 41 32 42 81 43 75 44 74 45
REMARK SMILES IDX 33 47 63 48 44 49 62 50 45 51 48 52 61 53 79 54 46 55 47 56
REMARK SMILES IDX 60 58 80 59 49 60 34 61 35 62 43 63 36 64 42 65 37 66 38 67
REMARK SMILES IDX 39 68 40 69 41 70 64 71 65 72 73 73 66 74 72 75 67 76 68 77
REMARK SMILES IDX 69 78 70 79 71 80 50 81 51 82 59 83 52 84 58 85 53 86 54 87
REMARK SMILES IDX 55 88 56 89 57 90
REMARK H PARENT 15 7 7 17 22 27 78 46 48 57
REMARK Flexibility Score: inf
ROOT
ATOM      1  C   UNL A   1      31.638  28.569  24.726  1.00  0.00     0.002 C 
ENDROOT
BRANCH   1   2
ATOM      2  C   UNL A   1      31.838  28.374  23.224  1.00  0.00     0.021 C 
BRANCH   2   3
ATOM      3  C   UNL A   1      33.239  27.918  22.840  1.00  0.00     0.116 C 
BRANCH   3   4
ATOM      4  N   UNL A   1      33.270  27.155  21.607  1.00  0.00    -0.352 N 
ATOM      5  C   UNL A   1      32.942  25.869  21.253  1.00  0.00     0.251 C 
ATOM      6  O   UNL A   1      32.949  25.625  20.043  1.00  0.00    -0.269 OA
ATOM      7  H   UNL A   1      33.603  27.683  20.845  1.00  0.00     0.163 HD
BRANCH   5   8
ATOM      8  C   UNL A   1      32.540  24.771  22.190  1.00  0.00     0.041 A 
ATOM      9  C   UNL A   1      32.947  22.795  23.551  1.00  0.00     0.041 A 
ATOM     10  C   UNL A   1      31.661  22.842  24.070  1.00  0.00     0.026 A 
ATOM     11  C   UNL A   1      33.317  23.666  22.526  1.00  0.00     0.040 A 
ATOM     12  C   UNL A   1      30.820  23.887  23.691  1.00  0.00     0.003 A 
ATOM     13  C   UNL A   1      31.274  24.864  22.794  1.00  0.00     0.014 A 
BRANCH   9  14
ATOM     14  N   UNL A   1      33.861  21.845  24.011  1.00  0.00    -0.326 N 
ATOM     15  C   UNL A   1      35.018  22.048  24.723  1.00  0.00     0.227 C 
ATOM     16  O   UNL A   1      35.899  21.187  24.648  1.00  0.00    -0.274 OA
ATOM     17  H   UNL A   1      33.649  20.907  23.797  1.00  0.00     0.169 HD
BRANCH  15  18
ATOM     18  C   UNL A   1      35.179  23.231  25.710  1.00  0.00     0.075 C 
ATOM     19  C   UNL A   1      36.648  23.478  26.052  1.00  0.00     0.018 C 
BRANCH  18  20
ATOM     20  C   UNL A   1      34.279  23.191  26.945  1.00  0.00     0.010 C 
ATOM     21  C   UNL A   1      34.016  21.803  27.517  1.00  0.00     0.005 C 
ENDBRANCH  18  20
ENDBRANCH  15  18
ENDBRANCH   9  14
ENDBRANCH   5   8
ENDBRANCH   3   4
ENDBRANCH   2   3
ENDBRANCH   1   2
BRANCH   1  22
ATOM     22  C   UNL A   1      32.133  27.419  25.614  1.00  0.00     0.002 C 
BRANCH  22  23
ATOM     23  C   UNL A   1      33.112  27.804  26.726  1.00  0.00     0.021 C 
BRANCH  23  24
ATOM     24  C   UNL A   1      34.192  28.802  26.321  1.00  0.00     0.116 C 
BRANCH  24  25
ATOM     25  N   UNL A   1      33.799  30.176  26.586  1.00  0.00    -0.352 N 
ATOM     26  C   UNL A   1      34.316  31.074  27.479  1.00  0.00     0.251 C 
ATOM     27  H   UNL A   1      33.050  30.509  26.041  1.00  0.00     0.163 HD
ATOM     28  O   UNL A   1      33.724  32.134  27.686  1.00  0.00    -0.269 OA
BRANCH  26  29
ATOM     29  C   UNL A   1      35.567  30.772  28.203  1.00  0.00     0.039 A 
ATOM     30  C   UNL A   1      35.601  29.673  29.065  1.00  0.00     0.014 A 
ATOM     31  C   UNL A   1      36.695  31.586  28.061  1.00  0.00     0.014 A 
ATOM     32  C   UNL A   1      36.772  29.374  29.761  1.00  0.00     0.010 A 
ATOM     33  C   UNL A   1      37.886  31.239  28.690  1.00  0.00     0.010 A 
ATOM     34  C   UNL A   1      37.930  30.145  29.568  1.00  0.00    -0.014 A 
BRANCH  34  35
ATOM     35  C   UNL A   1      39.182  29.851  30.308  1.00  0.00     0.031 A 
ATOM     36  C   UNL A   1      40.103  28.763  29.822  1.00  0.00     0.074 A 
ATOM     37  C   UNL A   1      39.468  30.528  31.438  1.00  0.00     0.049 A 
ATOM     38  N   UNL A   1      41.219  28.329  30.349  1.00  0.00    -0.248 NA
ATOM     39  C   UNL A   1      39.702  28.049  28.598  1.00  0.00     0.031 C 
ATOM     40  C   UNL A   1      38.636  31.578  32.030  1.00  0.00     0.029 A 
ATOM     41  N   UNL A   1      40.537  30.429  32.292  1.00  0.00    -0.354 N 
ATOM     42  C   UNL A   1      41.640  27.283  29.536  1.00  0.00     0.074 A 
ATOM     43  C   UNL A   1      40.631  27.109  28.515  1.00  0.00     0.031 C 
ATOM     44  C   UNL A   1      39.241  32.047  33.133  1.00  0.00     0.029 A 
ATOM     45  C   UNL A   1      40.480  31.306  33.350  1.00  0.00     0.049 A 
ATOM     46  H   UNL A   1      41.276  29.793  32.160  1.00  0.00     0.167 HD
ATOM     47  C   UNL A   1      42.775  26.547  29.616  1.00  0.00     0.031 A 
ATOM     48  C   UNL A   1      41.327  31.491  34.380  1.00  0.00     0.031 A 
ATOM     49  C   UNL A   1      43.779  26.731  30.630  1.00  0.00     0.049 A 
ATOM     50  C   UNL A   1      42.582  30.662  34.450  1.00  0.00     0.074 A 
ATOM     51  C   UNL A   1      44.987  26.075  30.774  1.00  0.00     0.029 A 
ATOM     52  N   UNL A   1      43.690  27.641  31.674  1.00  0.00    -0.354 N 
ATOM     53  N   UNL A   1      42.993  29.717  33.639  1.00  0.00    -0.248 NA
ATOM     54  C   UNL A   1      43.497  30.940  35.565  1.00  0.00     0.031 C 
ATOM     55  C   UNL A   1      45.604  26.547  31.938  1.00  0.00     0.029 A 
ATOM     56  C   UNL A   1      44.815  27.549  32.478  1.00  0.00     0.049 A 
ATOM     57  H   UNL A   1      42.939  28.259  31.823  1.00  0.00     0.167 HD
ATOM     58  C   UNL A   1      44.233  29.314  34.122  1.00  0.00     0.074 A 
ATOM     59  C   UNL A   1      44.507  30.126  35.292  1.00  0.00     0.031 C 
ATOM     60  C   UNL A   1      45.073  28.365  33.638  1.00  0.00     0.031 A 
BRANCH  47  61
ATOM     61  C   UNL A   1      42.977  25.466  28.585  1.00  0.00    -0.014 A 
ATOM     62  C   UNL A   1      42.368  24.204  28.720  1.00  0.00     0.010 A 
ATOM     63  C   UNL A   1      43.771  25.719  27.452  1.00  0.00     0.010 A 
ATOM     64  C   UNL A   1      42.595  23.201  27.774  1.00  0.00     0.020 A 
ATOM     65  C   UNL A   1      43.973  24.730  26.484  1.00  0.00     0.020 A 
ATOM     66  C   UNL A   1      43.399  23.470  26.664  1.00  0.00     0.054 A 
BRANCH  66  67
ATOM     67  S   UNL A   1      43.671  22.152  25.447  1.00  0.00     0.124 S 
ATOM     68  O   UNL A   1      43.252  22.798  24.206  1.00  0.00    -0.237 OA
ATOM     69  O   UNL A   1      45.104  21.895  25.568  1.00  0.00    -0.237 OA
ATOM     70  O   UNL A   1      42.806  21.070  25.908  1.00  0.00    -0.744 OA
ENDBRANCH  66  67
ENDBRANCH  47  61
BRANCH  48  71
ATOM     71  C   UNL A   1      41.029  32.525  35.410  1.00  0.00    -0.014 A 
ATOM     72  C   UNL A   1      40.317  32.189  36.575  1.00  0.00     0.010 A 
ATOM     73  C   UNL A   1      41.479  33.846  35.241  1.00  0.00     0.010 A 
ATOM     74  C   UNL A   1      40.045  33.159  37.545  1.00  0.00     0.020 A 
ATOM     75  C   UNL A   1      41.235  34.813  36.223  1.00  0.00     0.020 A 
ATOM     76  C   UNL A   1      40.510  34.464  37.363  1.00  0.00     0.054 A 
BRANCH  76  77
ATOM     77  S   UNL A   1      40.194  35.692  38.662  1.00  0.00     0.124 S 
ATOM     78  O   UNL A   1      41.467  35.718  39.373  1.00  0.00    -0.237 OA
ATOM     79  O   UNL A   1      39.873  36.890  37.890  1.00  0.00    -0.237 OA
ATOM     80  O   UNL A   1      39.072  35.121  39.405  1.00  0.00    -0.744 OA
ENDBRANCH  76  77
ENDBRANCH  48  71
BRANCH  60  81
ATOM     81  C   UNL A   1      46.398  28.191  34.334  1.00  0.00    -0.014 A 
ATOM     82  C   UNL A   1      46.567  27.268  35.381  1.00  0.00     0.010 A 
ATOM     83  C   UNL A   1      47.506  28.939  33.897  1.00  0.00     0.010 A 
ATOM     84  C   UNL A   1      47.809  27.129  36.006  1.00  0.00     0.020 A 
ATOM     85  C   UNL A   1      48.757  28.780  34.496  1.00  0.00     0.020 A 
ATOM     86  C   UNL A   1      48.896  27.889  35.560  1.00  0.00     0.054 A 
BRANCH  86  87
ATOM     87  S   UNL A   1      50.505  27.673  36.370  1.00  0.00     0.124 S 
ATOM     88  O   UNL A   1      50.152  26.873  37.540  1.00  0.00    -0.237 OA
ATOM     89  O   UNL A   1      51.288  26.980  35.347  1.00  0.00    -0.237 OA
ATOM     90  O   UNL A   1      50.936  29.039  36.656  1.00  0.00    -0.744 OA
ENDBRANCH  86  87
ENDBRANCH  60  81
ENDBRANCH  34  35
ENDBRANCH  26  29
ENDBRANCH  24  25
ENDBRANCH  23  24
ENDBRANCH  22  23
ENDBRANCH   1  22
TORSDOF 19
ENDMDL
