MODEL 1
REMARK VINA RESULT:     -11.2      0.000      0.000
REMARK SMILES CC1(C)C(C(=O)Nc2ccc(CC(=O)NCCCCCCNC(=O)c3ccc(-c4c5nc(c(-c6ccc(S(=O)(=O)[O-])cc6)c6ccc([nH]6)c(-c6ccc(S(=O)(=O)[O-])cc6)c6nc(c(-c7ccc(S(=O)(=O)[O-])cc7)c7ccc4[nH]7)C=C6)C=C5)cc3)cc2)C1(C)C
REMARK SMILES IDX 18 1 17 2 16 3 15 4 13 5 14 6 12 8 11 9 8 10 9 11 86 12
REMARK SMILES IDX 10 13 85 14 7 15 5 16 6 17 4 19 1 20 2 21 3 22 87 23 88 24
REMARK SMILES IDX 89 25 19 26 20 27 21 28 22 29 23 30 24 32 25 33 26 34 84 35
REMARK SMILES IDX 27 36 83 37 28 38 29 39 30 40 77 41 31 42 82 43 76 44 78 45
REMARK SMILES IDX 32 46 81 47 75 48 74 49 33 51 63 52 44 53 62 54 45 55 48 56
REMARK SMILES IDX 61 57 79 58 46 59 47 60 60 62 80 63 49 64 34 65 35 66 43 67
REMARK SMILES IDX 36 68 42 69 37 70 38 71 39 72 40 73 41 74 64 75 65 76 73 77
REMARK SMILES IDX 66 78 72 79 67 80 68 81 69 82 70 83 71 84 50 85 51 86 59 87
REMARK SMILES IDX 52 88 58 89 53 90 54 91 55 92 56 93 57 94
REMARK H PARENT 15 7 7 18 22 31 78 50 48 61
REMARK Flexibility Score: inf
ROOT
ATOM      1  C   UNL A   1      35.891  32.781  28.027  1.00  0.00     0.002 C 
ENDROOT
BRANCH   1   2
ATOM      2  C   UNL A   1      35.368  31.351  27.880  1.00  0.00     0.021 C 
BRANCH   2   3
ATOM      3  C   UNL A   1      33.921  31.283  27.384  1.00  0.00     0.116 C 
BRANCH   3   4
ATOM      4  N   UNL A   1      33.346  29.979  27.638  1.00  0.00    -0.356 N 
ATOM      5  C   UNL A   1      32.202  29.437  27.127  1.00  0.00     0.224 C 
ATOM      6  O   UNL A   1      31.813  28.353  27.569  1.00  0.00    -0.275 OA
ATOM      7  H   UNL A   1      33.847  29.406  28.262  1.00  0.00     0.163 HD
BRANCH   5   8
ATOM      8  C   UNL A   1      31.478  30.125  25.991  1.00  0.00     0.135 C 
BRANCH   8   9
ATOM      9  C   UNL A   1      31.522  29.415  24.662  1.00  0.00    -0.039 A 
ATOM     10  C   UNL A   1      31.683  27.720  22.450  1.00  0.00     0.041 A 
ATOM     11  C   UNL A   1      30.434  28.154  22.892  1.00  0.00     0.026 A 
ATOM     12  C   UNL A   1      32.826  28.320  22.943  1.00  0.00     0.026 A 
ATOM     13  C   UNL A   1      30.354  29.006  24.002  1.00  0.00     0.006 A 
ATOM     14  C   UNL A   1      32.755  29.095  24.089  1.00  0.00     0.006 A 
BRANCH  10  15
ATOM     15  N   UNL A   1      31.787  26.635  21.573  1.00  0.00    -0.326 N 
ATOM     16  C   UNL A   1      32.561  25.513  21.785  1.00  0.00     0.228 C 
ATOM     17  O   UNL A   1      33.405  25.214  20.941  1.00  0.00    -0.274 OA
ATOM     18  H   UNL A   1      31.266  26.676  20.739  1.00  0.00     0.169 HD
BRANCH  16  19
ATOM     19  C   UNL A   1      32.189  24.453  22.787  1.00  0.00     0.091 C 
ATOM     20  C   UNL A   1      32.603  21.942  23.046  1.00  0.00     0.012 C 
ATOM     21  C   UNL A   1      33.090  23.349  23.364  1.00  0.00    -0.017 C 
ATOM     22  C   UNL A   1      34.592  23.323  23.491  1.00  0.00     0.012 C 
ATOM     23  C   UNL A   1      32.289  24.309  24.292  1.00  0.00    -0.017 C 
ATOM     24  C   UNL A   1      31.116  23.704  25.041  1.00  0.00     0.012 C 
ATOM     25  C   UNL A   1      32.897  25.424  25.113  1.00  0.00     0.012 C 
ENDBRANCH  16  19
ENDBRANCH  10  15
ENDBRANCH   8   9
ENDBRANCH   5   8
ENDBRANCH   3   4
ENDBRANCH   2   3
ENDBRANCH   1   2
BRANCH   1  26
ATOM     26  C   UNL A   1      35.651  33.401  29.406  1.00  0.00     0.002 C 
BRANCH  26  27
ATOM     27  C   UNL A   1      36.894  34.022  30.052  1.00  0.00     0.021 C 
BRANCH  27  28
ATOM     28  C   UNL A   1      37.537  33.153  31.130  1.00  0.00     0.116 C 
BRANCH  28  29
ATOM     29  N   UNL A   1      36.694  32.017  31.470  1.00  0.00    -0.352 N 
ATOM     30  C   UNL A   1      36.848  30.692  31.151  1.00  0.00     0.251 C 
ATOM     31  H   UNL A   1      35.897  32.231  32.007  1.00  0.00     0.163 HD
ATOM     32  O   UNL A   1      35.911  29.914  31.293  1.00  0.00    -0.269 OA
BRANCH  30  33
ATOM     33  C   UNL A   1      38.145  30.210  30.632  1.00  0.00     0.039 A 
ATOM     34  C   UNL A   1      38.372  30.224  29.254  1.00  0.00     0.014 A 
ATOM     35  C   UNL A   1      39.126  29.729  31.504  1.00  0.00     0.014 A 
ATOM     36  C   UNL A   1      39.607  29.804  28.754  1.00  0.00     0.010 A 
ATOM     37  C   UNL A   1      40.380  29.379  31.010  1.00  0.00     0.010 A 
ATOM     38  C   UNL A   1      40.631  29.409  29.631  1.00  0.00    -0.014 A 
BRANCH  38  39
ATOM     39  C   UNL A   1      41.974  29.029  29.123  1.00  0.00     0.031 A 
ATOM     40  C   UNL A   1      43.068  30.057  29.032  1.00  0.00     0.074 A 
ATOM     41  C   UNL A   1      42.186  27.773  28.686  1.00  0.00     0.049 A 
ATOM     42  N   UNL A   1      44.283  29.927  28.565  1.00  0.00    -0.248 NA
ATOM     43  C   UNL A   1      42.750  31.414  29.507  1.00  0.00     0.031 C 
ATOM     44  C   UNL A   1      41.192  26.696  28.686  1.00  0.00     0.029 A 
ATOM     45  N   UNL A   1      43.305  27.189  28.148  1.00  0.00    -0.354 N 
ATOM     46  C   UNL A   1      44.868  31.184  28.675  1.00  0.00     0.074 A 
ATOM     47  C   UNL A   1      43.859  32.074  29.207  1.00  0.00     0.031 C 
ATOM     48  C   UNL A   1      41.754  25.578  28.198  1.00  0.00     0.029 A 
ATOM     49  C   UNL A   1      43.130  25.867  27.809  1.00  0.00     0.049 A 
ATOM     50  H   UNL A   1      44.154  27.670  28.017  1.00  0.00     0.167 HD
ATOM     51  C   UNL A   1      46.134  31.559  28.375  1.00  0.00     0.031 A 
ATOM     52  C   UNL A   1      43.979  24.989  27.241  1.00  0.00     0.031 A 
ATOM     53  C   UNL A   1      47.136  30.668  27.850  1.00  0.00     0.049 A 
ATOM     54  C   UNL A   1      45.375  25.433  26.902  1.00  0.00     0.074 A 
ATOM     55  C   UNL A   1      48.462  30.938  27.566  1.00  0.00     0.029 A 
ATOM     56  N   UNL A   1      46.920  29.336  27.526  1.00  0.00    -0.354 N 
ATOM     57  N   UNL A   1      45.930  26.610  27.076  1.00  0.00    -0.248 NA
ATOM     58  C   UNL A   1      46.264  24.430  26.300  1.00  0.00     0.031 C 
ATOM     59  C   UNL A   1      49.035  29.785  27.017  1.00  0.00     0.029 A 
ATOM     60  C   UNL A   1      48.083  28.779  27.019  1.00  0.00     0.049 A 
ATOM     61  H   UNL A   1      46.067  28.858  27.639  1.00  0.00     0.167 HD
ATOM     62  C   UNL A   1      47.241  26.479  26.630  1.00  0.00     0.074 A 
ATOM     63  C   UNL A   1      47.399  25.107  26.195  1.00  0.00     0.031 C 
ATOM     64  C   UNL A   1      48.224  27.412  26.587  1.00  0.00     0.031 A 
BRANCH  51  65
ATOM     65  C   UNL A   1      46.507  33.002  28.601  1.00  0.00    -0.014 A 
ATOM     66  C   UNL A   1      46.868  33.468  29.879  1.00  0.00     0.010 A 
ATOM     67  C   UNL A   1      46.540  33.895  27.514  1.00  0.00     0.010 A 
ATOM     68  C   UNL A   1      47.212  34.808  30.073  1.00  0.00     0.020 A 
ATOM     69  C   UNL A   1      46.913  35.229  27.699  1.00  0.00     0.020 A 
ATOM     70  C   UNL A   1      47.231  35.681  28.980  1.00  0.00     0.054 A 
BRANCH  70  71
ATOM     71  S   UNL A   1      47.707  37.409  29.259  1.00  0.00     0.124 S 
ATOM     72  O   UNL A   1      47.512  37.547  30.699  1.00  0.00    -0.237 OA
ATOM     73  O   UNL A   1      49.096  37.435  28.808  1.00  0.00    -0.237 OA
ATOM     74  O   UNL A   1      46.772  38.165  28.430  1.00  0.00    -0.744 OA
ENDBRANCH  70  71
ENDBRANCH  51  65
BRANCH  52  75
ATOM     75  C   UNL A   1      43.531  23.596  26.964  1.00  0.00    -0.014 A 
ATOM     76  C   UNL A   1      43.579  23.075  25.660  1.00  0.00     0.010 A 
ATOM     77  C   UNL A   1      43.066  22.777  28.011  1.00  0.00     0.010 A 
ATOM     78  C   UNL A   1      43.152  21.769  25.402  1.00  0.00     0.020 A 
ATOM     79  C   UNL A   1      42.667  21.462  27.762  1.00  0.00     0.020 A 
ATOM     80  C   UNL A   1      42.701  20.969  26.457  1.00  0.00     0.054 A 
BRANCH  80  81
ATOM     81  S   UNL A   1      42.200  19.260  26.108  1.00  0.00     0.124 S 
ATOM     82  O   UNL A   1      40.766  19.403  25.885  1.00  0.00    -0.237 OA
ATOM     83  O   UNL A   1      42.997  18.934  24.928  1.00  0.00    -0.237 OA
ATOM     84  O   UNL A   1      42.577  18.539  27.322  1.00  0.00    -0.744 OA
ENDBRANCH  80  81
ENDBRANCH  52  75
BRANCH  64  85
ATOM     85  C   UNL A   1      49.573  26.973  26.079  1.00  0.00    -0.014 A 
ATOM     86  C   UNL A   1      50.526  26.397  26.938  1.00  0.00     0.010 A 
ATOM     87  C   UNL A   1      49.868  27.091  24.708  1.00  0.00     0.010 A 
ATOM     88  C   UNL A   1      51.762  25.977  26.441  1.00  0.00     0.020 A 
ATOM     89  C   UNL A   1      51.092  26.645  24.203  1.00  0.00     0.020 A 
ATOM     90  C   UNL A   1      52.037  26.104  25.075  1.00  0.00     0.054 A 
BRANCH  90  91
ATOM     91  S   UNL A   1      53.632  25.511  24.448  1.00  0.00     0.124 S 
ATOM     92  O   UNL A   1      54.578  26.208  25.316  1.00  0.00    -0.237 OA
ATOM     93  O   UNL A   1      53.541  24.067  24.651  1.00  0.00    -0.237 OA
ATOM     94  O   UNL A   1      53.637  25.940  23.051  1.00  0.00    -0.744 OA
ENDBRANCH  90  91
ENDBRANCH  64  85
ENDBRANCH  38  39
ENDBRANCH  30  33
ENDBRANCH  28  29
ENDBRANCH  27  28
ENDBRANCH  26  27
ENDBRANCH   1  26
TORSDOF 19
ENDMDL
MODEL 2
REMARK VINA RESULT:     -11.0      6.213     12.158
REMARK SMILES CC1(C)C(C(=O)Nc2ccc(CC(=O)NCCCCCCNC(=O)c3ccc(-c4c5nc(c(-c6ccc(S(=O)(=O)[O-])cc6)c6ccc([nH]6)c(-c6ccc(S(=O)(=O)[O-])cc6)c6nc(c(-c7ccc(S(=O)(=O)[O-])cc7)c7ccc4[nH]7)C=C6)C=C5)cc3)cc2)C1(C)C
REMARK SMILES IDX 18 1 17 2 16 3 15 4 13 5 14 6 12 8 11 9 8 10 9 11 86 12
REMARK SMILES IDX 10 13 85 14 7 15 5 16 6 17 4 19 1 20 2 21 3 22 87 23 88 24
REMARK SMILES IDX 89 25 19 26 20 27 21 28 22 29 23 30 24 32 25 33 26 34 84 35
REMARK SMILES IDX 27 36 83 37 28 38 29 39 30 40 77 41 31 42 82 43 76 44 78 45
REMARK SMILES IDX 32 46 81 47 75 48 74 49 33 51 63 52 44 53 62 54 45 55 48 56
REMARK SMILES IDX 61 57 79 58 46 59 47 60 60 62 80 63 49 64 34 65 35 66 43 67
REMARK SMILES IDX 36 68 42 69 37 70 38 71 39 72 40 73 41 74 64 75 65 76 73 77
REMARK SMILES IDX 66 78 72 79 67 80 68 81 69 82 70 83 71 84 50 85 51 86 59 87
REMARK SMILES IDX 52 88 58 89 53 90 54 91 55 92 56 93 57 94
REMARK H PARENT 15 7 7 18 22 31 78 50 48 61
REMARK Flexibility Score: inf
ROOT
ATOM      1  C   UNL A   1      39.442  21.531  26.128  1.00  0.00     0.002 C 
ENDROOT
BRANCH   1   2
ATOM      2  C   UNL A   1      38.720  22.879  26.179  1.00  0.00     0.021 C 
BRANCH   2   3
ATOM      3  C   UNL A   1      37.334  22.848  25.528  1.00  0.00     0.116 C 
BRANCH   3   4
ATOM      4  N   UNL A   1      36.348  22.300  26.435  1.00  0.00    -0.356 N 
ATOM      5  C   UNL A   1      35.136  21.744  26.143  1.00  0.00     0.224 C 
ATOM      6  O   UNL A   1      34.381  21.450  27.072  1.00  0.00    -0.275 OA
ATOM      7  H   UNL A   1      36.582  22.333  27.391  1.00  0.00     0.163 HD
BRANCH   5   8
ATOM      8  C   UNL A   1      34.771  21.431  24.708  1.00  0.00     0.135 C 
BRANCH   8   9
ATOM      9  C   UNL A   1      33.630  22.232  24.134  1.00  0.00    -0.039 A 
ATOM     10  C   UNL A   1      31.597  24.004  23.419  1.00  0.00     0.041 A 
ATOM     11  C   UNL A   1      32.791  24.006  22.700  1.00  0.00     0.026 A 
ATOM     12  C   UNL A   1      31.334  22.975  24.302  1.00  0.00     0.026 A 
ATOM     13  C   UNL A   1      33.811  23.114  23.059  1.00  0.00     0.006 A 
ATOM     14  C   UNL A   1      32.364  22.146  24.718  1.00  0.00     0.006 A 
BRANCH  10  15
ATOM     15  N   UNL A   1      30.703  25.074  23.308  1.00  0.00    -0.326 N 
ATOM     16  C   UNL A   1      30.551  26.083  24.236  1.00  0.00     0.228 C 
ATOM     17  O   UNL A   1      29.434  26.277  24.716  1.00  0.00    -0.274 OA
ATOM     18  H   UNL A   1      30.136  25.110  22.503  1.00  0.00     0.169 HD
BRANCH  16  19
ATOM     19  C   UNL A   1      31.573  27.174  24.418  1.00  0.00     0.091 C 
ATOM     20  C   UNL A   1      31.577  29.549  25.368  1.00  0.00     0.012 C 
ATOM     21  C   UNL A   1      31.782  28.068  25.651  1.00  0.00    -0.017 C 
ATOM     22  C   UNL A   1      31.421  27.797  27.089  1.00  0.00     0.012 C 
ATOM     23  C   UNL A   1      32.959  27.263  25.024  1.00  0.00    -0.017 C 
ATOM     24  C   UNL A   1      34.017  28.069  24.295  1.00  0.00     0.012 C 
ATOM     25  C   UNL A   1      33.589  26.034  25.638  1.00  0.00     0.012 C 
ENDBRANCH  16  19
ENDBRANCH  10  15
ENDBRANCH   8   9
ENDBRANCH   5   8
ENDBRANCH   3   4
ENDBRANCH   2   3
ENDBRANCH   1   2
BRANCH   1  26
ATOM     26  C   UNL A   1      40.684  21.448  27.021  1.00  0.00     0.002 C 
BRANCH  26  27
ATOM     27  C   UNL A   1      40.846  22.615  28.000  1.00  0.00     0.021 C 
BRANCH  27  28
ATOM     28  C   UNL A   1      42.057  23.500  27.721  1.00  0.00     0.116 C 
BRANCH  28  29
ATOM     29  N   UNL A   1      41.936  24.179  26.439  1.00  0.00    -0.352 N 
ATOM     30  C   UNL A   1      41.428  25.421  26.156  1.00  0.00     0.251 C 
ATOM     31  H   UNL A   1      42.266  23.672  25.662  1.00  0.00     0.163 HD
ATOM     32  O   UNL A   1      41.161  25.725  24.999  1.00  0.00    -0.269 OA
BRANCH  30  33
ATOM     33  C   UNL A   1      41.201  26.386  27.252  1.00  0.00     0.039 A 
ATOM     34  C   UNL A   1      40.110  26.201  28.104  1.00  0.00     0.014 A 
ATOM     35  C   UNL A   1      42.053  27.480  27.425  1.00  0.00     0.014 A 
ATOM     36  C   UNL A   1      39.905  27.086  29.165  1.00  0.00     0.010 A 
ATOM     37  C   UNL A   1      41.890  28.319  28.524  1.00  0.00     0.010 A 
ATOM     38  C   UNL A   1      40.811  28.133  29.402  1.00  0.00    -0.014 A 
BRANCH  38  39
ATOM     39  C   UNL A   1      40.651  29.040  30.566  1.00  0.00     0.031 A 
ATOM     40  C   UNL A   1      41.505  28.857  31.792  1.00  0.00     0.074 A 
ATOM     41  C   UNL A   1      39.695  29.988  30.542  1.00  0.00     0.049 A 
ATOM     42  N   UNL A   1      41.472  29.513  32.923  1.00  0.00    -0.248 NA
ATOM     43  C   UNL A   1      42.512  27.783  31.750  1.00  0.00     0.031 C 
ATOM     44  C   UNL A   1      38.778  30.239  29.427  1.00  0.00     0.029 A 
ATOM     45  N   UNL A   1      39.327  30.913  31.486  1.00  0.00    -0.354 N 
ATOM     46  C   UNL A   1      42.438  28.924  33.731  1.00  0.00     0.074 A 
ATOM     47  C   UNL A   1      43.006  27.827  32.978  1.00  0.00     0.031 C 
ATOM     48  C   UNL A   1      37.972  31.266  29.741  1.00  0.00     0.029 A 
ATOM     49  C   UNL A   1      38.283  31.718  31.093  1.00  0.00     0.049 A 
ATOM     50  H   UNL A   1      39.768  30.994  32.362  1.00  0.00     0.167 HD
ATOM     51  C   UNL A   1      42.828  29.274  34.980  1.00  0.00     0.031 A 
ATOM     52  C   UNL A   1      37.641  32.704  31.751  1.00  0.00     0.031 A 
ATOM     53  C   UNL A   1      42.262  30.369  35.723  1.00  0.00     0.049 A 
ATOM     54  C   UNL A   1      38.081  33.064  33.142  1.00  0.00     0.074 A 
ATOM     55  C   UNL A   1      42.626  30.839  36.973  1.00  0.00     0.029 A 
ATOM     56  N   UNL A   1      41.211  31.163  35.288  1.00  0.00    -0.354 N 
ATOM     57  N   UNL A   1      39.043  32.537  33.864  1.00  0.00    -0.248 NA
ATOM     58  C   UNL A   1      37.358  34.157  33.806  1.00  0.00     0.031 C 
ATOM     59  C   UNL A   1      41.758  31.881  37.318  1.00  0.00     0.029 A 
ATOM     60  C   UNL A   1      40.895  32.102  36.256  1.00  0.00     0.049 A 
ATOM     61  H   UNL A   1      40.756  31.072  34.420  1.00  0.00     0.167 HD
ATOM     62  C   UNL A   1      39.057  33.255  35.055  1.00  0.00     0.074 A 
ATOM     63  C   UNL A   1      38.020  34.261  34.950  1.00  0.00     0.031 C 
ATOM     64  C   UNL A   1      39.858  33.095  36.138  1.00  0.00     0.031 A 
BRANCH  51  65
ATOM     65  C   UNL A   1      43.917  28.456  35.627  1.00  0.00    -0.014 A 
ATOM     66  C   UNL A   1      45.273  28.790  35.460  1.00  0.00     0.010 A 
ATOM     67  C   UNL A   1      43.578  27.365  36.448  1.00  0.00     0.010 A 
ATOM     68  C   UNL A   1      46.271  28.024  36.067  1.00  0.00     0.020 A 
ATOM     69  C   UNL A   1      44.572  26.614  37.081  1.00  0.00     0.020 A 
ATOM     70  C   UNL A   1      45.914  26.938  36.873  1.00  0.00     0.054 A 
BRANCH  70  71
ATOM     71  S   UNL A   1      47.230  25.977  37.668  1.00  0.00     0.124 S 
ATOM     72  O   UNL A   1      46.617  24.656  37.775  1.00  0.00    -0.237 OA
ATOM     73  O   UNL A   1      48.328  26.083  36.710  1.00  0.00    -0.237 OA
ATOM     74  O   UNL A   1      47.447  26.667  38.937  1.00  0.00    -0.744 OA
ENDBRANCH  70  71
ENDBRANCH  51  65
BRANCH  52  75
ATOM     75  C   UNL A   1      36.516  33.425  31.093  1.00  0.00    -0.014 A 
ATOM     76  C   UNL A   1      36.631  33.868  29.764  1.00  0.00     0.010 A 
ATOM     77  C   UNL A   1      35.316  33.659  31.790  1.00  0.00     0.010 A 
ATOM     78  C   UNL A   1      35.576  34.550  29.150  1.00  0.00     0.020 A 
ATOM     79  C   UNL A   1      34.249  34.314  31.171  1.00  0.00     0.020 A 
ATOM     80  C   UNL A   1      34.389  34.766  29.858  1.00  0.00     0.054 A 
BRANCH  80  81
ATOM     81  S   UNL A   1      33.014  35.607  29.025  1.00  0.00     0.124 S 
ATOM     82  O   UNL A   1      32.504  34.560  28.147  1.00  0.00    -0.237 OA
ATOM     83  O   UNL A   1      32.148  35.976  30.143  1.00  0.00    -0.237 OA
ATOM     84  O   UNL A   1      33.659  36.732  28.351  1.00  0.00    -0.744 OA
ENDBRANCH  80  81
ENDBRANCH  52  75
BRANCH  64  85
ATOM     85  C   UNL A   1      39.668  34.051  37.288  1.00  0.00    -0.014 A 
ATOM     86  C   UNL A   1      39.043  33.644  38.480  1.00  0.00     0.010 A 
ATOM     87  C   UNL A   1      40.171  35.360  37.189  1.00  0.00     0.010 A 
ATOM     88  C   UNL A   1      38.897  34.541  39.541  1.00  0.00     0.020 A 
ATOM     89  C   UNL A   1      40.053  36.251  38.259  1.00  0.00     0.020 A 
ATOM     90  C   UNL A   1      39.404  35.840  39.423  1.00  0.00     0.054 A 
BRANCH  90  91
ATOM     91  S   UNL A   1      39.240  36.971  40.832  1.00  0.00     0.124 S 
ATOM     92  O   UNL A   1      38.508  38.088  40.240  1.00  0.00    -0.237 OA
ATOM     93  O   UNL A   1      38.492  36.172  41.800  1.00  0.00    -0.237 OA
ATOM     94  O   UNL A   1      40.622  37.261  41.207  1.00  0.00    -0.744 OA
ENDBRANCH  90  91
ENDBRANCH  64  85
ENDBRANCH  38  39
ENDBRANCH  30  33
ENDBRANCH  28  29
ENDBRANCH  27  28
ENDBRANCH  26  27
ENDBRANCH   1  26
TORSDOF 19
ENDMDL
MODEL 3
REMARK VINA RESULT:     -11.0      6.147      8.629
REMARK SMILES CC1(C)C(C(=O)Nc2ccc(CC(=O)NCCCCCCNC(=O)c3ccc(-c4c5nc(c(-c6ccc(S(=O)(=O)[O-])cc6)c6ccc([nH]6)c(-c6ccc(S(=O)(=O)[O-])cc6)c6nc(c(-c7ccc(S(=O)(=O)[O-])cc7)c7ccc4[nH]7)C=C6)C=C5)cc3)cc2)C1(C)C
REMARK SMILES IDX 18 1 17 2 16 3 15 4 13 5 14 6 12 8 11 9 8 10 9 11 86 12
REMARK SMILES IDX 10 13 85 14 7 15 5 16 6 17 4 19 1 20 2 21 3 22 87 23 88 24
REMARK SMILES IDX 89 25 19 26 20 27 21 28 22 29 23 30 24 32 25 33 26 34 84 35
REMARK SMILES IDX 27 36 83 37 28 38 29 39 30 40 77 41 31 42 82 43 76 44 78 45
REMARK SMILES IDX 32 46 81 47 75 48 74 49 33 51 63 52 44 53 62 54 45 55 48 56
REMARK SMILES IDX 61 57 79 58 46 59 47 60 60 62 80 63 49 64 34 65 35 66 43 67
REMARK SMILES IDX 36 68 42 69 37 70 38 71 39 72 40 73 41 74 64 75 65 76 73 77
REMARK SMILES IDX 66 78 72 79 67 80 68 81 69 82 70 83 71 84 50 85 51 86 59 87
REMARK SMILES IDX 52 88 58 89 53 90 54 91 55 92 56 93 57 94
REMARK H PARENT 15 7 7 18 22 31 78 50 48 61
REMARK Flexibility Score: inf
ROOT
ATOM      1  C   UNL A   1      35.213  32.145  28.970  1.00  0.00     0.002 C 
ENDROOT
BRANCH   1   2
ATOM      2  C   UNL A   1      35.710  31.116  27.953  1.00  0.00     0.021 C 
BRANCH   2   3
ATOM      3  C   UNL A   1      34.635  30.106  27.540  1.00  0.00     0.116 C 
BRANCH   3   4
ATOM      4  N   UNL A   1      33.314  30.694  27.617  1.00  0.00    -0.356 N 
ATOM      5  C   UNL A   1      32.340  30.732  26.661  1.00  0.00     0.224 C 
ATOM      6  O   UNL A   1      31.325  31.397  26.878  1.00  0.00    -0.275 OA
ATOM      7  H   UNL A   1      33.089  31.126  28.473  1.00  0.00     0.163 HD
BRANCH   5   8
ATOM      8  C   UNL A   1      32.484  29.909  25.399  1.00  0.00     0.135 C 
BRANCH   8   9
ATOM      9  C   UNL A   1      31.653  28.652  25.341  1.00  0.00    -0.039 A 
ATOM     10  C   UNL A   1      30.491  26.131  25.054  1.00  0.00     0.041 A 
ATOM     11  C   UNL A   1      30.903  26.555  26.316  1.00  0.00     0.026 A 
ATOM     12  C   UNL A   1      30.430  27.040  24.015  1.00  0.00     0.026 A 
ATOM     13  C   UNL A   1      31.485  27.823  26.459  1.00  0.00     0.006 A 
ATOM     14  C   UNL A   1      31.077  28.259  24.130  1.00  0.00     0.006 A 
BRANCH  10  15
ATOM     15  N   UNL A   1      30.215  24.780  24.817  1.00  0.00    -0.326 N 
ATOM     16  C   UNL A   1      31.065  23.892  24.191  1.00  0.00     0.228 C 
ATOM     17  O   UNL A   1      30.661  23.297  23.192  1.00  0.00    -0.274 OA
ATOM     18  H   UNL A   1      29.344  24.436  25.121  1.00  0.00     0.169 HD
BRANCH  16  19
ATOM     19  C   UNL A   1      32.301  23.350  24.858  1.00  0.00     0.091 C 
ATOM     20  C   UNL A   1      33.833  21.329  24.525  1.00  0.00     0.012 C 
ATOM     21  C   UNL A   1      33.562  22.787  24.183  1.00  0.00    -0.017 C 
ATOM     22  C   UNL A   1      34.104  23.068  22.805  1.00  0.00     0.012 C 
ATOM     23  C   UNL A   1      33.650  23.916  25.253  1.00  0.00    -0.017 C 
ATOM     24  C   UNL A   1      34.231  23.527  26.600  1.00  0.00     0.012 C 
ATOM     25  C   UNL A   1      33.971  25.363  24.958  1.00  0.00     0.012 C 
ENDBRANCH  16  19
ENDBRANCH  10  15
ENDBRANCH   8   9
ENDBRANCH   5   8
ENDBRANCH   3   4
ENDBRANCH   2   3
ENDBRANCH   1   2
BRANCH   1  26
ATOM     26  C   UNL A   1      35.001  33.548  28.394  1.00  0.00     0.002 C 
BRANCH  26  27
ATOM     27  C   UNL A   1      33.606  34.133  28.634  1.00  0.00     0.021 C 
BRANCH  27  28
ATOM     28  C   UNL A   1      33.612  35.559  29.178  1.00  0.00     0.116 C 
BRANCH  28  29
ATOM     29  N   UNL A   1      32.785  35.676  30.370  1.00  0.00    -0.352 N 
ATOM     30  C   UNL A   1      32.942  35.087  31.599  1.00  0.00     0.251 C 
ATOM     31  H   UNL A   1      32.000  36.263  30.281  1.00  0.00     0.163 HD
ATOM     32  O   UNL A   1      32.014  35.086  32.401  1.00  0.00    -0.269 OA
BRANCH  30  33
ATOM     33  C   UNL A   1      34.229  34.451  31.948  1.00  0.00     0.039 A 
ATOM     34  C   UNL A   1      35.394  35.221  31.923  1.00  0.00     0.014 A 
ATOM     35  C   UNL A   1      34.287  33.095  32.281  1.00  0.00     0.014 A 
ATOM     36  C   UNL A   1      36.612  34.640  32.285  1.00  0.00     0.010 A 
ATOM     37  C   UNL A   1      35.488  32.537  32.709  1.00  0.00     0.010 A 
ATOM     38  C   UNL A   1      36.663  33.303  32.711  1.00  0.00    -0.014 A 
BRANCH  38  39
ATOM     39  C   UNL A   1      37.935  32.689  33.169  1.00  0.00     0.031 A 
ATOM     40  C   UNL A   1      38.450  32.959  34.557  1.00  0.00     0.074 A 
ATOM     41  C   UNL A   1      38.656  31.941  32.312  1.00  0.00     0.049 A 
ATOM     42  N   UNL A   1      39.564  32.559  35.114  1.00  0.00    -0.248 NA
ATOM     43  C   UNL A   1      37.616  33.807  35.425  1.00  0.00     0.031 C 
ATOM     44  C   UNL A   1      38.282  31.640  30.928  1.00  0.00     0.029 A 
ATOM     45  N   UNL A   1      39.860  31.303  32.475  1.00  0.00    -0.354 N 
ATOM     46  C   UNL A   1      39.573  33.116  36.387  1.00  0.00     0.074 A 
ATOM     47  C   UNL A   1      38.377  33.922  36.503  1.00  0.00     0.031 C 
ATOM     48  C   UNL A   1      39.223  30.855  30.378  1.00  0.00     0.029 A 
ATOM     49  C   UNL A   1      40.287  30.634  31.351  1.00  0.00     0.049 A 
ATOM     50  H   UNL A   1      40.370  31.322  33.316  1.00  0.00     0.167 HD
ATOM     51  C   UNL A   1      40.485  32.958  37.376  1.00  0.00     0.031 A 
ATOM     52  C   UNL A   1      41.413  29.929  31.126  1.00  0.00     0.031 A 
ATOM     53  C   UNL A   1      41.671  32.151  37.257  1.00  0.00     0.049 A 
ATOM     54  C   UNL A   1      42.419  29.782  32.234  1.00  0.00     0.074 A 
ATOM     55  C   UNL A   1      42.629  31.883  38.219  1.00  0.00     0.029 A 
ATOM     56  N   UNL A   1      42.064  31.486  36.105  1.00  0.00    -0.354 N 
ATOM     57  N   UNL A   1      42.376  30.262  33.455  1.00  0.00    -0.248 NA
ATOM     58  C   UNL A   1      43.620  28.989  31.939  1.00  0.00     0.031 C 
ATOM     59  C   UNL A   1      43.630  31.102  37.632  1.00  0.00     0.029 A 
ATOM     60  C   UNL A   1      43.265  30.830  36.324  1.00  0.00     0.049 A 
ATOM     61  H   UNL A   1      41.564  31.481  35.257  1.00  0.00     0.167 HD
ATOM     62  C   UNL A   1      43.531  29.806  34.081  1.00  0.00     0.074 A 
ATOM     63  C   UNL A   1      44.242  28.999  33.110  1.00  0.00     0.031 C 
ATOM     64  C   UNL A   1      43.962  30.034  35.346  1.00  0.00     0.031 A 
BRANCH  51  65
ATOM     65  C   UNL A   1      40.239  33.683  38.675  1.00  0.00    -0.014 A 
ATOM     66  C   UNL A   1      39.795  32.994  39.818  1.00  0.00     0.010 A 
ATOM     67  C   UNL A   1      40.497  35.063  38.767  1.00  0.00     0.010 A 
ATOM     68  C   UNL A   1      39.573  33.678  41.016  1.00  0.00     0.020 A 
ATOM     69  C   UNL A   1      40.305  35.745  39.971  1.00  0.00     0.020 A 
ATOM     70  C   UNL A   1      39.828  35.051  41.084  1.00  0.00     0.054 A 
BRANCH  70  71
ATOM     71  S   UNL A   1      39.554  35.908  42.659  1.00  0.00     0.124 S 
ATOM     72  O   UNL A   1      38.152  35.601  42.929  1.00  0.00    -0.237 OA
ATOM     73  O   UNL A   1      40.520  35.263  43.546  1.00  0.00    -0.237 OA
ATOM     74  O   UNL A   1      39.836  37.306  42.348  1.00  0.00    -0.744 OA
ENDBRANCH  70  71
ENDBRANCH  51  65
BRANCH  52  75
ATOM     75  C   UNL A   1      41.643  29.302  29.795  1.00  0.00    -0.014 A 
ATOM     76  C   UNL A   1      41.135  28.024  29.509  1.00  0.00     0.010 A 
ATOM     77  C   UNL A   1      42.362  29.991  28.799  1.00  0.00     0.010 A 
ATOM     78  C   UNL A   1      41.356  27.436  28.261  1.00  0.00     0.020 A 
ATOM     79  C   UNL A   1      42.560  29.418  27.541  1.00  0.00     0.020 A 
ATOM     80  C   UNL A   1      42.066  28.138  27.282  1.00  0.00     0.054 A 
BRANCH  80  81
ATOM     81  S   UNL A   1      42.298  27.377  25.652  1.00  0.00     0.124 S 
ATOM     82  O   UNL A   1      41.180  26.442  25.591  1.00  0.00    -0.237 OA
ATOM     83  O   UNL A   1      42.213  28.526  24.754  1.00  0.00    -0.237 OA
ATOM     84  O   UNL A   1      43.622  26.767  25.745  1.00  0.00    -0.744 OA
ENDBRANCH  80  81
ENDBRANCH  52  75
BRANCH  64  85
ATOM     85  C   UNL A   1      45.251  29.376  35.768  1.00  0.00    -0.014 A 
ATOM     86  C   UNL A   1      46.493  29.994  35.546  1.00  0.00     0.010 A 
ATOM     87  C   UNL A   1      45.208  28.144  36.446  1.00  0.00     0.010 A 
ATOM     88  C   UNL A   1      47.674  29.376  35.965  1.00  0.00     0.020 A 
ATOM     89  C   UNL A   1      46.385  27.537  36.893  1.00  0.00     0.020 A 
ATOM     90  C   UNL A   1      47.612  28.150  36.636  1.00  0.00     0.054 A 
BRANCH  90  91
ATOM     91  S   UNL A   1      49.156  27.389  37.209  1.00  0.00     0.124 S 
ATOM     92  O   UNL A   1      50.043  28.545  37.315  1.00  0.00    -0.237 OA
ATOM     93  O   UNL A   1      48.763  26.780  38.477  1.00  0.00    -0.237 OA
ATOM     94  O   UNL A   1      49.491  26.443  36.147  1.00  0.00    -0.744 OA
ENDBRANCH  90  91
ENDBRANCH  64  85
ENDBRANCH  38  39
ENDBRANCH  30  33
ENDBRANCH  28  29
ENDBRANCH  27  28
ENDBRANCH  26  27
ENDBRANCH   1  26
TORSDOF 19
ENDMDL
