MODEL 1
REMARK VINA RESULT:      -9.7      0.000      0.000
REMARK SMILES Cc1ccc(S(=O)(=O)n2cc(C(=O)C(=O)N[C@@H](Cc3cnc[nH]3)C(=O)NCCCCCCNC(=O)c3ccc(-c4c5nc(c(-c6ccc(S(=O)(=O)[O-])cc6)c6ccc([nH]6)c(-c6ccc(S(=O)(=O)[O-])cc6)c6nc(c(-c7ccc(S(=O)(=O)[O-])cc7)c7ccc4[nH]7)C=C6)C=C5)cc3)c3ccccc32)cc1
REMARK SMILES IDX 28 1 27 2 26 3 24 4 25 5 17 7 16 8 14 9 15 10 12 12 13 13
REMARK SMILES IDX 11 14 9 15 10 16 101 17 96 18 100 19 97 20 99 21 98 22 6 23
REMARK SMILES IDX 7 24 8 25 5 26 1 27 2 28 3 29 103 30 4 31 102 32 18 33 19 34
REMARK SMILES IDX 20 35 23 36 21 37 22 38 29 40 30 41 31 42 32 43 33 44 34 45
REMARK SMILES IDX 35 47 36 48 37 49 95 50 38 51 94 52 39 53 40 54 41 55 88 56
REMARK SMILES IDX 42 57 93 58 87 59 89 60 43 61 92 62 86 63 85 64 44 66 74 67
REMARK SMILES IDX 55 68 73 69 56 70 59 71 72 72 90 73 57 74 58 75 71 77 91 78
REMARK SMILES IDX 60 79 45 80 46 81 54 82 47 83 53 84 48 85 49 86 50 87 51 88
REMARK SMILES IDX 52 89 75 90 76 91 84 92 77 93 83 94 78 95 79 96 80 97 81 98
REMARK SMILES IDX 82 99 61 100 62 101 70 102 63 103 69 104 64 105 65 106
REMARK SMILES IDX 66 107 67 108 68 109
REMARK H PARENT 26 6 16 11 23 39 33 46 89 65 59 76
REMARK Flexibility Score: inf
ROOT
ATOM      1  C   UNL A   1      43.848  27.267  27.678  1.00  0.00     0.021 C 
ENDROOT
BRANCH   1   2
ATOM      2  C   UNL A   1      45.011  26.866  26.787  1.00  0.00     0.116 C 
BRANCH   2   3
ATOM      3  N   UNL A   1      45.456  27.895  25.878  1.00  0.00    -0.354 N 
ATOM      4  C   UNL A   1      46.514  27.866  25.019  1.00  0.00     0.242 C 
ATOM      5  O   UNL A   1      46.440  28.589  24.017  1.00  0.00    -0.273 OA
ATOM      6  H   UNL A   1      44.926  28.725  25.879  1.00  0.00     0.163 HD
BRANCH   4   7
ATOM      7  C   UNL A   1      47.715  26.902  25.191  1.00  0.00     0.177 C 
BRANCH   7   8
ATOM      8  N   UNL A   1      47.685  25.737  24.294  1.00  0.00    -0.337 N 
ATOM      9  C   UNL A   1      47.137  24.482  24.451  1.00  0.00     0.293 C 
ATOM     10  O   UNL A   1      47.075  23.755  23.464  1.00  0.00    -0.265 OA
ATOM     11  H   UNL A   1      48.136  25.878  23.429  1.00  0.00     0.164 HD
BRANCH   9  12
ATOM     12  C   UNL A   1      46.655  23.966  25.829  1.00  0.00     0.252 C 
ATOM     13  O   UNL A   1      47.358  24.172  26.813  1.00  0.00    -0.283 OA
BRANCH  12  14
ATOM     14  C   UNL A   1      45.410  23.201  25.991  1.00  0.00     0.054 A 
ATOM     15  N   UNL A   1      43.308  22.588  26.433  1.00  0.00    -0.240 N 
ATOM     16  C   UNL A   1      44.205  23.621  26.528  1.00  0.00     0.117 A 
ATOM     17  C   UNL A   1      43.882  21.476  25.853  1.00  0.00     0.065 A 
ATOM     18  C   UNL A   1      45.214  21.825  25.598  1.00  0.00     0.012 A 
ATOM     19  C   UNL A   1      43.381  20.196  25.550  1.00  0.00     0.028 A 
ATOM     20  C   UNL A   1      46.067  20.849  25.034  1.00  0.00     0.011 A 
ATOM     21  C   UNL A   1      44.256  19.252  25.006  1.00  0.00     0.002 A 
ATOM     22  C   UNL A   1      45.584  19.571  24.753  1.00  0.00     0.001 A 
BRANCH  15  23
ATOM     23  S   UNL A   1      41.705  22.670  27.002  1.00  0.00     0.268 S 
ATOM     24  O   UNL A   1      41.780  22.278  28.394  1.00  0.00    -0.201 OA
ATOM     25  O   UNL A   1      40.902  21.940  26.037  1.00  0.00    -0.201 OA
BRANCH  23  26
ATOM     26  C   UNL A   1      41.186  24.365  26.949  1.00  0.00     0.088 A 
ATOM     27  C   UNL A   1      40.152  28.532  27.187  1.00  0.00     0.044 C 
ATOM     28  C   UNL A   1      40.494  27.076  27.090  1.00  0.00    -0.051 A 
ATOM     29  C   UNL A   1      40.289  26.237  28.192  1.00  0.00     0.005 A 
ATOM     30  C   UNL A   1      41.010  26.535  25.905  1.00  0.00     0.005 A 
ATOM     31  C   UNL A   1      40.639  24.888  28.126  1.00  0.00     0.022 A 
ATOM     32  C   UNL A   1      41.344  25.179  25.826  1.00  0.00     0.022 A 
ENDBRANCH  23  26
ENDBRANCH  15  23
ENDBRANCH  12  14
ENDBRANCH   9  12
ENDBRANCH   7   8
BRANCH   7  33
ATOM     33  C   UNL A   1      49.088  27.594  25.281  1.00  0.00     0.090 C 
BRANCH  33  34
ATOM     34  C   UNL A   1      50.205  26.817  25.886  1.00  0.00     0.037 A 
ATOM     35  C   UNL A   1      51.556  27.068  26.008  1.00  0.00     0.134 A 
ATOM     36  N   UNL A   1      50.037  25.566  26.436  1.00  0.00    -0.348 N 
ATOM     37  N   UNL A   1      52.182  26.051  26.674  1.00  0.00    -0.245 NA
ATOM     38  C   UNL A   1      51.249  25.161  26.919  1.00  0.00     0.196 A 
ATOM     39  H   UNL A   1      49.197  25.056  26.475  1.00  0.00     0.167 HD
ENDBRANCH  33  34
ENDBRANCH   7  33
ENDBRANCH   4   7
ENDBRANCH   2   3
ENDBRANCH   1   2
BRANCH   1  40
ATOM     40  C   UNL A   1      43.789  28.755  28.031  1.00  0.00     0.002 C 
BRANCH  40  41
ATOM     41  C   UNL A   1      44.584  29.205  29.268  1.00  0.00     0.002 C 
BRANCH  41  42
ATOM     42  C   UNL A   1      45.980  29.778  29.023  1.00  0.00     0.021 C 
BRANCH  42  43
ATOM     43  C   UNL A   1      47.102  28.986  29.658  1.00  0.00     0.116 C 
BRANCH  43  44
ATOM     44  N   UNL A   1      47.617  27.975  28.762  1.00  0.00    -0.352 N 
ATOM     45  C   UNL A   1      48.466  26.978  29.206  1.00  0.00     0.251 C 
ATOM     46  H   UNL A   1      47.357  27.997  27.813  1.00  0.00     0.163 HD
ATOM     47  O   UNL A   1      49.684  27.056  29.245  1.00  0.00    -0.269 OA
BRANCH  45  48
ATOM     48  C   UNL A   1      47.733  25.929  29.940  1.00  0.00     0.039 A 
ATOM     49  C   UNL A   1      46.382  25.740  29.619  1.00  0.00     0.014 A 
ATOM     50  C   UNL A   1      48.230  25.726  31.226  1.00  0.00     0.014 A 
ATOM     51  C   UNL A   1      45.471  25.584  30.647  1.00  0.00     0.010 A 
ATOM     52  C   UNL A   1      47.321  25.727  32.246  1.00  0.00     0.010 A 
ATOM     53  C   UNL A   1      45.956  25.706  31.944  1.00  0.00    -0.014 A 
BRANCH  53  54
ATOM     54  C   UNL A   1      45.107  25.821  33.105  1.00  0.00     0.031 A 
ATOM     55  C   UNL A   1      44.815  27.194  33.536  1.00  0.00     0.074 A 
ATOM     56  C   UNL A   1      44.577  24.685  33.601  1.00  0.00     0.049 A 
ATOM     57  N   UNL A   1      44.512  27.542  34.732  1.00  0.00    -0.248 NA
ATOM     58  C   UNL A   1      44.962  28.340  32.629  1.00  0.00     0.031 C 
ATOM     59  C   UNL A   1      43.490  24.499  34.550  1.00  0.00     0.029 A 
ATOM     60  N   UNL A   1      45.086  23.403  33.447  1.00  0.00    -0.354 N 
ATOM     61  C   UNL A   1      44.064  28.844  34.654  1.00  0.00     0.074 A 
ATOM     62  C   UNL A   1      44.535  29.345  33.392  1.00  0.00     0.031 C 
ATOM     63  C   UNL A   1      43.585  23.261  35.080  1.00  0.00     0.029 A 
ATOM     64  C   UNL A   1      44.830  22.668  34.600  1.00  0.00     0.049 A 
ATOM     65  H   UNL A   1      45.552  23.068  32.648  1.00  0.00     0.167 HD
ATOM     66  C   UNL A   1      43.146  29.267  35.563  1.00  0.00     0.031 A 
ATOM     67  C   UNL A   1      45.875  22.332  35.420  1.00  0.00     0.031 A 
ATOM     68  C   UNL A   1      42.920  28.215  36.555  1.00  0.00     0.049 A 
ATOM     69  C   UNL A   1      45.846  23.130  36.713  1.00  0.00     0.074 A 
ATOM     70  C   UNL A   1      41.958  27.223  36.639  1.00  0.00     0.029 A 
ATOM     71  N   UNL A   1      43.984  27.807  37.351  1.00  0.00    -0.354 N 
ATOM     72  N   UNL A   1      45.305  24.314  36.838  1.00  0.00    -0.248 NA
ATOM     73  C   UNL A   1      46.359  22.613  37.978  1.00  0.00     0.031 C 
ATOM     74  C   UNL A   1      42.509  26.154  37.398  1.00  0.00     0.029 A 
ATOM     75  C   UNL A   1      43.788  26.510  37.793  1.00  0.00     0.049 A 
ATOM     76  H   UNL A   1      44.765  28.363  37.571  1.00  0.00     0.167 HD
ATOM     77  C   UNL A   1      45.341  24.696  38.152  1.00  0.00     0.074 A 
ATOM     78  C   UNL A   1      46.021  23.601  38.824  1.00  0.00     0.031 C 
ATOM     79  C   UNL A   1      44.800  25.863  38.616  1.00  0.00     0.031 A 
BRANCH  66  80
ATOM     80  C   UNL A   1      42.223  30.446  35.356  1.00  0.00    -0.014 A 
ATOM     81  C   UNL A   1      42.642  31.716  35.801  1.00  0.00     0.010 A 
ATOM     82  C   UNL A   1      40.932  30.384  34.793  1.00  0.00     0.010 A 
ATOM     83  C   UNL A   1      41.813  32.844  35.729  1.00  0.00     0.020 A 
ATOM     84  C   UNL A   1      40.082  31.501  34.731  1.00  0.00     0.020 A 
ATOM     85  C   UNL A   1      40.532  32.728  35.198  1.00  0.00     0.054 A 
BRANCH  85  86
ATOM     86  S   UNL A   1      39.489  34.204  35.092  1.00  0.00     0.124 S 
ATOM     87  O   UNL A   1      38.844  34.041  33.792  1.00  0.00    -0.237 OA
ATOM     88  O   UNL A   1      38.616  34.051  36.253  1.00  0.00    -0.237 OA
ATOM     89  O   UNL A   1      40.442  35.310  35.175  1.00  0.00    -0.744 OA
ENDBRANCH  85  86
ENDBRANCH  66  80
BRANCH  67  90
ATOM     90  C   UNL A   1      47.111  21.910  34.682  1.00  0.00    -0.014 A 
ATOM     91  C   UNL A   1      48.203  22.809  34.685  1.00  0.00     0.010 A 
ATOM     92  C   UNL A   1      47.359  20.569  34.339  1.00  0.00     0.010 A 
ATOM     93  C   UNL A   1      49.514  22.356  34.513  1.00  0.00     0.020 A 
ATOM     94  C   UNL A   1      48.678  20.111  34.154  1.00  0.00     0.020 A 
ATOM     95  C   UNL A   1      49.749  20.999  34.294  1.00  0.00     0.054 A 
BRANCH  95  96
ATOM     96  S   UNL A   1      51.463  20.403  34.448  1.00  0.00     0.124 S 
ATOM     97  O   UNL A   1      51.280  18.976  34.683  1.00  0.00    -0.237 OA
ATOM     98  O   UNL A   1      52.022  20.764  33.142  1.00  0.00    -0.237 OA
ATOM     99  O   UNL A   1      51.994  21.166  35.571  1.00  0.00    -0.744 OA
ENDBRANCH  95  96
ENDBRANCH  67  90
BRANCH  79 100
ATOM    100  C   UNL A   1      45.124  26.484  39.954  1.00  0.00    -0.014 A 
ATOM    101  C   UNL A   1      46.296  27.212  40.205  1.00  0.00     0.010 A 
ATOM    102  C   UNL A   1      44.141  26.476  40.973  1.00  0.00     0.010 A 
ATOM    103  C   UNL A   1      46.517  27.824  41.442  1.00  0.00     0.020 A 
ATOM    104  C   UNL A   1      44.320  27.143  42.184  1.00  0.00     0.020 A 
ATOM    105  C   UNL A   1      45.529  27.781  42.426  1.00  0.00     0.054 A 
BRANCH 105 106
ATOM    106  S   UNL A   1      45.827  28.595  44.010  1.00  0.00     0.124 S 
ATOM    107  O   UNL A   1      46.608  29.760  43.601  1.00  0.00    -0.237 OA
ATOM    108  O   UNL A   1      44.476  28.882  44.485  1.00  0.00    -0.237 OA
ATOM    109  O   UNL A   1      46.553  27.593  44.784  1.00  0.00    -0.744 OA
ENDBRANCH 105 106
ENDBRANCH  79 100
ENDBRANCH  53  54
ENDBRANCH  45  48
ENDBRANCH  43  44
ENDBRANCH  42  43
ENDBRANCH  41  42
ENDBRANCH  40  41
ENDBRANCH   1  40
TORSDOF 23
ENDMDL
MODEL 2
REMARK VINA RESULT:      -9.0      4.687     12.880
REMARK SMILES Cc1ccc(S(=O)(=O)n2cc(C(=O)C(=O)N[C@@H](Cc3cnc[nH]3)C(=O)NCCCCCCNC(=O)c3ccc(-c4c5nc(c(-c6ccc(S(=O)(=O)[O-])cc6)c6ccc([nH]6)c(-c6ccc(S(=O)(=O)[O-])cc6)c6nc(c(-c7ccc(S(=O)(=O)[O-])cc7)c7ccc4[nH]7)C=C6)C=C5)cc3)c3ccccc32)cc1
REMARK SMILES IDX 28 1 27 2 26 3 24 4 25 5 17 7 16 8 14 9 15 10 12 12 13 13
REMARK SMILES IDX 11 14 9 15 10 16 101 17 96 18 100 19 97 20 99 21 98 22 6 23
REMARK SMILES IDX 7 24 8 25 5 26 1 27 2 28 3 29 103 30 4 31 102 32 18 33 19 34
REMARK SMILES IDX 20 35 23 36 21 37 22 38 29 40 30 41 31 42 32 43 33 44 34 45
REMARK SMILES IDX 35 47 36 48 37 49 95 50 38 51 94 52 39 53 40 54 41 55 88 56
REMARK SMILES IDX 42 57 93 58 87 59 89 60 43 61 92 62 86 63 85 64 44 66 74 67
REMARK SMILES IDX 55 68 73 69 56 70 59 71 72 72 90 73 57 74 58 75 71 77 91 78
REMARK SMILES IDX 60 79 45 80 46 81 54 82 47 83 53 84 48 85 49 86 50 87 51 88
REMARK SMILES IDX 52 89 75 90 76 91 84 92 77 93 83 94 78 95 79 96 80 97 81 98
REMARK SMILES IDX 82 99 61 100 62 101 70 102 63 103 69 104 64 105 65 106
REMARK SMILES IDX 66 107 67 108 68 109
REMARK H PARENT 26 6 16 11 23 39 33 46 89 65 59 76
REMARK Flexibility Score: inf
ROOT
ATOM      1  C   UNL A   1      43.688  31.287  32.363  1.00  0.00     0.021 C 
ENDROOT
BRANCH   1   2
ATOM      2  C   UNL A   1      43.063  32.643  32.082  1.00  0.00     0.116 C 
BRANCH   2   3
ATOM      3  N   UNL A   1      41.620  32.653  32.087  1.00  0.00    -0.354 N 
ATOM      4  C   UNL A   1      40.780  33.283  32.958  1.00  0.00     0.242 C 
ATOM      5  O   UNL A   1      39.658  33.584  32.533  1.00  0.00    -0.273 OA
ATOM      6  H   UNL A   1      41.185  32.140  31.367  1.00  0.00     0.163 HD
BRANCH   4   7
ATOM      7  C   UNL A   1      41.214  33.723  34.379  1.00  0.00     0.177 C 
BRANCH   7   8
ATOM      8  N   UNL A   1      40.768  35.074  34.754  1.00  0.00    -0.337 N 
ATOM      9  C   UNL A   1      39.732  35.498  35.557  1.00  0.00     0.293 C 
ATOM     10  O   UNL A   1      39.700  36.684  35.873  1.00  0.00    -0.265 OA
ATOM     11  H   UNL A   1      41.304  35.802  34.364  1.00  0.00     0.164 HD
BRANCH   9  12
ATOM     12  C   UNL A   1      38.607  34.540  36.018  1.00  0.00     0.252 C 
ATOM     13  O   UNL A   1      37.772  34.175  35.197  1.00  0.00    -0.283 OA
BRANCH  12  14
ATOM     14  C   UNL A   1      38.479  34.088  37.412  1.00  0.00     0.054 A 
ATOM     15  N   UNL A   1      38.105  32.878  39.251  1.00  0.00    -0.240 N 
ATOM     16  C   UNL A   1      37.993  32.881  37.884  1.00  0.00     0.117 A 
ATOM     17  C   UNL A   1      38.645  34.059  39.713  1.00  0.00     0.065 A 
ATOM     18  C   UNL A   1      38.857  34.851  38.578  1.00  0.00     0.012 A 
ATOM     19  C   UNL A   1      38.946  34.525  41.007  1.00  0.00     0.028 A 
ATOM     20  C   UNL A   1      39.373  36.155  38.756  1.00  0.00     0.011 A 
ATOM     21  C   UNL A   1      39.442  35.824  41.146  1.00  0.00     0.002 A 
ATOM     22  C   UNL A   1      39.651  36.632  40.037  1.00  0.00     0.001 A 
BRANCH  15  23
ATOM     23  S   UNL A   1      37.597  31.588  40.240  1.00  0.00     0.268 S 
ATOM     24  O   UNL A   1      38.726  31.308  41.102  1.00  0.00    -0.201 OA
ATOM     25  O   UNL A   1      37.045  30.590  39.341  1.00  0.00    -0.201 OA
BRANCH  23  26
ATOM     26  C   UNL A   1      36.271  32.168  41.265  1.00  0.00     0.088 A 
ATOM     27  C   UNL A   1      32.787  33.465  43.427  1.00  0.00     0.044 C 
ATOM     28  C   UNL A   1      34.015  33.027  42.687  1.00  0.00    -0.051 A 
ATOM     29  C   UNL A   1      34.244  33.485  41.385  1.00  0.00     0.005 A 
ATOM     30  C   UNL A   1      34.947  32.167  43.284  1.00  0.00     0.005 A 
ATOM     31  C   UNL A   1      35.364  33.053  40.673  1.00  0.00     0.022 A 
ATOM     32  C   UNL A   1      36.081  31.747  42.582  1.00  0.00     0.022 A 
ENDBRANCH  23  26
ENDBRANCH  15  23
ENDBRANCH  12  14
ENDBRANCH   9  12
ENDBRANCH   7   8
BRANCH   7  33
ATOM     33  C   UNL A   1      41.000  32.661  35.475  1.00  0.00     0.090 C 
BRANCH  33  34
ATOM     34  C   UNL A   1      41.975  32.637  36.600  1.00  0.00     0.037 A 
ATOM     35  C   UNL A   1      41.835  32.385  37.949  1.00  0.00     0.134 A 
ATOM     36  N   UNL A   1      43.309  32.944  36.445  1.00  0.00    -0.348 N 
ATOM     37  N   UNL A   1      43.043  32.457  38.586  1.00  0.00    -0.245 NA
ATOM     38  C   UNL A   1      43.911  32.795  37.662  1.00  0.00     0.196 A 
ATOM     39  H   UNL A   1      43.748  33.221  35.609  1.00  0.00     0.167 HD
ENDBRANCH  33  34
ENDBRANCH   7  33
ENDBRANCH   4   7
ENDBRANCH   2   3
ENDBRANCH   1   2
BRANCH   1  40
ATOM     40  C   UNL A   1      45.108  31.336  32.929  1.00  0.00     0.002 C 
BRANCH  40  41
ATOM     41  C   UNL A   1      45.986  30.093  32.708  1.00  0.00     0.002 C 
BRANCH  41  42
ATOM     42  C   UNL A   1      46.103  29.110  33.873  1.00  0.00     0.021 C 
BRANCH  42  43
ATOM     43  C   UNL A   1      45.714  29.685  35.218  1.00  0.00     0.116 C 
BRANCH  43  44
ATOM     44  N   UNL A   1      45.453  28.645  36.188  1.00  0.00    -0.352 N 
ATOM     45  C   UNL A   1      44.348  28.689  37.018  1.00  0.00     0.251 C 
ATOM     46  H   UNL A   1      46.077  27.887  36.259  1.00  0.00     0.163 HD
ATOM     47  O   UNL A   1      44.312  29.226  38.114  1.00  0.00    -0.269 OA
BRANCH  45  48
ATOM     48  C   UNL A   1      43.117  28.305  36.302  1.00  0.00     0.039 A 
ATOM     49  C   UNL A   1      43.058  27.012  35.764  1.00  0.00     0.014 A 
ATOM     50  C   UNL A   1      42.484  29.392  35.701  1.00  0.00     0.014 A 
ATOM     51  C   UNL A   1      42.567  26.848  34.483  1.00  0.00     0.010 A 
ATOM     52  C   UNL A   1      42.143  29.258  34.385  1.00  0.00     0.010 A 
ATOM     53  C   UNL A   1      42.236  28.000  33.781  1.00  0.00    -0.014 A 
BRANCH  53  54
ATOM     54  C   UNL A   1      41.954  28.019  32.366  1.00  0.00     0.031 A 
ATOM     55  C   UNL A   1      40.555  28.280  32.008  1.00  0.00     0.074 A 
ATOM     56  C   UNL A   1      43.002  27.914  31.523  1.00  0.00     0.049 A 
ATOM     57  N   UNL A   1      39.988  27.896  30.925  1.00  0.00    -0.248 NA
ATOM     58  C   UNL A   1      39.623  28.926  32.940  1.00  0.00     0.031 C 
ATOM     59  C   UNL A   1      43.081  28.181  30.095  1.00  0.00     0.029 A 
ATOM     60  N   UNL A   1      44.233  27.340  31.807  1.00  0.00    -0.354 N 
ATOM     61  C   UNL A   1      38.781  28.561  30.862  1.00  0.00     0.074 A 
ATOM     62  C   UNL A   1      38.522  29.026  32.196  1.00  0.00     0.031 C 
ATOM     63  C   UNL A   1      44.161  27.544  29.595  1.00  0.00     0.029 A 
ATOM     64  C   UNL A   1      44.723  26.720  30.662  1.00  0.00     0.049 A 
ATOM     65  H   UNL A   1      44.687  27.368  32.679  1.00  0.00     0.167 HD
ATOM     66  C   UNL A   1      38.261  28.844  29.638  1.00  0.00     0.031 A 
ATOM     67  C   UNL A   1      44.774  25.352  30.615  1.00  0.00     0.031 A 
ATOM     68  C   UNL A   1      39.091  28.229  28.601  1.00  0.00     0.049 A 
ATOM     69  C   UNL A   1      43.722  24.788  29.674  1.00  0.00     0.074 A 
ATOM     70  C   UNL A   1      40.128  28.735  27.836  1.00  0.00     0.029 A 
ATOM     71  N   UNL A   1      39.216  26.845  28.577  1.00  0.00    -0.354 N 
ATOM     72  N   UNL A   1      42.596  25.385  29.383  1.00  0.00    -0.248 NA
ATOM     73  C   UNL A   1      43.904  23.543  28.934  1.00  0.00     0.031 C 
ATOM     74  C   UNL A   1      40.952  27.640  27.452  1.00  0.00     0.029 A 
ATOM     75  C   UNL A   1      40.399  26.476  27.962  1.00  0.00     0.049 A 
ATOM     76  H   UNL A   1      38.554  26.216  28.943  1.00  0.00     0.167 HD
ATOM     77  C   UNL A   1      41.938  24.672  28.417  1.00  0.00     0.074 A 
ATOM     78  C   UNL A   1      42.793  23.521  28.177  1.00  0.00     0.031 C 
ATOM     79  C   UNL A   1      40.755  25.068  27.857  1.00  0.00     0.031 A 
BRANCH  66  80
ATOM     80  C   UNL A   1      37.248  29.933  29.374  1.00  0.00    -0.014 A 
ATOM     81  C   UNL A   1      36.098  29.617  28.622  1.00  0.00     0.010 A 
ATOM     82  C   UNL A   1      37.371  31.279  29.775  1.00  0.00     0.010 A 
ATOM     83  C   UNL A   1      35.154  30.585  28.257  1.00  0.00     0.020 A 
ATOM     84  C   UNL A   1      36.444  32.265  29.401  1.00  0.00     0.020 A 
ATOM     85  C   UNL A   1      35.336  31.910  28.645  1.00  0.00     0.054 A 
BRANCH  85  86
ATOM     86  S   UNL A   1      34.090  33.139  28.183  1.00  0.00     0.124 S 
ATOM     87  O   UNL A   1      33.667  33.662  29.479  1.00  0.00    -0.237 OA
ATOM     88  O   UNL A   1      34.858  34.062  27.351  1.00  0.00    -0.237 OA
ATOM     89  O   UNL A   1      33.079  32.359  27.471  1.00  0.00    -0.744 OA
ENDBRANCH  85  86
ENDBRANCH  66  80
BRANCH  67  90
ATOM     90  C   UNL A   1      45.226  24.720  31.898  1.00  0.00    -0.014 A 
ATOM     91  C   UNL A   1      46.278  25.358  32.595  1.00  0.00     0.010 A 
ATOM     92  C   UNL A   1      44.433  23.794  32.599  1.00  0.00     0.010 A 
ATOM     93  C   UNL A   1      46.429  25.203  33.977  1.00  0.00     0.020 A 
ATOM     94  C   UNL A   1      44.590  23.626  33.989  1.00  0.00     0.020 A 
ATOM     95  C   UNL A   1      45.554  24.373  34.675  1.00  0.00     0.054 A 
BRANCH  95  96
ATOM     96  S   UNL A   1      45.548  24.488  36.493  1.00  0.00     0.124 S 
ATOM     97  O   UNL A   1      44.125  24.460  36.806  1.00  0.00    -0.237 OA
ATOM     98  O   UNL A   1      46.303  23.290  36.870  1.00  0.00    -0.237 OA
ATOM     99  O   UNL A   1      46.230  25.749  36.759  1.00  0.00    -0.744 OA
ENDBRANCH  95  96
ENDBRANCH  67  90
BRANCH  79 100
ATOM    100  C   UNL A   1      39.833  24.164  27.076  1.00  0.00    -0.014 A 
ATOM    101  C   UNL A   1      40.016  22.778  26.969  1.00  0.00     0.010 A 
ATOM    102  C   UNL A   1      38.631  24.696  26.547  1.00  0.00     0.010 A 
ATOM    103  C   UNL A   1      39.094  21.976  26.289  1.00  0.00     0.020 A 
ATOM    104  C   UNL A   1      37.671  23.896  25.930  1.00  0.00     0.020 A 
ATOM    105  C   UNL A   1      37.930  22.542  25.769  1.00  0.00     0.054 A 
BRANCH 105 106
ATOM    106  S   UNL A   1      36.743  21.484  24.912  1.00  0.00     0.124 S 
ATOM    107  O   UNL A   1      37.595  20.381  24.474  1.00  0.00    -0.237 OA
ATOM    108  O   UNL A   1      35.784  21.156  25.963  1.00  0.00    -0.237 OA
ATOM    109  O   UNL A   1      36.225  22.338  23.847  1.00  0.00    -0.744 OA
ENDBRANCH 105 106
ENDBRANCH  79 100
ENDBRANCH  53  54
ENDBRANCH  45  48
ENDBRANCH  43  44
ENDBRANCH  42  43
ENDBRANCH  41  42
ENDBRANCH  40  41
ENDBRANCH   1  40
TORSDOF 23
ENDMDL
MODEL 3
REMARK VINA RESULT:      -8.8      6.066     13.772
REMARK SMILES Cc1ccc(S(=O)(=O)n2cc(C(=O)C(=O)N[C@@H](Cc3cnc[nH]3)C(=O)NCCCCCCNC(=O)c3ccc(-c4c5nc(c(-c6ccc(S(=O)(=O)[O-])cc6)c6ccc([nH]6)c(-c6ccc(S(=O)(=O)[O-])cc6)c6nc(c(-c7ccc(S(=O)(=O)[O-])cc7)c7ccc4[nH]7)C=C6)C=C5)cc3)c3ccccc32)cc1
REMARK SMILES IDX 28 1 27 2 26 3 24 4 25 5 17 7 16 8 14 9 15 10 12 12 13 13
REMARK SMILES IDX 11 14 9 15 10 16 101 17 96 18 100 19 97 20 99 21 98 22 6 23
REMARK SMILES IDX 7 24 8 25 5 26 1 27 2 28 3 29 103 30 4 31 102 32 18 33 19 34
REMARK SMILES IDX 20 35 23 36 21 37 22 38 29 40 30 41 31 42 32 43 33 44 34 45
REMARK SMILES IDX 35 47 36 48 37 49 95 50 38 51 94 52 39 53 40 54 41 55 88 56
REMARK SMILES IDX 42 57 93 58 87 59 89 60 43 61 92 62 86 63 85 64 44 66 74 67
REMARK SMILES IDX 55 68 73 69 56 70 59 71 72 72 90 73 57 74 58 75 71 77 91 78
REMARK SMILES IDX 60 79 45 80 46 81 54 82 47 83 53 84 48 85 49 86 50 87 51 88
REMARK SMILES IDX 52 89 75 90 76 91 84 92 77 93 83 94 78 95 79 96 80 97 81 98
REMARK SMILES IDX 82 99 61 100 62 101 70 102 63 103 69 104 64 105 65 106
REMARK SMILES IDX 66 107 67 108 68 109
REMARK H PARENT 26 6 16 11 23 39 33 46 89 65 59 76
REMARK Flexibility Score: inf
ROOT
ATOM      1  C   UNL A   1      46.005  28.780  33.431  1.00  0.00     0.021 C 
ENDROOT
BRANCH   1   2
ATOM      2  C   UNL A   1      45.625  27.845  34.567  1.00  0.00     0.116 C 
BRANCH   2   3
ATOM      3  N   UNL A   1      46.391  26.623  34.623  1.00  0.00    -0.354 N 
ATOM      4  C   UNL A   1      46.030  25.377  34.203  1.00  0.00     0.242 C 
ATOM      5  O   UNL A   1      46.945  24.610  33.880  1.00  0.00    -0.273 OA
ATOM      6  H   UNL A   1      47.292  26.700  35.014  1.00  0.00     0.163 HD
BRANCH   4   7
ATOM      7  C   UNL A   1      44.554  24.946  34.012  1.00  0.00     0.177 C 
BRANCH   7   8
ATOM      8  N   UNL A   1      44.278  24.291  32.725  1.00  0.00    -0.337 N 
ATOM      9  C   UNL A   1      44.444  24.728  31.428  1.00  0.00     0.293 C 
ATOM     10  O   UNL A   1      44.327  23.905  30.525  1.00  0.00    -0.265 OA
ATOM     11  H   UNL A   1      43.912  23.380  32.802  1.00  0.00     0.164 HD
BRANCH   9  12
ATOM     12  C   UNL A   1      44.720  26.215  31.094  1.00  0.00     0.252 C 
ATOM     13  O   UNL A   1      45.871  26.557  30.840  1.00  0.00    -0.283 OA
BRANCH  12  14
ATOM     14  C   UNL A   1      43.662  27.236  31.115  1.00  0.00     0.054 A 
ATOM     15  N   UNL A   1      42.006  28.599  31.737  1.00  0.00    -0.240 N 
ATOM     16  C   UNL A   1      42.789  27.549  32.142  1.00  0.00     0.117 A 
ATOM     17  C   UNL A   1      42.324  28.996  30.455  1.00  0.00     0.065 A 
ATOM     18  C   UNL A   1      43.340  28.131  30.029  1.00  0.00     0.012 A 
ATOM     19  C   UNL A   1      41.811  30.004  29.617  1.00  0.00     0.028 A 
ATOM     20  C   UNL A   1      43.841  28.279  28.716  1.00  0.00     0.011 A 
ATOM     21  C   UNL A   1      42.321  30.113  28.320  1.00  0.00     0.002 A 
ATOM     22  C   UNL A   1      43.321  29.261  27.872  1.00  0.00     0.001 A 
BRANCH  15  23
ATOM     23  S   UNL A   1      40.773  29.286  32.690  1.00  0.00     0.268 S 
ATOM     24  O   UNL A   1      41.261  30.604  33.042  1.00  0.00    -0.201 OA
ATOM     25  O   UNL A   1      40.445  28.290  33.694  1.00  0.00    -0.201 OA
BRANCH  23  26
ATOM     26  C   UNL A   1      39.339  29.500  31.668  1.00  0.00     0.088 A 
ATOM     27  C   UNL A   1      36.088  30.324  28.977  1.00  0.00     0.044 C 
ATOM     28  C   UNL A   1      37.206  30.027  29.931  1.00  0.00    -0.051 A 
ATOM     29  C   UNL A   1      37.825  31.073  30.625  1.00  0.00     0.005 A 
ATOM     30  C   UNL A   1      37.640  28.712  30.145  1.00  0.00     0.005 A 
ATOM     31  C   UNL A   1      38.892  30.813  31.487  1.00  0.00     0.022 A 
ATOM     32  C   UNL A   1      38.696  28.444  31.022  1.00  0.00     0.022 A 
ENDBRANCH  23  26
ENDBRANCH  15  23
ENDBRANCH  12  14
ENDBRANCH   9  12
ENDBRANCH   7   8
BRANCH   7  33
ATOM     33  C   UNL A   1      43.929  24.235  35.228  1.00  0.00     0.090 C 
BRANCH  33  34
ATOM     34  C   UNL A   1      42.701  24.840  35.814  1.00  0.00     0.037 A 
ATOM     35  C   UNL A   1      41.712  25.642  35.282  1.00  0.00     0.134 A 
ATOM     36  N   UNL A   1      42.357  24.707  37.141  1.00  0.00    -0.348 N 
ATOM     37  N   UNL A   1      40.759  25.927  36.220  1.00  0.00    -0.245 NA
ATOM     38  C   UNL A   1      41.170  25.355  37.328  1.00  0.00     0.196 A 
ATOM     39  H   UNL A   1      42.874  24.231  37.830  1.00  0.00     0.167 HD
ENDBRANCH  33  34
ENDBRANCH   7  33
ENDBRANCH   4   7
ENDBRANCH   2   3
ENDBRANCH   1   2
BRANCH   1  40
ATOM     40  C   UNL A   1      45.385  30.176  33.510  1.00  0.00     0.002 C 
BRANCH  40  41
ATOM     41  C   UNL A   1      45.714  31.011  34.759  1.00  0.00     0.002 C 
BRANCH  41  42
ATOM     42  C   UNL A   1      44.724  32.114  35.135  1.00  0.00     0.021 C 
BRANCH  42  43
ATOM     43  C   UNL A   1      43.867  32.604  33.989  1.00  0.00     0.116 C 
BRANCH  43  44
ATOM     44  N   UNL A   1      42.495  32.811  34.398  1.00  0.00    -0.352 N 
ATOM     45  C   UNL A   1      41.990  34.079  34.622  1.00  0.00     0.251 C 
ATOM     46  H   UNL A   1      41.908  32.031  34.519  1.00  0.00     0.163 HD
ATOM     47  O   UNL A   1      42.023  34.671  35.690  1.00  0.00    -0.269 OA
BRANCH  45  48
ATOM     48  C   UNL A   1      41.699  34.778  33.357  1.00  0.00     0.039 A 
ATOM     49  C   UNL A   1      40.928  34.098  32.404  1.00  0.00     0.014 A 
ATOM     50  C   UNL A   1      42.699  35.681  33.000  1.00  0.00     0.014 A 
ATOM     51  C   UNL A   1      41.324  34.134  31.081  1.00  0.00     0.010 A 
ATOM     52  C   UNL A   1      43.182  35.595  31.725  1.00  0.00     0.010 A 
ATOM     53  C   UNL A   1      42.519  34.785  30.797  1.00  0.00    -0.014 A 
BRANCH  53  54
ATOM     54  C   UNL A   1      43.192  34.697  29.524  1.00  0.00     0.031 A 
ATOM     55  C   UNL A   1      44.236  33.668  29.436  1.00  0.00     0.074 A 
ATOM     56  C   UNL A   1      42.728  35.470  28.521  1.00  0.00     0.049 A 
ATOM     57  N   UNL A   1      45.240  33.704  28.641  1.00  0.00    -0.248 NA
ATOM     58  C   UNL A   1      44.282  32.528  30.361  1.00  0.00     0.031 C 
ATOM     59  C   UNL A   1      42.992  35.403  27.092  1.00  0.00     0.029 A 
ATOM     60  N   UNL A   1      42.012  36.650  28.656  1.00  0.00    -0.354 N 
ATOM     61  C   UNL A   1      45.815  32.450  28.686  1.00  0.00     0.074 A 
ATOM     62  C   UNL A   1      45.314  31.834  29.883  1.00  0.00     0.031 C 
ATOM     63  C   UNL A   1      42.685  36.595  26.539  1.00  0.00     0.029 A 
ATOM     64  C   UNL A   1      42.359  37.516  27.624  1.00  0.00     0.049 A 
ATOM     65  H   UNL A   1      41.360  36.843  29.368  1.00  0.00     0.167 HD
ATOM     66  C   UNL A   1      46.461  31.995  27.579  1.00  0.00     0.031 A 
ATOM     67  C   UNL A   1      43.093  38.636  27.913  1.00  0.00     0.031 A 
ATOM     68  C   UNL A   1      46.509  33.055  26.572  1.00  0.00     0.049 A 
ATOM     69  C   UNL A   1      44.520  38.513  27.406  1.00  0.00     0.074 A 
ATOM     70  C   UNL A   1      45.690  33.332  25.490  1.00  0.00     0.029 A 
ATOM     71  N   UNL A   1      47.189  34.231  26.869  1.00  0.00    -0.354 N 
ATOM     72  N   UNL A   1      45.146  37.378  27.235  1.00  0.00    -0.248 NA
ATOM     73  C   UNL A   1      45.315  39.661  26.982  1.00  0.00     0.031 C 
ATOM     74  C   UNL A   1      45.794  34.726  25.220  1.00  0.00     0.029 A 
ATOM     75  C   UNL A   1      46.691  35.281  26.117  1.00  0.00     0.049 A 
ATOM     76  H   UNL A   1      47.921  34.305  27.522  1.00  0.00     0.167 HD
ATOM     77  C   UNL A   1      46.364  37.612  26.654  1.00  0.00     0.074 A 
ATOM     78  C   UNL A   1      46.426  39.059  26.525  1.00  0.00     0.031 C 
ATOM     79  C   UNL A   1      47.233  36.621  26.293  1.00  0.00     0.031 A 
BRANCH  66  80
ATOM     80  C   UNL A   1      46.720  30.536  27.285  1.00  0.00    -0.014 A 
ATOM     81  C   UNL A   1      46.277  30.007  26.056  1.00  0.00     0.010 A 
ATOM     82  C   UNL A   1      47.330  29.620  28.166  1.00  0.00     0.010 A 
ATOM     83  C   UNL A   1      46.397  28.647  25.740  1.00  0.00     0.020 A 
ATOM     84  C   UNL A   1      47.440  28.251  27.874  1.00  0.00     0.020 A 
ATOM     85  C   UNL A   1      46.974  27.773  26.657  1.00  0.00     0.054 A 
BRANCH  85  86
ATOM     86  S   UNL A   1      47.140  26.025  26.217  1.00  0.00     0.124 S 
ATOM     87  O   UNL A   1      46.807  26.024  24.795  1.00  0.00    -0.237 OA
ATOM     88  O   UNL A   1      48.540  25.756  26.537  1.00  0.00    -0.237 OA
ATOM     89  O   UNL A   1      46.168  25.355  27.079  1.00  0.00    -0.744 OA
ENDBRANCH  85  86
ENDBRANCH  66  80
BRANCH  67  90
ATOM     90  C   UNL A   1      42.672  39.324  29.178  1.00  0.00    -0.014 A 
ATOM     91  C   UNL A   1      43.577  39.287  30.264  1.00  0.00     0.010 A 
ATOM     92  C   UNL A   1      41.645  40.285  29.204  1.00  0.00     0.010 A 
ATOM     93  C   UNL A   1      43.560  40.274  31.255  1.00  0.00     0.020 A 
ATOM     94  C   UNL A   1      41.618  41.274  30.207  1.00  0.00     0.020 A 
ATOM     95  C   UNL A   1      42.607  41.290  31.196  1.00  0.00     0.054 A 
BRANCH  95  96
ATOM     96  S   UNL A   1      42.849  42.739  32.272  1.00  0.00     0.124 S 
ATOM     97  O   UNL A   1      41.952  42.457  33.386  1.00  0.00    -0.237 OA
ATOM     98  O   UNL A   1      44.281  42.651  32.573  1.00  0.00    -0.237 OA
ATOM     99  O   UNL A   1      42.472  43.864  31.425  1.00  0.00    -0.744 OA
ENDBRANCH  95  96
ENDBRANCH  67  90
BRANCH  79 100
ATOM    100  C   UNL A   1      48.698  36.834  25.993  1.00  0.00    -0.014 A 
ATOM    101  C   UNL A   1      49.632  37.248  26.953  1.00  0.00     0.010 A 
ATOM    102  C   UNL A   1      49.204  36.454  24.726  1.00  0.00     0.010 A 
ATOM    103  C   UNL A   1      50.989  37.367  26.640  1.00  0.00     0.020 A 
ATOM    104  C   UNL A   1      50.564  36.499  24.424  1.00  0.00     0.020 A 
ATOM    105  C   UNL A   1      51.445  36.996  25.375  1.00  0.00     0.054 A 
BRANCH 105 106
ATOM    106  S   UNL A   1      53.206  37.138  24.997  1.00  0.00     0.124 S 
ATOM    107  O   UNL A   1      53.572  38.338  25.746  1.00  0.00    -0.237 OA
ATOM    108  O   UNL A   1      53.749  35.885  25.516  1.00  0.00    -0.237 OA
ATOM    109  O   UNL A   1      53.238  37.271  23.544  1.00  0.00    -0.744 OA
ENDBRANCH 105 106
ENDBRANCH  79 100
ENDBRANCH  53  54
ENDBRANCH  45  48
ENDBRANCH  43  44
ENDBRANCH  42  43
ENDBRANCH  41  42
ENDBRANCH  40  41
ENDBRANCH   1  40
TORSDOF 23
ENDMDL
