MODEL 1
REMARK VINA RESULT:      -9.7      0.000      0.000
REMARK SMILES O=C(NCCCCCCNC(=O)[C@H](O)Cc1ccc(O)cc1)c1ccc(-c2c3nc(c(-c4ccc(S(=O)(=O)[O-])cc4)c4ccc([nH]4)c(-c4ccc(S(=O)(=O)[O-])cc4)c4nc(c(-c5ccc(S(=O)(=O)[O-])cc5)c5ccc2[nH]5)C=C4)C=C3)cc1
REMARK SMILES IDX 6 1 5 2 4 3 3 4 1 5 2 6 23 8 24 9 82 10 25 11 81 12 26 13
REMARK SMILES IDX 27 14 28 15 75 16 29 17 80 18 74 19 76 20 30 21 79 22 73 23
REMARK SMILES IDX 72 24 31 26 61 27 42 28 60 29 43 30 46 31 59 32 77 33 44 34
REMARK SMILES IDX 45 35 58 37 78 38 47 39 32 40 33 41 41 42 34 43 40 44 35 45
REMARK SMILES IDX 36 46 37 47 38 48 39 49 62 50 63 51 71 52 64 53 70 54 65 55
REMARK SMILES IDX 66 56 67 57 68 58 69 59 48 60 49 61 57 62 50 63 56 64 51 65
REMARK SMILES IDX 52 66 53 67 54 68 55 69 7 70 8 71 9 72 10 73 11 74 12 76
REMARK SMILES IDX 13 77 15 78 16 79 17 80 22 81 18 82 21 83 19 84 20 85 14 87
REMARK H PARENT 3 7 76 25 46 36 10 75 20 86 14 88
REMARK Flexibility Score: inf
ROOT
ATOM      1  C   UNL A   1      37.296  33.157  28.887  1.00  0.00     0.002 C 
ENDROOT
BRANCH   1   2
ATOM      2  C   UNL A   1      35.871  33.334  28.365  1.00  0.00     0.021 C 
BRANCH   2   3
ATOM      3  C   UNL A   1      34.778  32.649  29.174  1.00  0.00     0.116 C 
BRANCH   3   4
ATOM      4  N   UNL A   1      34.031  31.657  28.418  1.00  0.00    -0.352 N 
ATOM      5  O   UNL A   1      33.699  29.775  27.220  1.00  0.00    -0.269 OA
ATOM      6  C   UNL A   1      34.450  30.441  27.926  1.00  0.00     0.251 C 
ATOM      7  H   UNL A   1      33.093  31.888  28.230  1.00  0.00     0.163 HD
BRANCH   6   8
ATOM      8  C   UNL A   1      35.820  29.957  28.216  1.00  0.00     0.039 A 
ATOM      9  C   UNL A   1      36.152  29.447  29.473  1.00  0.00     0.014 A 
ATOM     10  C   UNL A   1      36.794  30.036  27.216  1.00  0.00     0.014 A 
ATOM     11  C   UNL A   1      37.481  29.175  29.779  1.00  0.00     0.010 A 
ATOM     12  C   UNL A   1      38.117  29.682  27.502  1.00  0.00     0.010 A 
ATOM     13  C   UNL A   1      38.482  29.293  28.800  1.00  0.00    -0.014 A 
BRANCH  13  14
ATOM     14  C   UNL A   1      39.893  28.990  29.160  1.00  0.00     0.031 A 
ATOM     15  C   UNL A   1      40.533  27.682  28.771  1.00  0.00     0.074 A 
ATOM     16  C   UNL A   1      40.619  29.927  29.801  1.00  0.00     0.049 A 
ATOM     17  N   UNL A   1      41.771  27.290  28.941  1.00  0.00    -0.248 NA
ATOM     18  C   UNL A   1      39.676  26.682  28.113  1.00  0.00     0.031 C 
ATOM     19  C   UNL A   1      40.113  31.230  30.242  1.00  0.00     0.029 A 
ATOM     20  N   UNL A   1      41.941  29.944  30.166  1.00  0.00    -0.354 N 
ATOM     21  C   UNL A   1      41.837  25.994  28.440  1.00  0.00     0.074 A 
ATOM     22  C   UNL A   1      40.508  25.659  27.975  1.00  0.00     0.031 C 
ATOM     23  C   UNL A   1      41.125  31.941  30.760  1.00  0.00     0.029 A 
ATOM     24  C   UNL A   1      42.337  31.129  30.738  1.00  0.00     0.049 A 
ATOM     25  H   UNL A   1      42.548  29.181  30.030  1.00  0.00     0.167 HD
ATOM     26  C   UNL A   1      42.905  25.162  28.369  1.00  0.00     0.031 A 
ATOM     27  C   UNL A   1      43.539  31.527  31.194  1.00  0.00     0.031 A 
ATOM     28  C   UNL A   1      44.230  25.501  28.819  1.00  0.00     0.049 A 
ATOM     29  C   UNL A   1      44.708  30.590  31.095  1.00  0.00     0.074 A 
ATOM     30  C   UNL A   1      45.383  24.736  28.756  1.00  0.00     0.029 A 
ATOM     31  N   UNL A   1      44.581  26.702  29.416  1.00  0.00    -0.354 N 
ATOM     32  N   UNL A   1      44.753  29.382  30.586  1.00  0.00    -0.248 NA
ATOM     33  C   UNL A   1      45.989  31.072  31.626  1.00  0.00     0.031 C 
ATOM     34  C   UNL A   1      46.423  25.461  29.349  1.00  0.00     0.029 A 
ATOM     35  C   UNL A   1      45.928  26.694  29.739  1.00  0.00     0.049 A 
ATOM     36  H   UNL A   1      43.965  27.450  29.584  1.00  0.00     0.167 HD
ATOM     37  C   UNL A   1      46.072  28.967  30.720  1.00  0.00     0.074 A 
ATOM     38  C   UNL A   1      46.795  30.059  31.339  1.00  0.00     0.031 C 
ATOM     39  C   UNL A   1      46.634  27.786  30.360  1.00  0.00     0.031 A 
BRANCH  26  40
ATOM     40  C   UNL A   1      42.677  23.784  27.804  1.00  0.00    -0.014 A 
ATOM     41  C   UNL A   1      42.993  23.482  26.469  1.00  0.00     0.010 A 
ATOM     42  C   UNL A   1      42.176  22.766  28.637  1.00  0.00     0.010 A 
ATOM     43  C   UNL A   1      42.775  22.196  25.964  1.00  0.00     0.020 A 
ATOM     44  C   UNL A   1      41.978  21.474  28.142  1.00  0.00     0.020 A 
ATOM     45  C   UNL A   1      42.261  21.201  26.803  1.00  0.00     0.054 A 
BRANCH  45  46
ATOM     46  S   UNL A   1      41.997  19.538  26.127  1.00  0.00     0.124 S 
ATOM     47  O   UNL A   1      42.411  18.693  27.245  1.00  0.00    -0.237 OA
ATOM     48  O   UNL A   1      40.566  19.532  25.834  1.00  0.00    -0.237 OA
ATOM     49  O   UNL A   1      42.870  19.497  24.957  1.00  0.00    -0.744 OA
ENDBRANCH  45  46
ENDBRANCH  26  40
BRANCH  27  50
ATOM     50  C   UNL A   1      43.695  32.887  31.772  1.00  0.00    -0.014 A 
ATOM     51  C   UNL A   1      43.522  33.101  33.150  1.00  0.00     0.010 A 
ATOM     52  C   UNL A   1      44.050  33.971  30.947  1.00  0.00     0.010 A 
ATOM     53  C   UNL A   1      43.693  34.377  33.693  1.00  0.00     0.020 A 
ATOM     54  C   UNL A   1      44.247  35.242  31.491  1.00  0.00     0.020 A 
ATOM     55  C   UNL A   1      44.056  35.439  32.861  1.00  0.00     0.054 A 
BRANCH  55  56
ATOM     56  S   UNL A   1      44.338  37.075  33.594  1.00  0.00     0.124 S 
ATOM     57  O   UNL A   1      44.650  37.883  32.420  1.00  0.00    -0.237 OA
ATOM     58  O   UNL A   1      43.057  37.360  34.237  1.00  0.00    -0.237 OA
ATOM     59  O   UNL A   1      45.450  36.847  34.514  1.00  0.00    -0.744 OA
ENDBRANCH  55  56
ENDBRANCH  27  50
BRANCH  39  60
ATOM     60  C   UNL A   1      48.111  27.630  30.601  1.00  0.00    -0.014 A 
ATOM     61  C   UNL A   1      48.602  27.169  31.834  1.00  0.00     0.010 A 
ATOM     62  C   UNL A   1      49.016  27.930  29.568  1.00  0.00     0.010 A 
ATOM     63  C   UNL A   1      49.978  27.048  32.044  1.00  0.00     0.020 A 
ATOM     64  C   UNL A   1      50.392  27.789  29.767  1.00  0.00     0.020 A 
ATOM     65  C   UNL A   1      50.865  27.366  31.011  1.00  0.00     0.054 A 
BRANCH  65  66
ATOM     66  S   UNL A   1      52.646  27.184  31.295  1.00  0.00     0.124 S 
ATOM     67  O   UNL A   1      52.998  28.484  31.858  1.00  0.00    -0.237 OA
ATOM     68  O   UNL A   1      52.713  26.058  32.224  1.00  0.00    -0.237 OA
ATOM     69  O   UNL A   1      53.182  26.914  29.963  1.00  0.00    -0.744 OA
ENDBRANCH  65  66
ENDBRANCH  39  60
ENDBRANCH  13  14
ENDBRANCH   6   8
ENDBRANCH   3   4
ENDBRANCH   2   3
ENDBRANCH   1   2
BRANCH   1  70
ATOM     70  C   UNL A   1      37.831  34.279  29.781  1.00  0.00     0.002 C 
BRANCH  70  71
ATOM     71  C   UNL A   1      37.907  33.978  31.283  1.00  0.00     0.021 C 
BRANCH  71  72
ATOM     72  C   UNL A   1      37.041  32.822  31.776  1.00  0.00     0.116 C 
BRANCH  72  73
ATOM     73  N   UNL A   1      37.467  32.306  33.061  1.00  0.00    -0.354 N 
ATOM     74  C   UNL A   1      37.010  32.608  34.315  1.00  0.00     0.249 C 
ATOM     75  H   UNL A   1      38.191  31.640  33.028  1.00  0.00     0.163 HD
ATOM     76  O   UNL A   1      37.461  31.954  35.258  1.00  0.00    -0.272 OA
BRANCH  74  77
ATOM     77  C   UNL A   1      35.982  33.747  34.494  1.00  0.00     0.207 C 
BRANCH  77  78
ATOM     78  C   UNL A   1      34.775  33.498  33.572  1.00  0.00     0.077 C 
BRANCH  78  79
ATOM     79  C   UNL A   1      34.270  34.752  32.888  1.00  0.00    -0.045 A 
ATOM     80  C   UNL A   1      34.386  35.995  33.530  1.00  0.00     0.007 A 
ATOM     81  C   UNL A   1      33.661  34.698  31.625  1.00  0.00     0.007 A 
ATOM     82  C   UNL A   1      33.930  37.161  32.913  1.00  0.00     0.046 A 
ATOM     83  C   UNL A   1      33.215  35.866  31.004  1.00  0.00     0.046 A 
ATOM     84  C   UNL A   1      33.353  37.087  31.650  1.00  0.00     0.115 A 
BRANCH  84  85
ATOM     85  O   UNL A   1      32.905  38.201  31.006  1.00  0.00    -0.508 OA
ATOM     86  H   UNL A   1      32.552  38.132  30.142  1.00  0.00     0.293 HD
ENDBRANCH  84  85
ENDBRANCH  78  79
ENDBRANCH  77  78
BRANCH  77  87
ATOM     87  O   UNL A   1      35.539  33.840  35.851  1.00  0.00    -0.383 OA
ATOM     88  H   UNL A   1      34.711  33.345  35.955  1.00  0.00     0.211 HD
ENDBRANCH  77  87
ENDBRANCH  74  77
ENDBRANCH  72  73
ENDBRANCH  71  72
ENDBRANCH  70  71
ENDBRANCH   1  70
TORSDOF 20
ENDMDL
MODEL 2
REMARK VINA RESULT:      -9.6      2.987      9.252
REMARK SMILES O=C(NCCCCCCNC(=O)[C@H](O)Cc1ccc(O)cc1)c1ccc(-c2c3nc(c(-c4ccc(S(=O)(=O)[O-])cc4)c4ccc([nH]4)c(-c4ccc(S(=O)(=O)[O-])cc4)c4nc(c(-c5ccc(S(=O)(=O)[O-])cc5)c5ccc2[nH]5)C=C4)C=C3)cc1
REMARK SMILES IDX 6 1 5 2 4 3 3 4 1 5 2 6 23 8 24 9 82 10 25 11 81 12 26 13
REMARK SMILES IDX 27 14 28 15 75 16 29 17 80 18 74 19 76 20 30 21 79 22 73 23
REMARK SMILES IDX 72 24 31 26 61 27 42 28 60 29 43 30 46 31 59 32 77 33 44 34
REMARK SMILES IDX 45 35 58 37 78 38 47 39 32 40 33 41 41 42 34 43 40 44 35 45
REMARK SMILES IDX 36 46 37 47 38 48 39 49 62 50 63 51 71 52 64 53 70 54 65 55
REMARK SMILES IDX 66 56 67 57 68 58 69 59 48 60 49 61 57 62 50 63 56 64 51 65
REMARK SMILES IDX 52 66 53 67 54 68 55 69 7 70 8 71 9 72 10 73 11 74 12 76
REMARK SMILES IDX 13 77 15 78 16 79 17 80 22 81 18 82 21 83 19 84 20 85 14 87
REMARK H PARENT 3 7 76 25 46 36 10 75 20 86 14 88
REMARK Flexibility Score: inf
ROOT
ATOM      1  C   UNL A   1      37.270  33.671  32.860  1.00  0.00     0.002 C 
ENDROOT
BRANCH   1   2
ATOM      2  C   UNL A   1      38.188  32.538  32.405  1.00  0.00     0.021 C 
BRANCH   2   3
ATOM      3  C   UNL A   1      37.807  31.142  32.884  1.00  0.00     0.116 C 
BRANCH   3   4
ATOM      4  N   UNL A   1      36.661  30.583  32.187  1.00  0.00    -0.352 N 
ATOM      5  O   UNL A   1      35.549  29.500  30.550  1.00  0.00    -0.269 OA
ATOM      6  C   UNL A   1      36.627  29.801  31.054  1.00  0.00     0.251 C 
ATOM      7  H   UNL A   1      35.784  30.793  32.581  1.00  0.00     0.163 HD
BRANCH   6   8
ATOM      8  C   UNL A   1      37.891  29.358  30.422  1.00  0.00     0.039 A 
ATOM      9  C   UNL A   1      38.842  28.636  31.145  1.00  0.00     0.014 A 
ATOM     10  C   UNL A   1      38.136  29.693  29.087  1.00  0.00     0.014 A 
ATOM     11  C   UNL A   1      40.095  28.395  30.590  1.00  0.00     0.010 A 
ATOM     12  C   UNL A   1      39.367  29.375  28.502  1.00  0.00     0.010 A 
ATOM     13  C   UNL A   1      40.376  28.765  29.263  1.00  0.00    -0.014 A 
BRANCH  13  14
ATOM     14  C   UNL A   1      41.724  28.488  28.700  1.00  0.00     0.031 A 
ATOM     15  C   UNL A   1      42.799  29.545  28.695  1.00  0.00     0.074 A 
ATOM     16  C   UNL A   1      41.996  27.253  28.233  1.00  0.00     0.049 A 
ATOM     17  N   UNL A   1      44.047  29.445  28.310  1.00  0.00    -0.248 NA
ATOM     18  C   UNL A   1      42.428  30.885  29.176  1.00  0.00     0.031 C 
ATOM     19  C   UNL A   1      41.038  26.145  28.173  1.00  0.00     0.029 A 
ATOM     20  N   UNL A   1      43.160  26.712  27.751  1.00  0.00    -0.354 N 
ATOM     21  C   UNL A   1      44.602  30.710  28.475  1.00  0.00     0.074 A 
ATOM     22  C   UNL A   1      43.549  31.566  28.978  1.00  0.00     0.031 C 
ATOM     23  C   UNL A   1      41.669  25.044  27.742  1.00  0.00     0.029 A 
ATOM     24  C   UNL A   1      43.058  25.376  27.444  1.00  0.00     0.049 A 
ATOM     25  H   UNL A   1      43.989  27.230  27.636  1.00  0.00     0.167 HD
ATOM     26  C   UNL A   1      45.872  31.121  28.234  1.00  0.00     0.031 A 
ATOM     27  C   UNL A   1      43.975  24.509  26.977  1.00  0.00     0.031 A 
ATOM     28  C   UNL A   1      46.923  30.266  27.747  1.00  0.00     0.049 A 
ATOM     29  C   UNL A   1      45.377  24.987  26.728  1.00  0.00     0.074 A 
ATOM     30  C   UNL A   1      48.249  30.584  27.507  1.00  0.00     0.029 A 
ATOM     31  N   UNL A   1      46.770  28.926  27.425  1.00  0.00    -0.354 N 
ATOM     32  N   UNL A   1      45.885  26.179  26.924  1.00  0.00    -0.248 NA
ATOM     33  C   UNL A   1      46.328  23.999  26.202  1.00  0.00     0.031 C 
ATOM     34  C   UNL A   1      48.889  29.445  27.003  1.00  0.00     0.029 A 
ATOM     35  C   UNL A   1      47.972  28.407  26.974  1.00  0.00     0.049 A 
ATOM     36  H   UNL A   1      45.931  28.418  27.505  1.00  0.00     0.167 HD
ATOM     37  C   UNL A   1      47.223  26.080  26.560  1.00  0.00     0.074 A 
ATOM     38  C   UNL A   1      47.447  24.708  26.152  1.00  0.00     0.031 C 
ATOM     39  C   UNL A   1      48.180  27.041  26.566  1.00  0.00     0.031 A 
BRANCH  26  40
ATOM     40  C   UNL A   1      46.189  32.574  28.471  1.00  0.00    -0.014 A 
ATOM     41  C   UNL A   1      46.028  33.531  27.455  1.00  0.00     0.010 A 
ATOM     42  C   UNL A   1      46.617  32.992  29.745  1.00  0.00     0.010 A 
ATOM     43  C   UNL A   1      46.328  34.876  27.696  1.00  0.00     0.020 A 
ATOM     44  C   UNL A   1      46.896  34.339  29.996  1.00  0.00     0.020 A 
ATOM     45  C   UNL A   1      46.768  35.270  28.964  1.00  0.00     0.054 A 
BRANCH  45  46
ATOM     46  S   UNL A   1      47.140  37.022  29.254  1.00  0.00     0.124 S 
ATOM     47  O   UNL A   1      47.819  37.393  28.015  1.00  0.00    -0.237 OA
ATOM     48  O   UNL A   1      45.815  37.608  29.441  1.00  0.00    -0.237 OA
ATOM     49  O   UNL A   1      47.983  37.004  30.446  1.00  0.00    -0.744 OA
ENDBRANCH  45  46
ENDBRANCH  26  40
BRANCH  27  50
ATOM     50  C   UNL A   1      43.593  23.094  26.731  1.00  0.00    -0.014 A 
ATOM     51  C   UNL A   1      43.958  22.454  25.535  1.00  0.00     0.010 A 
ATOM     52  C   UNL A   1      42.889  22.370  27.711  1.00  0.00     0.010 A 
ATOM     53  C   UNL A   1      43.617  21.116  25.318  1.00  0.00     0.020 A 
ATOM     54  C   UNL A   1      42.570  21.025  27.508  1.00  0.00     0.020 A 
ATOM     55  C   UNL A   1      42.928  20.409  26.306  1.00  0.00     0.054 A 
BRANCH  55  56
ATOM     56  S   UNL A   1      42.552  18.655  26.034  1.00  0.00     0.124 S 
ATOM     57  O   UNL A   1      41.130  18.698  25.710  1.00  0.00    -0.237 OA
ATOM     58  O   UNL A   1      43.443  18.307  24.930  1.00  0.00    -0.237 OA
ATOM     59  O   UNL A   1      42.887  18.034  27.314  1.00  0.00    -0.744 OA
ENDBRANCH  55  56
ENDBRANCH  27  50
BRANCH  39  60
ATOM     60  C   UNL A   1      49.565  26.629  26.146  1.00  0.00    -0.014 A 
ATOM     61  C   UNL A   1      50.020  26.843  24.833  1.00  0.00     0.010 A 
ATOM     62  C   UNL A   1      50.427  26.039  27.087  1.00  0.00     0.010 A 
ATOM     63  C   UNL A   1      51.304  26.436  24.458  1.00  0.00     0.020 A 
ATOM     64  C   UNL A   1      51.719  25.652  26.721  1.00  0.00     0.020 A 
ATOM     65  C   UNL A   1      52.142  25.837  25.403  1.00  0.00     0.054 A 
BRANCH  65  66
ATOM     66  S   UNL A   1      53.811  25.335  24.903  1.00  0.00     0.124 S 
ATOM     67  O   UNL A   1      53.889  25.856  23.541  1.00  0.00    -0.237 OA
ATOM     68  O   UNL A   1      54.660  26.009  25.883  1.00  0.00    -0.237 OA
ATOM     69  O   UNL A   1      53.782  23.878  25.014  1.00  0.00    -0.744 OA
ENDBRANCH  65  66
ENDBRANCH  39  60
ENDBRANCH  13  14
ENDBRANCH   6   8
ENDBRANCH   3   4
ENDBRANCH   2   3
ENDBRANCH   1   2
BRANCH   1  70
ATOM     70  C   UNL A   1      36.537  33.454  34.186  1.00  0.00     0.002 C 
BRANCH  70  71
ATOM     71  C   UNL A   1      35.465  34.488  34.551  1.00  0.00     0.021 C 
BRANCH  71  72
ATOM     72  C   UNL A   1      35.002  35.398  33.416  1.00  0.00     0.116 C 
BRANCH  72  73
ATOM     73  N   UNL A   1      33.689  35.966  33.647  1.00  0.00    -0.354 N 
ATOM     74  C   UNL A   1      32.858  36.616  32.777  1.00  0.00     0.249 C 
ATOM     75  H   UNL A   1      33.346  35.870  34.564  1.00  0.00     0.163 HD
ATOM     76  O   UNL A   1      31.734  36.920  33.184  1.00  0.00    -0.272 OA
BRANCH  74  77
ATOM     77  C   UNL A   1      33.359  36.955  31.356  1.00  0.00     0.207 C 
BRANCH  77  78
ATOM     78  C   UNL A   1      32.690  36.012  30.339  1.00  0.00     0.077 C 
BRANCH  78  79
ATOM     79  C   UNL A   1      33.649  35.019  29.715  1.00  0.00    -0.045 A 
ATOM     80  C   UNL A   1      34.041  35.172  28.376  1.00  0.00     0.007 A 
ATOM     81  C   UNL A   1      34.140  33.925  30.442  1.00  0.00     0.007 A 
ATOM     82  C   UNL A   1      34.927  34.268  27.785  1.00  0.00     0.046 A 
ATOM     83  C   UNL A   1      35.035  33.028  29.854  1.00  0.00     0.046 A 
ATOM     84  C   UNL A   1      35.422  33.207  28.533  1.00  0.00     0.115 A 
BRANCH  84  85
ATOM     85  O   UNL A   1      36.297  32.308  28.000  1.00  0.00    -0.508 OA
ATOM     86  H   UNL A   1      36.038  31.416  27.881  1.00  0.00     0.293 HD
ENDBRANCH  84  85
ENDBRANCH  78  79
ENDBRANCH  77  78
BRANCH  77  87
ATOM     87  O   UNL A   1      33.073  38.313  31.012  1.00  0.00    -0.383 OA
ATOM     88  H   UNL A   1      33.790  38.665  30.461  1.00  0.00     0.211 HD
ENDBRANCH  77  87
ENDBRANCH  74  77
ENDBRANCH  72  73
ENDBRANCH  71  72
ENDBRANCH  70  71
ENDBRANCH   1  70
TORSDOF 20
ENDMDL
MODEL 3
REMARK VINA RESULT:      -9.6      5.048     11.066
REMARK SMILES O=C(NCCCCCCNC(=O)[C@H](O)Cc1ccc(O)cc1)c1ccc(-c2c3nc(c(-c4ccc(S(=O)(=O)[O-])cc4)c4ccc([nH]4)c(-c4ccc(S(=O)(=O)[O-])cc4)c4nc(c(-c5ccc(S(=O)(=O)[O-])cc5)c5ccc2[nH]5)C=C4)C=C3)cc1
REMARK SMILES IDX 6 1 5 2 4 3 3 4 1 5 2 6 23 8 24 9 82 10 25 11 81 12 26 13
REMARK SMILES IDX 27 14 28 15 75 16 29 17 80 18 74 19 76 20 30 21 79 22 73 23
REMARK SMILES IDX 72 24 31 26 61 27 42 28 60 29 43 30 46 31 59 32 77 33 44 34
REMARK SMILES IDX 45 35 58 37 78 38 47 39 32 40 33 41 41 42 34 43 40 44 35 45
REMARK SMILES IDX 36 46 37 47 38 48 39 49 62 50 63 51 71 52 64 53 70 54 65 55
REMARK SMILES IDX 66 56 67 57 68 58 69 59 48 60 49 61 57 62 50 63 56 64 51 65
REMARK SMILES IDX 52 66 53 67 54 68 55 69 7 70 8 71 9 72 10 73 11 74 12 76
REMARK SMILES IDX 13 77 15 78 16 79 17 80 22 81 18 82 21 83 19 84 20 85 14 87
REMARK H PARENT 3 7 76 25 46 36 10 75 20 86 14 88
REMARK Flexibility Score: inf
ROOT
ATOM      1  C   UNL A   1      36.997  20.646  24.960  1.00  0.00     0.002 C 
ENDROOT
BRANCH   1   2
ATOM      2  C   UNL A   1      38.302  19.854  24.938  1.00  0.00     0.021 C 
BRANCH   2   3
ATOM      3  C   UNL A   1      39.342  20.257  25.976  1.00  0.00     0.116 C 
BRANCH   3   4
ATOM      4  N   UNL A   1      40.516  19.400  25.986  1.00  0.00    -0.352 N 
ATOM      5  O   UNL A   1      42.709  18.880  26.074  1.00  0.00    -0.269 OA
ATOM      6  C   UNL A   1      41.834  19.732  26.203  1.00  0.00     0.251 C 
ATOM      7  H   UNL A   1      40.343  18.446  25.812  1.00  0.00     0.163 HD
BRANCH   6   8
ATOM      8  C   UNL A   1      42.200  21.124  26.552  1.00  0.00     0.039 A 
ATOM      9  C   UNL A   1      42.275  22.115  25.571  1.00  0.00     0.014 A 
ATOM     10  C   UNL A   1      42.494  21.436  27.882  1.00  0.00     0.014 A 
ATOM     11  C   UNL A   1      42.800  23.363  25.889  1.00  0.00     0.010 A 
ATOM     12  C   UNL A   1      42.942  22.719  28.215  1.00  0.00     0.010 A 
ATOM     13  C   UNL A   1      43.145  23.681  27.214  1.00  0.00    -0.014 A 
BRANCH  13  14
ATOM     14  C   UNL A   1      43.698  25.027  27.519  1.00  0.00     0.031 A 
ATOM     15  C   UNL A   1      45.130  25.373  27.197  1.00  0.00     0.074 A 
ATOM     16  C   UNL A   1      42.886  25.963  28.049  1.00  0.00     0.049 A 
ATOM     17  N   UNL A   1      45.748  26.520  27.330  1.00  0.00    -0.248 NA
ATOM     18  C   UNL A   1      45.979  24.296  26.663  1.00  0.00     0.031 C 
ATOM     19  C   UNL A   1      41.483  25.750  28.417  1.00  0.00     0.029 A 
ATOM     20  N   UNL A   1      43.108  27.284  28.340  1.00  0.00    -0.354 N 
ATOM     21  C   UNL A   1      47.060  26.299  26.925  1.00  0.00     0.074 A 
ATOM     22  C   UNL A   1      47.154  24.902  26.558  1.00  0.00     0.031 C 
ATOM     23  C   UNL A   1      40.955  26.913  28.825  1.00  0.00     0.029 A 
ATOM     24  C   UNL A   1      41.991  27.940  28.800  1.00  0.00     0.049 A 
ATOM     25  H   UNL A   1      43.983  27.721  28.230  1.00  0.00     0.167 HD
ATOM     26  C   UNL A   1      48.091  27.178  26.860  1.00  0.00     0.031 A 
ATOM     27  C   UNL A   1      41.813  29.225  29.160  1.00  0.00     0.031 A 
ATOM     28  C   UNL A   1      47.994  28.570  27.212  1.00  0.00     0.049 A 
ATOM     29  C   UNL A   1      42.968  30.180  29.070  1.00  0.00     0.074 A 
ATOM     30  C   UNL A   1      48.974  29.546  27.145  1.00  0.00     0.029 A 
ATOM     31  N   UNL A   1      46.851  29.188  27.697  1.00  0.00    -0.354 N 
ATOM     32  N   UNL A   1      44.190  29.955  28.652  1.00  0.00    -0.248 NA
ATOM     33  C   UNL A   1      42.716  31.563  29.494  1.00  0.00     0.031 C 
ATOM     34  C   UNL A   1      48.435  30.744  27.626  1.00  0.00     0.029 A 
ATOM     35  C   UNL A   1      47.105  30.526  27.948  1.00  0.00     0.049 A 
ATOM     36  H   UNL A   1      45.986  28.741  27.841  1.00  0.00     0.167 HD
ATOM     37  C   UNL A   1      44.849  31.174  28.746  1.00  0.00     0.074 A 
ATOM     38  C   UNL A   1      43.885  32.135  29.242  1.00  0.00     0.031 C 
ATOM     39  C   UNL A   1      46.138  31.470  28.446  1.00  0.00     0.031 A 
BRANCH  26  40
ATOM     40  C   UNL A   1      49.428  26.649  26.413  1.00  0.00    -0.014 A 
ATOM     41  C   UNL A   1      49.867  26.801  25.087  1.00  0.00     0.010 A 
ATOM     42  C   UNL A   1      50.277  26.027  27.349  1.00  0.00     0.010 A 
ATOM     43  C   UNL A   1      51.114  26.304  24.693  1.00  0.00     0.020 A 
ATOM     44  C   UNL A   1      51.533  25.549  26.963  1.00  0.00     0.020 A 
ATOM     45  C   UNL A   1      51.936  25.674  25.633  1.00  0.00     0.054 A 
BRANCH  45  46
ATOM     46  S   UNL A   1      53.553  25.047  25.099  1.00  0.00     0.124 S 
ATOM     47  O   UNL A   1      54.455  25.710  26.038  1.00  0.00    -0.237 OA
ATOM     48  O   UNL A   1      53.415  23.603  25.277  1.00  0.00    -0.237 OA
ATOM     49  O   UNL A   1      53.657  25.494  23.712  1.00  0.00    -0.744 OA
ENDBRANCH  45  46
ENDBRANCH  26  40
BRANCH  27  50
ATOM     50  C   UNL A   1      40.476  29.680  29.625  1.00  0.00    -0.014 A 
ATOM     51  C   UNL A   1      40.207  29.818  30.997  1.00  0.00     0.010 A 
ATOM     52  C   UNL A   1      39.477  30.011  28.692  1.00  0.00     0.010 A 
ATOM     53  C   UNL A   1      38.957  30.269  31.430  1.00  0.00     0.020 A 
ATOM     54  C   UNL A   1      38.235  30.487  29.120  1.00  0.00     0.020 A 
ATOM     55  C   UNL A   1      37.980  30.603  30.488  1.00  0.00     0.054 A 
BRANCH  55  56
ATOM     56  S   UNL A   1      36.386  31.249  31.066  1.00  0.00     0.124 S 
ATOM     57  O   UNL A   1      36.766  32.549  31.609  1.00  0.00    -0.237 OA
ATOM     58  O   UNL A   1      35.593  31.282  29.840  1.00  0.00    -0.237 OA
ATOM     59  O   UNL A   1      35.955  30.259  32.051  1.00  0.00    -0.744 OA
ENDBRANCH  55  56
ENDBRANCH  27  50
BRANCH  39  60
ATOM     60  C   UNL A   1      46.569  32.902  28.620  1.00  0.00    -0.014 A 
ATOM     61  C   UNL A   1      47.124  33.353  29.829  1.00  0.00     0.010 A 
ATOM     62  C   UNL A   1      46.434  33.799  27.546  1.00  0.00     0.010 A 
ATOM     63  C   UNL A   1      47.501  34.691  29.976  1.00  0.00     0.020 A 
ATOM     64  C   UNL A   1      46.831  35.133  27.682  1.00  0.00     0.020 A 
ATOM     65  C   UNL A   1      47.345  35.574  28.903  1.00  0.00     0.054 A 
BRANCH  65  66
ATOM     66  S   UNL A   1      47.858  37.301  29.105  1.00  0.00     0.124 S 
ATOM     67  O   UNL A   1      48.293  37.326  30.499  1.00  0.00    -0.237 OA
ATOM     68  O   UNL A   1      48.922  37.441  28.113  1.00  0.00    -0.237 OA
ATOM     69  O   UNL A   1      46.643  38.058  28.816  1.00  0.00    -0.744 OA
ENDBRANCH  65  66
ENDBRANCH  39  60
ENDBRANCH  13  14
ENDBRANCH   6   8
ENDBRANCH   3   4
ENDBRANCH   2   3
ENDBRANCH   1   2
BRANCH   1  70
ATOM     70  C   UNL A   1      37.120  22.140  25.274  1.00  0.00     0.002 C 
BRANCH  70  71
ATOM     71  C   UNL A   1      35.885  22.814  25.883  1.00  0.00     0.021 C 
BRANCH  71  72
ATOM     72  C   UNL A   1      34.922  21.894  26.629  1.00  0.00     0.116 C 
BRANCH  72  73
ATOM     73  N   UNL A   1      33.538  22.306  26.507  1.00  0.00    -0.354 N 
ATOM     74  C   UNL A   1      32.580  21.884  25.627  1.00  0.00     0.249 C 
ATOM     75  H   UNL A   1      33.245  22.989  27.152  1.00  0.00     0.163 HD
ATOM     76  O   UNL A   1      31.434  22.309  25.787  1.00  0.00    -0.272 OA
BRANCH  74  77
ATOM     77  C   UNL A   1      32.971  20.928  24.479  1.00  0.00     0.207 C 
BRANCH  77  78
ATOM     78  C   UNL A   1      32.156  19.627  24.595  1.00  0.00     0.077 C 
BRANCH  78  79
ATOM     79  C   UNL A   1      33.016  18.388  24.747  1.00  0.00    -0.045 A 
ATOM     80  C   UNL A   1      32.437  17.184  25.178  1.00  0.00     0.007 A 
ATOM     81  C   UNL A   1      34.394  18.421  24.488  1.00  0.00     0.007 A 
ATOM     82  C   UNL A   1      33.213  16.031  25.320  1.00  0.00     0.046 A 
ATOM     83  C   UNL A   1      35.167  17.266  24.619  1.00  0.00     0.046 A 
ATOM     84  C   UNL A   1      34.572  16.081  25.033  1.00  0.00     0.115 A 
BRANCH  84  85
ATOM     85  O   UNL A   1      35.364  14.978  25.147  1.00  0.00    -0.508 OA
ATOM     86  H   UNL A   1      35.229  14.244  24.581  1.00  0.00     0.293 HD
ENDBRANCH  84  85
ENDBRANCH  78  79
ENDBRANCH  77  78
BRANCH  77  87
ATOM     87  O   UNL A   1      32.739  21.526  23.201  1.00  0.00    -0.383 OA
ATOM     88  H   UNL A   1      32.134  20.968  22.687  1.00  0.00     0.211 HD
ENDBRANCH  77  87
ENDBRANCH  74  77
ENDBRANCH  72  73
ENDBRANCH  71  72
ENDBRANCH  70  71
ENDBRANCH   1  70
TORSDOF 20
ENDMDL
