MODEL 1
REMARK VINA RESULT:     -12.8      0.000      0.000
REMARK SMILES O=C(NCCCCCCNC(=O)[C@@H](Cc1ccccc1)/N=C1\C(=O)c2ccccc2C(=O)[C@H]1Cl)c1ccc(-c2c3nc(c(-c4ccc(S(=O)(=O)[O-])cc4)c4ccc([nH]4)c(-c4ccc(S(=O)(=O)[O-])cc4)c4nc(c(-c5ccc(S(=O)(=O)[O-])cc5)c5ccc2[nH]5)C=C4)C=C3)cc1
REMARK SMILES IDX 6 1 5 2 4 3 3 4 1 5 2 6 35 8 36 9 94 10 37 11 93 12 38 13
REMARK SMILES IDX 39 14 40 15 87 16 41 17 92 18 86 19 88 20 42 21 91 22 85 23
REMARK SMILES IDX 84 24 43 26 73 27 54 28 72 29 55 30 58 31 71 32 89 33 56 34
REMARK SMILES IDX 57 35 70 37 90 38 59 39 44 40 45 41 53 42 46 43 52 44 47 45
REMARK SMILES IDX 48 46 49 47 50 48 51 49 74 50 75 51 83 52 76 53 82 54 77 55
REMARK SMILES IDX 78 56 79 57 80 58 81 59 60 60 61 61 69 62 62 63 68 64 63 65
REMARK SMILES IDX 64 66 65 67 66 68 67 69 7 70 8 71 9 72 10 73 11 74 12 76
REMARK SMILES IDX 13 77 14 78 15 79 16 80 20 81 17 82 19 83 18 84 21 85 22 86
REMARK SMILES IDX 23 87 33 88 24 89 25 90 31 91 34 92 26 93 30 94 32 95 27 96
REMARK SMILES IDX 29 97 28 98
REMARK H PARENT 3 7 88 25 58 36 10 75
REMARK Flexibility Score: inf
ROOT
ATOM      1  C   UNL A   1      38.541  23.549  26.258  1.00  0.00     0.002 C 
ENDROOT
BRANCH   1   2
ATOM      2  C   UNL A   1      39.622  22.502  26.523  1.00  0.00     0.021 C 
BRANCH   2   3
ATOM      3  C   UNL A   1      40.953  23.014  27.063  1.00  0.00     0.116 C 
BRANCH   3   4
ATOM      4  N   UNL A   1      41.638  23.872  26.110  1.00  0.00    -0.352 N 
ATOM      5  O   UNL A   1      42.217  25.694  24.963  1.00  0.00    -0.269 OA
ATOM      6  C   UNL A   1      41.762  25.236  26.012  1.00  0.00     0.251 C 
ATOM      7  H   UNL A   1      42.102  23.379  25.396  1.00  0.00     0.163 HD
BRANCH   6   8
ATOM      8  C   UNL A   1      41.380  26.179  27.101  1.00  0.00     0.039 A 
ATOM      9  C   UNL A   1      40.428  25.873  28.074  1.00  0.00     0.014 A 
ATOM     10  C   UNL A   1      42.112  27.372  27.230  1.00  0.00     0.014 A 
ATOM     11  C   UNL A   1      40.145  26.781  29.101  1.00  0.00     0.010 A 
ATOM     12  C   UNL A   1      41.889  28.241  28.308  1.00  0.00     0.010 A 
ATOM     13  C   UNL A   1      40.896  27.958  29.254  1.00  0.00    -0.014 A 
BRANCH  13  14
ATOM     14  C   UNL A   1      40.705  28.806  30.466  1.00  0.00     0.031 A 
ATOM     15  C   UNL A   1      41.568  28.645  31.690  1.00  0.00     0.074 A 
ATOM     16  C   UNL A   1      39.737  29.747  30.457  1.00  0.00     0.049 A 
ATOM     17  N   UNL A   1      41.553  29.338  32.802  1.00  0.00    -0.248 NA
ATOM     18  C   UNL A   1      42.570  27.569  31.669  1.00  0.00     0.031 C 
ATOM     19  C   UNL A   1      38.802  29.986  29.354  1.00  0.00     0.029 A 
ATOM     20  N   UNL A   1      39.386  30.688  31.394  1.00  0.00    -0.354 N 
ATOM     21  C   UNL A   1      42.535  28.785  33.614  1.00  0.00     0.074 A 
ATOM     22  C   UNL A   1      43.107  27.675  32.877  1.00  0.00     0.031 C 
ATOM     23  C   UNL A   1      38.019  31.033  29.657  1.00  0.00     0.029 A 
ATOM     24  C   UNL A   1      38.358  31.510  30.992  1.00  0.00     0.049 A 
ATOM     25  H   UNL A   1      39.827  30.767  32.271  1.00  0.00     0.167 HD
ATOM     26  C   UNL A   1      42.934  29.168  34.852  1.00  0.00     0.031 A 
ATOM     27  C   UNL A   1      37.746  32.531  31.624  1.00  0.00     0.031 A 
ATOM     28  C   UNL A   1      42.359  30.260  35.597  1.00  0.00     0.049 A 
ATOM     29  C   UNL A   1      38.200  32.926  32.999  1.00  0.00     0.074 A 
ATOM     30  C   UNL A   1      42.709  30.723  36.855  1.00  0.00     0.029 A 
ATOM     31  N   UNL A   1      41.313  31.057  35.158  1.00  0.00    -0.354 N 
ATOM     32  N   UNL A   1      39.159  32.410  33.727  1.00  0.00    -0.248 NA
ATOM     33  C   UNL A   1      37.490  34.045  33.634  1.00  0.00     0.031 C 
ATOM     34  C   UNL A   1      41.852  31.778  37.190  1.00  0.00     0.029 A 
ATOM     35  C   UNL A   1      40.999  32.000  36.123  1.00  0.00     0.049 A 
ATOM     36  H   UNL A   1      40.860  30.966  34.288  1.00  0.00     0.167 HD
ATOM     37  C   UNL A   1      39.177  33.152  34.904  1.00  0.00     0.074 A 
ATOM     38  C   UNL A   1      38.150  34.165  34.778  1.00  0.00     0.031 C 
ATOM     39  C   UNL A   1      39.972  33.001  35.992  1.00  0.00     0.031 A 
BRANCH  26  40
ATOM     40  C   UNL A   1      44.056  28.393  35.490  1.00  0.00    -0.014 A 
ATOM     41  C   UNL A   1      45.394  28.793  35.319  1.00  0.00     0.010 A 
ATOM     42  C   UNL A   1      43.772  27.287  36.312  1.00  0.00     0.010 A 
ATOM     43  C   UNL A   1      46.430  28.079  35.928  1.00  0.00     0.020 A 
ATOM     44  C   UNL A   1      44.804  26.583  36.941  1.00  0.00     0.020 A 
ATOM     45  C   UNL A   1      46.128  26.975  36.730  1.00  0.00     0.054 A 
BRANCH  45  46
ATOM     46  S   UNL A   1      47.492  26.075  37.520  1.00  0.00     0.124 S 
ATOM     47  O   UNL A   1      47.572  24.873  36.694  1.00  0.00    -0.237 OA
ATOM     48  O   UNL A   1      48.611  27.004  37.384  1.00  0.00    -0.237 OA
ATOM     49  O   UNL A   1      47.023  25.864  38.887  1.00  0.00    -0.744 OA
ENDBRANCH  45  46
ENDBRANCH  26  40
BRANCH  27  50
ATOM     50  C   UNL A   1      36.626  33.247  30.957  1.00  0.00    -0.014 A 
ATOM     51  C   UNL A   1      36.845  33.986  29.782  1.00  0.00     0.010 A 
ATOM     52  C   UNL A   1      35.328  33.187  31.497  1.00  0.00     0.010 A 
ATOM     53  C   UNL A   1      35.790  34.671  29.169  1.00  0.00     0.020 A 
ATOM     54  C   UNL A   1      34.266  33.845  30.873  1.00  0.00     0.020 A 
ATOM     55  C   UNL A   1      34.507  34.595  29.720  1.00  0.00     0.054 A 
BRANCH  55  56
ATOM     56  S   UNL A   1      33.140  35.449  28.887  1.00  0.00     0.124 S 
ATOM     57  O   UNL A   1      33.846  36.463  28.111  1.00  0.00    -0.237 OA
ATOM     58  O   UNL A   1      32.518  34.377  28.113  1.00  0.00    -0.237 OA
ATOM     59  O   UNL A   1      32.332  35.953  29.995  1.00  0.00    -0.744 OA
ENDBRANCH  55  56
ENDBRANCH  27  50
BRANCH  39  60
ATOM     60  C   UNL A   1      39.774  33.972  37.124  1.00  0.00    -0.014 A 
ATOM     61  C   UNL A   1      40.355  35.253  37.092  1.00  0.00     0.010 A 
ATOM     62  C   UNL A   1      38.979  33.606  38.225  1.00  0.00     0.010 A 
ATOM     63  C   UNL A   1      40.174  36.137  38.159  1.00  0.00     0.020 A 
ATOM     64  C   UNL A   1      38.777  34.496  39.282  1.00  0.00     0.020 A 
ATOM     65  C   UNL A   1      39.389  35.750  39.250  1.00  0.00     0.054 A 
BRANCH  65  66
ATOM     66  S   UNL A   1      39.145  36.923  40.613  1.00  0.00     0.124 S 
ATOM     67  O   UNL A   1      40.484  37.002  41.189  1.00  0.00    -0.237 OA
ATOM     68  O   UNL A   1      38.684  38.126  39.925  1.00  0.00    -0.237 OA
ATOM     69  O   UNL A   1      38.142  36.271  41.452  1.00  0.00    -0.744 OA
ENDBRANCH  65  66
ENDBRANCH  39  60
ENDBRANCH  13  14
ENDBRANCH   6   8
ENDBRANCH   3   4
ENDBRANCH   2   3
ENDBRANCH   1   2
BRANCH   1  70
ATOM     70  C   UNL A   1      37.323  23.047  25.474  1.00  0.00     0.002 C 
BRANCH  70  71
ATOM     71  C   UNL A   1      37.479  21.693  24.754  1.00  0.00     0.021 C 
BRANCH  71  72
ATOM     72  C   UNL A   1      36.498  20.621  25.221  1.00  0.00     0.116 C 
BRANCH  72  73
ATOM     73  N   UNL A   1      35.353  21.107  25.984  1.00  0.00    -0.354 N 
ATOM     74  C   UNL A   1      34.007  20.994  25.929  1.00  0.00     0.245 C 
ATOM     75  H   UNL A   1      35.637  21.668  26.742  1.00  0.00     0.163 HD
ATOM     76  O   UNL A   1      33.492  21.037  27.064  1.00  0.00    -0.273 OA
BRANCH  74  77
ATOM     77  C   UNL A   1      33.061  20.988  24.702  1.00  0.00     0.199 C 
BRANCH  77  78
ATOM     78  C   UNL A   1      33.058  19.817  23.701  1.00  0.00     0.073 C 
BRANCH  78  79
ATOM     79  C   UNL A   1      33.201  18.399  24.182  1.00  0.00    -0.045 A 
ATOM     80  C   UNL A   1      33.982  17.494  23.453  1.00  0.00     0.004 A 
ATOM     81  C   UNL A   1      32.495  17.929  25.298  1.00  0.00     0.004 A 
ATOM     82  C   UNL A   1      34.138  16.179  23.885  1.00  0.00     0.000 A 
ATOM     83  C   UNL A   1      32.658  16.615  25.738  1.00  0.00     0.000 A 
ATOM     84  C   UNL A   1      33.492  15.745  25.039  1.00  0.00     0.000 A 
ENDBRANCH  78  79
ENDBRANCH  77  78
BRANCH  77  85
ATOM     85  N   UNL A   1      31.948  21.957  24.632  1.00  0.00    -0.270 NA
ATOM     86  C   UNL A   1      31.933  23.225  24.819  1.00  0.00     0.109 C 
ATOM     87  C   UNL A   1      33.120  24.119  25.032  1.00  0.00     0.209 C 
ATOM     88  C   UNL A   1      30.604  23.931  24.905  1.00  0.00     0.205 C 
ATOM     89  O   UNL A   1      34.243  23.695  24.851  1.00  0.00    -0.287 OA
ATOM     90  C   UNL A   1      32.921  25.490  25.522  1.00  0.00     0.035 A 
ATOM     91  C   UNL A   1      30.565  24.948  26.025  1.00  0.00     0.187 C 
ATOM     92  Cl  UNL A   1      30.298  24.753  23.355  1.00  0.00    -0.107 Cl
ATOM     93  C   UNL A   1      33.972  26.406  25.443  1.00  0.00     0.013 A 
ATOM     94  C   UNL A   1      31.731  25.849  26.142  1.00  0.00     0.031 A 
ATOM     95  O   UNL A   1      29.617  25.064  26.793  1.00  0.00    -0.292 OA
ATOM     96  C   UNL A   1      33.882  27.635  26.091  1.00  0.00     0.001 A 
ATOM     97  C   UNL A   1      31.643  27.070  26.816  1.00  0.00     0.012 A 
ATOM     98  C   UNL A   1      32.729  27.952  26.806  1.00  0.00     0.001 A 
ENDBRANCH  77  85
ENDBRANCH  74  77
ENDBRANCH  72  73
ENDBRANCH  71  72
ENDBRANCH  70  71
ENDBRANCH   1  70
TORSDOF 19
ENDMDL
MODEL 2
REMARK VINA RESULT:     -12.4      1.572      2.342
REMARK SMILES O=C(NCCCCCCNC(=O)[C@@H](Cc1ccccc1)/N=C1\C(=O)c2ccccc2C(=O)[C@H]1Cl)c1ccc(-c2c3nc(c(-c4ccc(S(=O)(=O)[O-])cc4)c4ccc([nH]4)c(-c4ccc(S(=O)(=O)[O-])cc4)c4nc(c(-c5ccc(S(=O)(=O)[O-])cc5)c5ccc2[nH]5)C=C4)C=C3)cc1
REMARK SMILES IDX 6 1 5 2 4 3 3 4 1 5 2 6 35 8 36 9 94 10 37 11 93 12 38 13
REMARK SMILES IDX 39 14 40 15 87 16 41 17 92 18 86 19 88 20 42 21 91 22 85 23
REMARK SMILES IDX 84 24 43 26 73 27 54 28 72 29 55 30 58 31 71 32 89 33 56 34
REMARK SMILES IDX 57 35 70 37 90 38 59 39 44 40 45 41 53 42 46 43 52 44 47 45
REMARK SMILES IDX 48 46 49 47 50 48 51 49 74 50 75 51 83 52 76 53 82 54 77 55
REMARK SMILES IDX 78 56 79 57 80 58 81 59 60 60 61 61 69 62 62 63 68 64 63 65
REMARK SMILES IDX 64 66 65 67 66 68 67 69 7 70 8 71 9 72 10 73 11 74 12 76
REMARK SMILES IDX 13 77 14 78 15 79 16 80 20 81 17 82 19 83 18 84 21 85 22 86
REMARK SMILES IDX 23 87 33 88 24 89 25 90 31 91 34 92 26 93 30 94 32 95 27 96
REMARK SMILES IDX 29 97 28 98
REMARK H PARENT 3 7 88 25 58 36 10 75
REMARK Flexibility Score: inf
ROOT
ATOM      1  C   UNL A   1      38.808  23.552  26.030  1.00  0.00     0.002 C 
ENDROOT
BRANCH   1   2
ATOM      2  C   UNL A   1      39.666  22.612  26.875  1.00  0.00     0.021 C 
BRANCH   2   3
ATOM      3  C   UNL A   1      41.051  23.117  27.266  1.00  0.00     0.116 C 
BRANCH   3   4
ATOM      4  N   UNL A   1      41.629  23.977  26.247  1.00  0.00    -0.352 N 
ATOM      5  O   UNL A   1      42.038  25.788  25.012  1.00  0.00    -0.269 OA
ATOM      6  C   UNL A   1      41.674  25.342  26.100  1.00  0.00     0.251 C 
ATOM      7  H   UNL A   1      42.075  23.485  25.520  1.00  0.00     0.163 HD
BRANCH   6   8
ATOM      8  C   UNL A   1      41.309  26.299  27.183  1.00  0.00     0.039 A 
ATOM      9  C   UNL A   1      40.341  26.023  28.149  1.00  0.00     0.014 A 
ATOM     10  C   UNL A   1      42.071  27.472  27.313  1.00  0.00     0.014 A 
ATOM     11  C   UNL A   1      40.075  26.942  29.171  1.00  0.00     0.010 A 
ATOM     12  C   UNL A   1      41.864  28.352  28.386  1.00  0.00     0.010 A 
ATOM     13  C   UNL A   1      40.856  28.099  29.326  1.00  0.00    -0.014 A 
BRANCH  13  14
ATOM     14  C   UNL A   1      40.679  28.957  30.533  1.00  0.00     0.031 A 
ATOM     15  C   UNL A   1      41.560  28.811  31.745  1.00  0.00     0.074 A 
ATOM     16  C   UNL A   1      39.706  29.893  30.530  1.00  0.00     0.049 A 
ATOM     17  N   UNL A   1      41.559  29.514  32.851  1.00  0.00    -0.248 NA
ATOM     18  C   UNL A   1      42.568  27.740  31.719  1.00  0.00     0.031 C 
ATOM     19  C   UNL A   1      38.753  30.117  29.439  1.00  0.00     0.029 A 
ATOM     20  N   UNL A   1      39.363  30.840  31.464  1.00  0.00    -0.354 N 
ATOM     21  C   UNL A   1      42.555  28.973  33.653  1.00  0.00     0.074 A 
ATOM     22  C   UNL A   1      43.122  27.859  32.918  1.00  0.00     0.031 C 
ATOM     23  C   UNL A   1      37.969  31.162  29.744  1.00  0.00     0.029 A 
ATOM     24  C   UNL A   1      38.326  31.653  31.070  1.00  0.00     0.049 A 
ATOM     25  H   UNL A   1      39.817  30.929  32.333  1.00  0.00     0.167 HD
ATOM     26  C   UNL A   1      42.970  29.368  34.882  1.00  0.00     0.031 A 
ATOM     27  C   UNL A   1      37.718  32.676  31.701  1.00  0.00     0.031 A 
ATOM     28  C   UNL A   1      42.401  30.464  35.625  1.00  0.00     0.049 A 
ATOM     29  C   UNL A   1      38.189  33.086  33.067  1.00  0.00     0.074 A 
ATOM     30  C   UNL A   1      42.767  30.940  36.874  1.00  0.00     0.029 A 
ATOM     31  N   UNL A   1      41.344  31.252  35.195  1.00  0.00    -0.354 N 
ATOM     32  N   UNL A   1      39.162  32.582  33.785  1.00  0.00    -0.248 NA
ATOM     33  C   UNL A   1      37.483  34.207  33.702  1.00  0.00     0.031 C 
ATOM     34  C   UNL A   1      41.909  31.993  37.213  1.00  0.00     0.029 A 
ATOM     35  C   UNL A   1      41.039  32.202  36.156  1.00  0.00     0.049 A 
ATOM     36  H   UNL A   1      40.879  31.151  34.333  1.00  0.00     0.167 HD
ATOM     37  C   UNL A   1      39.194  33.334  34.954  1.00  0.00     0.074 A 
ATOM     38  C   UNL A   1      38.160  34.340  34.835  1.00  0.00     0.031 C 
ATOM     39  C   UNL A   1      40.005  33.196  36.031  1.00  0.00     0.031 A 
BRANCH  26  40
ATOM     40  C   UNL A   1      44.106  28.605  35.509  1.00  0.00    -0.014 A 
ATOM     41  C   UNL A   1      43.855  27.495  36.337  1.00  0.00     0.010 A 
ATOM     42  C   UNL A   1      45.437  28.962  35.228  1.00  0.00     0.010 A 
ATOM     43  C   UNL A   1      44.914  26.780  36.902  1.00  0.00     0.020 A 
ATOM     44  C   UNL A   1      46.500  28.236  35.774  1.00  0.00     0.020 A 
ATOM     45  C   UNL A   1      46.230  27.158  36.622  1.00  0.00     0.054 A 
BRANCH  45  46
ATOM     46  S   UNL A   1      47.585  26.203  37.359  1.00  0.00     0.124 S 
ATOM     47  O   UNL A   1      48.384  27.254  37.985  1.00  0.00    -0.237 OA
ATOM     48  O   UNL A   1      46.887  25.312  38.281  1.00  0.00    -0.237 OA
ATOM     49  O   UNL A   1      48.209  25.545  36.212  1.00  0.00    -0.744 OA
ENDBRANCH  45  46
ENDBRANCH  26  40
BRANCH  27  50
ATOM     50  C   UNL A   1      36.584  33.381  31.045  1.00  0.00    -0.014 A 
ATOM     51  C   UNL A   1      35.319  33.432  31.657  1.00  0.00     0.010 A 
ATOM     52  C   UNL A   1      36.769  34.012  29.801  1.00  0.00     0.010 A 
ATOM     53  C   UNL A   1      34.254  34.082  31.027  1.00  0.00     0.020 A 
ATOM     54  C   UNL A   1      35.715  34.687  29.182  1.00  0.00     0.020 A 
ATOM     55  C   UNL A   1      34.460  34.706  29.792  1.00  0.00     0.054 A 
BRANCH  55  56
ATOM     56  S   UNL A   1      33.080  35.587  29.010  1.00  0.00     0.124 S 
ATOM     57  O   UNL A   1      33.774  36.626  28.257  1.00  0.00    -0.237 OA
ATOM     58  O   UNL A   1      32.446  34.541  28.210  1.00  0.00    -0.237 OA
ATOM     59  O   UNL A   1      32.290  36.055  30.146  1.00  0.00    -0.744 OA
ENDBRANCH  55  56
ENDBRANCH  27  50
BRANCH  39  60
ATOM     60  C   UNL A   1      39.819  34.176  37.158  1.00  0.00    -0.014 A 
ATOM     61  C   UNL A   1      40.470  35.423  37.151  1.00  0.00     0.010 A 
ATOM     62  C   UNL A   1      38.965  33.853  38.229  1.00  0.00     0.010 A 
ATOM     63  C   UNL A   1      40.298  36.316  38.212  1.00  0.00     0.020 A 
ATOM     64  C   UNL A   1      38.773  34.753  39.280  1.00  0.00     0.020 A 
ATOM     65  C   UNL A   1      39.454  35.972  39.273  1.00  0.00     0.054 A 
BRANCH  65  66
ATOM     66  S   UNL A   1      39.223  37.156  40.629  1.00  0.00     0.124 S 
ATOM     67  O   UNL A   1      38.288  38.111  40.041  1.00  0.00    -0.237 OA
ATOM     68  O   UNL A   1      38.681  36.321  41.698  1.00  0.00    -0.237 OA
ATOM     69  O   UNL A   1      40.570  37.669  40.871  1.00  0.00    -0.744 OA
ENDBRANCH  65  66
ENDBRANCH  39  60
ENDBRANCH  13  14
ENDBRANCH   6   8
ENDBRANCH   3   4
ENDBRANCH   2   3
ENDBRANCH   1   2
BRANCH   1  70
ATOM     70  C   UNL A   1      37.297  23.298  26.100  1.00  0.00     0.002 C 
BRANCH  70  71
ATOM     71  C   UNL A   1      36.707  22.360  25.027  1.00  0.00     0.021 C 
BRANCH  71  72
ATOM     72  C   UNL A   1      36.724  22.938  23.615  1.00  0.00     0.116 C 
BRANCH  72  73
ATOM     73  N   UNL A   1      35.430  22.994  22.943  1.00  0.00    -0.354 N 
ATOM     74  C   UNL A   1      34.222  23.557  23.169  1.00  0.00     0.245 C 
ATOM     75  H   UNL A   1      35.440  22.486  22.100  1.00  0.00     0.163 HD
ATOM     76  O   UNL A   1      33.646  23.859  22.104  1.00  0.00    -0.273 OA
BRANCH  74  77
ATOM     77  C   UNL A   1      33.431  23.713  24.492  1.00  0.00     0.199 C 
BRANCH  77  78
ATOM     78  C   UNL A   1      32.997  22.484  25.313  1.00  0.00     0.073 C 
BRANCH  78  79
ATOM     79  C   UNL A   1      33.016  21.110  24.702  1.00  0.00    -0.045 A 
ATOM     80  C   UNL A   1      33.922  20.152  25.174  1.00  0.00     0.004 A 
ATOM     81  C   UNL A   1      32.208  20.785  23.604  1.00  0.00     0.004 A 
ATOM     82  C   UNL A   1      33.950  18.869  24.632  1.00  0.00     0.000 A 
ATOM     83  C   UNL A   1      32.227  19.498  23.065  1.00  0.00     0.000 A 
ATOM     84  C   UNL A   1      33.087  18.536  23.590  1.00  0.00     0.000 A 
ENDBRANCH  78  79
ENDBRANCH  77  78
BRANCH  77  85
ATOM     85  N   UNL A   1      33.336  25.040  25.135  1.00  0.00    -0.270 NA
ATOM     86  C   UNL A   1      32.446  25.956  25.027  1.00  0.00     0.109 C 
ATOM     87  C   UNL A   1      31.139  25.863  24.295  1.00  0.00     0.209 C 
ATOM     88  C   UNL A   1      32.722  27.310  25.628  1.00  0.00     0.205 C 
ATOM     89  O   UNL A   1      30.744  24.790  23.887  1.00  0.00    -0.287 OA
ATOM     90  C   UNL A   1      30.370  27.084  24.018  1.00  0.00     0.035 A 
ATOM     91  C   UNL A   1      32.313  28.442  24.711  1.00  0.00     0.187 C 
ATOM     92  Cl  UNL A   1      31.823  27.444  27.160  1.00  0.00    -0.107 Cl
ATOM     93  C   UNL A   1      29.039  26.979  23.607  1.00  0.00     0.013 A 
ATOM     94  C   UNL A   1      30.984  28.328  24.073  1.00  0.00     0.031 A 
ATOM     95  O   UNL A   1      33.011  29.429  24.509  1.00  0.00    -0.292 OA
ATOM     96  C   UNL A   1      28.361  28.097  23.132  1.00  0.00     0.001 A 
ATOM     97  C   UNL A   1      30.318  29.452  23.575  1.00  0.00     0.012 A 
ATOM     98  C   UNL A   1      29.012  29.328  23.086  1.00  0.00     0.001 A 
ENDBRANCH  77  85
ENDBRANCH  74  77
ENDBRANCH  72  73
ENDBRANCH  71  72
ENDBRANCH  70  71
ENDBRANCH   1  70
TORSDOF 19
ENDMDL
MODEL 3
REMARK VINA RESULT:     -12.4      0.791      7.873
REMARK SMILES O=C(NCCCCCCNC(=O)[C@@H](Cc1ccccc1)/N=C1\C(=O)c2ccccc2C(=O)[C@H]1Cl)c1ccc(-c2c3nc(c(-c4ccc(S(=O)(=O)[O-])cc4)c4ccc([nH]4)c(-c4ccc(S(=O)(=O)[O-])cc4)c4nc(c(-c5ccc(S(=O)(=O)[O-])cc5)c5ccc2[nH]5)C=C4)C=C3)cc1
REMARK SMILES IDX 6 1 5 2 4 3 3 4 1 5 2 6 35 8 36 9 94 10 37 11 93 12 38 13
REMARK SMILES IDX 39 14 40 15 87 16 41 17 92 18 86 19 88 20 42 21 91 22 85 23
REMARK SMILES IDX 84 24 43 26 73 27 54 28 72 29 55 30 58 31 71 32 89 33 56 34
REMARK SMILES IDX 57 35 70 37 90 38 59 39 44 40 45 41 53 42 46 43 52 44 47 45
REMARK SMILES IDX 48 46 49 47 50 48 51 49 74 50 75 51 83 52 76 53 82 54 77 55
REMARK SMILES IDX 78 56 79 57 80 58 81 59 60 60 61 61 69 62 62 63 68 64 63 65
REMARK SMILES IDX 64 66 65 67 66 68 67 69 7 70 8 71 9 72 10 73 11 74 12 76
REMARK SMILES IDX 13 77 14 78 15 79 16 80 20 81 17 82 19 83 18 84 21 85 22 86
REMARK SMILES IDX 23 87 33 88 24 89 25 90 31 91 34 92 26 93 30 94 32 95 27 96
REMARK SMILES IDX 29 97 28 98
REMARK H PARENT 3 7 88 25 58 36 10 75
REMARK Flexibility Score: inf
ROOT
ATOM      1  C   UNL A   1      40.767  22.257  27.646  1.00  0.00     0.002 C 
ENDROOT
BRANCH   1   2
ATOM      2  C   UNL A   1      42.241  21.978  27.355  1.00  0.00     0.021 C 
BRANCH   2   3
ATOM      3  C   UNL A   1      43.127  23.190  27.086  1.00  0.00     0.116 C 
BRANCH   3   4
ATOM      4  N   UNL A   1      42.556  24.074  26.083  1.00  0.00    -0.352 N 
ATOM      5  O   UNL A   1      41.320  25.686  25.164  1.00  0.00    -0.269 OA
ATOM      6  C   UNL A   1      41.892  25.273  26.173  1.00  0.00     0.251 C 
ATOM      7  H   UNL A   1      42.666  23.750  25.160  1.00  0.00     0.163 HD
BRANCH   6   8
ATOM      8  C   UNL A   1      41.832  26.091  27.418  1.00  0.00     0.039 A 
ATOM      9  C   UNL A   1      42.674  27.177  27.656  1.00  0.00     0.014 A 
ATOM     10  C   UNL A   1      40.791  25.836  28.327  1.00  0.00     0.014 A 
ATOM     11  C   UNL A   1      42.539  27.938  28.823  1.00  0.00     0.010 A 
ATOM     12  C   UNL A   1      40.602  26.652  29.453  1.00  0.00     0.010 A 
ATOM     13  C   UNL A   1      41.480  27.710  29.718  1.00  0.00    -0.014 A 
BRANCH  13  14
ATOM     14  C   UNL A   1      41.246  28.657  30.846  1.00  0.00     0.031 A 
ATOM     15  C   UNL A   1      40.147  29.685  30.803  1.00  0.00     0.074 A 
ATOM     16  C   UNL A   1      42.040  28.581  31.936  1.00  0.00     0.049 A 
ATOM     17  N   UNL A   1      39.791  30.546  31.724  1.00  0.00    -0.248 NA
ATOM     18  C   UNL A   1      39.348  29.764  29.570  1.00  0.00     0.031 C 
ATOM     19  C   UNL A   1      43.168  27.659  32.096  1.00  0.00     0.029 A 
ATOM     20  N   UNL A   1      42.013  29.275  33.121  1.00  0.00    -0.354 N 
ATOM     21  C   UNL A   1      38.734  31.270  31.188  1.00  0.00     0.074 A 
ATOM     22  C   UNL A   1      38.526  30.768  29.844  1.00  0.00     0.031 C 
ATOM     23  C   UNL A   1      43.692  27.811  33.322  1.00  0.00     0.029 A 
ATOM     24  C   UNL A   1      42.975  28.872  34.018  1.00  0.00     0.049 A 
ATOM     25  H   UNL A   1      41.366  29.993  33.311  1.00  0.00     0.167 HD
ATOM     26  C   UNL A   1      37.997  32.254  31.760  1.00  0.00     0.031 A 
ATOM     27  C   UNL A   1      43.260  29.308  35.260  1.00  0.00     0.031 A 
ATOM     28  C   UNL A   1      38.208  32.770  33.089  1.00  0.00     0.049 A 
ATOM     29  C   UNL A   1      42.435  30.407  35.865  1.00  0.00     0.074 A 
ATOM     30  C   UNL A   1      37.501  33.759  33.752  1.00  0.00     0.029 A 
ATOM     31  N   UNL A   1      39.201  32.342  33.957  1.00  0.00    -0.354 N 
ATOM     32  N   UNL A   1      41.414  31.046  35.349  1.00  0.00    -0.248 NA
ATOM     33  C   UNL A   1      42.799  30.838  37.222  1.00  0.00     0.031 C 
ATOM     34  C   UNL A   1      38.088  33.955  35.008  1.00  0.00     0.029 A 
ATOM     35  C   UNL A   1      39.131  33.055  35.144  1.00  0.00     0.049 A 
ATOM     36  H   UNL A   1      39.858  31.637  33.760  1.00  0.00     0.167 HD
ATOM     37  C   UNL A   1      41.005  31.948  36.325  1.00  0.00     0.074 A 
ATOM     38  C   UNL A   1      41.872  31.753  37.469  1.00  0.00     0.031 C 
ATOM     39  C   UNL A   1      40.002  32.859  36.274  1.00  0.00     0.031 A 
BRANCH  26  40
ATOM     40  C   UNL A   1      36.880  32.847  30.943  1.00  0.00    -0.014 A 
ATOM     41  C   UNL A   1      37.145  33.816  29.957  1.00  0.00     0.010 A 
ATOM     42  C   UNL A   1      35.559  32.395  31.120  1.00  0.00     0.010 A 
ATOM     43  C   UNL A   1      36.106  34.350  29.191  1.00  0.00     0.020 A 
ATOM     44  C   UNL A   1      34.519  32.911  30.340  1.00  0.00     0.020 A 
ATOM     45  C   UNL A   1      34.799  33.898  29.391  1.00  0.00     0.054 A 
BRANCH  45  46
ATOM     46  S   UNL A   1      33.471  34.599  28.371  1.00  0.00     0.124 S 
ATOM     47  O   UNL A   1      34.214  35.508  27.501  1.00  0.00    -0.237 OA
ATOM     48  O   UNL A   1      32.913  33.419  27.716  1.00  0.00    -0.237 OA
ATOM     49  O   UNL A   1      32.592  35.245  29.343  1.00  0.00    -0.744 OA
ENDBRANCH  45  46
ENDBRANCH  26  40
BRANCH  27  50
ATOM     50  C   UNL A   1      44.391  28.703  36.014  1.00  0.00    -0.014 A 
ATOM     51  C   UNL A   1      44.185  27.588  36.845  1.00  0.00     0.010 A 
ATOM     52  C   UNL A   1      45.686  29.241  35.898  1.00  0.00     0.010 A 
ATOM     53  C   UNL A   1      45.250  27.034  37.563  1.00  0.00     0.020 A 
ATOM     54  C   UNL A   1      46.758  28.673  36.591  1.00  0.00     0.020 A 
ATOM     55  C   UNL A   1      46.529  27.582  37.431  1.00  0.00     0.054 A 
BRANCH  55  56
ATOM     56  S   UNL A   1      47.910  26.823  38.332  1.00  0.00     0.124 S 
ATOM     57  O   UNL A   1      47.938  27.612  39.560  1.00  0.00    -0.237 OA
ATOM     58  O   UNL A   1      47.471  25.437  38.479  1.00  0.00    -0.237 OA
ATOM     59  O   UNL A   1      49.046  27.016  37.435  1.00  0.00    -0.744 OA
ENDBRANCH  55  56
ENDBRANCH  27  50
BRANCH  39  60
ATOM     60  C   UNL A   1      39.776  33.698  37.502  1.00  0.00    -0.014 A 
ATOM     61  C   UNL A   1      38.967  33.239  38.557  1.00  0.00     0.010 A 
ATOM     62  C   UNL A   1      40.398  34.955  37.610  1.00  0.00     0.010 A 
ATOM     63  C   UNL A   1      38.756  34.038  39.684  1.00  0.00     0.020 A 
ATOM     64  C   UNL A   1      40.208  35.746  38.746  1.00  0.00     0.020 A 
ATOM     65  C   UNL A   1      39.374  35.289  39.768  1.00  0.00     0.054 A 
BRANCH  65  66
ATOM     66  S   UNL A   1      39.108  36.300  41.252  1.00  0.00     0.124 S 
ATOM     67  O   UNL A   1      40.368  36.125  41.968  1.00  0.00    -0.237 OA
ATOM     68  O   UNL A   1      38.879  37.632  40.698  1.00  0.00    -0.237 OA
ATOM     69  O   UNL A   1      37.941  35.687  41.882  1.00  0.00    -0.744 OA
ENDBRANCH  65  66
ENDBRANCH  39  60
ENDBRANCH  13  14
ENDBRANCH   6   8
ENDBRANCH   3   4
ENDBRANCH   2   3
ENDBRANCH   1   2
BRANCH   1  70
ATOM     70  C   UNL A   1      39.793  21.852  26.534  1.00  0.00     0.002 C 
BRANCH  70  71
ATOM     71  C   UNL A   1      38.564  22.760  26.331  1.00  0.00     0.021 C 
BRANCH  71  72
ATOM     72  C   UNL A   1      37.369  22.058  25.691  1.00  0.00     0.116 C 
BRANCH  72  73
ATOM     73  N   UNL A   1      36.123  22.124  26.447  1.00  0.00    -0.354 N 
ATOM     74  C   UNL A   1      34.888  21.580  26.367  1.00  0.00     0.245 C 
ATOM     75  H   UNL A   1      36.203  22.725  27.222  1.00  0.00     0.163 HD
ATOM     76  O   UNL A   1      34.378  21.421  27.494  1.00  0.00    -0.273 OA
BRANCH  74  77
ATOM     77  C   UNL A   1      34.005  21.300  25.124  1.00  0.00     0.199 C 
BRANCH  77  78
ATOM     78  C   UNL A   1      34.292  20.109  24.192  1.00  0.00     0.073 C 
BRANCH  78  79
ATOM     79  C   UNL A   1      33.872  18.717  24.577  1.00  0.00    -0.045 A 
ATOM     80  C   UNL A   1      34.441  17.615  23.928  1.00  0.00     0.004 A 
ATOM     81  C   UNL A   1      32.852  18.491  25.512  1.00  0.00     0.004 A 
ATOM     82  C   UNL A   1      34.076  16.316  24.276  1.00  0.00     0.000 A 
ATOM     83  C   UNL A   1      32.492  17.191  25.869  1.00  0.00     0.000 A 
ATOM     84  C   UNL A   1      33.116  16.104  25.262  1.00  0.00     0.000 A 
ENDBRANCH  78  79
ENDBRANCH  77  78
BRANCH  77  85
ATOM     85  N   UNL A   1      32.707  21.993  24.979  1.00  0.00    -0.270 NA
ATOM     86  C   UNL A   1      32.420  23.241  25.011  1.00  0.00     0.109 C 
ATOM     87  C   UNL A   1      33.387  24.387  25.070  1.00  0.00     0.209 C 
ATOM     88  C   UNL A   1      30.971  23.652  25.060  1.00  0.00     0.205 C 
ATOM     89  O   UNL A   1      34.574  24.194  24.901  1.00  0.00    -0.287 OA
ATOM     90  C   UNL A   1      32.901  25.735  25.397  1.00  0.00     0.035 A 
ATOM     91  C   UNL A   1      30.723  24.770  26.049  1.00  0.00     0.187 C 
ATOM     92  Cl  UNL A   1      30.478  24.188  23.434  1.00  0.00    -0.107 Cl
ATOM     93  C   UNL A   1      33.728  26.838  25.169  1.00  0.00     0.013 A 
ATOM     94  C   UNL A   1      31.668  25.907  26.013  1.00  0.00     0.031 A 
ATOM     95  O   UNL A   1      29.781  24.777  26.832  1.00  0.00    -0.292 OA
ATOM     96  C   UNL A   1      33.381  28.090  25.667  1.00  0.00     0.001 A 
ATOM     97  C   UNL A   1      31.324  27.156  26.537  1.00  0.00     0.012 A 
ATOM     98  C   UNL A   1      32.193  28.241  26.380  1.00  0.00     0.001 A 
ENDBRANCH  77  85
ENDBRANCH  74  77
ENDBRANCH  72  73
ENDBRANCH  71  72
ENDBRANCH  70  71
ENDBRANCH   1  70
TORSDOF 19
ENDMDL
