MODEL 1
REMARK VINA RESULT:     -12.5      0.000      0.000
REMARK SMILES Cc1ccccc1-c1nc(CC(=O)NCCCCCCNC(=O)c2ccc(-c3c4nc(c(-c5ccc(S(=O)(=O)[O-])cc5)c5ccc([nH]5)c(-c5ccc(S(=O)(=O)[O-])cc5)c5nc(c(-c6ccc(S(=O)(=O)[O-])cc6)c6ccc3[nH]6)C=C5)C=C4)cc2)cs1
REMARK SMILES IDX 18 1 17 2 16 3 15 4 14 5 12 6 13 7 11 9 10 10 8 11 9 12
REMARK SMILES IDX 85 13 84 14 7 15 1 16 2 17 3 18 4 19 6 20 5 21 19 22 20 23
REMARK SMILES IDX 21 24 22 25 23 27 24 28 25 29 83 30 26 31 82 32 27 33 28 34
REMARK SMILES IDX 29 35 76 36 30 37 81 38 75 39 77 40 31 41 80 42 74 43 73 44
REMARK SMILES IDX 32 46 62 47 43 48 61 49 44 50 47 51 60 52 78 53 45 54 46 55
REMARK SMILES IDX 59 57 79 58 48 59 33 60 34 61 42 62 35 63 41 64 36 65 37 66
REMARK SMILES IDX 38 67 39 68 40 69 63 70 64 71 72 72 65 73 71 74 66 75 67 76
REMARK SMILES IDX 68 77 69 78 70 79 49 80 50 81 58 82 51 83 57 84 52 85 53 86
REMARK SMILES IDX 54 87 55 88 56 89
REMARK H PARENT 14 8 21 26 77 45 47 56
REMARK Flexibility Score: inf
ROOT
ATOM      1  C   UNL A   1      35.819  21.712  25.743  1.00  0.00     0.002 C 
ENDROOT
BRANCH   1   2
ATOM      2  C   UNL A   1      34.849  21.327  24.618  1.00  0.00     0.002 C 
BRANCH   2   3
ATOM      3  C   UNL A   1      33.825  20.228  24.938  1.00  0.00     0.021 C 
BRANCH   3   4
ATOM      4  C   UNL A   1      32.364  20.680  24.937  1.00  0.00     0.116 C 
BRANCH   4   5
ATOM      5  N   UNL A   1      32.015  21.414  26.143  1.00  0.00    -0.356 N 
ATOM      6  C   UNL A   1      31.462  22.656  26.261  1.00  0.00     0.226 C 
ATOM      7  O   UNL A   1      31.264  23.111  27.390  1.00  0.00    -0.275 OA
ATOM      8  H   UNL A   1      32.204  20.952  26.991  1.00  0.00     0.163 HD
BRANCH   6   9
ATOM      9  C   UNL A   1      31.055  23.433  25.024  1.00  0.00     0.157 C 
BRANCH   9  10
ATOM     10  C   UNL A   1      31.949  24.595  24.759  1.00  0.00     0.061 A 
ATOM     11  C   UNL A   1      32.660  26.659  25.185  1.00  0.00     0.123 A 
ATOM     12  N   UNL A   1      31.847  25.702  25.588  1.00  0.00    -0.241 NA
ATOM     13  S   UNL A   1      33.648  26.248  23.835  1.00  0.00    -0.122 S 
ATOM     14  C   UNL A   1      32.899  24.710  23.761  1.00  0.00     0.091 A 
BRANCH  11  15
ATOM     15  C   UNL A   1      32.772  27.981  25.813  1.00  0.00     0.013 A 
ATOM     16  C   UNL A   1      30.890  28.950  24.363  1.00  0.00     0.045 C 
ATOM     17  C   UNL A   1      31.951  29.062  25.425  1.00  0.00    -0.041 A 
ATOM     18  C   UNL A   1      32.140  30.319  26.028  1.00  0.00     0.004 A 
ATOM     19  C   UNL A   1      33.110  30.503  27.015  1.00  0.00     0.000 A 
ATOM     20  C   UNL A   1      33.749  28.188  26.806  1.00  0.00     0.011 A 
ATOM     21  C   UNL A   1      33.912  29.437  27.404  1.00  0.00     0.001 A 
ENDBRANCH  11  15
ENDBRANCH   9  10
ENDBRANCH   6   9
ENDBRANCH   4   5
ENDBRANCH   3   4
ENDBRANCH   2   3
ENDBRANCH   1   2
BRANCH   1  22
ATOM     22  C   UNL A   1      37.193  22.232  25.312  1.00  0.00     0.021 C 
BRANCH  22  23
ATOM     23  C   UNL A   1      37.745  23.330  26.217  1.00  0.00     0.116 C 
BRANCH  23  24
ATOM     24  N   UNL A   1      38.994  22.954  26.866  1.00  0.00    -0.352 N 
ATOM     25  C   UNL A   1      39.924  23.778  27.474  1.00  0.00     0.251 C 
ATOM     26  H   UNL A   1      39.203  21.991  26.872  1.00  0.00     0.163 HD
ATOM     27  O   UNL A   1      41.007  23.358  27.851  1.00  0.00    -0.269 OA
BRANCH  25  28
ATOM     28  C   UNL A   1      39.524  25.173  27.741  1.00  0.00     0.039 A 
ATOM     29  C   UNL A   1      40.000  26.161  26.873  1.00  0.00     0.014 A 
ATOM     30  C   UNL A   1      38.904  25.508  28.942  1.00  0.00     0.014 A 
ATOM     31  C   UNL A   1      40.011  27.491  27.289  1.00  0.00     0.010 A 
ATOM     32  C   UNL A   1      38.993  26.813  29.387  1.00  0.00     0.010 A 
ATOM     33  C   UNL A   1      39.591  27.797  28.583  1.00  0.00    -0.014 A 
BRANCH  33  34
ATOM     34  C   UNL A   1      39.820  29.087  29.228  1.00  0.00     0.031 A 
ATOM     35  C   UNL A   1      38.834  30.184  29.087  1.00  0.00     0.074 A 
ATOM     36  C   UNL A   1      40.877  29.254  30.054  1.00  0.00     0.049 A 
ATOM     37  N   UNL A   1      39.082  31.427  29.343  1.00  0.00    -0.248 NA
ATOM     38  C   UNL A   1      37.490  29.969  28.554  1.00  0.00     0.031 C 
ATOM     39  C   UNL A   1      41.036  30.300  31.061  1.00  0.00     0.029 A 
ATOM     40  N   UNL A   1      42.133  28.647  29.999  1.00  0.00    -0.354 N 
ATOM     41  C   UNL A   1      37.875  32.090  29.352  1.00  0.00     0.074 A 
ATOM     42  C   UNL A   1      36.956  31.185  28.705  1.00  0.00     0.031 C 
ATOM     43  C   UNL A   1      42.345  30.469  31.300  1.00  0.00     0.029 A 
ATOM     44  C   UNL A   1      43.063  29.642  30.346  1.00  0.00     0.049 A 
ATOM     45  H   UNL A   1      42.328  27.711  29.766  1.00  0.00     0.167 HD
ATOM     46  C   UNL A   1      37.750  33.248  30.064  1.00  0.00     0.031 A 
ATOM     47  C   UNL A   1      44.081  30.071  29.543  1.00  0.00     0.031 A 
ATOM     48  C   UNL A   1      39.050  33.764  30.499  1.00  0.00     0.049 A 
ATOM     49  C   UNL A   1      44.068  31.564  29.301  1.00  0.00     0.074 A 
ATOM     50  C   UNL A   1      39.685  33.836  31.727  1.00  0.00     0.029 A 
ATOM     51  N   UNL A   1      40.003  34.103  29.543  1.00  0.00    -0.354 N 
ATOM     52  N   UNL A   1      43.054  32.335  29.578  1.00  0.00    -0.248 NA
ATOM     53  C   UNL A   1      45.165  32.299  28.675  1.00  0.00     0.031 C 
ATOM     54  C   UNL A   1      41.053  34.143  31.496  1.00  0.00     0.029 A 
ATOM     55  C   UNL A   1      41.238  34.288  30.131  1.00  0.00     0.049 A 
ATOM     56  H   UNL A   1      39.821  34.199  28.580  1.00  0.00     0.167 HD
ATOM     57  C   UNL A   1      43.320  33.615  29.175  1.00  0.00     0.074 A 
ATOM     58  C   UNL A   1      44.664  33.547  28.631  1.00  0.00     0.031 C 
ATOM     59  C   UNL A   1      42.400  34.615  29.313  1.00  0.00     0.031 A 
BRANCH  46  60
ATOM     60  C   UNL A   1      36.428  33.766  30.615  1.00  0.00    -0.014 A 
ATOM     61  C   UNL A   1      35.402  34.152  29.724  1.00  0.00     0.010 A 
ATOM     62  C   UNL A   1      36.169  34.015  31.977  1.00  0.00     0.010 A 
ATOM     63  C   UNL A   1      34.238  34.814  30.157  1.00  0.00     0.020 A 
ATOM     64  C   UNL A   1      35.013  34.667  32.427  1.00  0.00     0.020 A 
ATOM     65  C   UNL A   1      34.062  35.087  31.511  1.00  0.00     0.054 A 
BRANCH  65  66
ATOM     66  S   UNL A   1      32.607  36.014  32.063  1.00  0.00     0.124 S 
ATOM     67  O   UNL A   1      32.133  36.618  30.822  1.00  0.00    -0.237 OA
ATOM     68  O   UNL A   1      31.758  34.967  32.624  1.00  0.00    -0.237 OA
ATOM     69  O   UNL A   1      33.150  36.959  33.039  1.00  0.00    -0.744 OA
ENDBRANCH  65  66
ENDBRANCH  46  60
BRANCH  47  70
ATOM     70  C   UNL A   1      44.569  29.056  28.573  1.00  0.00    -0.014 A 
ATOM     71  C   UNL A   1      43.989  29.062  27.287  1.00  0.00     0.010 A 
ATOM     72  C   UNL A   1      45.824  28.449  28.757  1.00  0.00     0.010 A 
ATOM     73  C   UNL A   1      44.725  28.638  26.179  1.00  0.00     0.020 A 
ATOM     74  C   UNL A   1      46.560  28.017  27.646  1.00  0.00     0.020 A 
ATOM     75  C   UNL A   1      46.031  28.181  26.362  1.00  0.00     0.054 A 
BRANCH  75  76
ATOM     76  S   UNL A   1      47.087  28.018  24.892  1.00  0.00     0.124 S 
ATOM     77  O   UNL A   1      48.427  28.147  25.452  1.00  0.00    -0.237 OA
ATOM     78  O   UNL A   1      46.726  26.684  24.415  1.00  0.00    -0.237 OA
ATOM     79  O   UNL A   1      46.649  29.122  24.041  1.00  0.00    -0.744 OA
ENDBRANCH  75  76
ENDBRANCH  47  70
BRANCH  59  80
ATOM     80  C   UNL A   1      42.515  36.015  28.758  1.00  0.00    -0.014 A 
ATOM     81  C   UNL A   1      43.128  37.086  29.426  1.00  0.00     0.010 A 
ATOM     82  C   UNL A   1      42.089  36.253  27.428  1.00  0.00     0.010 A 
ATOM     83  C   UNL A   1      43.256  38.346  28.822  1.00  0.00     0.020 A 
ATOM     84  C   UNL A   1      42.249  37.492  26.801  1.00  0.00     0.020 A 
ATOM     85  C   UNL A   1      42.812  38.543  27.514  1.00  0.00     0.054 A 
BRANCH  85  86
ATOM     86  S   UNL A   1      43.041  40.151  26.711  1.00  0.00     0.124 S 
ATOM     87  O   UNL A   1      43.292  41.025  27.853  1.00  0.00    -0.237 OA
ATOM     88  O   UNL A   1      44.188  39.922  25.834  1.00  0.00    -0.237 OA
ATOM     89  O   UNL A   1      41.774  40.368  26.019  1.00  0.00    -0.744 OA
ENDBRANCH  85  86
ENDBRANCH  59  80
ENDBRANCH  33  34
ENDBRANCH  25  28
ENDBRANCH  23  24
ENDBRANCH  22  23
ENDBRANCH   1  22
TORSDOF 18
ENDMDL
MODEL 2
REMARK VINA RESULT:     -12.2      4.763     11.639
REMARK SMILES Cc1ccccc1-c1nc(CC(=O)NCCCCCCNC(=O)c2ccc(-c3c4nc(c(-c5ccc(S(=O)(=O)[O-])cc5)c5ccc([nH]5)c(-c5ccc(S(=O)(=O)[O-])cc5)c5nc(c(-c6ccc(S(=O)(=O)[O-])cc6)c6ccc3[nH]6)C=C5)C=C4)cc2)cs1
REMARK SMILES IDX 18 1 17 2 16 3 15 4 14 5 12 6 13 7 11 9 10 10 8 11 9 12
REMARK SMILES IDX 85 13 84 14 7 15 1 16 2 17 3 18 4 19 6 20 5 21 19 22 20 23
REMARK SMILES IDX 21 24 22 25 23 27 24 28 25 29 83 30 26 31 82 32 27 33 28 34
REMARK SMILES IDX 29 35 76 36 30 37 81 38 75 39 77 40 31 41 80 42 74 43 73 44
REMARK SMILES IDX 32 46 62 47 43 48 61 49 44 50 47 51 60 52 78 53 45 54 46 55
REMARK SMILES IDX 59 57 79 58 48 59 33 60 34 61 42 62 35 63 41 64 36 65 37 66
REMARK SMILES IDX 38 67 39 68 40 69 63 70 64 71 72 72 65 73 71 74 66 75 67 76
REMARK SMILES IDX 68 77 69 78 70 79 49 80 50 81 58 82 51 83 57 84 52 85 53 86
REMARK SMILES IDX 54 87 55 88 56 89
REMARK H PARENT 14 8 21 26 77 45 47 56
REMARK Flexibility Score: inf
ROOT
ATOM      1  C   UNL A   1      32.169  28.876  27.112  1.00  0.00     0.002 C 
ENDROOT
BRANCH   1   2
ATOM      2  C   UNL A   1      32.122  27.676  26.158  1.00  0.00     0.002 C 
BRANCH   2   3
ATOM      3  C   UNL A   1      30.834  27.496  25.341  1.00  0.00     0.021 C 
BRANCH   3   4
ATOM      4  C   UNL A   1      30.570  26.074  24.844  1.00  0.00     0.116 C 
BRANCH   4   5
ATOM      5  N   UNL A   1      30.203  25.174  25.925  1.00  0.00    -0.356 N 
ATOM      6  C   UNL A   1      30.917  24.143  26.463  1.00  0.00     0.226 C 
ATOM      7  O   UNL A   1      30.408  23.480  27.371  1.00  0.00    -0.275 OA
ATOM      8  H   UNL A   1      29.316  25.329  26.324  1.00  0.00     0.163 HD
BRANCH   6   9
ATOM      9  C   UNL A   1      32.327  23.857  25.983  1.00  0.00     0.157 C 
BRANCH   9  10
ATOM     10  C   UNL A   1      32.368  22.812  24.922  1.00  0.00     0.061 A 
ATOM     11  C   UNL A   1      32.832  20.755  24.212  1.00  0.00     0.123 A 
ATOM     12  N   UNL A   1      32.799  21.540  25.272  1.00  0.00    -0.241 NA
ATOM     13  S   UNL A   1      32.272  21.483  22.755  1.00  0.00    -0.122 S 
ATOM     14  C   UNL A   1      32.018  22.954  23.593  1.00  0.00     0.091 A 
BRANCH  11  15
ATOM     15  C   UNL A   1      33.282  19.358  24.221  1.00  0.00     0.013 A 
ATOM     16  C   UNL A   1      35.665  20.014  24.911  1.00  0.00     0.045 C 
ATOM     17  C   UNL A   1      34.611  19.005  24.539  1.00  0.00    -0.041 A 
ATOM     18  C   UNL A   1      34.995  17.652  24.480  1.00  0.00     0.004 A 
ATOM     19  C   UNL A   1      34.077  16.660  24.134  1.00  0.00     0.000 A 
ATOM     20  C   UNL A   1      32.372  18.343  23.869  1.00  0.00     0.011 A 
ATOM     21  C   UNL A   1      32.765  17.005  23.831  1.00  0.00     0.001 A 
ENDBRANCH  11  15
ENDBRANCH   9  10
ENDBRANCH   6   9
ENDBRANCH   4   5
ENDBRANCH   3   4
ENDBRANCH   2   3
ENDBRANCH   1   2
BRANCH   1  22
ATOM     22  C   UNL A   1      33.116  30.016  26.727  1.00  0.00     0.021 C 
BRANCH  22  23
ATOM     23  C   UNL A   1      34.562  29.785  27.155  1.00  0.00     0.116 C 
BRANCH  23  24
ATOM     24  N   UNL A   1      35.253  31.019  27.507  1.00  0.00    -0.352 N 
ATOM     25  C   UNL A   1      36.494  31.165  28.100  1.00  0.00     0.251 C 
ATOM     26  H   UNL A   1      34.776  31.854  27.296  1.00  0.00     0.163 HD
ATOM     27  O   UNL A   1      36.901  32.251  28.482  1.00  0.00    -0.269 OA
BRANCH  25  28
ATOM     28  C   UNL A   1      37.359  29.970  28.169  1.00  0.00     0.039 A 
ATOM     29  C   UNL A   1      37.381  29.256  29.371  1.00  0.00     0.014 A 
ATOM     30  C   UNL A   1      38.289  29.717  27.164  1.00  0.00     0.014 A 
ATOM     31  C   UNL A   1      38.448  28.401  29.640  1.00  0.00     0.010 A 
ATOM     32  C   UNL A   1      39.388  28.936  27.466  1.00  0.00     0.010 A 
ATOM     33  C   UNL A   1      39.494  28.317  28.722  1.00  0.00    -0.014 A 
BRANCH  33  34
ATOM     34  C   UNL A   1      40.781  27.691  29.011  1.00  0.00     0.031 A 
ATOM     35  C   UNL A   1      41.016  26.265  28.682  1.00  0.00     0.074 A 
ATOM     36  C   UNL A   1      41.808  28.436  29.476  1.00  0.00     0.049 A 
ATOM     37  N   UNL A   1      41.976  25.550  29.170  1.00  0.00    -0.248 NA
ATOM     38  C   UNL A   1      40.114  25.498  27.825  1.00  0.00     0.031 C 
ATOM     39  C   UNL A   1      43.225  28.083  29.441  1.00  0.00     0.029 A 
ATOM     40  N   UNL A   1      41.767  29.573  30.286  1.00  0.00    -0.354 N 
ATOM     41  C   UNL A   1      42.027  24.383  28.442  1.00  0.00     0.074 A 
ATOM     42  C   UNL A   1      40.765  24.335  27.742  1.00  0.00     0.031 C 
ATOM     43  C   UNL A   1      43.861  28.762  30.406  1.00  0.00     0.029 A 
ATOM     44  C   UNL A   1      42.845  29.456  31.180  1.00  0.00     0.049 A 
ATOM     45  H   UNL A   1      41.115  30.309  30.240  1.00  0.00     0.167 HD
ATOM     46  C   UNL A   1      43.197  23.685  28.373  1.00  0.00     0.031 A 
ATOM     47  C   UNL A   1      42.730  29.418  32.539  1.00  0.00     0.031 A 
ATOM     48  C   UNL A   1      44.178  24.165  29.349  1.00  0.00     0.049 A 
ATOM     49  C   UNL A   1      43.368  28.196  33.163  1.00  0.00     0.074 A 
ATOM     50  C   UNL A   1      45.354  24.888  29.243  1.00  0.00     0.029 A 
ATOM     51  N   UNL A   1      43.874  24.105  30.706  1.00  0.00    -0.354 N 
ATOM     52  N   UNL A   1      43.741  27.147  32.486  1.00  0.00    -0.248 NA
ATOM     53  C   UNL A   1      43.584  28.032  34.599  1.00  0.00     0.031 C 
ATOM     54  C   UNL A   1      45.713  25.333  30.543  1.00  0.00     0.029 A 
ATOM     55  C   UNL A   1      44.773  24.854  31.439  1.00  0.00     0.049 A 
ATOM     56  H   UNL A   1      43.123  23.599  31.090  1.00  0.00     0.167 HD
ATOM     57  C   UNL A   1      44.211  26.186  33.339  1.00  0.00     0.074 A 
ATOM     58  C   UNL A   1      44.110  26.794  34.654  1.00  0.00     0.031 C 
ATOM     59  C   UNL A   1      44.627  24.967  32.885  1.00  0.00     0.031 A 
BRANCH  46  60
ATOM     60  C   UNL A   1      43.561  22.750  27.226  1.00  0.00    -0.014 A 
ATOM     61  C   UNL A   1      42.787  21.591  26.997  1.00  0.00     0.010 A 
ATOM     62  C   UNL A   1      44.708  22.880  26.419  1.00  0.00     0.010 A 
ATOM     63  C   UNL A   1      43.179  20.593  26.084  1.00  0.00     0.020 A 
ATOM     64  C   UNL A   1      45.109  21.900  25.500  1.00  0.00     0.020 A 
ATOM     65  C   UNL A   1      44.355  20.747  25.355  1.00  0.00     0.054 A 
BRANCH  65  66
ATOM     66  S   UNL A   1      44.906  19.428  24.243  1.00  0.00     0.124 S 
ATOM     67  O   UNL A   1      46.353  19.438  24.441  1.00  0.00    -0.237 OA
ATOM     68  O   UNL A   1      44.203  18.259  24.763  1.00  0.00    -0.237 OA
ATOM     69  O   UNL A   1      44.463  19.881  22.924  1.00  0.00    -0.744 OA
ENDBRANCH  65  66
ENDBRANCH  46  60
BRANCH  47  70
ATOM     70  C   UNL A   1      41.534  30.119  33.075  1.00  0.00    -0.014 A 
ATOM     71  C   UNL A   1      41.623  31.519  33.231  1.00  0.00     0.010 A 
ATOM     72  C   UNL A   1      40.266  29.517  32.993  1.00  0.00     0.010 A 
ATOM     73  C   UNL A   1      40.482  32.315  33.122  1.00  0.00     0.020 A 
ATOM     74  C   UNL A   1      39.119  30.316  32.890  1.00  0.00     0.020 A 
ATOM     75  C   UNL A   1      39.247  31.708  32.884  1.00  0.00     0.054 A 
BRANCH  75  76
ATOM     76  S   UNL A   1      37.869  32.768  32.355  1.00  0.00     0.124 S 
ATOM     77  O   UNL A   1      38.393  33.379  31.138  1.00  0.00    -0.237 OA
ATOM     78  O   UNL A   1      36.801  31.789  32.161  1.00  0.00    -0.237 OA
ATOM     79  O   UNL A   1      37.686  33.671  33.487  1.00  0.00    -0.744 OA
ENDBRANCH  75  76
ENDBRANCH  47  70
BRANCH  59  80
ATOM     80  C   UNL A   1      45.003  23.779  33.739  1.00  0.00    -0.014 A 
ATOM     81  C   UNL A   1      44.148  22.702  34.021  1.00  0.00     0.010 A 
ATOM     82  C   UNL A   1      46.340  23.667  34.193  1.00  0.00     0.010 A 
ATOM     83  C   UNL A   1      44.585  21.598  34.769  1.00  0.00     0.020 A 
ATOM     84  C   UNL A   1      46.799  22.553  34.903  1.00  0.00     0.020 A 
ATOM     85  C   UNL A   1      45.908  21.532  35.209  1.00  0.00     0.054 A 
BRANCH  85  86
ATOM     86  S   UNL A   1      46.490  20.076  36.115  1.00  0.00     0.124 S 
ATOM     87  O   UNL A   1      47.932  20.300  36.154  1.00  0.00    -0.237 OA
ATOM     88  O   UNL A   1      45.804  20.190  37.401  1.00  0.00    -0.237 OA
ATOM     89  O   UNL A   1      46.050  18.960  35.282  1.00  0.00    -0.744 OA
ENDBRANCH  85  86
ENDBRANCH  59  80
ENDBRANCH  33  34
ENDBRANCH  25  28
ENDBRANCH  23  24
ENDBRANCH  22  23
ENDBRANCH   1  22
TORSDOF 18
ENDMDL
MODEL 3
REMARK VINA RESULT:     -12.2      4.855     11.564
REMARK SMILES Cc1ccccc1-c1nc(CC(=O)NCCCCCCNC(=O)c2ccc(-c3c4nc(c(-c5ccc(S(=O)(=O)[O-])cc5)c5ccc([nH]5)c(-c5ccc(S(=O)(=O)[O-])cc5)c5nc(c(-c6ccc(S(=O)(=O)[O-])cc6)c6ccc3[nH]6)C=C5)C=C4)cc2)cs1
REMARK SMILES IDX 18 1 17 2 16 3 15 4 14 5 12 6 13 7 11 9 10 10 8 11 9 12
REMARK SMILES IDX 85 13 84 14 7 15 1 16 2 17 3 18 4 19 6 20 5 21 19 22 20 23
REMARK SMILES IDX 21 24 22 25 23 27 24 28 25 29 83 30 26 31 82 32 27 33 28 34
REMARK SMILES IDX 29 35 76 36 30 37 81 38 75 39 77 40 31 41 80 42 74 43 73 44
REMARK SMILES IDX 32 46 62 47 43 48 61 49 44 50 47 51 60 52 78 53 45 54 46 55
REMARK SMILES IDX 59 57 79 58 48 59 33 60 34 61 42 62 35 63 41 64 36 65 37 66
REMARK SMILES IDX 38 67 39 68 40 69 63 70 64 71 72 72 65 73 71 74 66 75 67 76
REMARK SMILES IDX 68 77 69 78 70 79 49 80 50 81 58 82 51 83 57 84 52 85 53 86
REMARK SMILES IDX 54 87 55 88 56 89
REMARK H PARENT 14 8 21 26 77 45 47 56
REMARK Flexibility Score: inf
ROOT
ATOM      1  C   UNL A   1      32.444  30.469  26.317  1.00  0.00     0.002 C 
ENDROOT
BRANCH   1   2
ATOM      2  C   UNL A   1      31.444  29.963  25.269  1.00  0.00     0.002 C 
BRANCH   2   3
ATOM      3  C   UNL A   1      31.744  28.597  24.635  1.00  0.00     0.021 C 
BRANCH   3   4
ATOM      4  C   UNL A   1      31.486  28.506  23.130  1.00  0.00     0.116 C 
BRANCH   4   5
ATOM      5  N   UNL A   1      32.600  27.900  22.418  1.00  0.00    -0.356 N 
ATOM      6  C   UNL A   1      32.688  26.657  21.862  1.00  0.00     0.226 C 
ATOM      7  O   UNL A   1      33.744  26.327  21.316  1.00  0.00    -0.275 OA
ATOM      8  H   UNL A   1      33.401  28.465  22.323  1.00  0.00     0.163 HD
BRANCH   6   9
ATOM      9  C   UNL A   1      31.491  25.726  21.876  1.00  0.00     0.157 C 
BRANCH   9  10
ATOM     10  C   UNL A   1      31.512  24.787  23.032  1.00  0.00     0.061 A 
ATOM     11  C   UNL A   1      32.225  22.940  24.045  1.00  0.00     0.123 A 
ATOM     12  N   UNL A   1      32.371  23.699  22.978  1.00  0.00    -0.241 NA
ATOM     13  S   UNL A   1      31.104  23.536  25.210  1.00  0.00    -0.122 S 
ATOM     14  C   UNL A   1      30.760  24.868  24.189  1.00  0.00     0.091 A 
BRANCH  11  15
ATOM     15  C   UNL A   1      32.951  21.687  24.285  1.00  0.00     0.013 A 
ATOM     16  C   UNL A   1      35.054  22.927  25.073  1.00  0.00     0.045 C 
ATOM     17  C   UNL A   1      34.281  21.674  24.758  1.00  0.00    -0.041 A 
ATOM     18  C   UNL A   1      34.941  20.442  24.920  1.00  0.00     0.004 A 
ATOM     19  C   UNL A   1      34.293  19.239  24.640  1.00  0.00     0.000 A 
ATOM     20  C   UNL A   1      32.316  20.462  24.002  1.00  0.00     0.011 A 
ATOM     21  C   UNL A   1      32.980  19.249  24.184  1.00  0.00     0.001 A 
ENDBRANCH  11  15
ENDBRANCH   9  10
ENDBRANCH   6   9
ENDBRANCH   4   5
ENDBRANCH   3   4
ENDBRANCH   2   3
ENDBRANCH   1   2
BRANCH   1  22
ATOM     22  C   UNL A   1      33.082  29.409  27.219  1.00  0.00     0.021 C 
BRANCH  22  23
ATOM     23  C   UNL A   1      34.606  29.369  27.135  1.00  0.00     0.116 C 
BRANCH  23  24
ATOM     24  N   UNL A   1      35.228  30.627  27.525  1.00  0.00    -0.352 N 
ATOM     25  C   UNL A   1      36.460  30.824  28.122  1.00  0.00     0.251 C 
ATOM     26  H   UNL A   1      34.705  31.441  27.341  1.00  0.00     0.163 HD
ATOM     27  O   UNL A   1      36.807  31.918  28.538  1.00  0.00    -0.269 OA
BRANCH  25  28
ATOM     28  C   UNL A   1      37.390  29.678  28.153  1.00  0.00     0.039 A 
ATOM     29  C   UNL A   1      37.447  28.921  29.328  1.00  0.00     0.014 A 
ATOM     30  C   UNL A   1      38.338  29.515  27.145  1.00  0.00     0.014 A 
ATOM     31  C   UNL A   1      38.559  28.117  29.572  1.00  0.00     0.010 A 
ATOM     32  C   UNL A   1      39.477  28.785  27.425  1.00  0.00     0.010 A 
ATOM     33  C   UNL A   1      39.612  28.127  28.658  1.00  0.00    -0.014 A 
BRANCH  33  34
ATOM     34  C   UNL A   1      40.930  27.563  28.933  1.00  0.00     0.031 A 
ATOM     35  C   UNL A   1      41.231  26.151  28.598  1.00  0.00     0.074 A 
ATOM     36  C   UNL A   1      41.925  28.356  29.390  1.00  0.00     0.049 A 
ATOM     37  N   UNL A   1      42.230  25.482  29.074  1.00  0.00    -0.248 NA
ATOM     38  C   UNL A   1      40.359  25.343  27.747  1.00  0.00     0.031 C 
ATOM     39  C   UNL A   1      43.357  28.071  29.340  1.00  0.00     0.029 A 
ATOM     40  N   UNL A   1      41.837  29.488  30.203  1.00  0.00    -0.354 N 
ATOM     41  C   UNL A   1      42.330  24.321  28.342  1.00  0.00     0.074 A 
ATOM     42  C   UNL A   1      41.065  24.213  27.655  1.00  0.00     0.031 C 
ATOM     43  C   UNL A   1      43.969  28.779  30.301  1.00  0.00     0.029 A 
ATOM     44  C   UNL A   1      42.929  29.420  31.086  1.00  0.00     0.049 A 
ATOM     45  H   UNL A   1      41.149  30.191  30.166  1.00  0.00     0.167 HD
ATOM     46  C   UNL A   1      43.531  23.680  28.260  1.00  0.00     0.031 A 
ATOM     47  C   UNL A   1      42.829  29.373  32.447  1.00  0.00     0.031 A 
ATOM     48  C   UNL A   1      44.497  24.205  29.227  1.00  0.00     0.049 A 
ATOM     49  C   UNL A   1      43.532  28.182  33.061  1.00  0.00     0.074 A 
ATOM     50  C   UNL A   1      45.636  24.985  29.111  1.00  0.00     0.029 A 
ATOM     51  N   UNL A   1      44.211  24.127  30.587  1.00  0.00    -0.354 N 
ATOM     52  N   UNL A   1      43.948  27.155  32.377  1.00  0.00    -0.248 NA
ATOM     53  C   UNL A   1      43.769  28.025  34.494  1.00  0.00     0.031 C 
ATOM     54  C   UNL A   1      45.986  25.443  30.410  1.00  0.00     0.029 A 
ATOM     55  C   UNL A   1      45.080  24.917  31.313  1.00  0.00     0.049 A 
ATOM     56  H   UNL A   1      43.489  23.584  30.977  1.00  0.00     0.167 HD
ATOM     57  C   UNL A   1      44.472  26.215  33.223  1.00  0.00     0.074 A 
ATOM     58  C   UNL A   1      44.355  26.815  34.540  1.00  0.00     0.031 C 
ATOM     59  C   UNL A   1      44.943  25.019  32.761  1.00  0.00     0.031 A 
BRANCH  46  60
ATOM     60  C   UNL A   1      43.929  22.767  27.106  1.00  0.00    -0.014 A 
ATOM     61  C   UNL A   1      43.010  21.807  26.626  1.00  0.00     0.010 A 
ATOM     62  C   UNL A   1      45.214  22.712  26.533  1.00  0.00     0.010 A 
ATOM     63  C   UNL A   1      43.377  20.812  25.701  1.00  0.00     0.020 A 
ATOM     64  C   UNL A   1      45.595  21.732  25.606  1.00  0.00     0.020 A 
ATOM     65  C   UNL A   1      44.679  20.769  25.212  1.00  0.00     0.054 A 
BRANCH  65  66
ATOM     66  S   UNL A   1      45.178  19.440  24.087  1.00  0.00     0.124 S 
ATOM     67  O   UNL A   1      44.676  18.250  24.767  1.00  0.00    -0.237 OA
ATOM     68  O   UNL A   1      44.494  19.799  22.848  1.00  0.00    -0.237 OA
ATOM     69  O   UNL A   1      46.636  19.554  24.044  1.00  0.00    -0.744 OA
ENDBRANCH  65  66
ENDBRANCH  46  60
BRANCH  47  70
ATOM     70  C   UNL A   1      41.606  30.015  32.997  1.00  0.00    -0.014 A 
ATOM     71  C   UNL A   1      41.546  31.424  32.965  1.00  0.00     0.010 A 
ATOM     72  C   UNL A   1      40.412  29.280  33.109  1.00  0.00     0.010 A 
ATOM     73  C   UNL A   1      40.316  32.076  32.860  1.00  0.00     0.020 A 
ATOM     74  C   UNL A   1      39.177  29.934  33.011  1.00  0.00     0.020 A 
ATOM     75  C   UNL A   1      39.145  31.319  32.816  1.00  0.00     0.054 A 
BRANCH  75  76
ATOM     76  S   UNL A   1      37.618  32.149  32.284  1.00  0.00     0.124 S 
ATOM     77  O   UNL A   1      38.110  33.117  31.310  1.00  0.00    -0.237 OA
ATOM     78  O   UNL A   1      36.851  31.032  31.735  1.00  0.00    -0.237 OA
ATOM     79  O   UNL A   1      37.093  32.713  33.525  1.00  0.00    -0.744 OA
ENDBRANCH  75  76
ENDBRANCH  47  70
BRANCH  59  80
ATOM     80  C   UNL A   1      45.384  23.848  33.608  1.00  0.00    -0.014 A 
ATOM     81  C   UNL A   1      46.668  23.706  34.158  1.00  0.00     0.010 A 
ATOM     82  C   UNL A   1      44.419  22.881  33.982  1.00  0.00     0.010 A 
ATOM     83  C   UNL A   1      46.989  22.622  34.989  1.00  0.00     0.020 A 
ATOM     84  C   UNL A   1      44.716  21.821  34.842  1.00  0.00     0.020 A 
ATOM     85  C   UNL A   1      46.012  21.683  35.324  1.00  0.00     0.054 A 
BRANCH  85  86
ATOM     86  S   UNL A   1      46.410  20.323  36.452  1.00  0.00     0.124 S 
ATOM     87  O   UNL A   1      45.944  19.161  35.702  1.00  0.00    -0.237 OA
ATOM     88  O   UNL A   1      47.861  20.431  36.600  1.00  0.00    -0.237 OA
ATOM     89  O   UNL A   1      45.646  20.645  37.654  1.00  0.00    -0.744 OA
ENDBRANCH  85  86
ENDBRANCH  59  80
ENDBRANCH  33  34
ENDBRANCH  25  28
ENDBRANCH  23  24
ENDBRANCH  22  23
ENDBRANCH   1  22
TORSDOF 18
ENDMDL
