MODEL 1
REMARK VINA RESULT:     -10.5      0.000      0.000
REMARK SMILES Cc1ccc(O)c(C(=O)NCc2ccc(C(=O)NCCCCCCNC(=O)c3ccc(-c4c5nc(c(-c6ccc(S(=O)(=O)[O-])cc6)c6ccc([nH]6)c(-c6ccc(S(=O)(=O)[O-])cc6)c6nc(c(-c7ccc(S(=O)(=O)[O-])cc7)c7ccc4[nH]7)C=C6)C=C5)cc3)o2)c1
REMARK SMILES IDX 21 1 20 2 19 3 18 4 16 5 17 6 15 8 12 9 13 10 88 11 14 12
REMARK SMILES IDX 11 13 10 14 8 15 9 16 7 18 1 19 2 20 3 21 89 22 4 23 5 24
REMARK SMILES IDX 6 25 22 27 23 28 24 29 25 30 26 31 27 33 28 34 29 35 87 36
REMARK SMILES IDX 30 37 86 38 31 39 32 40 33 41 80 42 34 43 85 44 79 45 81 46
REMARK SMILES IDX 35 47 84 48 78 49 77 50 36 52 66 53 47 54 65 55 48 56 51 57
REMARK SMILES IDX 64 58 82 59 49 60 50 61 63 63 83 64 52 65 37 66 38 67 46 68
REMARK SMILES IDX 39 69 45 70 40 71 41 72 42 73 43 74 44 75 67 76 68 77 76 78
REMARK SMILES IDX 69 79 75 80 70 81 71 82 72 83 73 84 74 85 53 86 54 87 62 88
REMARK SMILES IDX 55 89 61 90 56 91 57 92 58 93 59 94 60 95
REMARK H PARENT 18 7 10 17 6 26 25 32 81 51 51 62
REMARK Flexibility Score: inf
ROOT
ATOM      1  C   UNL A   1      33.278  28.642  23.189  1.00  0.00     0.002 C 
ENDROOT
BRANCH   1   2
ATOM      2  C   UNL A   1      31.828  28.867  22.741  1.00  0.00     0.021 C 
BRANCH   2   3
ATOM      3  C   UNL A   1      30.845  28.922  23.908  1.00  0.00     0.116 C 
BRANCH   3   4
ATOM      4  N   UNL A   1      29.805  27.930  23.751  1.00  0.00    -0.349 N 
ATOM      5  C   UNL A   1      29.744  26.595  24.055  1.00  0.00     0.286 C 
ATOM      6  O   UNL A   1      28.674  26.042  23.765  1.00  0.00    -0.266 OA
ATOM      7  H   UNL A   1      28.978  28.282  23.349  1.00  0.00     0.163 HD
BRANCH   5   8
ATOM      8  C   UNL A   1      30.841  25.883  24.684  1.00  0.00     0.191 A 
ATOM      9  C   UNL A   1      32.819  24.870  24.581  1.00  0.00     0.124 A 
ATOM     10  C   UNL A   1      32.405  24.780  25.888  1.00  0.00     0.048 A 
ATOM     11  O   UNL A   1      31.873  25.517  23.848  1.00  0.00    -0.454 OA
ATOM     12  C   UNL A   1      31.165  25.458  25.961  1.00  0.00     0.056 A 
BRANCH   9  13
ATOM     13  C   UNL A   1      34.049  24.484  23.851  1.00  0.00     0.191 C 
BRANCH  13  14
ATOM     14  N   UNL A   1      35.154  24.533  24.785  1.00  0.00    -0.345 N 
ATOM     15  C   UNL A   1      35.985  23.613  25.358  1.00  0.00     0.255 C 
ATOM     16  O   UNL A   1      36.829  24.067  26.143  1.00  0.00    -0.269 OA
ATOM     17  H   UNL A   1      35.355  25.451  25.078  1.00  0.00     0.164 HD
BRANCH  15  18
ATOM     18  C   UNL A   1      35.977  22.133  25.129  1.00  0.00     0.081 A 
ATOM     19  C   UNL A   1      33.620  19.136  24.791  1.00  0.00     0.044 C 
ATOM     20  C   UNL A   1      34.880  19.952  24.857  1.00  0.00    -0.050 A 
ATOM     21  C   UNL A   1      36.122  19.325  24.776  1.00  0.00     0.007 A 
ATOM     22  C   UNL A   1      34.822  21.348  25.020  1.00  0.00     0.021 A 
ATOM     23  C   UNL A   1      37.287  20.078  24.873  1.00  0.00     0.047 A 
ATOM     24  C   UNL A   1      37.215  21.461  25.057  1.00  0.00     0.128 A 
BRANCH  24  25
ATOM     25  O   UNL A   1      38.430  22.090  25.168  1.00  0.00    -0.507 OA
ATOM     26  H   UNL A   1      38.771  22.581  24.447  1.00  0.00     0.293 HD
ENDBRANCH  24  25
ENDBRANCH  15  18
ENDBRANCH  13  14
ENDBRANCH   9  13
ENDBRANCH   5   8
ENDBRANCH   3   4
ENDBRANCH   2   3
ENDBRANCH   1   2
BRANCH   1  27
ATOM     27  C   UNL A   1      33.583  29.101  24.622  1.00  0.00     0.002 C 
BRANCH  27  28
ATOM     28  C   UNL A   1      34.065  27.990  25.562  1.00  0.00     0.021 C 
BRANCH  28  29
ATOM     29  C   UNL A   1      33.678  28.201  27.020  1.00  0.00     0.116 C 
BRANCH  29  30
ATOM     30  N   UNL A   1      33.505  29.612  27.323  1.00  0.00    -0.352 N 
ATOM     31  C   UNL A   1      34.343  30.462  27.995  1.00  0.00     0.251 C 
ATOM     32  H   UNL A   1      32.666  30.014  26.998  1.00  0.00     0.163 HD
ATOM     33  O   UNL A   1      33.924  31.552  28.380  1.00  0.00    -0.269 OA
BRANCH  31  34
ATOM     34  C   UNL A   1      35.742  30.067  28.257  1.00  0.00     0.039 A 
ATOM     35  C   UNL A   1      36.088  29.609  29.529  1.00  0.00     0.014 A 
ATOM     36  C   UNL A   1      36.719  30.185  27.262  1.00  0.00     0.014 A 
ATOM     37  C   UNL A   1      37.411  29.252  29.798  1.00  0.00     0.010 A 
ATOM     38  C   UNL A   1      38.016  29.747  27.505  1.00  0.00     0.010 A 
ATOM     39  C   UNL A   1      38.383  29.305  28.785  1.00  0.00    -0.014 A 
BRANCH  39  40
ATOM     40  C   UNL A   1      39.798  28.953  29.066  1.00  0.00     0.031 A 
ATOM     41  C   UNL A   1      40.711  29.963  29.711  1.00  0.00     0.074 A 
ATOM     42  C   UNL A   1      40.266  27.739  28.719  1.00  0.00     0.049 A 
ATOM     43  N   UNL A   1      41.973  29.846  30.032  1.00  0.00    -0.248 NA
ATOM     44  C   UNL A   1      40.139  31.286  30.011  1.00  0.00     0.031 C 
ATOM     45  C   UNL A   1      39.491  26.690  28.051  1.00  0.00     0.029 A 
ATOM     46  N   UNL A   1      41.507  27.180  28.884  1.00  0.00    -0.354 N 
ATOM     47  C   UNL A   1      42.347  31.079  30.557  1.00  0.00     0.074 A 
ATOM     48  C   UNL A   1      41.197  31.949  30.452  1.00  0.00     0.031 C 
ATOM     49  C   UNL A   1      40.264  25.602  27.899  1.00  0.00     0.029 A 
ATOM     50  C   UNL A   1      41.597  25.888  28.422  1.00  0.00     0.049 A 
ATOM     51  H   UNL A   1      42.264  27.658  29.295  1.00  0.00     0.167 HD
ATOM     52  C   UNL A   1      43.531  31.449  31.101  1.00  0.00     0.031 A 
ATOM     53  C   UNL A   1      42.634  25.028  28.423  1.00  0.00     0.031 A 
ATOM     54  C   UNL A   1      44.669  30.576  31.214  1.00  0.00     0.049 A 
ATOM     55  C   UNL A   1      43.939  25.462  29.033  1.00  0.00     0.074 A 
ATOM     56  C   UNL A   1      45.900  30.836  31.792  1.00  0.00     0.029 A 
ATOM     57  N   UNL A   1      44.717  29.273  30.739  1.00  0.00    -0.354 N 
ATOM     58  N   UNL A   1      44.254  26.613  29.579  1.00  0.00    -0.248 NA
ATOM     59  C   UNL A   1      45.022  24.471  29.046  1.00  0.00     0.031 C 
ATOM     60  C   UNL A   1      46.711  29.710  31.616  1.00  0.00     0.029 A 
ATOM     61  C   UNL A   1      45.963  28.723  30.992  1.00  0.00     0.049 A 
ATOM     62  H   UNL A   1      43.976  28.809  30.288  1.00  0.00     0.167 HD
ATOM     63  C   UNL A   1      45.562  26.472  30.032  1.00  0.00     0.074 A 
ATOM     64  C   UNL A   1      45.968  25.117  29.711  1.00  0.00     0.031 C 
ATOM     65  C   UNL A   1      46.355  27.376  30.659  1.00  0.00     0.031 A 
BRANCH  52  66
ATOM     66  C   UNL A   1      43.652  32.862  31.611  1.00  0.00    -0.014 A 
ATOM     67  C   UNL A   1      44.113  33.902  30.781  1.00  0.00     0.010 A 
ATOM     68  C   UNL A   1      43.272  33.164  32.932  1.00  0.00     0.010 A 
ATOM     69  C   UNL A   1      44.235  35.203  31.274  1.00  0.00     0.020 A 
ATOM     70  C   UNL A   1      43.360  34.472  33.419  1.00  0.00     0.020 A 
ATOM     71  C   UNL A   1      43.857  35.480  32.591  1.00  0.00     0.054 A 
BRANCH  71  72
ATOM     72  S   UNL A   1      44.004  37.184  33.196  1.00  0.00     0.124 S 
ATOM     73  O   UNL A   1      45.311  37.161  33.847  1.00  0.00    -0.237 OA
ATOM     74  O   UNL A   1      43.928  37.967  31.964  1.00  0.00    -0.237 OA
ATOM     75  O   UNL A   1      42.862  37.332  34.095  1.00  0.00    -0.744 OA
ENDBRANCH  71  72
ENDBRANCH  52  66
BRANCH  53  76
ATOM     76  C   UNL A   1      42.472  23.663  27.849  1.00  0.00    -0.014 A 
ATOM     77  C   UNL A   1      43.055  23.331  26.614  1.00  0.00     0.010 A 
ATOM     78  C   UNL A   1      41.736  22.685  28.542  1.00  0.00     0.010 A 
ATOM     79  C   UNL A   1      42.882  22.055  26.068  1.00  0.00     0.020 A 
ATOM     80  C   UNL A   1      41.588  21.399  28.015  1.00  0.00     0.020 A 
ATOM     81  C   UNL A   1      42.152  21.096  26.774  1.00  0.00     0.054 A 
BRANCH  81  82
ATOM     82  S   UNL A   1      41.979  19.434  26.069  1.00  0.00     0.124 S 
ATOM     83  O   UNL A   1      42.800  19.527  24.867  1.00  0.00    -0.237 OA
ATOM     84  O   UNL A   1      42.507  18.585  27.134  1.00  0.00    -0.237 OA
ATOM     85  O   UNL A   1      40.542  19.308  25.838  1.00  0.00    -0.744 OA
ENDBRANCH  81  82
ENDBRANCH  53  76
BRANCH  65  86
ATOM     86  C   UNL A   1      47.725  26.915  31.082  1.00  0.00    -0.014 A 
ATOM     87  C   UNL A   1      48.847  27.074  30.248  1.00  0.00     0.010 A 
ATOM     88  C   UNL A   1      47.894  26.322  32.347  1.00  0.00     0.010 A 
ATOM     89  C   UNL A   1      50.098  26.594  30.646  1.00  0.00     0.020 A 
ATOM     90  C   UNL A   1      49.149  25.875  32.765  1.00  0.00     0.020 A 
ATOM     91  C   UNL A   1      50.238  25.992  31.900  1.00  0.00     0.054 A 
BRANCH  91  92
ATOM     92  S   UNL A   1      51.871  25.376  32.395  1.00  0.00     0.124 S 
ATOM     93  O   UNL A   1      52.683  25.696  31.225  1.00  0.00    -0.237 OA
ATOM     94  O   UNL A   1      52.159  26.159  33.594  1.00  0.00    -0.237 OA
ATOM     95  O   UNL A   1      51.648  23.951  32.629  1.00  0.00    -0.744 OA
ENDBRANCH  91  92
ENDBRANCH  65  86
ENDBRANCH  39  40
ENDBRANCH  31  34
ENDBRANCH  29  30
ENDBRANCH  28  29
ENDBRANCH  27  28
ENDBRANCH   1  27
TORSDOF 20
ENDMDL
MODEL 2
REMARK VINA RESULT:     -10.4      1.277      2.096
REMARK SMILES Cc1ccc(O)c(C(=O)NCc2ccc(C(=O)NCCCCCCNC(=O)c3ccc(-c4c5nc(c(-c6ccc(S(=O)(=O)[O-])cc6)c6ccc([nH]6)c(-c6ccc(S(=O)(=O)[O-])cc6)c6nc(c(-c7ccc(S(=O)(=O)[O-])cc7)c7ccc4[nH]7)C=C6)C=C5)cc3)o2)c1
REMARK SMILES IDX 21 1 20 2 19 3 18 4 16 5 17 6 15 8 12 9 13 10 88 11 14 12
REMARK SMILES IDX 11 13 10 14 8 15 9 16 7 18 1 19 2 20 3 21 89 22 4 23 5 24
REMARK SMILES IDX 6 25 22 27 23 28 24 29 25 30 26 31 27 33 28 34 29 35 87 36
REMARK SMILES IDX 30 37 86 38 31 39 32 40 33 41 80 42 34 43 85 44 79 45 81 46
REMARK SMILES IDX 35 47 84 48 78 49 77 50 36 52 66 53 47 54 65 55 48 56 51 57
REMARK SMILES IDX 64 58 82 59 49 60 50 61 63 63 83 64 52 65 37 66 38 67 46 68
REMARK SMILES IDX 39 69 45 70 40 71 41 72 42 73 43 74 44 75 67 76 68 77 76 78
REMARK SMILES IDX 69 79 75 80 70 81 71 82 72 83 73 84 74 85 53 86 54 87 62 88
REMARK SMILES IDX 55 89 61 90 56 91 57 92 58 93 59 94 60 95
REMARK H PARENT 18 7 10 17 6 26 25 32 81 51 51 62
REMARK Flexibility Score: inf
ROOT
ATOM      1  C   UNL A   1      31.700  28.751  24.989  1.00  0.00     0.002 C 
ENDROOT
BRANCH   1   2
ATOM      2  C   UNL A   1      32.513  28.431  23.729  1.00  0.00     0.021 C 
BRANCH   2   3
ATOM      3  C   UNL A   1      31.644  27.992  22.552  1.00  0.00     0.116 C 
BRANCH   3   4
ATOM      4  N   UNL A   1      32.389  27.142  21.651  1.00  0.00    -0.349 N 
ATOM      5  C   UNL A   1      32.576  25.784  21.602  1.00  0.00     0.286 C 
ATOM      6  O   UNL A   1      33.301  25.392  20.677  1.00  0.00    -0.266 OA
ATOM      7  H   UNL A   1      32.851  27.631  20.933  1.00  0.00     0.163 HD
BRANCH   5   8
ATOM      8  C   UNL A   1      31.958  24.872  22.546  1.00  0.00     0.191 A 
ATOM      9  C   UNL A   1      31.889  22.915  23.600  1.00  0.00     0.124 A 
ATOM     10  C   UNL A   1      30.806  23.634  24.046  1.00  0.00     0.048 A 
ATOM     11  O   UNL A   1      32.576  23.649  22.684  1.00  0.00    -0.454 OA
ATOM     12  C   UNL A   1      30.872  24.893  23.404  1.00  0.00     0.056 A 
BRANCH   9  13
ATOM     13  C   UNL A   1      32.471  21.595  23.940  1.00  0.00     0.191 C 
BRANCH  13  14
ATOM     14  N   UNL A   1      32.634  21.538  25.377  1.00  0.00    -0.345 N 
ATOM     15  C   UNL A   1      33.696  21.529  26.237  1.00  0.00     0.255 C 
ATOM     16  O   UNL A   1      33.412  21.458  27.439  1.00  0.00    -0.269 OA
ATOM     17  H   UNL A   1      31.772  21.494  25.849  1.00  0.00     0.164 HD
BRANCH  15  18
ATOM     18  C   UNL A   1      35.146  21.600  25.869  1.00  0.00     0.081 A 
ATOM     19  C   UNL A   1      38.170  23.947  25.921  1.00  0.00     0.044 C 
ATOM     20  C   UNL A   1      37.320  22.729  25.690  1.00  0.00    -0.050 A 
ATOM     21  C   UNL A   1      37.856  21.619  25.039  1.00  0.00     0.007 A 
ATOM     22  C   UNL A   1      35.977  22.702  26.107  1.00  0.00     0.021 A 
ATOM     23  C   UNL A   1      37.058  20.506  24.795  1.00  0.00     0.047 A 
ATOM     24  C   UNL A   1      35.719  20.502  25.195  1.00  0.00     0.128 A 
BRANCH  24  25
ATOM     25  O   UNL A   1      35.027  19.361  24.872  1.00  0.00    -0.507 OA
ATOM     26  H   UNL A   1      35.147  18.963  24.033  1.00  0.00     0.293 HD
ENDBRANCH  24  25
ENDBRANCH  15  18
ENDBRANCH  13  14
ENDBRANCH   9  13
ENDBRANCH   5   8
ENDBRANCH   3   4
ENDBRANCH   2   3
ENDBRANCH   1   2
BRANCH   1  27
ATOM     27  C   UNL A   1      31.569  27.585  25.979  1.00  0.00     0.002 C 
BRANCH  27  28
ATOM     28  C   UNL A   1      32.507  27.663  27.188  1.00  0.00     0.021 C 
BRANCH  28  29
ATOM     29  C   UNL A   1      33.769  28.480  26.943  1.00  0.00     0.116 C 
BRANCH  29  30
ATOM     30  N   UNL A   1      33.592  29.863  27.352  1.00  0.00    -0.352 N 
ATOM     31  C   UNL A   1      34.421  30.659  28.096  1.00  0.00     0.251 C 
ATOM     32  H   UNL A   1      32.756  30.289  27.049  1.00  0.00     0.163 HD
ATOM     33  O   UNL A   1      33.997  31.716  28.560  1.00  0.00    -0.269 OA
BRANCH  31  34
ATOM     34  C   UNL A   1      35.818  30.245  28.343  1.00  0.00     0.039 A 
ATOM     35  C   UNL A   1      36.126  29.583  29.532  1.00  0.00     0.014 A 
ATOM     36  C   UNL A   1      36.828  30.545  27.422  1.00  0.00     0.014 A 
ATOM     37  C   UNL A   1      37.445  29.204  29.789  1.00  0.00     0.010 A 
ATOM     38  C   UNL A   1      38.124  30.090  27.639  1.00  0.00     0.010 A 
ATOM     39  C   UNL A   1      38.452  29.443  28.839  1.00  0.00    -0.014 A 
BRANCH  39  40
ATOM     40  C   UNL A   1      39.863  29.068  29.112  1.00  0.00     0.031 A 
ATOM     41  C   UNL A   1      40.793  30.061  29.760  1.00  0.00     0.074 A 
ATOM     42  C   UNL A   1      40.312  27.850  28.756  1.00  0.00     0.049 A 
ATOM     43  N   UNL A   1      42.055  29.924  30.076  1.00  0.00    -0.248 NA
ATOM     44  C   UNL A   1      40.241  31.391  30.070  1.00  0.00     0.031 C 
ATOM     45  C   UNL A   1      39.520  26.816  28.086  1.00  0.00     0.029 A 
ATOM     46  N   UNL A   1      41.546  27.271  28.914  1.00  0.00    -0.354 N 
ATOM     47  C   UNL A   1      42.449  31.149  30.606  1.00  0.00     0.074 A 
ATOM     48  C   UNL A   1      41.312  32.035  30.510  1.00  0.00     0.031 C 
ATOM     49  C   UNL A   1      40.276  25.718  27.924  1.00  0.00     0.029 A 
ATOM     50  C   UNL A   1      41.615  25.981  28.443  1.00  0.00     0.049 A 
ATOM     51  H   UNL A   1      42.311  27.736  29.325  1.00  0.00     0.167 HD
ATOM     52  C   UNL A   1      43.640  31.497  31.148  1.00  0.00     0.031 A 
ATOM     53  C   UNL A   1      42.639  25.107  28.435  1.00  0.00     0.031 A 
ATOM     54  C   UNL A   1      44.766  30.607  31.251  1.00  0.00     0.049 A 
ATOM     55  C   UNL A   1      43.953  25.517  29.042  1.00  0.00     0.074 A 
ATOM     56  C   UNL A   1      46.002  30.846  31.826  1.00  0.00     0.029 A 
ATOM     57  N   UNL A   1      44.793  29.307  30.768  1.00  0.00    -0.354 N 
ATOM     58  N   UNL A   1      44.287  26.661  29.594  1.00  0.00    -0.248 NA
ATOM     59  C   UNL A   1      45.022  24.511  29.046  1.00  0.00     0.031 C 
ATOM     60  C   UNL A   1      46.796  29.709  31.640  1.00  0.00     0.029 A 
ATOM     61  C   UNL A   1      46.031  28.737  31.013  1.00  0.00     0.049 A 
ATOM     62  H   UNL A   1      44.043  28.857  30.317  1.00  0.00     0.167 HD
ATOM     63  C   UNL A   1      45.594  26.498  30.041  1.00  0.00     0.074 A 
ATOM     64  C   UNL A   1      45.979  25.139  29.711  1.00  0.00     0.031 C 
ATOM     65  C   UNL A   1      46.402  27.387  30.671  1.00  0.00     0.031 A 
BRANCH  52  66
ATOM     66  C   UNL A   1      43.784  32.906  31.666  1.00  0.00    -0.014 A 
ATOM     67  C   UNL A   1      43.392  33.246  32.975  1.00  0.00     0.010 A 
ATOM     68  C   UNL A   1      44.347  33.899  30.844  1.00  0.00     0.010 A 
ATOM     69  C   UNL A   1      43.518  34.559  33.434  1.00  0.00     0.020 A 
ATOM     70  C   UNL A   1      44.505  35.208  31.311  1.00  0.00     0.020 A 
ATOM     71  C   UNL A   1      44.074  35.533  32.598  1.00  0.00     0.054 A 
BRANCH  71  72
ATOM     72  S   UNL A   1      44.245  37.224  33.231  1.00  0.00     0.124 S 
ATOM     73  O   UNL A   1      43.160  37.294  34.204  1.00  0.00    -0.237 OA
ATOM     74  O   UNL A   1      45.594  37.220  33.792  1.00  0.00    -0.237 OA
ATOM     75  O   UNL A   1      44.072  38.058  32.043  1.00  0.00    -0.744 OA
ENDBRANCH  71  72
ENDBRANCH  52  66
BRANCH  53  76
ATOM     76  C   UNL A   1      42.455  23.747  27.854  1.00  0.00    -0.014 A 
ATOM     77  C   UNL A   1      42.073  22.666  28.668  1.00  0.00     0.010 A 
ATOM     78  C   UNL A   1      42.655  23.530  26.479  1.00  0.00     0.010 A 
ATOM     79  C   UNL A   1      41.922  21.388  28.123  1.00  0.00     0.020 A 
ATOM     80  C   UNL A   1      42.473  22.260  25.925  1.00  0.00     0.020 A 
ATOM     81  C   UNL A   1      42.121  21.193  26.753  1.00  0.00     0.054 A 
BRANCH  81  82
ATOM     82  S   UNL A   1      41.874  19.535  26.059  1.00  0.00     0.124 S 
ATOM     83  O   UNL A   1      40.446  19.540  25.763  1.00  0.00    -0.237 OA
ATOM     84  O   UNL A   1      42.762  19.544  24.900  1.00  0.00    -0.237 OA
ATOM     85  O   UNL A   1      42.286  18.647  27.144  1.00  0.00    -0.744 OA
ENDBRANCH  81  82
ENDBRANCH  53  76
BRANCH  65  86
ATOM     86  C   UNL A   1      47.768  26.903  31.086  1.00  0.00    -0.014 A 
ATOM     87  C   UNL A   1      47.975  26.237  32.307  1.00  0.00     0.010 A 
ATOM     88  C   UNL A   1      48.862  27.108  30.225  1.00  0.00     0.010 A 
ATOM     89  C   UNL A   1      49.260  25.841  32.687  1.00  0.00     0.020 A 
ATOM     90  C   UNL A   1      50.142  26.681  30.585  1.00  0.00     0.020 A 
ATOM     91  C   UNL A   1      50.336  26.072  31.825  1.00  0.00     0.054 A 
BRANCH  91  92
ATOM     92  S   UNL A   1      51.995  25.550  32.340  1.00  0.00     0.124 S 
ATOM     93  O   UNL A   1      52.279  26.477  33.431  1.00  0.00    -0.237 OA
ATOM     94  O   UNL A   1      51.785  24.159  32.735  1.00  0.00    -0.237 OA
ATOM     95  O   UNL A   1      52.806  25.734  31.138  1.00  0.00    -0.744 OA
ENDBRANCH  91  92
ENDBRANCH  65  86
ENDBRANCH  39  40
ENDBRANCH  31  34
ENDBRANCH  29  30
ENDBRANCH  28  29
ENDBRANCH  27  28
ENDBRANCH   1  27
TORSDOF 20
ENDMDL
MODEL 3
REMARK VINA RESULT:     -10.3      3.276      4.587
REMARK SMILES Cc1ccc(O)c(C(=O)NCc2ccc(C(=O)NCCCCCCNC(=O)c3ccc(-c4c5nc(c(-c6ccc(S(=O)(=O)[O-])cc6)c6ccc([nH]6)c(-c6ccc(S(=O)(=O)[O-])cc6)c6nc(c(-c7ccc(S(=O)(=O)[O-])cc7)c7ccc4[nH]7)C=C6)C=C5)cc3)o2)c1
REMARK SMILES IDX 21 1 20 2 19 3 18 4 16 5 17 6 15 8 12 9 13 10 88 11 14 12
REMARK SMILES IDX 11 13 10 14 8 15 9 16 7 18 1 19 2 20 3 21 89 22 4 23 5 24
REMARK SMILES IDX 6 25 22 27 23 28 24 29 25 30 26 31 27 33 28 34 29 35 87 36
REMARK SMILES IDX 30 37 86 38 31 39 32 40 33 41 80 42 34 43 85 44 79 45 81 46
REMARK SMILES IDX 35 47 84 48 78 49 77 50 36 52 66 53 47 54 65 55 48 56 51 57
REMARK SMILES IDX 64 58 82 59 49 60 50 61 63 63 83 64 52 65 37 66 38 67 46 68
REMARK SMILES IDX 39 69 45 70 40 71 41 72 42 73 43 74 44 75 67 76 68 77 76 78
REMARK SMILES IDX 69 79 75 80 70 81 71 82 72 83 73 84 74 85 53 86 54 87 62 88
REMARK SMILES IDX 55 89 61 90 56 91 57 92 58 93 59 94 60 95
REMARK H PARENT 18 7 10 17 6 26 25 32 81 51 51 62
REMARK Flexibility Score: inf
ROOT
ATOM      1  C   UNL A   1      35.528  31.832  27.873  1.00  0.00     0.002 C 
ENDROOT
BRANCH   1   2
ATOM      2  C   UNL A   1      35.009  30.405  27.660  1.00  0.00     0.021 C 
BRANCH   2   3
ATOM      3  C   UNL A   1      33.638  30.363  26.989  1.00  0.00     0.116 C 
BRANCH   3   4
ATOM      4  N   UNL A   1      32.781  29.390  27.629  1.00  0.00    -0.349 N 
ATOM      5  C   UNL A   1      31.817  28.544  27.144  1.00  0.00     0.286 C 
ATOM      6  O   UNL A   1      31.264  27.840  28.000  1.00  0.00    -0.266 OA
ATOM      7  H   UNL A   1      32.916  29.320  28.601  1.00  0.00     0.163 HD
BRANCH   5   8
ATOM      8  C   UNL A   1      31.482  28.462  25.735  1.00  0.00     0.191 A 
ATOM      9  C   UNL A   1      31.003  27.278  23.914  1.00  0.00     0.124 A 
ATOM     10  C   UNL A   1      30.986  28.599  23.533  1.00  0.00     0.048 A 
ATOM     11  O   UNL A   1      31.318  27.190  25.234  1.00  0.00    -0.454 OA
ATOM     12  C   UNL A   1      31.253  29.353  24.700  1.00  0.00     0.056 A 
BRANCH   9  13
ATOM     13  C   UNL A   1      30.702  25.997  23.233  1.00  0.00     0.191 C 
BRANCH  13  14
ATOM     14  N   UNL A   1      31.618  25.857  22.122  1.00  0.00    -0.345 N 
ATOM     15  C   UNL A   1      32.736  25.112  21.870  1.00  0.00     0.255 C 
ATOM     16  O   UNL A   1      33.262  25.292  20.764  1.00  0.00    -0.269 OA
ATOM     17  H   UNL A   1      31.379  26.439  21.365  1.00  0.00     0.164 HD
BRANCH  15  18
ATOM     18  C   UNL A   1      33.371  24.113  22.786  1.00  0.00     0.081 A 
ATOM     19  C   UNL A   1      36.525  23.488  24.864  1.00  0.00     0.044 C 
ATOM     20  C   UNL A   1      35.176  23.286  24.233  1.00  0.00    -0.050 A 
ATOM     21  C   UNL A   1      34.485  22.092  24.432  1.00  0.00     0.007 A 
ATOM     22  C   UNL A   1      34.606  24.286  23.425  1.00  0.00     0.021 A 
ATOM     23  C   UNL A   1      33.253  21.893  23.818  1.00  0.00     0.047 A 
ATOM     24  C   UNL A   1      32.709  22.886  22.999  1.00  0.00     0.128 A 
BRANCH  24  25
ATOM     25  O   UNL A   1      31.504  22.561  22.426  1.00  0.00    -0.507 OA
ATOM     26  H   UNL A   1      31.399  21.739  21.990  1.00  0.00     0.293 HD
ENDBRANCH  24  25
ENDBRANCH  15  18
ENDBRANCH  13  14
ENDBRANCH   9  13
ENDBRANCH   5   8
ENDBRANCH   3   4
ENDBRANCH   2   3
ENDBRANCH   1   2
BRANCH   1  27
ATOM     27  C   UNL A   1      34.810  32.617  28.980  1.00  0.00     0.002 C 
BRANCH  27  28
ATOM     28  C   UNL A   1      35.686  33.638  29.714  1.00  0.00     0.021 C 
BRANCH  28  29
ATOM     29  C   UNL A   1      36.848  33.021  30.480  1.00  0.00     0.116 C 
BRANCH  29  30
ATOM     30  N   UNL A   1      36.398  31.949  31.353  1.00  0.00    -0.352 N 
ATOM     31  C   UNL A   1      36.878  30.673  31.474  1.00  0.00     0.251 C 
ATOM     32  H   UNL A   1      35.640  32.173  31.940  1.00  0.00     0.163 HD
ATOM     33  O   UNL A   1      36.217  29.827  32.073  1.00  0.00    -0.269 OA
BRANCH  31  34
ATOM     34  C   UNL A   1      38.185  30.315  30.884  1.00  0.00     0.039 A 
ATOM     35  C   UNL A   1      38.323  30.321  29.495  1.00  0.00     0.014 A 
ATOM     36  C   UNL A   1      39.259  29.936  31.696  1.00  0.00     0.014 A 
ATOM     37  C   UNL A   1      39.545  29.965  28.922  1.00  0.00     0.010 A 
ATOM     38  C   UNL A   1      40.499  29.667  31.127  1.00  0.00     0.010 A 
ATOM     39  C   UNL A   1      40.647  29.648  29.733  1.00  0.00    -0.014 A 
BRANCH  39  40
ATOM     40  C   UNL A   1      41.944  29.242  29.134  1.00  0.00     0.031 A 
ATOM     41  C   UNL A   1      43.061  30.246  29.008  1.00  0.00     0.074 A 
ATOM     42  C   UNL A   1      42.108  27.984  28.683  1.00  0.00     0.049 A 
ATOM     43  N   UNL A   1      44.261  30.086  28.514  1.00  0.00    -0.248 NA
ATOM     44  C   UNL A   1      42.786  31.615  29.476  1.00  0.00     0.031 C 
ATOM     45  C   UNL A   1      41.088  26.933  28.712  1.00  0.00     0.029 A 
ATOM     46  N   UNL A   1      43.198  27.374  28.116  1.00  0.00    -0.354 N 
ATOM     47  C   UNL A   1      44.875  31.332  28.597  1.00  0.00     0.074 A 
ATOM     48  C   UNL A   1      43.895  32.251  29.130  1.00  0.00     0.031 C 
ATOM     49  C   UNL A   1      41.613  25.799  28.220  1.00  0.00     0.029 A 
ATOM     50  C   UNL A   1      42.990  26.050  27.808  1.00  0.00     0.049 A 
ATOM     51  H   UNL A   1      44.049  27.840  27.945  1.00  0.00     0.167 HD
ATOM     52  C   UNL A   1      46.147  31.676  28.284  1.00  0.00     0.031 A 
ATOM     53  C   UNL A   1      43.818  25.139  27.259  1.00  0.00     0.031 A 
ATOM     54  C   UNL A   1      47.123  30.755  27.764  1.00  0.00     0.049 A 
ATOM     55  C   UNL A   1      45.226  25.545  26.920  1.00  0.00     0.074 A 
ATOM     56  C   UNL A   1      48.452  30.989  27.460  1.00  0.00     0.029 A 
ATOM     57  N   UNL A   1      46.874  29.421  27.472  1.00  0.00    -0.354 N 
ATOM     58  N   UNL A   1      45.806  26.714  27.063  1.00  0.00    -0.248 NA
ATOM     59  C   UNL A   1      46.097  24.503  26.365  1.00  0.00     0.031 C 
ATOM     60  C   UNL A   1      48.992  29.813  26.930  1.00  0.00     0.029 A 
ATOM     61  C   UNL A   1      48.020  28.826  26.971  1.00  0.00     0.049 A 
ATOM     62  H   UNL A   1      46.011  28.966  27.601  1.00  0.00     0.167 HD
ATOM     63  C   UNL A   1      47.122  26.537  26.647  1.00  0.00     0.074 A 
ATOM     64  C   UNL A   1      47.253  25.144  26.267  1.00  0.00     0.031 C 
ATOM     65  C   UNL A   1      48.132  27.440  26.589  1.00  0.00     0.031 A 
BRANCH  52  66
ATOM     66  C   UNL A   1      46.551  33.113  28.492  1.00  0.00    -0.014 A 
ATOM     67  C   UNL A   1      46.729  33.987  27.403  1.00  0.00     0.010 A 
ATOM     68  C   UNL A   1      46.727  33.608  29.797  1.00  0.00     0.010 A 
ATOM     69  C   UNL A   1      47.119  35.312  27.612  1.00  0.00     0.020 A 
ATOM     70  C   UNL A   1      47.084  34.943  30.013  1.00  0.00     0.020 A 
ATOM     71  C   UNL A   1      47.295  35.782  28.917  1.00  0.00     0.054 A 
BRANCH  71  72
ATOM     72  S   UNL A   1      47.778  37.514  29.159  1.00  0.00     0.124 S 
ATOM     73  O   UNL A   1      46.979  37.890  30.321  1.00  0.00    -0.237 OA
ATOM     74  O   UNL A   1      49.217  37.414  29.390  1.00  0.00    -0.237 OA
ATOM     75  O   UNL A   1      47.396  38.158  27.905  1.00  0.00    -0.744 OA
ENDBRANCH  71  72
ENDBRANCH  52  66
BRANCH  53  76
ATOM     76  C   UNL A   1      43.342  23.748  27.021  1.00  0.00    -0.014 A 
ATOM     77  C   UNL A   1      43.389  22.789  28.048  1.00  0.00     0.010 A 
ATOM     78  C   UNL A   1      42.834  23.377  25.763  1.00  0.00     0.010 A 
ATOM     79  C   UNL A   1      42.962  21.478  27.814  1.00  0.00     0.020 A 
ATOM     80  C   UNL A   1      42.375  22.076  25.536  1.00  0.00     0.020 A 
ATOM     81  C   UNL A   1      42.456  21.131  26.560  1.00  0.00     0.054 A 
BRANCH  81  82
ATOM     82  S   UNL A   1      41.864  19.437  26.292  1.00  0.00     0.124 S 
ATOM     83  O   UNL A   1      40.425  19.635  26.161  1.00  0.00    -0.237 OA
ATOM     84  O   UNL A   1      42.566  19.048  25.072  1.00  0.00    -0.237 OA
ATOM     85  O   UNL A   1      42.292  18.732  27.499  1.00  0.00    -0.744 OA
ENDBRANCH  81  82
ENDBRANCH  53  76
BRANCH  65  86
ATOM     86  C   UNL A   1      49.480  26.938  26.140  1.00  0.00    -0.014 A 
ATOM     87  C   UNL A   1      50.362  26.297  27.028  1.00  0.00     0.010 A 
ATOM     88  C   UNL A   1      49.863  27.101  24.796  1.00  0.00     0.010 A 
ATOM     89  C   UNL A   1      51.625  25.884  26.595  1.00  0.00     0.020 A 
ATOM     90  C   UNL A   1      51.109  26.656  24.350  1.00  0.00     0.020 A 
ATOM     91  C   UNL A   1      51.992  26.072  25.259  1.00  0.00     0.054 A 
BRANCH  91  92
ATOM     92  S   UNL A   1      53.636  25.529  24.720  1.00  0.00     0.124 S 
ATOM     93  O   UNL A   1      54.495  26.083  25.762  1.00  0.00    -0.237 OA
ATOM     94  O   UNL A   1      53.508  24.073  24.719  1.00  0.00    -0.237 OA
ATOM     95  O   UNL A   1      53.787  26.135  23.400  1.00  0.00    -0.744 OA
ENDBRANCH  91  92
ENDBRANCH  65  86
ENDBRANCH  39  40
ENDBRANCH  31  34
ENDBRANCH  29  30
ENDBRANCH  28  29
ENDBRANCH  27  28
ENDBRANCH   1  27
TORSDOF 20
ENDMDL
