MODEL 1
REMARK VINA RESULT:     -11.7      0.000      0.000
REMARK SMILES COC(=O)c1c(NC(=O)[C@@H]2C[C@@H]2C(=O)NCCCCCCNC(=O)c2ccc(-c3c4nc(c(-c5ccc(S(=O)(=O)[O-])cc5)c5ccc([nH]5)c(-c5ccc(S(=O)(=O)[O-])cc5)c5nc(c(-c6ccc(S(=O)(=O)[O-])cc6)c6ccc3[nH]6)C=C5)C=C4)cc2)sc2c1CC[N@@H+](Cc1ccccc1)C2
REMARK SMILES IDX 18 1 17 2 16 3 15 4 13 5 14 6 12 8 10 9 11 10 8 11 7 12 9 14
REMARK SMILES IDX 6 15 5 16 87 17 85 18 86 19 88 20 98 21 89 22 90 23 3 25
REMARK SMILES IDX 4 26 2 27 1 28 91 29 92 30 93 31 97 32 94 33 96 34 95 35
REMARK SMILES IDX 19 36 20 37 21 38 22 39 23 40 24 42 25 43 26 44 84 45 27 46
REMARK SMILES IDX 83 47 28 48 29 49 30 50 77 51 31 52 82 53 76 54 78 55 32 56
REMARK SMILES IDX 81 57 75 58 74 59 33 61 63 62 44 63 62 64 45 65 48 66 61 67
REMARK SMILES IDX 79 68 46 69 47 70 60 72 80 73 49 74 34 75 35 76 43 77 36 78
REMARK SMILES IDX 42 79 37 80 38 81 39 82 40 83 41 84 64 85 65 86 73 87 66 88
REMARK SMILES IDX 72 89 67 90 68 91 69 92 70 93 71 94 50 95 51 96 59 97 52 98
REMARK SMILES IDX 58 99 53 100 54 101 55 102 56 103 57 104
REMARK H PARENT 15 7 7 13 90 24 22 41 78 60 48 71
REMARK Flexibility Score: inf
ROOT
ATOM      1  C   UNL A   1      38.126  23.797  26.531  1.00  0.00     0.002 C 
ENDROOT
BRANCH   1   2
ATOM      2  C   UNL A   1      38.028  23.863  25.006  1.00  0.00     0.021 C 
BRANCH   2   3
ATOM      3  C   UNL A   1      36.675  23.453  24.427  1.00  0.00     0.116 C 
BRANCH   3   4
ATOM      4  N   UNL A   1      36.515  22.018  24.378  1.00  0.00    -0.356 N 
ATOM      5  C   UNL A   1      35.856  21.191  25.239  1.00  0.00     0.223 C 
ATOM      6  O   UNL A   1      35.767  19.993  24.978  1.00  0.00    -0.275 OA
ATOM      7  H   UNL A   1      36.945  21.572  23.613  1.00  0.00     0.163 HD
BRANCH   5   8
ATOM      8  C   UNL A   1      35.171  21.753  26.435  1.00  0.00     0.091 C 
ATOM      9  C   UNL A   1      33.668  21.741  26.644  1.00  0.00     0.092 C 
ATOM     10  C   UNL A   1      34.351  23.006  26.203  1.00  0.00     0.028 C 
BRANCH   9  11
ATOM     11  C   UNL A   1      32.802  20.949  25.766  1.00  0.00     0.228 C 
ATOM     12  N   UNL A   1      32.006  21.559  24.843  1.00  0.00    -0.317 N 
ATOM     13  H   UNL A   1      31.547  20.908  24.265  1.00  0.00     0.170 HD
ATOM     14  O   UNL A   1      32.815  19.723  25.842  1.00  0.00    -0.274 OA
BRANCH  12  15
ATOM     15  C   UNL A   1      31.682  22.859  24.518  1.00  0.00     0.110 A 
ATOM     16  C   UNL A   1      31.178  24.039  25.057  1.00  0.00     0.098 A 
ATOM     17  C   UNL A   1      31.027  25.045  24.015  1.00  0.00    -0.006 A 
ATOM     18  S   UNL A   1      31.975  23.004  22.822  1.00  0.00    -0.116 S 
ATOM     19  C   UNL A   1      31.542  24.630  22.808  1.00  0.00     0.065 A 
ATOM     20  C   UNL A   1      30.574  26.471  24.196  1.00  0.00     0.099 C 
ATOM     21  C   UNL A   1      31.785  25.520  21.628  1.00  0.00     0.310 C 
ATOM     22  C   UNL A   1      30.823  27.341  22.936  1.00  0.00     0.267 C 
ATOM     23  N   UNL A   1      31.909  26.930  22.033  1.00  0.00    -0.326 N 
ATOM     24  H   UNL A   1      31.771  27.487  21.191  1.00  0.00     0.348 HD
BRANCH  16  25
ATOM     25  C   UNL A   1      30.794  24.362  26.429  1.00  0.00     0.341 C 
ATOM     26  O   UNL A   1      30.748  25.510  26.846  1.00  0.00    -0.246 OA
BRANCH  25  27
ATOM     27  O   UNL A   1      30.593  23.266  27.214  1.00  0.00    -0.465 OA
ATOM     28  C   UNL A   1      29.274  22.714  27.159  1.00  0.00     0.282 C 
ENDBRANCH  25  27
ENDBRANCH  16  25
BRANCH  23  29
ATOM     29  C   UNL A   1      33.273  27.336  22.436  1.00  0.00     0.299 C 
BRANCH  29  30
ATOM     30  C   UNL A   1      33.511  27.676  23.894  1.00  0.00     0.006 A 
ATOM     31  C   UNL A   1      33.267  28.971  24.378  1.00  0.00     0.009 A 
ATOM     32  C   UNL A   1      33.943  26.697  24.801  1.00  0.00     0.009 A 
ATOM     33  C   UNL A   1      33.354  29.248  25.745  1.00  0.00     0.001 A 
ATOM     34  C   UNL A   1      34.009  26.968  26.168  1.00  0.00     0.001 A 
ATOM     35  C   UNL A   1      33.700  28.240  26.642  1.00  0.00     0.000 A 
ENDBRANCH  29  30
ENDBRANCH  23  29
ENDBRANCH  12  15
ENDBRANCH   9  11
ENDBRANCH   5   8
ENDBRANCH   3   4
ENDBRANCH   2   3
ENDBRANCH   1   2
BRANCH   1  36
ATOM     36  C   UNL A   1      39.404  23.166  27.099  1.00  0.00     0.002 C 
BRANCH  36  37
ATOM     37  C   UNL A   1      39.793  21.784  26.557  1.00  0.00     0.021 C 
BRANCH  37  38
ATOM     38  C   UNL A   1      40.857  21.059  27.371  1.00  0.00     0.116 C 
BRANCH  38  39
ATOM     39  N   UNL A   1      42.100  20.844  26.625  1.00  0.00    -0.352 N 
ATOM     40  C   UNL A   1      42.935  21.779  26.041  1.00  0.00     0.251 C 
ATOM     41  H   UNL A   1      42.379  19.905  26.526  1.00  0.00     0.163 HD
ATOM     42  O   UNL A   1      43.698  21.452  25.139  1.00  0.00    -0.269 OA
BRANCH  40  43
ATOM     43  C   UNL A   1      42.900  23.174  26.522  1.00  0.00     0.039 A 
ATOM     44  C   UNL A   1      42.460  24.230  25.717  1.00  0.00     0.014 A 
ATOM     45  C   UNL A   1      43.316  23.414  27.826  1.00  0.00     0.014 A 
ATOM     46  C   UNL A   1      42.375  25.506  26.273  1.00  0.00     0.010 A 
ATOM     47  C   UNL A   1      43.033  24.608  28.427  1.00  0.00     0.010 A 
ATOM     48  C   UNL A   1      42.648  25.681  27.639  1.00  0.00    -0.014 A 
BRANCH  48  49
ATOM     49  C   UNL A   1      42.439  26.954  28.314  1.00  0.00     0.031 A 
ATOM     50  C   UNL A   1      43.508  27.947  28.058  1.00  0.00     0.074 A 
ATOM     51  C   UNL A   1      41.273  27.295  28.906  1.00  0.00     0.049 A 
ATOM     52  N   UNL A   1      44.471  28.276  28.852  1.00  0.00    -0.248 NA
ATOM     53  C   UNL A   1      43.642  28.494  26.697  1.00  0.00     0.031 C 
ATOM     54  C   UNL A   1      40.019  26.530  28.950  1.00  0.00     0.029 A 
ATOM     55  N   UNL A   1      40.921  28.467  29.500  1.00  0.00    -0.354 N 
ATOM     56  C   UNL A   1      45.153  29.293  28.196  1.00  0.00     0.074 A 
ATOM     57  C   UNL A   1      44.775  29.190  26.809  1.00  0.00     0.031 C 
ATOM     58  C   UNL A   1      39.002  27.341  29.314  1.00  0.00     0.029 A 
ATOM     59  C   UNL A   1      39.553  28.627  29.701  1.00  0.00     0.049 A 
ATOM     60  H   UNL A   1      41.581  29.148  29.766  1.00  0.00     0.167 HD
ATOM     61  C   UNL A   1      45.688  30.336  28.893  1.00  0.00     0.031 A 
ATOM     62  C   UNL A   1      38.916  29.743  30.138  1.00  0.00     0.031 A 
ATOM     63  C   UNL A   1      45.699  30.068  30.314  1.00  0.00     0.049 A 
ATOM     64  C   UNL A   1      39.928  30.563  30.845  1.00  0.00     0.074 A 
ATOM     65  C   UNL A   1      46.209  29.073  31.123  1.00  0.00     0.029 A 
ATOM     66  N   UNL A   1      44.737  30.708  31.062  1.00  0.00    -0.354 N 
ATOM     67  N   UNL A   1      40.502  30.187  31.953  1.00  0.00    -0.248 NA
ATOM     68  C   UNL A   1      40.640  31.581  30.089  1.00  0.00     0.031 C 
ATOM     69  C   UNL A   1      45.221  28.872  32.133  1.00  0.00     0.029 A 
ATOM     70  C   UNL A   1      44.201  29.805  31.940  1.00  0.00     0.049 A 
ATOM     71  H   UNL A   1      44.478  31.655  30.980  1.00  0.00     0.167 HD
ATOM     72  C   UNL A   1      41.830  30.563  31.807  1.00  0.00     0.074 A 
ATOM     73  C   UNL A   1      41.828  31.515  30.696  1.00  0.00     0.031 C 
ATOM     74  C   UNL A   1      42.830  29.851  32.407  1.00  0.00     0.031 A 
BRANCH  61  75
ATOM     75  C   UNL A   1      45.734  31.756  28.367  1.00  0.00    -0.014 A 
ATOM     76  C   UNL A   1      46.938  32.478  28.509  1.00  0.00     0.010 A 
ATOM     77  C   UNL A   1      44.584  32.498  28.028  1.00  0.00     0.010 A 
ATOM     78  C   UNL A   1      46.960  33.876  28.430  1.00  0.00     0.020 A 
ATOM     79  C   UNL A   1      44.606  33.886  27.897  1.00  0.00     0.020 A 
ATOM     80  C   UNL A   1      45.786  34.570  28.141  1.00  0.00     0.054 A 
BRANCH  80  81
ATOM     81  S   UNL A   1      45.798  36.377  28.158  1.00  0.00     0.124 S 
ATOM     82  O   UNL A   1      44.785  36.670  29.167  1.00  0.00    -0.237 OA
ATOM     83  O   UNL A   1      47.177  36.671  28.536  1.00  0.00    -0.237 OA
ATOM     84  O   UNL A   1      45.442  36.732  26.786  1.00  0.00    -0.744 OA
ENDBRANCH  80  81
ENDBRANCH  61  75
BRANCH  62  85
ATOM     85  C   UNL A   1      37.589  30.275  29.738  1.00  0.00    -0.014 A 
ATOM     86  C   UNL A   1      36.737  30.883  30.682  1.00  0.00     0.010 A 
ATOM     87  C   UNL A   1      37.284  30.454  28.372  1.00  0.00     0.010 A 
ATOM     88  C   UNL A   1      35.671  31.704  30.275  1.00  0.00     0.020 A 
ATOM     89  C   UNL A   1      36.218  31.265  27.960  1.00  0.00     0.020 A 
ATOM     90  C   UNL A   1      35.434  31.910  28.914  1.00  0.00     0.054 A 
BRANCH  90  91
ATOM     91  S   UNL A   1      34.186  33.125  28.391  1.00  0.00     0.124 S 
ATOM     92  O   UNL A   1      33.746  33.689  29.664  1.00  0.00    -0.237 OA
ATOM     93  O   UNL A   1      34.955  34.023  27.533  1.00  0.00    -0.237 OA
ATOM     94  O   UNL A   1      33.189  32.312  27.695  1.00  0.00    -0.744 OA
ENDBRANCH  90  91
ENDBRANCH  62  85
BRANCH  74  95
ATOM     95  C   UNL A   1      42.463  28.884  33.510  1.00  0.00    -0.014 A 
ATOM     96  C   UNL A   1      42.173  27.520  33.312  1.00  0.00     0.010 A 
ATOM     97  C   UNL A   1      42.541  29.366  34.829  1.00  0.00     0.010 A 
ATOM     98  C   UNL A   1      41.931  26.673  34.405  1.00  0.00     0.020 A 
ATOM     99  C   UNL A   1      42.320  28.526  35.920  1.00  0.00     0.020 A 
ATOM    100  C   UNL A   1      42.004  27.185  35.705  1.00  0.00     0.054 A 
BRANCH 100 101
ATOM    101  S   UNL A   1      41.710  26.087  37.120  1.00  0.00     0.124 S 
ATOM    102  O   UNL A   1      42.838  26.391  37.997  1.00  0.00    -0.237 OA
ATOM    103  O   UNL A   1      40.402  26.521  37.603  1.00  0.00    -0.237 OA
ATOM    104  O   UNL A   1      41.730  24.748  36.532  1.00  0.00    -0.744 OA
ENDBRANCH 100 101
ENDBRANCH  74  95
ENDBRANCH  48  49
ENDBRANCH  40  43
ENDBRANCH  38  39
ENDBRANCH  37  38
ENDBRANCH  36  37
ENDBRANCH   1  36
TORSDOF 22
ENDMDL
MODEL 2
REMARK VINA RESULT:     -11.4      2.747      9.250
REMARK SMILES COC(=O)c1c(NC(=O)[C@@H]2C[C@@H]2C(=O)NCCCCCCNC(=O)c2ccc(-c3c4nc(c(-c5ccc(S(=O)(=O)[O-])cc5)c5ccc([nH]5)c(-c5ccc(S(=O)(=O)[O-])cc5)c5nc(c(-c6ccc(S(=O)(=O)[O-])cc6)c6ccc3[nH]6)C=C5)C=C4)cc2)sc2c1CC[N@@H+](Cc1ccccc1)C2
REMARK SMILES IDX 18 1 17 2 16 3 15 4 13 5 14 6 12 8 10 9 11 10 8 11 7 12 9 14
REMARK SMILES IDX 6 15 5 16 87 17 85 18 86 19 88 20 98 21 89 22 90 23 3 25
REMARK SMILES IDX 4 26 2 27 1 28 91 29 92 30 93 31 97 32 94 33 96 34 95 35
REMARK SMILES IDX 19 36 20 37 21 38 22 39 23 40 24 42 25 43 26 44 84 45 27 46
REMARK SMILES IDX 83 47 28 48 29 49 30 50 77 51 31 52 82 53 76 54 78 55 32 56
REMARK SMILES IDX 81 57 75 58 74 59 33 61 63 62 44 63 62 64 45 65 48 66 61 67
REMARK SMILES IDX 79 68 46 69 47 70 60 72 80 73 49 74 34 75 35 76 43 77 36 78
REMARK SMILES IDX 42 79 37 80 38 81 39 82 40 83 41 84 64 85 65 86 73 87 66 88
REMARK SMILES IDX 72 89 67 90 68 91 69 92 70 93 71 94 50 95 51 96 59 97 52 98
REMARK SMILES IDX 58 99 53 100 54 101 55 102 56 103 57 104
REMARK H PARENT 15 7 7 13 90 24 22 41 78 60 48 71
REMARK Flexibility Score: inf
ROOT
ATOM      1  C   UNL A   1      33.874  33.543  27.925  1.00  0.00     0.002 C 
ENDROOT
BRANCH   1   2
ATOM      2  C   UNL A   1      34.695  32.372  28.469  1.00  0.00     0.021 C 
BRANCH   2   3
ATOM      3  C   UNL A   1      34.720  31.132  27.577  1.00  0.00     0.116 C 
BRANCH   3   4
ATOM      4  N   UNL A   1      33.575  30.278  27.797  1.00  0.00    -0.356 N 
ATOM      5  C   UNL A   1      33.161  29.188  27.091  1.00  0.00     0.223 C 
ATOM      6  O   UNL A   1      32.194  28.542  27.488  1.00  0.00    -0.275 OA
ATOM      7  H   UNL A   1      33.013  30.518  28.569  1.00  0.00     0.163 HD
BRANCH   5   8
ATOM      8  C   UNL A   1      33.932  28.734  25.901  1.00  0.00     0.091 C 
ATOM      9  C   UNL A   1      33.303  28.177  24.637  1.00  0.00     0.092 C 
ATOM     10  C   UNL A   1      33.929  27.242  25.636  1.00  0.00     0.028 C 
BRANCH   9  11
ATOM     11  C   UNL A   1      31.857  28.270  24.423  1.00  0.00     0.228 C 
ATOM     12  N   UNL A   1      31.091  27.145  24.357  1.00  0.00    -0.317 N 
ATOM     13  H   UNL A   1      30.131  27.356  24.299  1.00  0.00     0.170 HD
ATOM     14  O   UNL A   1      31.324  29.374  24.331  1.00  0.00    -0.274 OA
BRANCH  12  15
ATOM     15  C   UNL A   1      31.324  25.786  24.350  1.00  0.00     0.110 A 
ATOM     16  C   UNL A   1      31.868  24.764  23.578  1.00  0.00     0.098 A 
ATOM     17  C   UNL A   1      31.667  23.478  24.231  1.00  0.00    -0.006 A 
ATOM     18  S   UNL A   1      30.629  25.184  25.812  1.00  0.00    -0.116 S 
ATOM     19  C   UNL A   1      31.124  23.609  25.490  1.00  0.00     0.065 A 
ATOM     20  C   UNL A   1      32.162  22.136  23.755  1.00  0.00     0.099 C 
ATOM     21  C   UNL A   1      31.051  22.515  26.510  1.00  0.00     0.310 C 
ATOM     22  C   UNL A   1      32.038  21.035  24.840  1.00  0.00     0.267 C 
ATOM     23  N   UNL A   1      32.049  21.465  26.247  1.00  0.00    -0.326 N 
ATOM     24  H   UNL A   1      31.752  20.644  26.772  1.00  0.00     0.348 HD
BRANCH  16  25
ATOM     25  C   UNL A   1      32.547  24.816  22.285  1.00  0.00     0.341 C 
ATOM     26  O   UNL A   1      33.569  24.185  22.055  1.00  0.00    -0.246 OA
BRANCH  25  27
ATOM     27  O   UNL A   1      31.992  25.700  21.410  1.00  0.00    -0.465 OA
ATOM     28  C   UNL A   1      32.490  25.623  20.071  1.00  0.00     0.282 C 
ENDBRANCH  25  27
ENDBRANCH  16  25
BRANCH  23  29
ATOM     29  C   UNL A   1      33.382  21.724  26.833  1.00  0.00     0.299 C 
BRANCH  29  30
ATOM     30  C   UNL A   1      34.465  22.266  25.922  1.00  0.00     0.006 A 
ATOM     31  C   UNL A   1      35.222  21.403  25.115  1.00  0.00     0.009 A 
ATOM     32  C   UNL A   1      34.711  23.644  25.835  1.00  0.00     0.009 A 
ATOM     33  C   UNL A   1      36.124  21.913  24.175  1.00  0.00     0.001 A 
ATOM     34  C   UNL A   1      35.595  24.155  24.884  1.00  0.00     0.001 A 
ATOM     35  C   UNL A   1      36.290  23.289  24.043  1.00  0.00     0.000 A 
ENDBRANCH  29  30
ENDBRANCH  23  29
ENDBRANCH  12  15
ENDBRANCH   9  11
ENDBRANCH   5   8
ENDBRANCH   3   4
ENDBRANCH   2   3
ENDBRANCH   1   2
BRANCH   1  36
ATOM     36  C   UNL A   1      34.230  34.930  28.476  1.00  0.00     0.002 C 
BRANCH  36  37
ATOM     37  C   UNL A   1      33.196  35.596  29.394  1.00  0.00     0.021 C 
BRANCH  37  38
ATOM     38  C   UNL A   1      33.778  36.228  30.652  1.00  0.00     0.116 C 
BRANCH  38  39
ATOM     39  N   UNL A   1      33.254  35.636  31.886  1.00  0.00    -0.352 N 
ATOM     40  C   UNL A   1      33.569  34.421  32.467  1.00  0.00     0.251 C 
ATOM     41  H   UNL A   1      32.586  36.177  32.366  1.00  0.00     0.163 HD
ATOM     42  O   UNL A   1      32.793  33.889  33.253  1.00  0.00    -0.269 OA
BRANCH  40  43
ATOM     43  C   UNL A   1      34.853  33.775  32.133  1.00  0.00     0.039 A 
ATOM     44  C   UNL A   1      36.056  34.487  32.087  1.00  0.00     0.014 A 
ATOM     45  C   UNL A   1      34.837  32.411  31.870  1.00  0.00     0.014 A 
ATOM     46  C   UNL A   1      37.239  33.789  31.848  1.00  0.00     0.010 A 
ATOM     47  C   UNL A   1      36.005  31.702  31.850  1.00  0.00     0.010 A 
ATOM     48  C   UNL A   1      37.204  32.389  31.749  1.00  0.00    -0.014 A 
BRANCH  48  49
ATOM     49  C   UNL A   1      38.416  31.588  31.647  1.00  0.00     0.031 A 
ATOM     50  C   UNL A   1      39.074  31.333  32.949  1.00  0.00     0.074 A 
ATOM     51  C   UNL A   1      38.775  30.929  30.523  1.00  0.00     0.049 A 
ATOM     52  N   UNL A   1      40.123  31.921  33.419  1.00  0.00    -0.248 NA
ATOM     53  C   UNL A   1      38.383  30.472  33.923  1.00  0.00     0.031 C 
ATOM     54  C   UNL A   1      38.040  30.832  29.254  1.00  0.00     0.029 A 
ATOM     55  N   UNL A   1      39.829  30.096  30.314  1.00  0.00    -0.354 N 
ATOM     56  C   UNL A   1      40.390  31.282  34.623  1.00  0.00     0.074 A 
ATOM     57  C   UNL A   1      39.167  30.615  34.994  1.00  0.00     0.031 C 
ATOM     58  C   UNL A   1      38.536  29.815  28.515  1.00  0.00     0.029 A 
ATOM     59  C   UNL A   1      39.728  29.309  29.169  1.00  0.00     0.049 A 
ATOM     60  H   UNL A   1      40.601  30.052  30.923  1.00  0.00     0.167 HD
ATOM     61  C   UNL A   1      41.673  31.067  35.030  1.00  0.00     0.031 A 
ATOM     62  C   UNL A   1      40.557  28.301  28.795  1.00  0.00     0.031 A 
ATOM     63  C   UNL A   1      42.611  31.823  34.229  1.00  0.00     0.049 A 
ATOM     64  C   UNL A   1      41.840  28.516  29.507  1.00  0.00     0.074 A 
ATOM     65  C   UNL A   1      42.779  33.155  33.906  1.00  0.00     0.029 A 
ATOM     66  N   UNL A   1      43.317  31.113  33.285  1.00  0.00    -0.354 N 
ATOM     67  N   UNL A   1      42.617  29.538  29.281  1.00  0.00    -0.248 NA
ATOM     68  C   UNL A   1      42.037  27.855  30.786  1.00  0.00     0.031 C 
ATOM     69  C   UNL A   1      43.186  33.157  32.538  1.00  0.00     0.029 A 
ATOM     70  C   UNL A   1      43.325  31.832  32.120  1.00  0.00     0.049 A 
ATOM     71  H   UNL A   1      43.744  30.235  33.423  1.00  0.00     0.167 HD
ATOM     72  C   UNL A   1      43.064  29.925  30.536  1.00  0.00     0.074 A 
ATOM     73  C   UNL A   1      42.767  28.786  31.405  1.00  0.00     0.031 C 
ATOM     74  C   UNL A   1      43.361  31.232  30.802  1.00  0.00     0.031 A 
BRANCH  61  75
ATOM     75  C   UNL A   1      42.115  29.833  35.789  1.00  0.00    -0.014 A 
ATOM     76  C   UNL A   1      43.309  29.903  36.536  1.00  0.00     0.010 A 
ATOM     77  C   UNL A   1      41.585  28.546  35.557  1.00  0.00     0.010 A 
ATOM     78  C   UNL A   1      43.992  28.745  36.927  1.00  0.00     0.020 A 
ATOM     79  C   UNL A   1      42.232  27.387  35.986  1.00  0.00     0.020 A 
ATOM     80  C   UNL A   1      43.454  27.494  36.631  1.00  0.00     0.054 A 
BRANCH  80  81
ATOM     81  S   UNL A   1      44.397  26.005  37.032  1.00  0.00     0.124 S 
ATOM     82  O   UNL A   1      45.133  25.779  35.792  1.00  0.00    -0.237 OA
ATOM     83  O   UNL A   1      45.194  26.446  38.173  1.00  0.00    -0.237 OA
ATOM     84  O   UNL A   1      43.363  25.020  37.340  1.00  0.00    -0.744 OA
ENDBRANCH  80  81
ENDBRANCH  61  75
BRANCH  62  85
ATOM     85  C   UNL A   1      40.224  27.028  28.109  1.00  0.00    -0.014 A 
ATOM     86  C   UNL A   1      40.879  26.653  26.919  1.00  0.00     0.010 A 
ATOM     87  C   UNL A   1      39.475  26.040  28.782  1.00  0.00     0.010 A 
ATOM     88  C   UNL A   1      40.853  25.323  26.464  1.00  0.00     0.020 A 
ATOM     89  C   UNL A   1      39.439  24.714  28.331  1.00  0.00     0.020 A 
ATOM     90  C   UNL A   1      40.153  24.355  27.189  1.00  0.00     0.054 A 
BRANCH  90  91
ATOM     91  S   UNL A   1      40.284  22.604  26.714  1.00  0.00     0.124 S 
ATOM     92  O   UNL A   1      41.481  22.597  25.878  1.00  0.00    -0.237 OA
ATOM     93  O   UNL A   1      40.409  21.933  28.004  1.00  0.00    -0.237 OA
ATOM     94  O   UNL A   1      39.031  22.349  26.005  1.00  0.00    -0.744 OA
ENDBRANCH  90  91
ENDBRANCH  62  85
BRANCH  74  95
ATOM     95  C   UNL A   1      43.549  32.179  29.638  1.00  0.00    -0.014 A 
ATOM     96  C   UNL A   1      42.771  33.331  29.414  1.00  0.00     0.010 A 
ATOM     97  C   UNL A   1      44.654  31.946  28.801  1.00  0.00     0.010 A 
ATOM     98  C   UNL A   1      43.072  34.205  28.357  1.00  0.00     0.020 A 
ATOM     99  C   UNL A   1      44.971  32.820  27.761  1.00  0.00     0.020 A 
ATOM    100  C   UNL A   1      44.172  33.940  27.534  1.00  0.00     0.054 A 
BRANCH 100 101
ATOM    101  S   UNL A   1      44.575  35.079  26.179  1.00  0.00     0.124 S 
ATOM    102  O   UNL A   1      43.294  35.728  25.919  1.00  0.00    -0.237 OA
ATOM    103  O   UNL A   1      45.606  35.931  26.767  1.00  0.00    -0.237 OA
ATOM    104  O   UNL A   1      45.048  34.197  25.112  1.00  0.00    -0.744 OA
ENDBRANCH 100 101
ENDBRANCH  74  95
ENDBRANCH  48  49
ENDBRANCH  40  43
ENDBRANCH  38  39
ENDBRANCH  37  38
ENDBRANCH  36  37
ENDBRANCH   1  36
TORSDOF 22
ENDMDL
MODEL 3
REMARK VINA RESULT:     -11.3      1.401      1.963
REMARK SMILES COC(=O)c1c(NC(=O)[C@@H]2C[C@@H]2C(=O)NCCCCCCNC(=O)c2ccc(-c3c4nc(c(-c5ccc(S(=O)(=O)[O-])cc5)c5ccc([nH]5)c(-c5ccc(S(=O)(=O)[O-])cc5)c5nc(c(-c6ccc(S(=O)(=O)[O-])cc6)c6ccc3[nH]6)C=C5)C=C4)cc2)sc2c1CC[N@@H+](Cc1ccccc1)C2
REMARK SMILES IDX 18 1 17 2 16 3 15 4 13 5 14 6 12 8 10 9 11 10 8 11 7 12 9 14
REMARK SMILES IDX 6 15 5 16 87 17 85 18 86 19 88 20 98 21 89 22 90 23 3 25
REMARK SMILES IDX 4 26 2 27 1 28 91 29 92 30 93 31 97 32 94 33 96 34 95 35
REMARK SMILES IDX 19 36 20 37 21 38 22 39 23 40 24 42 25 43 26 44 84 45 27 46
REMARK SMILES IDX 83 47 28 48 29 49 30 50 77 51 31 52 82 53 76 54 78 55 32 56
REMARK SMILES IDX 81 57 75 58 74 59 33 61 63 62 44 63 62 64 45 65 48 66 61 67
REMARK SMILES IDX 79 68 46 69 47 70 60 72 80 73 49 74 34 75 35 76 43 77 36 78
REMARK SMILES IDX 42 79 37 80 38 81 39 82 40 83 41 84 64 85 65 86 73 87 66 88
REMARK SMILES IDX 72 89 67 90 68 91 69 92 70 93 71 94 50 95 51 96 59 97 52 98
REMARK SMILES IDX 58 99 53 100 54 101 55 102 56 103 57 104
REMARK H PARENT 15 7 7 13 90 24 22 41 78 60 48 71
REMARK Flexibility Score: inf
ROOT
ATOM      1  C   UNL A   1      40.202  23.273  27.639  1.00  0.00     0.002 C 
ENDROOT
BRANCH   1   2
ATOM      2  C   UNL A   1      39.367  23.677  26.422  1.00  0.00     0.021 C 
BRANCH   2   3
ATOM      3  C   UNL A   1      38.217  22.731  26.084  1.00  0.00     0.116 C 
BRANCH   3   4
ATOM      4  N   UNL A   1      36.950  23.209  26.587  1.00  0.00    -0.356 N 
ATOM      5  C   UNL A   1      35.834  23.586  25.902  1.00  0.00     0.223 C 
ATOM      6  O   UNL A   1      34.818  23.894  26.522  1.00  0.00    -0.275 OA
ATOM      7  H   UNL A   1      36.883  23.271  27.568  1.00  0.00     0.163 HD
BRANCH   5   8
ATOM      8  C   UNL A   1      35.821  23.538  24.414  1.00  0.00     0.091 C 
ATOM      9  C   UNL A   1      34.963  22.589  23.598  1.00  0.00     0.092 C 
ATOM     10  C   UNL A   1      36.427  22.300  23.785  1.00  0.00     0.028 C 
BRANCH   9  11
ATOM     11  C   UNL A   1      33.903  21.807  24.239  1.00  0.00     0.228 C 
ATOM     12  N   UNL A   1      32.666  22.344  24.436  1.00  0.00    -0.317 N 
ATOM     13  H   UNL A   1      32.030  21.683  24.794  1.00  0.00     0.170 HD
ATOM     14  O   UNL A   1      34.122  20.645  24.577  1.00  0.00    -0.274 OA
BRANCH  12  15
ATOM     15  C   UNL A   1      32.083  23.581  24.260  1.00  0.00     0.110 A 
ATOM     16  C   UNL A   1      31.403  24.587  24.940  1.00  0.00     0.098 A 
ATOM     17  C   UNL A   1      30.998  25.635  24.013  1.00  0.00    -0.006 A 
ATOM     18  S   UNL A   1      32.232  23.933  22.575  1.00  0.00    -0.116 S 
ATOM     19  C   UNL A   1      31.502  25.439  22.747  1.00  0.00     0.065 A 
ATOM     20  C   UNL A   1      30.299  26.925  24.359  1.00  0.00     0.099 C 
ATOM     21  C   UNL A   1      31.496  26.463  21.654  1.00  0.00     0.310 C 
ATOM     22  C   UNL A   1      30.297  27.937  23.184  1.00  0.00     0.267 C 
ATOM     23  N   UNL A   1      31.380  27.827  22.195  1.00  0.00    -0.326 N 
ATOM     24  H   UNL A   1      31.085  28.422  21.420  1.00  0.00     0.348 HD
BRANCH  16  25
ATOM     25  C   UNL A   1      31.057  24.704  26.354  1.00  0.00     0.341 C 
ATOM     26  O   UNL A   1      30.900  25.784  26.905  1.00  0.00    -0.246 OA
BRANCH  25  27
ATOM     27  O   UNL A   1      31.024  23.510  27.010  1.00  0.00    -0.465 OA
ATOM     28  C   UNL A   1      29.732  22.901  27.099  1.00  0.00     0.282 C 
ENDBRANCH  25  27
ENDBRANCH  16  25
BRANCH  23  29
ATOM     29  C   UNL A   1      32.667  28.451  22.572  1.00  0.00     0.299 C 
BRANCH  29  30
ATOM     30  C   UNL A   1      33.065  28.426  24.034  1.00  0.00     0.006 A 
ATOM     31  C   UNL A   1      32.649  29.441  24.909  1.00  0.00     0.009 A 
ATOM     32  C   UNL A   1      33.828  27.370  24.555  1.00  0.00     0.009 A 
ATOM     33  C   UNL A   1      32.900  29.346  26.281  1.00  0.00     0.001 A 
ATOM     34  C   UNL A   1      34.060  27.263  25.927  1.00  0.00     0.001 A 
ATOM     35  C   UNL A   1      33.583  28.245  26.792  1.00  0.00     0.000 A 
ENDBRANCH  29  30
ENDBRANCH  23  29
ENDBRANCH  12  15
ENDBRANCH   9  11
ENDBRANCH   5   8
ENDBRANCH   3   4
ENDBRANCH   2   3
ENDBRANCH   1   2
BRANCH   1  36
ATOM     36  C   UNL A   1      40.760  21.844  27.631  1.00  0.00     0.002 C 
BRANCH  36  37
ATOM     37  C   UNL A   1      41.203  21.282  26.273  1.00  0.00     0.021 C 
BRANCH  37  38
ATOM     38  C   UNL A   1      42.518  20.515  26.302  1.00  0.00     0.116 C 
BRANCH  38  39
ATOM     39  N   UNL A   1      43.437  20.912  25.233  1.00  0.00    -0.352 N 
ATOM     40  C   UNL A   1      43.790  22.185  24.820  1.00  0.00     0.251 C 
ATOM     41  H   UNL A   1      43.862  20.173  24.741  1.00  0.00     0.163 HD
ATOM     42  O   UNL A   1      44.241  22.369  23.695  1.00  0.00    -0.269 OA
BRANCH  40  43
ATOM     43  C   UNL A   1      43.622  23.316  25.752  1.00  0.00     0.039 A 
ATOM     44  C   UNL A   1      44.207  23.329  27.022  1.00  0.00     0.014 A 
ATOM     45  C   UNL A   1      42.859  24.395  25.321  1.00  0.00     0.014 A 
ATOM     46  C   UNL A   1      44.072  24.471  27.810  1.00  0.00     0.010 A 
ATOM     47  C   UNL A   1      42.907  25.582  25.996  1.00  0.00     0.010 A 
ATOM     48  C   UNL A   1      43.433  25.603  27.278  1.00  0.00    -0.014 A 
BRANCH  48  49
ATOM     49  C   UNL A   1      43.387  26.873  27.990  1.00  0.00     0.031 A 
ATOM     50  C   UNL A   1      44.596  27.706  27.802  1.00  0.00     0.074 A 
ATOM     51  C   UNL A   1      42.262  27.362  28.557  1.00  0.00     0.049 A 
ATOM     52  N   UNL A   1      45.568  27.867  28.637  1.00  0.00    -0.248 NA
ATOM     53  C   UNL A   1      44.857  28.268  26.466  1.00  0.00     0.031 C 
ATOM     54  C   UNL A   1      40.909  26.787  28.534  1.00  0.00     0.029 A 
ATOM     55  N   UNL A   1      42.062  28.554  29.180  1.00  0.00    -0.354 N 
ATOM     56  C   UNL A   1      46.413  28.793  28.040  1.00  0.00     0.074 A 
ATOM     57  C   UNL A   1      46.074  28.788  26.639  1.00  0.00     0.031 C 
ATOM     58  C   UNL A   1      40.008  27.727  28.894  1.00  0.00     0.029 A 
ATOM     59  C   UNL A   1      40.724  28.905  29.343  1.00  0.00     0.049 A 
ATOM     60  H   UNL A   1      42.802  29.123  29.491  1.00  0.00     0.167 HD
ATOM     61  C   UNL A   1      47.067  29.725  28.789  1.00  0.00     0.031 A 
ATOM     62  C   UNL A   1      40.240  30.089  29.799  1.00  0.00     0.031 A 
ATOM     63  C   UNL A   1      46.988  29.415  30.200  1.00  0.00     0.049 A 
ATOM     64  C   UNL A   1      41.335  30.731  30.566  1.00  0.00     0.074 A 
ATOM     65  C   UNL A   1      47.320  28.332  30.989  1.00  0.00     0.029 A 
ATOM     66  N   UNL A   1      46.103  30.166  30.939  1.00  0.00    -0.354 N 
ATOM     67  N   UNL A   1      41.807  30.242  31.678  1.00  0.00    -0.248 NA
ATOM     68  C   UNL A   1      42.213  31.656  29.869  1.00  0.00     0.031 C 
ATOM     69  C   UNL A   1      46.277  28.247  31.960  1.00  0.00     0.029 A 
ATOM     70  C   UNL A   1      45.410  29.325  31.767  1.00  0.00     0.049 A 
ATOM     71  H   UNL A   1      45.987  31.143  30.883  1.00  0.00     0.167 HD
ATOM     72  C   UNL A   1      43.180  30.424  31.587  1.00  0.00     0.074 A 
ATOM     73  C   UNL A   1      43.357  31.399  30.510  1.00  0.00     0.031 C 
ATOM     74  C   UNL A   1      44.044  29.556  32.192  1.00  0.00     0.031 A 
BRANCH  61  75
ATOM     75  C   UNL A   1      47.338  31.138  28.316  1.00  0.00    -0.014 A 
ATOM     76  C   UNL A   1      46.271  32.061  28.334  1.00  0.00     0.010 A 
ATOM     77  C   UNL A   1      48.485  31.507  27.583  1.00  0.00     0.010 A 
ATOM     78  C   UNL A   1      46.309  33.231  27.566  1.00  0.00     0.020 A 
ATOM     79  C   UNL A   1      48.553  32.695  26.855  1.00  0.00     0.020 A 
ATOM     80  C   UNL A   1      47.446  33.529  26.817  1.00  0.00     0.054 A 
BRANCH  80  81
ATOM     81  S   UNL A   1      47.443  34.977  25.736  1.00  0.00     0.124 S 
ATOM     82  O   UNL A   1      48.833  35.022  25.296  1.00  0.00    -0.237 OA
ATOM     83  O   UNL A   1      46.465  34.598  24.720  1.00  0.00    -0.237 OA
ATOM     84  O   UNL A   1      47.026  36.061  26.622  1.00  0.00    -0.744 OA
ENDBRANCH  80  81
ENDBRANCH  61  75
BRANCH  62  85
ATOM     85  C   UNL A   1      39.020  30.821  29.377  1.00  0.00    -0.014 A 
ATOM     86  C   UNL A   1      37.965  30.154  28.721  1.00  0.00     0.010 A 
ATOM     87  C   UNL A   1      38.762  32.112  29.882  1.00  0.00     0.010 A 
ATOM     88  C   UNL A   1      36.682  30.722  28.646  1.00  0.00     0.020 A 
ATOM     89  C   UNL A   1      37.487  32.688  29.804  1.00  0.00     0.020 A 
ATOM     90  C   UNL A   1      36.445  31.977  29.212  1.00  0.00     0.054 A 
BRANCH  90  91
ATOM     91  S   UNL A   1      34.746  32.623  29.293  1.00  0.00     0.124 S 
ATOM     92  O   UNL A   1      34.912  33.997  28.828  1.00  0.00    -0.237 OA
ATOM     93  O   UNL A   1      34.024  31.732  28.389  1.00  0.00    -0.237 OA
ATOM     94  O   UNL A   1      34.396  32.483  30.706  1.00  0.00    -0.744 OA
ENDBRANCH  90  91
ENDBRANCH  62  85
BRANCH  74  95
ATOM     95  C   UNL A   1      43.502  28.620  33.249  1.00  0.00    -0.014 A 
ATOM     96  C   UNL A   1      43.003  27.329  32.990  1.00  0.00     0.010 A 
ATOM     97  C   UNL A   1      43.623  29.034  34.587  1.00  0.00     0.010 A 
ATOM     98  C   UNL A   1      42.602  26.490  34.044  1.00  0.00     0.020 A 
ATOM     99  C   UNL A   1      43.246  28.200  35.639  1.00  0.00     0.020 A 
ATOM    100  C   UNL A   1      42.724  26.936  35.364  1.00  0.00     0.054 A 
BRANCH 100 101
ATOM    101  S   UNL A   1      42.226  25.847  36.729  1.00  0.00     0.124 S 
ATOM    102  O   UNL A   1      40.772  25.985  36.729  1.00  0.00    -0.237 OA
ATOM    103  O   UNL A   1      42.735  24.545  36.307  1.00  0.00    -0.237 OA
ATOM    104  O   UNL A   1      42.900  26.418  37.894  1.00  0.00    -0.744 OA
ENDBRANCH 100 101
ENDBRANCH  74  95
ENDBRANCH  48  49
ENDBRANCH  40  43
ENDBRANCH  38  39
ENDBRANCH  37  38
ENDBRANCH  36  37
ENDBRANCH   1  36
TORSDOF 22
ENDMDL
