MODEL 1
REMARK VINA RESULT:     -12.0      0.000      0.000
REMARK SMILES Nc1c(C(=O)NCCCCCCNC(=O)c2ccc(-c3c4nc(c(-c5ccc(S(=O)(=O)[O-])cc5)c5ccc([nH]5)c(-c5ccc(S(=O)(=O)[O-])cc5)c5nc(c(-c6ccc(S(=O)(=O)[O-])cc6)c6ccc3[nH]6)C=C5)C=C4)cc2)cccc1-c1cc(F)c(F)c(F)c1
REMARK SMILES IDX 10 1 9 2 8 3 7 4 6 5 4 6 5 7 3 9 2 10 79 11 76 12 78 13
REMARK SMILES IDX 77 14 1 15 80 18 81 19 88 20 82 21 86 22 83 23 84 24 87 25
REMARK SMILES IDX 85 26 11 27 12 28 13 29 14 30 15 32 16 33 17 34 75 35 18 36
REMARK SMILES IDX 74 37 19 38 20 39 21 40 68 41 22 42 73 43 67 44 69 45 23 46
REMARK SMILES IDX 72 47 66 48 65 49 24 51 54 52 35 53 53 54 36 55 39 56 52 57
REMARK SMILES IDX 70 58 37 59 38 60 51 62 71 63 40 64 25 65 26 66 34 67 27 68
REMARK SMILES IDX 33 69 28 70 29 71 30 72 31 73 32 74 55 75 56 76 64 77 57 78
REMARK SMILES IDX 63 79 58 80 59 81 60 82 61 83 62 84 41 85 42 86 50 87 43 88
REMARK SMILES IDX 49 89 44 90 45 91 46 92 47 93 48 94
REMARK H PARENT 6 8 1 16 1 17 13 31 69 50 39 61
REMARK Flexibility Score: inf
ROOT
ATOM      1  C   UNL A   1      34.130  29.042  27.262  1.00  0.00     0.002 C 
ENDROOT
BRANCH   1   2
ATOM      2  C   UNL A   1      33.044  28.576  26.287  1.00  0.00     0.002 C 
BRANCH   2   3
ATOM      3  C   UNL A   1      31.919  27.703  26.852  1.00  0.00     0.021 C 
BRANCH   3   4
ATOM      4  C   UNL A   1      31.507  26.502  26.008  1.00  0.00     0.116 C 
BRANCH   4   5
ATOM      5  N   UNL A   1      30.832  25.437  26.729  1.00  0.00    -0.352 N 
ATOM      6  C   UNL A   1      30.997  24.069  26.641  1.00  0.00     0.253 C 
ATOM      7  O   UNL A   1      30.313  23.351  27.373  1.00  0.00    -0.269 OA
ATOM      8  H   UNL A   1      30.154  25.736  27.379  1.00  0.00     0.163 HD
BRANCH   6   9
ATOM      9  C   UNL A   1      31.898  23.427  25.633  1.00  0.00     0.063 A 
ATOM     10  C   UNL A   1      33.211  22.974  25.897  1.00  0.00     0.052 A 
ATOM     11  C   UNL A   1      34.052  22.617  24.803  1.00  0.00     0.006 A 
ATOM     12  C   UNL A   1      31.364  23.313  24.337  1.00  0.00     0.016 A 
ATOM     13  C   UNL A   1      33.483  22.530  23.515  1.00  0.00     0.011 A 
ATOM     14  C   UNL A   1      32.144  22.837  23.289  1.00  0.00     0.002 A 
BRANCH  10  15
ATOM     15  N   UNL A   1      33.661  22.823  27.208  1.00  0.00    -0.398 N 
ATOM     16  H   UNL A   1      34.101  23.574  27.666  1.00  0.00     0.156 HD
ATOM     17  H   UNL A   1      33.538  21.965  27.676  1.00  0.00     0.156 HD
ENDBRANCH  10  15
BRANCH  11  18
ATOM     18  C   UNL A   1      35.514  22.411  24.954  1.00  0.00    -0.010 A 
ATOM     19  C   UNL A   1      36.333  23.479  25.376  1.00  0.00     0.051 A 
ATOM     20  C   UNL A   1      36.127  21.163  24.761  1.00  0.00     0.051 A 
ATOM     21  C   UNL A   1      37.690  23.283  25.637  1.00  0.00     0.162 A 
ATOM     22  C   UNL A   1      37.477  20.974  25.060  1.00  0.00     0.162 A 
ATOM     23  F   UNL A   1      38.430  24.324  26.045  1.00  0.00    -0.204 F 
ATOM     24  C   UNL A   1      38.261  22.029  25.500  1.00  0.00     0.194 A 
ATOM     25  F   UNL A   1      38.002  19.748  24.941  1.00  0.00    -0.204 F 
ATOM     26  F   UNL A   1      39.552  21.839  25.797  1.00  0.00    -0.200 F 
ENDBRANCH  11  18
ENDBRANCH   6   9
ENDBRANCH   4   5
ENDBRANCH   3   4
ENDBRANCH   2   3
ENDBRANCH   1   2
BRANCH   1  27
ATOM     27  C   UNL A   1      34.460  30.537  27.279  1.00  0.00     0.021 C 
BRANCH  27  28
ATOM     28  C   UNL A   1      35.695  30.948  28.073  1.00  0.00     0.116 C 
BRANCH  28  29
ATOM     29  N   UNL A   1      35.545  30.749  29.505  1.00  0.00    -0.352 N 
ATOM     30  C   UNL A   1      36.389  30.138  30.398  1.00  0.00     0.251 C 
ATOM     31  H   UNL A   1      34.714  31.107  29.892  1.00  0.00     0.163 HD
ATOM     32  O   UNL A   1      36.018  29.961  31.558  1.00  0.00    -0.269 OA
BRANCH  30  33
ATOM     33  C   UNL A   1      37.724  29.663  29.972  1.00  0.00     0.039 A 
ATOM     34  C   UNL A   1      38.046  29.698  28.612  1.00  0.00     0.014 A 
ATOM     35  C   UNL A   1      38.654  29.177  30.895  1.00  0.00     0.014 A 
ATOM     36  C   UNL A   1      39.319  29.307  28.188  1.00  0.00     0.010 A 
ATOM     37  C   UNL A   1      39.946  28.858  30.479  1.00  0.00     0.010 A 
ATOM     38  C   UNL A   1      40.294  28.918  29.122  1.00  0.00    -0.014 A 
BRANCH  38  39
ATOM     39  C   UNL A   1      41.679  28.583  28.694  1.00  0.00     0.031 A 
ATOM     40  C   UNL A   1      42.737  29.653  28.633  1.00  0.00     0.074 A 
ATOM     41  C   UNL A   1      41.970  27.326  28.307  1.00  0.00     0.049 A 
ATOM     42  N   UNL A   1      43.984  29.558  28.245  1.00  0.00    -0.248 NA
ATOM     43  C   UNL A   1      42.339  31.010  29.041  1.00  0.00     0.031 C 
ATOM     44  C   UNL A   1      41.025  26.207  28.284  1.00  0.00     0.029 A 
ATOM     45  N   UNL A   1      43.143  26.775  27.853  1.00  0.00    -0.354 N 
ATOM     46  C   UNL A   1      44.513  30.839  28.349  1.00  0.00     0.074 A 
ATOM     47  C   UNL A   1      43.439  31.704  28.786  1.00  0.00     0.031 C 
ATOM     48  C   UNL A   1      41.662  25.100  27.869  1.00  0.00     0.029 A 
ATOM     49  C   UNL A   1      43.046  25.436  27.551  1.00  0.00     0.049 A 
ATOM     50  H   UNL A   1      43.976  27.290  27.753  1.00  0.00     0.167 HD
ATOM     51  C   UNL A   1      45.782  31.256  28.119  1.00  0.00     0.031 A 
ATOM     52  C   UNL A   1      43.962  24.576  27.064  1.00  0.00     0.031 A 
ATOM     53  C   UNL A   1      46.849  30.391  27.686  1.00  0.00     0.049 A 
ATOM     54  C   UNL A   1      45.358  25.068  26.792  1.00  0.00     0.074 A 
ATOM     55  C   UNL A   1      48.180  30.707  27.477  1.00  0.00     0.029 A 
ATOM     56  N   UNL A   1      46.707  29.043  27.388  1.00  0.00    -0.354 N 
ATOM     57  N   UNL A   1      45.856  26.270  26.965  1.00  0.00    -0.248 NA
ATOM     58  C   UNL A   1      46.318  24.086  26.271  1.00  0.00     0.031 C 
ATOM     59  C   UNL A   1      48.829  29.567  26.992  1.00  0.00     0.029 A 
ATOM     60  C   UNL A   1      47.919  28.522  26.967  1.00  0.00     0.049 A 
ATOM     61  H   UNL A   1      45.869  28.534  27.465  1.00  0.00     0.167 HD
ATOM     62  C   UNL A   1      47.194  26.181  26.598  1.00  0.00     0.074 A 
ATOM     63  C   UNL A   1      47.431  24.803  26.214  1.00  0.00     0.031 C 
ATOM     64  C   UNL A   1      48.142  27.150  26.582  1.00  0.00     0.031 A 
BRANCH  51  65
ATOM     65  C   UNL A   1      46.084  32.719  28.321  1.00  0.00    -0.014 A 
ATOM     66  C   UNL A   1      46.362  33.237  29.600  1.00  0.00     0.010 A 
ATOM     67  C   UNL A   1      46.135  33.583  27.212  1.00  0.00     0.010 A 
ATOM     68  C   UNL A   1      46.639  34.595  29.771  1.00  0.00     0.020 A 
ATOM     69  C   UNL A   1      46.444  34.937  27.374  1.00  0.00     0.020 A 
ATOM     70  C   UNL A   1      46.677  35.437  28.656  1.00  0.00     0.054 A 
BRANCH  70  71
ATOM     71  S   UNL A   1      47.060  37.193  28.907  1.00  0.00     0.124 S 
ATOM     72  O   UNL A   1      48.476  37.245  28.553  1.00  0.00    -0.237 OA
ATOM     73  O   UNL A   1      46.154  37.854  27.972  1.00  0.00    -0.237 OA
ATOM     74  O   UNL A   1      46.764  37.414  30.320  1.00  0.00    -0.744 OA
ENDBRANCH  70  71
ENDBRANCH  51  65
BRANCH  52  75
ATOM     75  C   UNL A   1      43.589  23.156  26.811  1.00  0.00    -0.014 A 
ATOM     76  C   UNL A   1      43.010  22.376  27.828  1.00  0.00     0.010 A 
ATOM     77  C   UNL A   1      43.803  22.578  25.546  1.00  0.00     0.010 A 
ATOM     78  C   UNL A   1      42.667  21.041  27.590  1.00  0.00     0.020 A 
ATOM     79  C   UNL A   1      43.432  21.254  25.295  1.00  0.00     0.020 A 
ATOM     80  C   UNL A   1      42.878  20.489  26.323  1.00  0.00     0.054 A 
BRANCH  80  81
ATOM     81  S   UNL A   1      42.377  18.771  26.024  1.00  0.00     0.124 S 
ATOM     82  O   UNL A   1      40.974  18.924  25.652  1.00  0.00    -0.237 OA
ATOM     83  O   UNL A   1      43.277  18.366  24.947  1.00  0.00    -0.237 OA
ATOM     84  O   UNL A   1      42.619  18.115  27.307  1.00  0.00    -0.744 OA
ENDBRANCH  80  81
ENDBRANCH  52  75
BRANCH  64  85
ATOM     85  C   UNL A   1      49.535  26.755  26.165  1.00  0.00    -0.014 A 
ATOM     86  C   UNL A   1      50.402  26.085  27.047  1.00  0.00     0.010 A 
ATOM     87  C   UNL A   1      49.963  27.014  24.850  1.00  0.00     0.010 A 
ATOM     88  C   UNL A   1      51.681  25.710  26.630  1.00  0.00     0.020 A 
ATOM     89  C   UNL A   1      51.231  26.611  24.420  1.00  0.00     0.020 A 
ATOM     90  C   UNL A   1      52.087  25.974  25.319  1.00  0.00     0.054 A 
BRANCH  90  91
ATOM     91  S   UNL A   1      53.738  25.436  24.791  1.00  0.00     0.124 S 
ATOM     92  O   UNL A   1      53.804  25.954  23.427  1.00  0.00    -0.237 OA
ATOM     93  O   UNL A   1      54.612  26.096  25.757  1.00  0.00    -0.237 OA
ATOM     94  O   UNL A   1      53.681  23.980  24.903  1.00  0.00    -0.744 OA
ENDBRANCH  90  91
ENDBRANCH  64  85
ENDBRANCH  38  39
ENDBRANCH  30  33
ENDBRANCH  28  29
ENDBRANCH  27  28
ENDBRANCH   1  27
TORSDOF 18
ENDMDL
MODEL 2
REMARK VINA RESULT:     -12.0      3.145      3.822
REMARK SMILES Nc1c(C(=O)NCCCCCCNC(=O)c2ccc(-c3c4nc(c(-c5ccc(S(=O)(=O)[O-])cc5)c5ccc([nH]5)c(-c5ccc(S(=O)(=O)[O-])cc5)c5nc(c(-c6ccc(S(=O)(=O)[O-])cc6)c6ccc3[nH]6)C=C5)C=C4)cc2)cccc1-c1cc(F)c(F)c(F)c1
REMARK SMILES IDX 10 1 9 2 8 3 7 4 6 5 4 6 5 7 3 9 2 10 79 11 76 12 78 13
REMARK SMILES IDX 77 14 1 15 80 18 81 19 88 20 82 21 86 22 83 23 84 24 87 25
REMARK SMILES IDX 85 26 11 27 12 28 13 29 14 30 15 32 16 33 17 34 75 35 18 36
REMARK SMILES IDX 74 37 19 38 20 39 21 40 68 41 22 42 73 43 67 44 69 45 23 46
REMARK SMILES IDX 72 47 66 48 65 49 24 51 54 52 35 53 53 54 36 55 39 56 52 57
REMARK SMILES IDX 70 58 37 59 38 60 51 62 71 63 40 64 25 65 26 66 34 67 27 68
REMARK SMILES IDX 33 69 28 70 29 71 30 72 31 73 32 74 55 75 56 76 64 77 57 78
REMARK SMILES IDX 63 79 58 80 59 81 60 82 61 83 62 84 41 85 42 86 50 87 43 88
REMARK SMILES IDX 49 89 44 90 45 91 46 92 47 93 48 94
REMARK H PARENT 6 8 1 16 1 17 13 31 69 50 39 61
REMARK Flexibility Score: inf
ROOT
ATOM      1  C   UNL A   1      31.603  28.121  26.253  1.00  0.00     0.002 C 
ENDROOT
BRANCH   1   2
ATOM      2  C   UNL A   1      31.230  28.979  25.040  1.00  0.00     0.002 C 
BRANCH   2   3
ATOM      3  C   UNL A   1      30.608  28.264  23.836  1.00  0.00     0.021 C 
BRANCH   3   4
ATOM      4  C   UNL A   1      31.475  27.215  23.150  1.00  0.00     0.116 C 
BRANCH   4   5
ATOM      5  N   UNL A   1      30.798  25.978  22.803  1.00  0.00    -0.352 N 
ATOM      6  C   UNL A   1      30.854  24.740  23.412  1.00  0.00     0.253 C 
ATOM      7  O   UNL A   1      30.170  23.828  22.942  1.00  0.00    -0.269 OA
ATOM      8  H   UNL A   1      30.210  26.030  22.014  1.00  0.00     0.163 HD
BRANCH   6   9
ATOM      9  C   UNL A   1      31.775  24.442  24.552  1.00  0.00     0.063 A 
ATOM     10  C   UNL A   1      33.164  24.206  24.428  1.00  0.00     0.052 A 
ATOM     11  C   UNL A   1      33.880  23.686  25.546  1.00  0.00     0.006 A 
ATOM     12  C   UNL A   1      31.163  24.376  25.817  1.00  0.00     0.016 A 
ATOM     13  C   UNL A   1      33.225  23.620  26.794  1.00  0.00     0.011 A 
ATOM     14  C   UNL A   1      31.893  23.997  26.938  1.00  0.00     0.002 A 
BRANCH  10  15
ATOM     15  N   UNL A   1      33.837  24.528  23.250  1.00  0.00    -0.398 N 
ATOM     16  H   UNL A   1      34.622  25.120  23.279  1.00  0.00     0.156 HD
ATOM     17  H   UNL A   1      33.526  24.164  22.390  1.00  0.00     0.156 HD
ENDBRANCH  10  15
BRANCH  11  18
ATOM     18  C   UNL A   1      35.255  23.140  25.429  1.00  0.00    -0.010 A 
ATOM     19  C   UNL A   1      36.365  23.971  25.686  1.00  0.00     0.051 A 
ATOM     20  C   UNL A   1      35.511  21.790  25.138  1.00  0.00     0.051 A 
ATOM     21  C   UNL A   1      37.661  23.455  25.697  1.00  0.00     0.162 A 
ATOM     22  C   UNL A   1      36.809  21.281  25.187  1.00  0.00     0.162 A 
ATOM     23  F   UNL A   1      38.687  24.279  25.954  1.00  0.00    -0.204 F 
ATOM     24  C   UNL A   1      37.886  22.108  25.468  1.00  0.00     0.194 A 
ATOM     25  F   UNL A   1      37.000  19.971  24.984  1.00  0.00    -0.204 F 
ATOM     26  F   UNL A   1      39.127  21.611  25.525  1.00  0.00    -0.200 F 
ENDBRANCH  11  18
ENDBRANCH   6   9
ENDBRANCH   4   5
ENDBRANCH   3   4
ENDBRANCH   2   3
ENDBRANCH   1   2
BRANCH   1  27
ATOM     27  C   UNL A   1      33.060  27.663  26.365  1.00  0.00     0.021 C 
BRANCH  27  28
ATOM     28  C   UNL A   1      34.123  28.726  26.109  1.00  0.00     0.116 C 
BRANCH  28  29
ATOM     29  N   UNL A   1      33.887  29.958  26.841  1.00  0.00    -0.352 N 
ATOM     30  C   UNL A   1      34.657  30.571  27.798  1.00  0.00     0.251 C 
ATOM     31  H   UNL A   1      33.049  30.423  26.618  1.00  0.00     0.163 HD
ATOM     32  O   UNL A   1      34.216  31.555  28.392  1.00  0.00    -0.269 OA
BRANCH  30  33
ATOM     33  C   UNL A   1      35.996  30.043  28.142  1.00  0.00     0.039 A 
ATOM     34  C   UNL A   1      37.024  30.157  27.202  1.00  0.00     0.014 A 
ATOM     35  C   UNL A   1      36.244  29.430  29.374  1.00  0.00     0.014 A 
ATOM     36  C   UNL A   1      38.311  29.716  27.522  1.00  0.00     0.010 A 
ATOM     37  C   UNL A   1      37.543  29.060  29.718  1.00  0.00     0.010 A 
ATOM     38  C   UNL A   1      38.591  29.197  28.797  1.00  0.00    -0.014 A 
BRANCH  38  39
ATOM     39  C   UNL A   1      39.974  28.805  29.181  1.00  0.00     0.031 A 
ATOM     40  C   UNL A   1      40.874  29.783  29.887  1.00  0.00     0.074 A 
ATOM     41  C   UNL A   1      40.438  27.585  28.844  1.00  0.00     0.049 A 
ATOM     42  N   UNL A   1      42.121  29.635  30.262  1.00  0.00    -0.248 NA
ATOM     43  C   UNL A   1      40.311  31.108  30.196  1.00  0.00     0.031 C 
ATOM     44  C   UNL A   1      39.678  26.559  28.126  1.00  0.00     0.029 A 
ATOM     45  N   UNL A   1      41.662  27.001  29.056  1.00  0.00    -0.354 N 
ATOM     46  C   UNL A   1      42.492  30.845  30.835  1.00  0.00     0.074 A 
ATOM     47  C   UNL A   1      41.358  31.735  30.713  1.00  0.00     0.031 C 
ATOM     48  C   UNL A   1      40.441  25.464  27.984  1.00  0.00     0.029 A 
ATOM     49  C   UNL A   1      41.758  25.722  28.556  1.00  0.00     0.049 A 
ATOM     50  H   UNL A   1      42.402  27.453  29.521  1.00  0.00     0.167 HD
ATOM     51  C   UNL A   1      43.664  31.181  31.426  1.00  0.00     0.031 A 
ATOM     52  C   UNL A   1      42.792  24.856  28.550  1.00  0.00     0.031 A 
ATOM     53  C   UNL A   1      44.790  30.292  31.548  1.00  0.00     0.049 A 
ATOM     54  C   UNL A   1      44.092  25.262  29.190  1.00  0.00     0.074 A 
ATOM     55  C   UNL A   1      46.003  30.521  32.176  1.00  0.00     0.029 A 
ATOM     56  N   UNL A   1      44.848  29.008  31.026  1.00  0.00    -0.354 N 
ATOM     57  N   UNL A   1      44.398  26.388  29.790  1.00  0.00    -0.248 NA
ATOM     58  C   UNL A   1      45.181  24.276  29.163  1.00  0.00     0.031 C 
ATOM     59  C   UNL A   1      46.815  29.401  31.979  1.00  0.00     0.029 A 
ATOM     60  C   UNL A   1      46.085  28.445  31.290  1.00  0.00     0.049 A 
ATOM     61  H   UNL A   1      44.117  28.564  30.540  1.00  0.00     0.167 HD
ATOM     62  C   UNL A   1      45.708  26.235  30.233  1.00  0.00     0.074 A 
ATOM     63  C   UNL A   1      46.125  24.901  29.850  1.00  0.00     0.031 C 
ATOM     64  C   UNL A   1      46.492  27.118  30.900  1.00  0.00     0.031 A 
BRANCH  51  65
ATOM     65  C   UNL A   1      43.793  32.579  31.978  1.00  0.00    -0.014 A 
ATOM     66  C   UNL A   1      43.453  32.870  33.312  1.00  0.00     0.010 A 
ATOM     67  C   UNL A   1      44.302  33.608  31.166  1.00  0.00     0.010 A 
ATOM     68  C   UNL A   1      43.577  34.170  33.809  1.00  0.00     0.020 A 
ATOM     69  C   UNL A   1      44.458  34.904  31.668  1.00  0.00     0.020 A 
ATOM     70  C   UNL A   1      44.078  35.180  32.982  1.00  0.00     0.054 A 
BRANCH  70  71
ATOM     71  S   UNL A   1      44.246  36.853  33.661  1.00  0.00     0.124 S 
ATOM     72  O   UNL A   1      44.745  37.597  32.507  1.00  0.00    -0.237 OA
ATOM     73  O   UNL A   1      42.881  37.170  34.071  1.00  0.00    -0.237 OA
ATOM     74  O   UNL A   1      45.201  36.690  34.755  1.00  0.00    -0.744 OA
ENDBRANCH  70  71
ENDBRANCH  51  65
BRANCH  52  75
ATOM     75  C   UNL A   1      42.633  23.514  27.923  1.00  0.00    -0.014 A 
ATOM     76  C   UNL A   1      43.253  23.220  26.695  1.00  0.00     0.010 A 
ATOM     77  C   UNL A   1      41.867  22.518  28.555  1.00  0.00     0.010 A 
ATOM     78  C   UNL A   1      43.096  21.962  26.104  1.00  0.00     0.020 A 
ATOM     79  C   UNL A   1      41.734  21.250  27.984  1.00  0.00     0.020 A 
ATOM     80  C   UNL A   1      42.340  20.983  26.755  1.00  0.00     0.054 A 
BRANCH  80  81
ATOM     81  S   UNL A   1      42.194  19.343  25.995  1.00  0.00     0.124 S 
ATOM     82  O   UNL A   1      40.750  19.217  25.819  1.00  0.00    -0.237 OA
ATOM     83  O   UNL A   1      42.970  19.496  24.767  1.00  0.00    -0.237 OA
ATOM     84  O   UNL A   1      42.785  18.450  26.989  1.00  0.00    -0.744 OA
ENDBRANCH  80  81
ENDBRANCH  52  75
BRANCH  64  85
ATOM     85  C   UNL A   1      47.876  26.665  31.288  1.00  0.00    -0.014 A 
ATOM     86  C   UNL A   1      48.125  26.057  32.531  1.00  0.00     0.010 A 
ATOM     87  C   UNL A   1      48.933  26.803  30.370  1.00  0.00     0.010 A 
ATOM     88  C   UNL A   1      49.413  25.625  32.861  1.00  0.00     0.020 A 
ATOM     89  C   UNL A   1      50.215  26.343  30.683  1.00  0.00     0.020 A 
ATOM     90  C   UNL A   1      50.449  25.769  31.934  1.00  0.00     0.054 A 
BRANCH  90  91
ATOM     91  S   UNL A   1      52.101  25.160  32.369  1.00  0.00     0.124 S 
ATOM     92  O   UNL A   1      52.327  25.792  33.666  1.00  0.00    -0.237 OA
ATOM     93  O   UNL A   1      51.909  23.712  32.401  1.00  0.00    -0.237 OA
ATOM     94  O   UNL A   1      52.949  25.646  31.283  1.00  0.00    -0.744 OA
ENDBRANCH  90  91
ENDBRANCH  64  85
ENDBRANCH  38  39
ENDBRANCH  30  33
ENDBRANCH  28  29
ENDBRANCH  27  28
ENDBRANCH   1  27
TORSDOF 18
ENDMDL
MODEL 3
REMARK VINA RESULT:     -11.9      6.934      9.472
REMARK SMILES Nc1c(C(=O)NCCCCCCNC(=O)c2ccc(-c3c4nc(c(-c5ccc(S(=O)(=O)[O-])cc5)c5ccc([nH]5)c(-c5ccc(S(=O)(=O)[O-])cc5)c5nc(c(-c6ccc(S(=O)(=O)[O-])cc6)c6ccc3[nH]6)C=C5)C=C4)cc2)cccc1-c1cc(F)c(F)c(F)c1
REMARK SMILES IDX 10 1 9 2 8 3 7 4 6 5 4 6 5 7 3 9 2 10 79 11 76 12 78 13
REMARK SMILES IDX 77 14 1 15 80 18 81 19 88 20 82 21 86 22 83 23 84 24 87 25
REMARK SMILES IDX 85 26 11 27 12 28 13 29 14 30 15 32 16 33 17 34 75 35 18 36
REMARK SMILES IDX 74 37 19 38 20 39 21 40 68 41 22 42 73 43 67 44 69 45 23 46
REMARK SMILES IDX 72 47 66 48 65 49 24 51 54 52 35 53 53 54 36 55 39 56 52 57
REMARK SMILES IDX 70 58 37 59 38 60 51 62 71 63 40 64 25 65 26 66 34 67 27 68
REMARK SMILES IDX 33 69 28 70 29 71 30 72 31 73 32 74 55 75 56 76 64 77 57 78
REMARK SMILES IDX 63 79 58 80 59 81 60 82 61 83 62 84 41 85 42 86 50 87 43 88
REMARK SMILES IDX 49 89 44 90 45 91 46 92 47 93 48 94
REMARK H PARENT 6 8 1 16 1 17 13 31 69 50 39 61
REMARK Flexibility Score: inf
ROOT
ATOM      1  C   UNL A   1      31.798  30.300  26.680  1.00  0.00     0.002 C 
ENDROOT
BRANCH   1   2
ATOM      2  C   UNL A   1      32.874  29.735  25.746  1.00  0.00     0.002 C 
BRANCH   2   3
ATOM      3  C   UNL A   1      33.614  28.475  26.205  1.00  0.00     0.021 C 
BRANCH   3   4
ATOM      4  C   UNL A   1      32.860  27.158  26.062  1.00  0.00     0.116 C 
BRANCH   4   5
ATOM      5  N   UNL A   1      33.193  26.374  24.886  1.00  0.00    -0.352 N 
ATOM      6  C   UNL A   1      32.481  26.188  23.717  1.00  0.00     0.253 C 
ATOM      7  O   UNL A   1      32.977  25.481  22.838  1.00  0.00    -0.269 OA
ATOM      8  H   UNL A   1      34.058  25.904  24.927  1.00  0.00     0.163 HD
BRANCH   6   9
ATOM      9  C   UNL A   1      31.100  26.730  23.518  1.00  0.00     0.063 A 
ATOM     10  C   UNL A   1      30.796  27.939  22.852  1.00  0.00     0.052 A 
ATOM     11  C   UNL A   1      29.477  28.470  22.949  1.00  0.00     0.006 A 
ATOM     12  C   UNL A   1      30.066  25.958  24.078  1.00  0.00     0.016 A 
ATOM     13  C   UNL A   1      28.470  27.672  23.532  1.00  0.00     0.011 A 
ATOM     14  C   UNL A   1      28.752  26.413  24.056  1.00  0.00     0.002 A 
BRANCH  10  15
ATOM     15  N   UNL A   1      31.754  28.576  22.063  1.00  0.00    -0.398 N 
ATOM     16  H   UNL A   1      32.690  28.275  22.087  1.00  0.00     0.156 HD
ATOM     17  H   UNL A   1      31.492  29.327  21.481  1.00  0.00     0.156 HD
ENDBRANCH  10  15
BRANCH  11  18
ATOM     18  C   UNL A   1      29.141  29.855  22.536  1.00  0.00    -0.010 A 
ATOM     19  C   UNL A   1      28.479  30.082  21.311  1.00  0.00     0.051 A 
ATOM     20  C   UNL A   1      29.392  30.970  23.352  1.00  0.00     0.051 A 
ATOM     21  C   UNL A   1      28.050  31.360  20.953  1.00  0.00     0.162 A 
ATOM     22  C   UNL A   1      28.925  32.236  22.997  1.00  0.00     0.162 A 
ATOM     23  F   UNL A   1      27.417  31.530  19.784  1.00  0.00    -0.204 F 
ATOM     24  C   UNL A   1      28.252  32.436  21.802  1.00  0.00     0.194 A 
ATOM     25  F   UNL A   1      29.114  33.258  23.843  1.00  0.00    -0.204 F 
ATOM     26  F   UNL A   1      27.797  33.651  21.472  1.00  0.00    -0.200 F 
ENDBRANCH  11  18
ENDBRANCH   6   9
ENDBRANCH   4   5
ENDBRANCH   3   4
ENDBRANCH   2   3
ENDBRANCH   1   2
BRANCH   1  27
ATOM     27  C   UNL A   1      31.736  31.822  26.835  1.00  0.00     0.021 C 
BRANCH  27  28
ATOM     28  C   UNL A   1      32.982  32.496  27.398  1.00  0.00     0.116 C 
BRANCH  28  29
ATOM     29  N   UNL A   1      32.786  33.905  27.692  1.00  0.00    -0.352 N 
ATOM     30  C   UNL A   1      33.414  34.704  28.615  1.00  0.00     0.251 C 
ATOM     31  H   UNL A   1      32.100  34.354  27.148  1.00  0.00     0.163 HD
ATOM     32  O   UNL A   1      33.012  35.853  28.794  1.00  0.00    -0.269 OA
BRANCH  30  33
ATOM     33  C   UNL A   1      34.547  34.187  29.415  1.00  0.00     0.039 A 
ATOM     34  C   UNL A   1      34.273  33.486  30.592  1.00  0.00     0.014 A 
ATOM     35  C   UNL A   1      35.872  34.394  29.020  1.00  0.00     0.014 A 
ATOM     36  C   UNL A   1      35.321  32.940  31.337  1.00  0.00     0.010 A 
ATOM     37  C   UNL A   1      36.911  33.786  29.724  1.00  0.00     0.010 A 
ATOM     38  C   UNL A   1      36.648  33.053  30.891  1.00  0.00    -0.014 A 
BRANCH  38  39
ATOM     39  C   UNL A   1      37.765  32.402  31.626  1.00  0.00     0.031 A 
ATOM     40  C   UNL A   1      38.220  32.944  32.956  1.00  0.00     0.074 A 
ATOM     41  C   UNL A   1      38.408  31.356  31.071  1.00  0.00     0.049 A 
ATOM     42  N   UNL A   1      39.201  32.536  33.720  1.00  0.00    -0.248 NA
ATOM     43  C   UNL A   1      37.491  34.109  33.487  1.00  0.00     0.031 C 
ATOM     44  C   UNL A   1      38.089  30.759  29.772  1.00  0.00     0.029 A 
ATOM     45  N   UNL A   1      39.467  30.609  31.526  1.00  0.00    -0.354 N 
ATOM     46  C   UNL A   1      39.217  33.398  34.811  1.00  0.00     0.074 A 
ATOM     47  C   UNL A   1      38.182  34.383  34.584  1.00  0.00     0.031 C 
ATOM     48  C   UNL A   1      38.912  29.723  29.549  1.00  0.00     0.029 A 
ATOM     49  C   UNL A   1      39.849  29.608  30.662  1.00  0.00     0.049 A 
ATOM     50  H   UNL A   1      39.912  30.774  32.388  1.00  0.00     0.167 HD
ATOM     51  C   UNL A   1      40.008  33.364  35.910  1.00  0.00     0.031 A 
ATOM     52  C   UNL A   1      40.845  28.703  30.750  1.00  0.00     0.031 A 
ATOM     53  C   UNL A   1      41.036  32.380  36.133  1.00  0.00     0.049 A 
ATOM     54  C   UNL A   1      41.727  28.701  31.970  1.00  0.00     0.074 A 
ATOM     55  C   UNL A   1      41.856  32.229  37.239  1.00  0.00     0.029 A 
ATOM     56  N   UNL A   1      41.393  31.386  35.234  1.00  0.00    -0.354 N 
ATOM     57  N   UNL A   1      41.678  29.482  33.023  1.00  0.00    -0.248 NA
ATOM     58  C   UNL A   1      42.790  27.689  32.017  1.00  0.00     0.031 C 
ATOM     59  C   UNL A   1      42.749  31.185  36.981  1.00  0.00     0.029 A 
ATOM     60  C   UNL A   1      42.440  30.639  35.745  1.00  0.00     0.049 A 
ATOM     61  H   UNL A   1      40.964  31.236  34.361  1.00  0.00     0.167 HD
ATOM     62  C   UNL A   1      42.688  29.037  33.869  1.00  0.00     0.074 A 
ATOM     63  C   UNL A   1      43.316  27.908  33.213  1.00  0.00     0.031 C 
ATOM     64  C   UNL A   1      43.061  29.519  35.081  1.00  0.00     0.031 A 
BRANCH  51  65
ATOM     65  C   UNL A   1      39.800  34.431  36.955  1.00  0.00    -0.014 A 
ATOM     66  C   UNL A   1      38.967  34.210  38.067  1.00  0.00     0.010 A 
ATOM     67  C   UNL A   1      40.481  35.657  36.848  1.00  0.00     0.010 A 
ATOM     68  C   UNL A   1      38.784  35.210  39.026  1.00  0.00     0.020 A 
ATOM     69  C   UNL A   1      40.326  36.648  37.822  1.00  0.00     0.020 A 
ATOM     70  C   UNL A   1      39.464  36.424  38.896  1.00  0.00     0.054 A 
BRANCH  70  71
ATOM     71  S   UNL A   1      39.222  37.695  40.168  1.00  0.00     0.124 S 
ATOM     72  O   UNL A   1      40.530  38.343  40.198  1.00  0.00    -0.237 OA
ATOM     73  O   UNL A   1      38.136  38.498  39.613  1.00  0.00    -0.237 OA
ATOM     74  O   UNL A   1      38.880  36.929  41.364  1.00  0.00    -0.744 OA
ENDBRANCH  70  71
ENDBRANCH  51  65
BRANCH  52  75
ATOM     75  C   UNL A   1      41.053  27.718  29.653  1.00  0.00    -0.014 A 
ATOM     76  C   UNL A   1      40.042  26.803  29.309  1.00  0.00     0.010 A 
ATOM     77  C   UNL A   1      42.265  27.696  28.937  1.00  0.00     0.010 A 
ATOM     78  C   UNL A   1      40.244  25.875  28.284  1.00  0.00     0.020 A 
ATOM     79  C   UNL A   1      42.458  26.790  27.890  1.00  0.00     0.020 A 
ATOM     80  C   UNL A   1      41.450  25.876  27.578  1.00  0.00     0.054 A 
BRANCH  80  81
ATOM     81  S   UNL A   1      41.669  24.696  26.217  1.00  0.00     0.124 S 
ATOM     82  O   UNL A   1      40.708  23.653  26.563  1.00  0.00    -0.237 OA
ATOM     83  O   UNL A   1      41.335  25.503  25.046  1.00  0.00    -0.237 OA
ATOM     84  O   UNL A   1      43.075  24.313  26.319  1.00  0.00    -0.744 OA
ENDBRANCH  80  81
ENDBRANCH  52  75
BRANCH  64  85
ATOM     85  C   UNL A   1      44.181  28.811  35.797  1.00  0.00    -0.014 A 
ATOM     86  C   UNL A   1      45.519  29.220  35.651  1.00  0.00     0.010 A 
ATOM     87  C   UNL A   1      43.882  27.750  36.673  1.00  0.00     0.010 A 
ATOM     88  C   UNL A   1      46.539  28.561  36.342  1.00  0.00     0.020 A 
ATOM     89  C   UNL A   1      44.896  27.111  37.390  1.00  0.00     0.020 A 
ATOM     90  C   UNL A   1      46.221  27.512  37.209  1.00  0.00     0.054 A 
BRANCH  90  91
ATOM     91  S   UNL A   1      47.560  26.703  38.128  1.00  0.00     0.124 S 
ATOM     92  O   UNL A   1      47.914  25.598  37.242  1.00  0.00    -0.237 OA
ATOM     93  O   UNL A   1      48.557  27.765  38.239  1.00  0.00    -0.237 OA
ATOM     94  O   UNL A   1      46.930  26.313  39.388  1.00  0.00    -0.744 OA
ENDBRANCH  90  91
ENDBRANCH  64  85
ENDBRANCH  38  39
ENDBRANCH  30  33
ENDBRANCH  28  29
ENDBRANCH  27  28
ENDBRANCH   1  27
TORSDOF 18
ENDMDL
