MODEL 1
REMARK VINA RESULT:     -10.9      0.000      0.000
REMARK SMILES CC(C)C[C@H](NC(=O)[C@H](Cc1ccccc1)NC(=O)CNC(=O)CNC(=O)OCc1ccccc1)C(=O)NCCCCCCNC(=O)c1ccc(-c2c3nc(c(-c4ccc(S(=O)(=O)[O-])cc4)c4ccc([nH]4)c(-c4ccc(S(=O)(=O)[O-])cc4)c4nc(c(-c5ccc(S(=O)(=O)[O-])cc5)c5ccc2[nH]5)C=C4)C=C3)cc1
REMARK SMILES IDX 36 1 37 2 38 3 5 5 4 6 2 7 1 8 3 9 6 10 7 11 8 13 9 14 17 15
REMARK SMILES IDX 18 16 19 18 20 19 21 20 22 21 23 23 24 24 25 25 26 26 27 28
REMARK SMILES IDX 28 29 29 30 30 31 31 32 35 33 32 34 34 35 33 36 10 37 11 38
REMARK SMILES IDX 12 39 16 40 13 41 15 42 14 43 39 44 40 45 41 46 42 47 43 48
REMARK SMILES IDX 44 49 45 50 46 51 47 53 48 54 49 55 107 56 50 57 106 58
REMARK SMILES IDX 51 59 52 60 53 61 100 62 54 63 105 64 99 65 101 66 55 67
REMARK SMILES IDX 104 68 98 69 97 70 56 72 86 73 67 74 85 75 68 76 71 77 84 78
REMARK SMILES IDX 102 79 69 80 70 81 83 83 103 84 72 85 57 86 58 87 66 88
REMARK SMILES IDX 59 89 65 90 60 91 61 92 62 93 63 94 64 95 87 96 88 97 96 98
REMARK SMILES IDX 89 99 95 100 90 101 91 102 92 103 93 104 94 105 73 106
REMARK SMILES IDX 74 107 82 108 75 109 81 110 76 111 77 112 78 113 79 114
REMARK SMILES IDX 80 115
REMARK H PARENT 38 4 6 12 17 17 21 22 25 27 45 52 101 71 71 82
REMARK Flexibility Score: inf
ROOT
ATOM      1  C   UNL A   1      34.429  24.800  25.279  1.00  0.00     0.242 C 
ATOM      2  O   UNL A   1      33.645  24.806  26.252  1.00  0.00    -0.273 OA
ATOM      3  N   UNL A   1      35.562  24.066  25.555  1.00  0.00    -0.354 N 
ATOM      4  H   UNL A   1      35.809  24.156  26.504  1.00  0.00     0.163 HD
ENDROOT
BRANCH   1   5
ATOM      5  C   UNL A   1      33.978  25.754  24.022  1.00  0.00     0.171 C 
BRANCH   5   6
ATOM      6  C   UNL A   1      33.495  25.146  22.558  1.00  0.00     0.038 C 
BRANCH   6   7
ATOM      7  C   UNL A   1      32.691  25.955  21.415  1.00  0.00    -0.015 C 
ATOM      8  C   UNL A   1      32.712  25.372  19.974  1.00  0.00     0.007 C 
ATOM      9  C   UNL A   1      31.186  26.076  21.715  1.00  0.00     0.007 C 
ENDBRANCH   6   7
ENDBRANCH   5   6
BRANCH   5  10
ATOM     10  N   UNL A   1      34.264  27.193  24.047  1.00  0.00    -0.343 N 
ATOM     11  C   UNL A   1      33.559  28.330  24.254  1.00  0.00     0.243 C 
ATOM     12  H   UNL A   1      35.213  27.380  23.864  1.00  0.00     0.164 HD
ATOM     13  O   UNL A   1      34.237  29.351  24.381  1.00  0.00    -0.273 OA
BRANCH  11  14
ATOM     14  C   UNL A   1      32.022  28.361  24.344  1.00  0.00     0.175 C 
BRANCH  14  15
ATOM     15  N   UNL A   1      31.618  27.967  25.680  1.00  0.00    -0.342 N 
ATOM     16  C   UNL A   1      30.895  27.071  26.350  1.00  0.00     0.240 C 
ATOM     17  H   UNL A   1      32.026  28.587  26.327  1.00  0.00     0.164 HD
ATOM     18  O   UNL A   1      31.029  27.088  27.581  1.00  0.00    -0.273 OA
BRANCH  16  19
ATOM     19  C   UNL A   1      30.092  25.994  25.703  1.00  0.00     0.216 C 
BRANCH  19  20
ATOM     20  N   UNL A   1      29.595  24.920  26.527  1.00  0.00    -0.346 N 
ATOM     21  C   UNL A   1      29.945  23.610  26.680  1.00  0.00     0.239 C 
ATOM     22  H   UNL A   1      28.842  25.190  27.102  1.00  0.00     0.164 HD
ATOM     23  O   UNL A   1      29.524  23.060  27.699  1.00  0.00    -0.273 OA
BRANCH  21  24
ATOM     24  C   UNL A   1      30.828  22.803  25.676  1.00  0.00     0.219 C 
BRANCH  24  25
ATOM     25  N   UNL A   1      32.193  22.334  25.980  1.00  0.00    -0.312 N 
ATOM     26  C   UNL A   1      32.858  21.159  25.675  1.00  0.00     0.407 C 
ATOM     27  H   UNL A   1      32.731  22.976  26.497  1.00  0.00     0.167 HD
ATOM     28  O   UNL A   1      34.039  21.015  25.903  1.00  0.00    -0.225 OA
BRANCH  26  29
ATOM     29  O   UNL A   1      32.070  20.187  25.158  1.00  0.00    -0.445 OA
BRANCH  29  30
ATOM     30  C   UNL A   1      32.597  19.327  24.114  1.00  0.00     0.270 C 
BRANCH  30  31
ATOM     31  C   UNL A   1      33.130  17.997  24.574  1.00  0.00    -0.011 A 
ATOM     32  C   UNL A   1      32.339  17.092  25.289  1.00  0.00     0.007 A 
ATOM     33  C   UNL A   1      34.468  17.670  24.303  1.00  0.00     0.007 A 
ATOM     34  C   UNL A   1      32.830  15.821  25.587  1.00  0.00     0.000 A 
ATOM     35  C   UNL A   1      34.957  16.401  24.605  1.00  0.00     0.000 A 
ATOM     36  C   UNL A   1      34.126  15.465  25.215  1.00  0.00     0.000 A 
ENDBRANCH  30  31
ENDBRANCH  29  30
ENDBRANCH  26  29
ENDBRANCH  24  25
ENDBRANCH  21  24
ENDBRANCH  19  20
ENDBRANCH  16  19
ENDBRANCH  14  15
BRANCH  14  37
ATOM     37  C   UNL A   1      31.515  29.735  23.862  1.00  0.00     0.070 C 
BRANCH  37  38
ATOM     38  C   UNL A   1      30.017  29.732  23.646  1.00  0.00    -0.045 A 
ATOM     39  C   UNL A   1      29.385  28.566  23.203  1.00  0.00     0.004 A 
ATOM     40  C   UNL A   1      29.251  30.898  23.800  1.00  0.00     0.004 A 
ATOM     41  C   UNL A   1      28.034  28.582  22.855  1.00  0.00     0.000 A 
ATOM     42  C   UNL A   1      27.901  30.914  23.446  1.00  0.00     0.000 A 
ATOM     43  C   UNL A   1      27.298  29.759  22.957  1.00  0.00     0.000 A 
ENDBRANCH  37  38
ENDBRANCH  14  37
ENDBRANCH  11  14
ENDBRANCH   5  10
ENDBRANCH   1   5
BRANCH   3  44
ATOM     44  C   UNL A   1      36.529  23.176  24.846  1.00  0.00     0.116 C 
BRANCH  44  45
ATOM     45  C   UNL A   1      37.377  22.164  25.704  1.00  0.00     0.021 C 
BRANCH  45  46
ATOM     46  C   UNL A   1      38.896  21.923  25.583  1.00  0.00     0.002 C 
BRANCH  46  47
ATOM     47  C   UNL A   1      39.790  21.518  26.756  1.00  0.00     0.002 C 
BRANCH  47  48
ATOM     48  C   UNL A   1      40.628  22.547  27.519  1.00  0.00     0.021 C 
BRANCH  48  49
ATOM     49  C   UNL A   1      40.154  23.987  27.610  1.00  0.00     0.116 C 
BRANCH  49  50
ATOM     50  N   UNL A   1      40.579  24.793  26.496  1.00  0.00    -0.352 N 
ATOM     51  C   UNL A   1      40.783  26.151  26.445  1.00  0.00     0.251 C 
ATOM     52  H   UNL A   1      40.748  24.306  25.657  1.00  0.00     0.163 HD
ATOM     53  O   UNL A   1      40.958  26.701  25.362  1.00  0.00    -0.269 OA
BRANCH  51  54
ATOM     54  C   UNL A   1      40.766  26.950  27.691  1.00  0.00     0.039 A 
ATOM     55  C   UNL A   1      39.781  26.689  28.645  1.00  0.00     0.014 A 
ATOM     56  C   UNL A   1      41.701  27.969  27.907  1.00  0.00     0.014 A 
ATOM     57  C   UNL A   1      39.746  27.430  29.829  1.00  0.00     0.010 A 
ATOM     58  C   UNL A   1      41.704  28.662  29.117  1.00  0.00     0.010 A 
ATOM     59  C   UNL A   1      40.714  28.416  30.080  1.00  0.00    -0.014 A 
BRANCH  59  60
ATOM     60  C   UNL A   1      40.668  29.236  31.320  1.00  0.00     0.031 A 
ATOM     61  C   UNL A   1      41.720  29.038  32.381  1.00  0.00     0.074 A 
ATOM     62  C   UNL A   1      39.674  30.128  31.506  1.00  0.00     0.049 A 
ATOM     63  N   UNL A   1      41.833  29.616  33.549  1.00  0.00    -0.248 NA
ATOM     64  C   UNL A   1      42.775  28.046  32.102  1.00  0.00     0.031 C 
ATOM     65  C   UNL A   1      38.586  30.393  30.561  1.00  0.00     0.029 A 
ATOM     66  N   UNL A   1      39.412  30.974  32.555  1.00  0.00    -0.354 N 
ATOM     67  C   UNL A   1      42.946  29.039  34.152  1.00  0.00     0.074 A 
ATOM     68  C   UNL A   1      43.456  28.042  33.240  1.00  0.00     0.031 C 
ATOM     69  C   UNL A   1      37.789  31.352  31.064  1.00  0.00     0.029 A 
ATOM     70  C   UNL A   1      38.280  31.738  32.383  1.00  0.00     0.049 A 
ATOM     71  H   UNL A   1      39.981  31.030  33.357  1.00  0.00     0.167 HD
ATOM     72  C   UNL A   1      43.501  29.325  35.352  1.00  0.00     0.031 A 
ATOM     73  C   UNL A   1      37.697  32.637  33.202  1.00  0.00     0.031 A 
ATOM     74  C   UNL A   1      43.007  30.341  36.242  1.00  0.00     0.049 A 
ATOM     75  C   UNL A   1      38.333  32.924  34.539  1.00  0.00     0.074 A 
ATOM     76  C   UNL A   1      43.542  30.758  37.449  1.00  0.00     0.029 A 
ATOM     77  N   UNL A   1      41.866  31.097  36.025  1.00  0.00    -0.354 N 
ATOM     78  N   UNL A   1      39.430  32.424  35.055  1.00  0.00    -0.248 NA
ATOM     79  C   UNL A   1      37.656  33.905  35.401  1.00  0.00     0.031 C 
ATOM     80  C   UNL A   1      42.688  31.719  37.993  1.00  0.00     0.029 A 
ATOM     81  C   UNL A   1      41.662  31.955  37.091  1.00  0.00     0.049 A 
ATOM     82  H   UNL A   1      41.286  31.032  35.232  1.00  0.00     0.167 HD
ATOM     83  C   UNL A   1      39.596  33.060  36.281  1.00  0.00     0.074 A 
ATOM     84  C   UNL A   1      38.495  33.988  36.425  1.00  0.00     0.031 C 
ATOM     85  C   UNL A   1      40.574  32.891  37.205  1.00  0.00     0.031 A 
BRANCH  72  86
ATOM     86  C   UNL A   1      44.703  28.530  35.792  1.00  0.00    -0.014 A 
ATOM     87  C   UNL A   1      45.978  28.773  35.251  1.00  0.00     0.010 A 
ATOM     88  C   UNL A   1      44.569  27.595  36.835  1.00  0.00     0.010 A 
ATOM     89  C   UNL A   1      47.094  28.084  35.736  1.00  0.00     0.020 A 
ATOM     90  C   UNL A   1      45.686  26.925  37.342  1.00  0.00     0.020 A 
ATOM     91  C   UNL A   1      46.942  27.171  36.784  1.00  0.00     0.054 A 
BRANCH  91  92
ATOM     92  S   UNL A   1      48.420  26.353  37.443  1.00  0.00     0.124 S 
ATOM     93  O   UNL A   1      49.199  26.112  36.231  1.00  0.00    -0.237 OA
ATOM     94  O   UNL A   1      48.964  27.361  38.349  1.00  0.00    -0.237 OA
ATOM     95  O   UNL A   1      47.895  25.154  38.093  1.00  0.00    -0.744 OA
ENDBRANCH  91  92
ENDBRANCH  72  86
BRANCH  73  96
ATOM     96  C   UNL A   1      36.438  33.328  32.800  1.00  0.00    -0.014 A 
ATOM     97  C   UNL A   1      36.475  34.490  32.009  1.00  0.00     0.010 A 
ATOM     98  C   UNL A   1      35.193  32.851  33.248  1.00  0.00     0.010 A 
ATOM     99  C   UNL A   1      35.299  35.189  31.715  1.00  0.00     0.020 A 
ATOM    100  C   UNL A   1      34.010  33.525  32.927  1.00  0.00     0.020 A 
ATOM    101  C   UNL A   1      34.074  34.704  32.182  1.00  0.00     0.054 A 
BRANCH 101 102
ATOM    102  S   UNL A   1      32.560  35.623  31.793  1.00  0.00     0.124 S 
ATOM    103  O   UNL A   1      32.942  36.991  32.129  1.00  0.00    -0.237 OA
ATOM    104  O   UNL A   1      32.379  35.347  30.371  1.00  0.00    -0.237 OA
ATOM    105  O   UNL A   1      31.559  35.019  32.669  1.00  0.00    -0.744 OA
ENDBRANCH 101 102
ENDBRANCH  73  96
BRANCH  85 106
ATOM    106  C   UNL A   1      40.544  33.770  38.426  1.00  0.00    -0.014 A 
ATOM    107  C   UNL A   1      41.276  34.968  38.488  1.00  0.00     0.010 A 
ATOM    108  C   UNL A   1      39.698  33.427  39.497  1.00  0.00     0.010 A 
ATOM    109  C   UNL A   1      41.181  35.796  39.609  1.00  0.00     0.020 A 
ATOM    110  C   UNL A   1      39.574  34.268  40.605  1.00  0.00     0.020 A 
ATOM    111  C   UNL A   1      40.325  35.442  40.658  1.00  0.00     0.054 A 
BRANCH 111 112
ATOM    112  S   UNL A   1      40.170  36.566  42.073  1.00  0.00     0.124 S 
ATOM    113  O   UNL A   1      39.675  35.675  43.118  1.00  0.00    -0.237 OA
ATOM    114  O   UNL A   1      41.539  37.046  42.251  1.00  0.00    -0.237 OA
ATOM    115  O   UNL A   1      39.217  37.575  41.612  1.00  0.00    -0.744 OA
ENDBRANCH 111 112
ENDBRANCH  85 106
ENDBRANCH  59  60
ENDBRANCH  51  54
ENDBRANCH  49  50
ENDBRANCH  48  49
ENDBRANCH  47  48
ENDBRANCH  46  47
ENDBRANCH  45  46
ENDBRANCH  44  45
ENDBRANCH   3  44
TORSDOF 30
ENDMDL
MODEL 2
REMARK VINA RESULT:     -10.1      2.117      2.959
REMARK SMILES CC(C)C[C@H](NC(=O)[C@H](Cc1ccccc1)NC(=O)CNC(=O)CNC(=O)OCc1ccccc1)C(=O)NCCCCCCNC(=O)c1ccc(-c2c3nc(c(-c4ccc(S(=O)(=O)[O-])cc4)c4ccc([nH]4)c(-c4ccc(S(=O)(=O)[O-])cc4)c4nc(c(-c5ccc(S(=O)(=O)[O-])cc5)c5ccc2[nH]5)C=C4)C=C3)cc1
REMARK SMILES IDX 36 1 37 2 38 3 5 5 4 6 2 7 1 8 3 9 6 10 7 11 8 13 9 14 17 15
REMARK SMILES IDX 18 16 19 18 20 19 21 20 22 21 23 23 24 24 25 25 26 26 27 28
REMARK SMILES IDX 28 29 29 30 30 31 31 32 35 33 32 34 34 35 33 36 10 37 11 38
REMARK SMILES IDX 12 39 16 40 13 41 15 42 14 43 39 44 40 45 41 46 42 47 43 48
REMARK SMILES IDX 44 49 45 50 46 51 47 53 48 54 49 55 107 56 50 57 106 58
REMARK SMILES IDX 51 59 52 60 53 61 100 62 54 63 105 64 99 65 101 66 55 67
REMARK SMILES IDX 104 68 98 69 97 70 56 72 86 73 67 74 85 75 68 76 71 77 84 78
REMARK SMILES IDX 102 79 69 80 70 81 83 83 103 84 72 85 57 86 58 87 66 88
REMARK SMILES IDX 59 89 65 90 60 91 61 92 62 93 63 94 64 95 87 96 88 97 96 98
REMARK SMILES IDX 89 99 95 100 90 101 91 102 92 103 93 104 94 105 73 106
REMARK SMILES IDX 74 107 82 108 75 109 81 110 76 111 77 112 78 113 79 114
REMARK SMILES IDX 80 115
REMARK H PARENT 38 4 6 12 17 17 21 22 25 27 45 52 101 71 71 82
REMARK Flexibility Score: inf
ROOT
ATOM      1  C   UNL A   1      34.707  24.969  25.258  1.00  0.00     0.242 C 
ATOM      2  O   UNL A   1      34.686  25.475  26.400  1.00  0.00    -0.273 OA
ATOM      3  N   UNL A   1      35.350  23.750  25.263  1.00  0.00    -0.354 N 
ATOM      4  H   UNL A   1      36.088  23.752  25.915  1.00  0.00     0.163 HD
ENDROOT
BRANCH   1   5
ATOM      5  C   UNL A   1      34.105  25.924  24.067  1.00  0.00     0.171 C 
BRANCH   5   6
ATOM      6  C   UNL A   1      33.616  25.333  22.598  1.00  0.00     0.038 C 
BRANCH   6   7
ATOM      7  C   UNL A   1      32.306  25.799  21.777  1.00  0.00    -0.015 C 
ATOM      8  C   UNL A   1      32.281  25.520  20.248  1.00  0.00     0.007 C 
ATOM      9  C   UNL A   1      31.018  25.118  22.272  1.00  0.00     0.007 C 
ENDBRANCH   6   7
ENDBRANCH   5   6
BRANCH   5  10
ATOM     10  N   UNL A   1      34.247  27.382  24.147  1.00  0.00    -0.343 N 
ATOM     11  C   UNL A   1      33.426  28.438  24.355  1.00  0.00     0.243 C 
ATOM     12  H   UNL A   1      35.181  27.666  24.014  1.00  0.00     0.164 HD
ATOM     13  O   UNL A   1      33.994  29.515  24.543  1.00  0.00    -0.273 OA
BRANCH  11  14
ATOM     14  C   UNL A   1      31.891  28.317  24.374  1.00  0.00     0.175 C 
BRANCH  14  15
ATOM     15  N   UNL A   1      31.451  28.083  25.736  1.00  0.00    -0.342 N 
ATOM     16  C   UNL A   1      31.234  27.121  26.632  1.00  0.00     0.240 C 
ATOM     17  H   UNL A   1      31.235  28.951  26.149  1.00  0.00     0.164 HD
ATOM     18  O   UNL A   1      30.999  27.507  27.785  1.00  0.00    -0.273 OA
BRANCH  16  19
ATOM     19  C   UNL A   1      31.410  25.668  26.353  1.00  0.00     0.216 C 
BRANCH  19  20
ATOM     20  N   UNL A   1      30.352  24.763  26.733  1.00  0.00    -0.346 N 
ATOM     21  C   UNL A   1      30.257  23.404  26.811  1.00  0.00     0.239 C 
ATOM     22  H   UNL A   1      29.522  25.226  26.992  1.00  0.00     0.164 HD
ATOM     23  O   UNL A   1      29.316  22.972  27.478  1.00  0.00    -0.273 OA
BRANCH  21  24
ATOM     24  C   UNL A   1      31.248  22.404  26.135  1.00  0.00     0.219 C 
BRANCH  24  25
ATOM     25  N   UNL A   1      31.585  22.429  24.700  1.00  0.00    -0.312 N 
ATOM     26  C   UNL A   1      31.944  21.428  23.814  1.00  0.00     0.407 C 
ATOM     27  H   UNL A   1      31.550  23.327  24.297  1.00  0.00     0.167 HD
ATOM     28  O   UNL A   1      32.054  21.635  22.625  1.00  0.00    -0.225 OA
BRANCH  26  29
ATOM     29  O   UNL A   1      32.206  20.234  24.395  1.00  0.00    -0.445 OA
BRANCH  29  30
ATOM     30  C   UNL A   1      33.302  19.426  23.894  1.00  0.00     0.270 C 
BRANCH  30  31
ATOM     31  C   UNL A   1      33.461  18.074  24.535  1.00  0.00    -0.011 A 
ATOM     32  C   UNL A   1      32.420  17.467  25.245  1.00  0.00     0.007 A 
ATOM     33  C   UNL A   1      34.698  17.418  24.443  1.00  0.00     0.007 A 
ATOM     34  C   UNL A   1      32.565  16.162  25.716  1.00  0.00     0.000 A 
ATOM     35  C   UNL A   1      34.843  16.116  24.917  1.00  0.00     0.000 A 
ATOM     36  C   UNL A   1      33.764  15.477  25.523  1.00  0.00     0.000 A 
ENDBRANCH  30  31
ENDBRANCH  29  30
ENDBRANCH  26  29
ENDBRANCH  24  25
ENDBRANCH  21  24
ENDBRANCH  19  20
ENDBRANCH  16  19
ENDBRANCH  14  15
BRANCH  14  37
ATOM     37  C   UNL A   1      31.279  29.543  23.667  1.00  0.00     0.070 C 
BRANCH  37  38
ATOM     38  C   UNL A   1      29.775  29.420  23.539  1.00  0.00    -0.045 A 
ATOM     39  C   UNL A   1      29.187  28.152  23.504  1.00  0.00     0.004 A 
ATOM     40  C   UNL A   1      28.958  30.548  23.370  1.00  0.00     0.004 A 
ATOM     41  C   UNL A   1      27.825  28.011  23.236  1.00  0.00     0.000 A 
ATOM     42  C   UNL A   1      27.596  30.406  23.097  1.00  0.00     0.000 A 
ATOM     43  C   UNL A   1      27.035  29.136  23.014  1.00  0.00     0.000 A 
ENDBRANCH  37  38
ENDBRANCH  14  37
ENDBRANCH  11  14
ENDBRANCH   5  10
ENDBRANCH   1   5
BRANCH   3  44
ATOM     44  C   UNL A   1      35.265  22.427  24.576  1.00  0.00     0.116 C 
BRANCH  44  45
ATOM     45  C   UNL A   1      36.240  21.282  25.041  1.00  0.00     0.021 C 
BRANCH  45  46
ATOM     46  C   UNL A   1      37.716  21.121  24.621  1.00  0.00     0.002 C 
BRANCH  46  47
ATOM     47  C   UNL A   1      38.607  19.962  25.067  1.00  0.00     0.002 C 
BRANCH  47  48
ATOM     48  C   UNL A   1      39.780  20.174  26.028  1.00  0.00     0.021 C 
BRANCH  48  49
ATOM     49  C   UNL A   1      40.411  21.550  26.153  1.00  0.00     0.116 C 
BRANCH  49  50
ATOM     50  N   UNL A   1      41.608  21.696  25.368  1.00  0.00    -0.352 N 
ATOM     51  C   UNL A   1      42.512  22.731  25.363  1.00  0.00     0.251 C 
ATOM     52  H   UNL A   1      41.807  20.954  24.752  1.00  0.00     0.163 HD
ATOM     53  O   UNL A   1      43.374  22.783  24.491  1.00  0.00    -0.269 OA
BRANCH  51  54
ATOM     54  C   UNL A   1      42.431  23.792  26.393  1.00  0.00     0.039 A 
ATOM     55  C   UNL A   1      42.927  25.062  26.090  1.00  0.00     0.014 A 
ATOM     56  C   UNL A   1      41.894  23.529  27.657  1.00  0.00     0.014 A 
ATOM     57  C   UNL A   1      42.861  26.078  27.047  1.00  0.00     0.010 A 
ATOM     58  C   UNL A   1      41.769  24.562  28.585  1.00  0.00     0.010 A 
ATOM     59  C   UNL A   1      42.272  25.841  28.299  1.00  0.00    -0.014 A 
BRANCH  59  60
ATOM     60  C   UNL A   1      42.226  26.904  29.338  1.00  0.00     0.031 A 
ATOM     61  C   UNL A   1      43.245  26.901  30.449  1.00  0.00     0.074 A 
ATOM     62  C   UNL A   1      41.261  27.845  29.303  1.00  0.00     0.049 A 
ATOM     63  N   UNL A   1      43.351  27.708  31.472  1.00  0.00    -0.248 NA
ATOM     64  C   UNL A   1      44.269  25.841  30.416  1.00  0.00     0.031 C 
ATOM     65  C   UNL A   1      40.206  27.938  28.290  1.00  0.00     0.029 A 
ATOM     66  N   UNL A   1      41.005  28.900  30.143  1.00  0.00    -0.354 N 
ATOM     67  C   UNL A   1      44.428  27.237  32.217  1.00  0.00     0.074 A 
ATOM     68  C   UNL A   1      44.923  26.056  31.550  1.00  0.00     0.031 C 
ATOM     69  C   UNL A   1      39.433  29.006  28.556  1.00  0.00     0.029 A 
ATOM     70  C   UNL A   1      39.906  29.645  29.780  1.00  0.00     0.049 A 
ATOM     71  H   UNL A   1      41.557  29.106  30.932  1.00  0.00     0.167 HD
ATOM     72  C   UNL A   1      44.965  27.752  33.348  1.00  0.00     0.031 A 
ATOM     73  C   UNL A   1      39.337  30.714  30.374  1.00  0.00     0.031 A 
ATOM     74  C   UNL A   1      44.486  28.947  33.989  1.00  0.00     0.049 A 
ATOM     75  C   UNL A   1      39.951  31.256  31.640  1.00  0.00     0.074 A 
ATOM     76  C   UNL A   1      45.008  29.592  35.097  1.00  0.00     0.029 A 
ATOM     77  N   UNL A   1      43.379  29.675  33.584  1.00  0.00    -0.354 N 
ATOM     78  N   UNL A   1      41.017  30.842  32.283  1.00  0.00    -0.248 NA
ATOM     79  C   UNL A   1      39.290  32.416  32.257  1.00  0.00     0.031 C 
ATOM     80  C   UNL A   1      44.176  30.671  35.402  1.00  0.00     0.029 A 
ATOM     81  C   UNL A   1      43.181  30.744  34.439  1.00  0.00     0.049 A 
ATOM     82  H   UNL A   1      42.817  29.463  32.804  1.00  0.00     0.167 HD
ATOM     83  C   UNL A   1      41.177  31.716  33.353  1.00  0.00     0.074 A 
ATOM     84  C   UNL A   1      40.107  32.687  33.266  1.00  0.00     0.031 C 
ATOM     85  C   UNL A   1      42.126  31.716  34.322  1.00  0.00     0.031 A 
BRANCH  72  86
ATOM     86  C   UNL A   1      46.126  27.031  33.980  1.00  0.00    -0.014 A 
ATOM     87  C   UNL A   1      47.447  27.482  33.811  1.00  0.00     0.010 A 
ATOM     88  C   UNL A   1      45.879  25.944  34.839  1.00  0.00     0.010 A 
ATOM     89  C   UNL A   1      48.501  26.851  34.478  1.00  0.00     0.020 A 
ATOM     90  C   UNL A   1      46.927  25.328  35.530  1.00  0.00     0.020 A 
ATOM     91  C   UNL A   1      48.232  25.783  35.339  1.00  0.00     0.054 A 
BRANCH  91  92
ATOM     92  S   UNL A   1      49.611  25.036  36.251  1.00  0.00     0.124 S 
ATOM     93  O   UNL A   1      50.642  24.946  35.220  1.00  0.00    -0.237 OA
ATOM     94  O   UNL A   1      49.862  26.013  37.306  1.00  0.00    -0.237 OA
ATOM     95  O   UNL A   1      49.075  23.755  36.706  1.00  0.00    -0.744 OA
ENDBRANCH  91  92
ENDBRANCH  72  86
BRANCH  73  96
ATOM     96  C   UNL A   1      38.113  31.342  29.798  1.00  0.00    -0.014 A 
ATOM     97  C   UNL A   1      38.105  32.702  29.437  1.00  0.00     0.010 A 
ATOM     98  C   UNL A   1      36.932  30.593  29.651  1.00  0.00     0.010 A 
ATOM     99  C   UNL A   1      36.927  33.311  28.988  1.00  0.00     0.020 A 
ATOM    100  C   UNL A   1      35.762  31.188  29.168  1.00  0.00     0.020 A 
ATOM    101  C   UNL A   1      35.762  32.550  28.862  1.00  0.00     0.054 A 
BRANCH 101 102
ATOM    102  S   UNL A   1      34.245  33.357  28.280  1.00  0.00     0.124 S 
ATOM    103  O   UNL A   1      33.475  32.225  27.776  1.00  0.00    -0.237 OA
ATOM    104  O   UNL A   1      33.734  33.982  29.496  1.00  0.00    -0.237 OA
ATOM    105  O   UNL A   1      34.724  34.290  27.263  1.00  0.00    -0.744 OA
ENDBRANCH 101 102
ENDBRANCH  73  96
BRANCH  85 106
ATOM    106  C   UNL A   1      42.099  32.832  35.330  1.00  0.00    -0.014 A 
ATOM    107  C   UNL A   1      42.602  34.109  35.027  1.00  0.00     0.010 A 
ATOM    108  C   UNL A   1      41.480  32.616  36.576  1.00  0.00     0.010 A 
ATOM    109  C   UNL A   1      42.507  35.144  35.961  1.00  0.00     0.020 A 
ATOM    110  C   UNL A   1      41.353  33.656  37.498  1.00  0.00     0.020 A 
ATOM    111  C   UNL A   1      41.877  34.912  37.189  1.00  0.00     0.054 A 
BRANCH 111 112
ATOM    112  S   UNL A   1      41.709  36.289  38.356  1.00  0.00     0.124 S 
ATOM    113  O   UNL A   1      42.921  37.060  38.096  1.00  0.00    -0.237 OA
ATOM    114  O   UNL A   1      40.460  36.917  37.931  1.00  0.00    -0.237 OA
ATOM    115  O   UNL A   1      41.657  35.633  39.661  1.00  0.00    -0.744 OA
ENDBRANCH 111 112
ENDBRANCH  85 106
ENDBRANCH  59  60
ENDBRANCH  51  54
ENDBRANCH  49  50
ENDBRANCH  48  49
ENDBRANCH  47  48
ENDBRANCH  46  47
ENDBRANCH  45  46
ENDBRANCH  44  45
ENDBRANCH   3  44
TORSDOF 30
ENDMDL
MODEL 3
REMARK VINA RESULT:      -9.5      1.624      2.484
REMARK SMILES CC(C)C[C@H](NC(=O)[C@H](Cc1ccccc1)NC(=O)CNC(=O)CNC(=O)OCc1ccccc1)C(=O)NCCCCCCNC(=O)c1ccc(-c2c3nc(c(-c4ccc(S(=O)(=O)[O-])cc4)c4ccc([nH]4)c(-c4ccc(S(=O)(=O)[O-])cc4)c4nc(c(-c5ccc(S(=O)(=O)[O-])cc5)c5ccc2[nH]5)C=C4)C=C3)cc1
REMARK SMILES IDX 36 1 37 2 38 3 5 5 4 6 2 7 1 8 3 9 6 10 7 11 8 13 9 14 17 15
REMARK SMILES IDX 18 16 19 18 20 19 21 20 22 21 23 23 24 24 25 25 26 26 27 28
REMARK SMILES IDX 28 29 29 30 30 31 31 32 35 33 32 34 34 35 33 36 10 37 11 38
REMARK SMILES IDX 12 39 16 40 13 41 15 42 14 43 39 44 40 45 41 46 42 47 43 48
REMARK SMILES IDX 44 49 45 50 46 51 47 53 48 54 49 55 107 56 50 57 106 58
REMARK SMILES IDX 51 59 52 60 53 61 100 62 54 63 105 64 99 65 101 66 55 67
REMARK SMILES IDX 104 68 98 69 97 70 56 72 86 73 67 74 85 75 68 76 71 77 84 78
REMARK SMILES IDX 102 79 69 80 70 81 83 83 103 84 72 85 57 86 58 87 66 88
REMARK SMILES IDX 59 89 65 90 60 91 61 92 62 93 63 94 64 95 87 96 88 97 96 98
REMARK SMILES IDX 89 99 95 100 90 101 91 102 92 103 93 104 94 105 73 106
REMARK SMILES IDX 74 107 82 108 75 109 81 110 76 111 77 112 78 113 79 114
REMARK SMILES IDX 80 115
REMARK H PARENT 38 4 6 12 17 17 21 22 25 27 45 52 101 71 71 82
REMARK Flexibility Score: inf
ROOT
ATOM      1  C   UNL A   1      34.642  24.829  23.816  1.00  0.00     0.242 C 
ATOM      2  O   UNL A   1      34.174  25.077  22.685  1.00  0.00    -0.273 OA
ATOM      3  N   UNL A   1      35.662  23.905  23.743  1.00  0.00    -0.354 N 
ATOM      4  H   UNL A   1      35.486  23.253  23.027  1.00  0.00     0.163 HD
ENDROOT
BRANCH   1   5
ATOM      5  C   UNL A   1      33.851  25.541  25.065  1.00  0.00     0.171 C 
BRANCH   5   6
ATOM      6  C   UNL A   1      32.910  24.697  26.135  1.00  0.00     0.038 C 
BRANCH   6   7
ATOM      7  C   UNL A   1      33.445  23.684  27.274  1.00  0.00    -0.015 C 
ATOM      8  C   UNL A   1      32.477  22.565  27.751  1.00  0.00     0.007 C 
ATOM      9  C   UNL A   1      34.691  22.896  26.833  1.00  0.00     0.007 C 
ENDBRANCH   6   7
ENDBRANCH   5   6
BRANCH   5  10
ATOM     10  N   UNL A   1      33.707  27.002  25.111  1.00  0.00    -0.343 N 
ATOM     11  C   UNL A   1      32.907  27.927  24.531  1.00  0.00     0.243 C 
ATOM     12  H   UNL A   1      34.363  27.414  25.718  1.00  0.00     0.164 HD
ATOM     13  O   UNL A   1      32.994  29.063  25.002  1.00  0.00    -0.273 OA
BRANCH  11  14
ATOM     14  C   UNL A   1      31.942  27.599  23.377  1.00  0.00     0.175 C 
BRANCH  14  15
ATOM     15  N   UNL A   1      30.765  26.947  23.915  1.00  0.00    -0.342 N 
ATOM     16  C   UNL A   1      30.100  25.792  23.923  1.00  0.00     0.240 C 
ATOM     17  H   UNL A   1      30.280  27.591  24.481  1.00  0.00     0.164 HD
ATOM     18  O   UNL A   1      29.171  25.715  24.738  1.00  0.00    -0.273 OA
BRANCH  16  19
ATOM     19  C   UNL A   1      30.509  24.589  23.144  1.00  0.00     0.216 C 
BRANCH  19  20
ATOM     20  N   UNL A   1      31.443  23.668  23.744  1.00  0.00    -0.346 N 
ATOM     21  C   UNL A   1      31.987  22.483  23.342  1.00  0.00     0.239 C 
ATOM     22  H   UNL A   1      31.755  23.957  24.632  1.00  0.00     0.164 HD
ATOM     23  O   UNL A   1      32.992  22.121  23.956  1.00  0.00    -0.273 OA
BRANCH  21  24
ATOM     24  C   UNL A   1      31.431  21.597  22.182  1.00  0.00     0.219 C 
BRANCH  24  25
ATOM     25  N   UNL A   1      31.974  20.272  21.830  1.00  0.00    -0.312 N 
ATOM     26  C   UNL A   1      32.073  19.091  22.546  1.00  0.00     0.407 C 
ATOM     27  H   UNL A   1      32.335  20.217  20.916  1.00  0.00     0.167 HD
ATOM     28  O   UNL A   1      32.435  18.057  22.028  1.00  0.00    -0.225 OA
BRANCH  26  29
ATOM     29  O   UNL A   1      31.782  19.209  23.863  1.00  0.00    -0.445 OA
BRANCH  29  30
ATOM     30  C   UNL A   1      32.834  19.006  24.842  1.00  0.00     0.270 C 
BRANCH  30  31
ATOM     31  C   UNL A   1      33.367  17.602  24.943  1.00  0.00    -0.011 A 
ATOM     32  C   UNL A   1      34.697  17.293  24.641  1.00  0.00     0.007 A 
ATOM     33  C   UNL A   1      32.496  16.569  25.323  1.00  0.00     0.007 A 
ATOM     34  C   UNL A   1      35.183  16.006  24.868  1.00  0.00     0.000 A 
ATOM     35  C   UNL A   1      32.982  15.283  25.546  1.00  0.00     0.000 A 
ATOM     36  C   UNL A   1      34.334  15.012  25.351  1.00  0.00     0.000 A 
ENDBRANCH  30  31
ENDBRANCH  29  30
ENDBRANCH  26  29
ENDBRANCH  24  25
ENDBRANCH  21  24
ENDBRANCH  19  20
ENDBRANCH  16  19
ENDBRANCH  14  15
BRANCH  14  37
ATOM     37  C   UNL A   1      31.689  28.877  22.552  1.00  0.00     0.070 C 
BRANCH  37  38
ATOM     38  C   UNL A   1      30.285  29.405  22.758  1.00  0.00    -0.045 A 
ATOM     39  C   UNL A   1      30.091  30.588  23.478  1.00  0.00     0.004 A 
ATOM     40  C   UNL A   1      29.160  28.693  22.314  1.00  0.00     0.004 A 
ATOM     41  C   UNL A   1      28.803  31.012  23.808  1.00  0.00     0.000 A 
ATOM     42  C   UNL A   1      27.873  29.115  22.650  1.00  0.00     0.000 A 
ATOM     43  C   UNL A   1      27.697  30.266  23.411  1.00  0.00     0.000 A 
ENDBRANCH  37  38
ENDBRANCH  14  37
ENDBRANCH  11  14
ENDBRANCH   5  10
ENDBRANCH   1   5
BRANCH   3  44
ATOM     44  C   UNL A   1      36.955  23.596  24.423  1.00  0.00     0.116 C 
BRANCH  44  45
ATOM     45  C   UNL A   1      37.405  22.091  24.520  1.00  0.00     0.021 C 
BRANCH  45  46
ATOM     46  C   UNL A   1      38.019  21.405  25.759  1.00  0.00     0.002 C 
BRANCH  46  47
ATOM     47  C   UNL A   1      39.520  21.201  25.963  1.00  0.00     0.002 C 
BRANCH  47  48
ATOM     48  C   UNL A   1      40.333  22.101  26.896  1.00  0.00     0.021 C 
BRANCH  48  49
ATOM     49  C   UNL A   1      40.291  23.608  26.715  1.00  0.00     0.116 C 
BRANCH  49  50
ATOM     50  N   UNL A   1      41.350  24.107  25.877  1.00  0.00    -0.352 N 
ATOM     51  C   UNL A   1      41.993  25.319  25.934  1.00  0.00     0.251 C 
ATOM     52  H   UNL A   1      41.656  23.495  25.168  1.00  0.00     0.163 HD
ATOM     53  O   UNL A   1      42.741  25.656  25.020  1.00  0.00    -0.269 OA
BRANCH  51  54
ATOM     54  C   UNL A   1      41.767  26.225  27.082  1.00  0.00     0.039 A 
ATOM     55  C   UNL A   1      41.089  25.737  28.202  1.00  0.00     0.014 A 
ATOM     56  C   UNL A   1      42.197  27.556  27.046  1.00  0.00     0.014 A 
ATOM     57  C   UNL A   1      40.865  26.574  29.297  1.00  0.00     0.010 A 
ATOM     58  C   UNL A   1      42.030  28.369  28.167  1.00  0.00     0.010 A 
ATOM     59  C   UNL A   1      41.342  27.895  29.294  1.00  0.00    -0.014 A 
BRANCH  59  60
ATOM     60  C   UNL A   1      41.080  28.807  30.439  1.00  0.00     0.031 A 
ATOM     61  C   UNL A   1      41.915  28.690  31.688  1.00  0.00     0.074 A 
ATOM     62  C   UNL A   1      40.081  29.710  30.371  1.00  0.00     0.049 A 
ATOM     63  N   UNL A   1      41.819  29.355  32.810  1.00  0.00    -0.248 NA
ATOM     64  C   UNL A   1      42.989  27.680  31.684  1.00  0.00     0.031 C 
ATOM     65  C   UNL A   1      39.190  29.902  29.224  1.00  0.00     0.029 A 
ATOM     66  N   UNL A   1      39.642  30.634  31.287  1.00  0.00    -0.354 N 
ATOM     67  C   UNL A   1      42.794  28.826  33.650  1.00  0.00     0.074 A 
ATOM     68  C   UNL A   1      43.450  27.763  32.925  1.00  0.00     0.031 C 
ATOM     69  C   UNL A   1      38.327  30.896  29.498  1.00  0.00     0.029 A 
ATOM     70  C   UNL A   1      38.572  31.382  30.852  1.00  0.00     0.049 A 
ATOM     71  H   UNL A   1      40.054  30.750  32.174  1.00  0.00     0.167 HD
ATOM     72  C   UNL A   1      43.122  29.203  34.908  1.00  0.00     0.031 A 
ATOM     73  C   UNL A   1      37.860  32.340  31.479  1.00  0.00     0.031 A 
ATOM     74  C   UNL A   1      42.486  30.283  35.612  1.00  0.00     0.049 A 
ATOM     75  C   UNL A   1      38.242  32.729  32.886  1.00  0.00     0.074 A 
ATOM     76  C   UNL A   1      42.796  30.791  36.862  1.00  0.00     0.029 A 
ATOM     77  N   UNL A   1      41.415  31.020  35.132  1.00  0.00    -0.354 N 
ATOM     78  N   UNL A   1      39.219  32.269  33.632  1.00  0.00    -0.248 NA
ATOM     79  C   UNL A   1      37.432  33.772  33.533  1.00  0.00     0.031 C 
ATOM     80  C   UNL A   1      41.869  31.790  37.166  1.00  0.00     0.029 A 
ATOM     81  C   UNL A   1      41.030  31.957  36.074  1.00  0.00     0.049 A 
ATOM     82  H   UNL A   1      40.991  30.896  34.252  1.00  0.00     0.167 HD
ATOM     83  C   UNL A   1      39.165  32.997  34.816  1.00  0.00     0.074 A 
ATOM     84  C   UNL A   1      38.069  33.933  34.684  1.00  0.00     0.031 C 
ATOM     85  C   UNL A   1      39.953  32.899  35.915  1.00  0.00     0.031 A 
BRANCH  72  86
ATOM     86  C   UNL A   1      44.211  28.444  35.620  1.00  0.00    -0.014 A 
ATOM     87  C   UNL A   1      43.926  27.297  36.380  1.00  0.00     0.010 A 
ATOM     88  C   UNL A   1      45.553  28.831  35.442  1.00  0.00     0.010 A 
ATOM     89  C   UNL A   1      44.961  26.558  36.961  1.00  0.00     0.020 A 
ATOM     90  C   UNL A   1      46.592  28.079  35.997  1.00  0.00     0.020 A 
ATOM     91  C   UNL A   1      46.288  26.949  36.758  1.00  0.00     0.054 A 
BRANCH  91  92
ATOM     92  S   UNL A   1      47.611  25.926  37.458  1.00  0.00     0.124 S 
ATOM     93  O   UNL A   1      48.134  25.254  36.270  1.00  0.00    -0.237 OA
ATOM     94  O   UNL A   1      48.498  26.918  38.059  1.00  0.00    -0.237 OA
ATOM     95  O   UNL A   1      46.917  25.058  38.406  1.00  0.00    -0.744 OA
ENDBRANCH  91  92
ENDBRANCH  72  86
BRANCH  73  96
ATOM     96  C   UNL A   1      36.706  32.998  30.802  1.00  0.00    -0.014 A 
ATOM     97  C   UNL A   1      36.911  33.873  29.719  1.00  0.00     0.010 A 
ATOM     98  C   UNL A   1      35.396  32.788  31.267  1.00  0.00     0.010 A 
ATOM     99  C   UNL A   1      35.834  34.562  29.148  1.00  0.00     0.020 A 
ATOM    100  C   UNL A   1      34.312  33.446  30.677  1.00  0.00     0.020 A 
ATOM    101  C   UNL A   1      34.542  34.347  29.636  1.00  0.00     0.054 A 
BRANCH 101 102
ATOM    102  S   UNL A   1      33.160  35.250  28.885  1.00  0.00     0.124 S 
ATOM    103  O   UNL A   1      32.540  34.221  28.057  1.00  0.00    -0.237 OA
ATOM    104  O   UNL A   1      32.390  35.675  30.051  1.00  0.00    -0.237 OA
ATOM    105  O   UNL A   1      33.815  36.332  28.154  1.00  0.00    -0.744 OA
ENDBRANCH 101 102
ENDBRANCH  73  96
BRANCH  85 106
ATOM    106  C   UNL A   1      39.711  33.868  37.041  1.00  0.00    -0.014 A 
ATOM    107  C   UNL A   1      39.166  33.450  38.266  1.00  0.00     0.010 A 
ATOM    108  C   UNL A   1      40.119  35.207  36.892  1.00  0.00     0.010 A 
ATOM    109  C   UNL A   1      39.010  34.359  39.316  1.00  0.00     0.020 A 
ATOM    110  C   UNL A   1      39.997  36.111  37.949  1.00  0.00     0.020 A 
ATOM    111  C   UNL A   1      39.433  35.683  39.151  1.00  0.00     0.054 A 
BRANCH 111 112
ATOM    112  S   UNL A   1      39.280  36.826  40.551  1.00  0.00     0.124 S 
ATOM    113  O   UNL A   1      38.265  36.172  41.370  1.00  0.00    -0.237 OA
ATOM    114  O   UNL A   1      40.631  36.830  41.108  1.00  0.00    -0.237 OA
ATOM    115  O   UNL A   1      38.865  38.082  39.929  1.00  0.00    -0.744 OA
ENDBRANCH 111 112
ENDBRANCH  85 106
ENDBRANCH  59  60
ENDBRANCH  51  54
ENDBRANCH  49  50
ENDBRANCH  48  49
ENDBRANCH  47  48
ENDBRANCH  46  47
ENDBRANCH  45  46
ENDBRANCH  44  45
ENDBRANCH   3  44
TORSDOF 30
ENDMDL
