MODEL 1
REMARK VINA RESULT:     -11.9      0.000      0.000
REMARK SMILES CC(=O)Nc1cccc(C(=O)N2CCCC[C@@H]2C(=O)NCCCCCCNC(=O)c2ccc(-c3c4nc(c(-c5ccc(S(=O)(=O)[O-])cc5)c5ccc([nH]5)c(-c5ccc(S(=O)(=O)[O-])cc5)c5nc(c(-c6ccc(S(=O)(=O)[O-])cc6)c6ccc3[nH]6)C=C5)C=C4)cc2)c1
REMARK SMILES IDX 23 1 22 2 21 3 20 4 18 5 19 6 17 8 12 9 13 10 14 11 16 12
REMARK SMILES IDX 15 13 10 14 11 15 9 16 5 17 6 18 90 19 7 20 8 21 4 22 1 23
REMARK SMILES IDX 2 24 3 25 24 27 25 28 26 29 27 30 28 31 29 33 30 34 31 35
REMARK SMILES IDX 89 36 32 37 88 38 33 39 34 40 35 41 82 42 36 43 87 44 81 45
REMARK SMILES IDX 83 46 37 47 86 48 80 49 79 50 38 52 68 53 49 54 67 55 50 56
REMARK SMILES IDX 53 57 66 58 84 59 51 60 52 61 65 63 85 64 54 65 39 66 40 67
REMARK SMILES IDX 48 68 41 69 47 70 42 71 43 72 44 73 45 74 46 75 69 76 70 77
REMARK SMILES IDX 78 78 71 79 77 80 72 81 73 82 74 83 75 84 76 85 55 86 56 87
REMARK SMILES IDX 64 88 57 89 63 90 58 91 59 92 60 93 61 94 62 95
REMARK H PARENT 20 7 4 26 27 32 83 51 53 62
REMARK Flexibility Score: inf
ROOT
ATOM      1  C   UNL A   1      33.339  30.264  27.232  1.00  0.00     0.002 C 
ENDROOT
BRANCH   1   2
ATOM      2  C   UNL A   1      32.075  30.706  26.487  1.00  0.00     0.021 C 
BRANCH   2   3
ATOM      3  C   UNL A   1      31.634  29.721  25.408  1.00  0.00     0.116 C 
BRANCH   3   4
ATOM      4  N   UNL A   1      32.666  29.608  24.396  1.00  0.00    -0.354 N 
ATOM      5  C   UNL A   1      33.301  28.498  23.935  1.00  0.00     0.242 C 
ATOM      6  O   UNL A   1      34.333  28.652  23.275  1.00  0.00    -0.273 OA
ATOM      7  H   UNL A   1      32.948  30.456  23.985  1.00  0.00     0.163 HD
BRANCH   5   8
ATOM      8  C   UNL A   1      32.816  27.083  24.312  1.00  0.00     0.174 C 
ATOM      9  N   UNL A   1      31.455  26.706  23.838  1.00  0.00    -0.327 N 
ATOM     10  C   UNL A   1      30.914  25.473  24.400  1.00  0.00     0.120 C 
ATOM     11  C   UNL A   1      30.922  25.481  25.916  1.00  0.00     0.022 C 
ATOM     12  C   UNL A   1      32.940  26.972  25.854  1.00  0.00     0.035 C 
ATOM     13  C   UNL A   1      32.336  25.700  26.433  1.00  0.00     0.004 C 
BRANCH   9  14
ATOM     14  C   UNL A   1      30.773  27.183  22.707  1.00  0.00     0.254 C 
ATOM     15  O   UNL A   1      31.197  26.981  21.568  1.00  0.00    -0.269 OA
BRANCH  14  16
ATOM     16  C   UNL A   1      29.540  28.002  22.812  1.00  0.00     0.042 A 
ATOM     17  C   UNL A   1      28.235  29.921  22.103  1.00  0.00     0.041 A 
ATOM     18  C   UNL A   1      27.156  29.454  22.861  1.00  0.00     0.026 A 
ATOM     19  C   UNL A   1      29.419  29.189  22.091  1.00  0.00     0.040 A 
ATOM     20  C   UNL A   1      27.247  28.237  23.544  1.00  0.00     0.003 A 
ATOM     21  C   UNL A   1      28.435  27.506  23.513  1.00  0.00     0.014 A 
BRANCH  17  22
ATOM     22  N   UNL A   1      28.088  31.139  21.420  1.00  0.00    -0.326 N 
ATOM     23  C   UNL A   1      28.806  32.743  23.193  1.00  0.00     0.114 C 
ATOM     24  C   UNL A   1      28.165  32.430  21.864  1.00  0.00     0.221 C 
ATOM     25  O   UNL A   1      27.768  33.341  21.133  1.00  0.00    -0.275 OA
ATOM     26  H   UNL A   1      27.899  31.048  20.458  1.00  0.00     0.169 HD
ENDBRANCH  17  22
ENDBRANCH  14  16
ENDBRANCH   9  14
ENDBRANCH   5   8
ENDBRANCH   3   4
ENDBRANCH   2   3
ENDBRANCH   1   2
BRANCH   1  27
ATOM     27  C   UNL A   1      34.144  31.415  27.847  1.00  0.00     0.002 C 
BRANCH  27  28
ATOM     28  C   UNL A   1      35.658  31.300  27.657  1.00  0.00     0.021 C 
BRANCH  28  29
ATOM     29  C   UNL A   1      36.472  31.836  28.828  1.00  0.00     0.116 C 
BRANCH  29  30
ATOM     30  N   UNL A   1      36.154  31.141  30.066  1.00  0.00    -0.352 N 
ATOM     31  C   UNL A   1      36.796  30.075  30.641  1.00  0.00     0.251 C 
ATOM     32  H   UNL A   1      35.373  31.483  30.557  1.00  0.00     0.163 HD
ATOM     33  O   UNL A   1      36.268  29.463  31.567  1.00  0.00    -0.269 OA
BRANCH  31  34
ATOM     34  C   UNL A   1      38.116  29.662  30.126  1.00  0.00     0.039 A 
ATOM     35  C   UNL A   1      38.338  29.659  28.749  1.00  0.00     0.014 A 
ATOM     36  C   UNL A   1      39.136  29.294  31.009  1.00  0.00     0.014 A 
ATOM     37  C   UNL A   1      39.603  29.332  28.257  1.00  0.00     0.010 A 
ATOM     38  C   UNL A   1      40.415  29.047  30.523  1.00  0.00     0.010 A 
ATOM     39  C   UNL A   1      40.659  29.054  29.142  1.00  0.00    -0.014 A 
BRANCH  39  40
ATOM     40  C   UNL A   1      42.026  28.763  28.640  1.00  0.00     0.031 A 
ATOM     41  C   UNL A   1      42.383  27.372  28.190  1.00  0.00     0.074 A 
ATOM     42  C   UNL A   1      42.956  29.737  28.640  1.00  0.00     0.049 A 
ATOM     43  N   UNL A   1      43.531  26.915  27.761  1.00  0.00    -0.248 NA
ATOM     44  C   UNL A   1      41.318  26.358  28.252  1.00  0.00     0.031 C 
ATOM     45  C   UNL A   1      42.740  31.117  29.081  1.00  0.00     0.029 A 
ATOM     46  N   UNL A   1      44.273  29.715  28.254  1.00  0.00    -0.354 N 
ATOM     47  C   UNL A   1      43.330  25.562  27.512  1.00  0.00     0.074 A 
ATOM     48  C   UNL A   1      41.968  25.260  27.897  1.00  0.00     0.031 C 
ATOM     49  C   UNL A   1      43.872  31.817  28.905  1.00  0.00     0.029 A 
ATOM     50  C   UNL A   1      44.906  30.928  28.385  1.00  0.00     0.049 A 
ATOM     51  H   UNL A   1      44.722  28.906  27.916  1.00  0.00     0.167 HD
ATOM     52  C   UNL A   1      44.191  24.657  26.989  1.00  0.00     0.031 A 
ATOM     53  C   UNL A   1      46.179  31.285  28.122  1.00  0.00     0.031 A 
ATOM     54  C   UNL A   1      45.545  24.963  26.612  1.00  0.00     0.049 A 
ATOM     55  C   UNL A   1      47.129  30.253  27.580  1.00  0.00     0.074 A 
ATOM     56  C   UNL A   1      46.488  24.128  26.036  1.00  0.00     0.029 A 
ATOM     57  N   UNL A   1      46.153  26.199  26.776  1.00  0.00    -0.354 N 
ATOM     58  N   UNL A   1      46.904  28.992  27.296  1.00  0.00    -0.248 NA
ATOM     59  C   UNL A   1      48.505  30.696  27.312  1.00  0.00     0.031 C 
ATOM     60  C   UNL A   1      47.684  24.842  25.910  1.00  0.00     0.029 A 
ATOM     61  C   UNL A   1      47.467  26.142  26.340  1.00  0.00     0.049 A 
ATOM     62  H   UNL A   1      45.716  26.998  27.148  1.00  0.00     0.167 HD
ATOM     63  C   UNL A   1      48.101  28.499  26.786  1.00  0.00     0.074 A 
ATOM     64  C   UNL A   1      49.041  29.602  26.787  1.00  0.00     0.031 C 
ATOM     65  C   UNL A   1      48.392  27.248  26.351  1.00  0.00     0.031 A 
BRANCH  52  66
ATOM     66  C   UNL A   1      43.689  23.247  26.806  1.00  0.00    -0.014 A 
ATOM     67  C   UNL A   1      43.033  22.567  27.848  1.00  0.00     0.010 A 
ATOM     68  C   UNL A   1      43.858  22.599  25.569  1.00  0.00     0.010 A 
ATOM     69  C   UNL A   1      42.603  21.249  27.676  1.00  0.00     0.020 A 
ATOM     70  C   UNL A   1      43.398  21.290  25.381  1.00  0.00     0.020 A 
ATOM     71  C   UNL A   1      42.793  20.617  26.443  1.00  0.00     0.054 A 
BRANCH  71  72
ATOM     72  S   UNL A   1      42.221  18.908  26.247  1.00  0.00     0.124 S 
ATOM     73  O   UNL A   1      42.405  18.372  27.594  1.00  0.00    -0.237 OA
ATOM     74  O   UNL A   1      40.834  19.081  25.825  1.00  0.00    -0.237 OA
ATOM     75  O   UNL A   1      43.114  18.356  25.231  1.00  0.00    -0.744 OA
ENDBRANCH  71  72
ENDBRANCH  52  66
BRANCH  53  76
ATOM     76  C   UNL A   1      46.619  32.690  28.344  1.00  0.00    -0.014 A 
ATOM     77  C   UNL A   1      46.601  33.617  27.287  1.00  0.00     0.010 A 
ATOM     78  C   UNL A   1      47.040  33.115  29.617  1.00  0.00     0.010 A 
ATOM     79  C   UNL A   1      47.013  34.937  27.493  1.00  0.00     0.020 A 
ATOM     80  C   UNL A   1      47.424  34.442  29.835  1.00  0.00     0.020 A 
ATOM     81  C   UNL A   1      47.418  35.342  28.768  1.00  0.00     0.054 A 
BRANCH  81  82
ATOM     82  S   UNL A   1      47.898  37.073  29.021  1.00  0.00     0.124 S 
ATOM     83  O   UNL A   1      47.571  37.671  27.731  1.00  0.00    -0.237 OA
ATOM     84  O   UNL A   1      47.048  37.474  30.139  1.00  0.00    -0.237 OA
ATOM     85  O   UNL A   1      49.323  36.991  29.332  1.00  0.00    -0.744 OA
ENDBRANCH  81  82
ENDBRANCH  53  76
BRANCH  65  86
ATOM     86  C   UNL A   1      49.776  27.009  25.804  1.00  0.00    -0.014 A 
ATOM     87  C   UNL A   1      50.077  27.225  24.449  1.00  0.00     0.010 A 
ATOM     88  C   UNL A   1      50.805  26.612  26.680  1.00  0.00     0.010 A 
ATOM     89  C   UNL A   1      51.375  27.017  23.971  1.00  0.00     0.020 A 
ATOM     90  C   UNL A   1      52.111  26.435  26.212  1.00  0.00     0.020 A 
ATOM     91  C   UNL A   1      52.383  26.625  24.857  1.00  0.00     0.054 A 
BRANCH  91  92
ATOM     92  S   UNL A   1      54.068  26.408  24.220  1.00  0.00     0.124 S 
ATOM     93  O   UNL A   1      53.841  26.346  22.779  1.00  0.00    -0.237 OA
ATOM     94  O   UNL A   1      54.747  27.609  24.699  1.00  0.00    -0.237 OA
ATOM     95  O   UNL A   1      54.513  25.161  24.836  1.00  0.00    -0.744 OA
ENDBRANCH  91  92
ENDBRANCH  65  86
ENDBRANCH  39  40
ENDBRANCH  31  34
ENDBRANCH  29  30
ENDBRANCH  28  29
ENDBRANCH  27  28
ENDBRANCH   1  27
TORSDOF 19
ENDMDL
MODEL 2
REMARK VINA RESULT:     -11.9      0.579      8.032
REMARK SMILES CC(=O)Nc1cccc(C(=O)N2CCCC[C@@H]2C(=O)NCCCCCCNC(=O)c2ccc(-c3c4nc(c(-c5ccc(S(=O)(=O)[O-])cc5)c5ccc([nH]5)c(-c5ccc(S(=O)(=O)[O-])cc5)c5nc(c(-c6ccc(S(=O)(=O)[O-])cc6)c6ccc3[nH]6)C=C5)C=C4)cc2)c1
REMARK SMILES IDX 23 1 22 2 21 3 20 4 18 5 19 6 17 8 12 9 13 10 14 11 16 12
REMARK SMILES IDX 15 13 10 14 11 15 9 16 5 17 6 18 90 19 7 20 8 21 4 22 1 23
REMARK SMILES IDX 2 24 3 25 24 27 25 28 26 29 27 30 28 31 29 33 30 34 31 35
REMARK SMILES IDX 89 36 32 37 88 38 33 39 34 40 35 41 82 42 36 43 87 44 81 45
REMARK SMILES IDX 83 46 37 47 86 48 80 49 79 50 38 52 68 53 49 54 67 55 50 56
REMARK SMILES IDX 53 57 66 58 84 59 51 60 52 61 65 63 85 64 54 65 39 66 40 67
REMARK SMILES IDX 48 68 41 69 47 70 42 71 43 72 44 73 45 74 46 75 69 76 70 77
REMARK SMILES IDX 78 78 71 79 77 80 72 81 73 82 74 83 75 84 76 85 55 86 56 87
REMARK SMILES IDX 64 88 57 89 63 90 58 91 59 92 60 93 61 94 62 95
REMARK H PARENT 20 7 4 26 27 32 83 51 53 62
REMARK Flexibility Score: inf
ROOT
ATOM      1  C   UNL A   1      33.892  30.722  27.368  1.00  0.00     0.002 C 
ENDROOT
BRANCH   1   2
ATOM      2  C   UNL A   1      32.442  30.715  26.870  1.00  0.00     0.021 C 
BRANCH   2   3
ATOM      3  C   UNL A   1      32.122  29.535  25.957  1.00  0.00     0.116 C 
BRANCH   3   4
ATOM      4  N   UNL A   1      32.724  29.746  24.655  1.00  0.00    -0.354 N 
ATOM      5  C   UNL A   1      33.327  28.848  23.830  1.00  0.00     0.242 C 
ATOM      6  O   UNL A   1      34.011  29.284  22.900  1.00  0.00    -0.273 OA
ATOM      7  H   UNL A   1      32.695  30.671  24.321  1.00  0.00     0.163 HD
BRANCH   5   8
ATOM      8  C   UNL A   1      33.252  27.332  24.105  1.00  0.00     0.174 C 
ATOM      9  N   UNL A   1      32.020  26.639  23.638  1.00  0.00    -0.327 N 
ATOM     10  C   UNL A   1      31.852  25.269  24.114  1.00  0.00     0.120 C 
ATOM     11  C   UNL A   1      31.927  25.173  25.624  1.00  0.00     0.022 C 
ATOM     12  C   UNL A   1      33.472  27.151  25.630  1.00  0.00     0.035 C 
ATOM     13  C   UNL A   1      33.255  25.726  26.121  1.00  0.00     0.004 C 
BRANCH   9  14
ATOM     14  C   UNL A   1      31.184  26.993  22.567  1.00  0.00     0.254 C 
ATOM     15  O   UNL A   1      31.459  26.681  21.407  1.00  0.00    -0.269 OA
BRANCH  14  16
ATOM     16  C   UNL A   1      29.958  27.807  22.753  1.00  0.00     0.042 A 
ATOM     17  C   UNL A   1      28.633  29.759  22.182  1.00  0.00     0.041 A 
ATOM     18  C   UNL A   1      27.581  29.258  22.956  1.00  0.00     0.026 A 
ATOM     19  C   UNL A   1      29.814  29.027  22.093  1.00  0.00     0.040 A 
ATOM     20  C   UNL A   1      27.693  28.011  23.577  1.00  0.00     0.003 A 
ATOM     21  C   UNL A   1      28.877  27.281  23.470  1.00  0.00     0.014 A 
BRANCH  17  22
ATOM     22  N   UNL A   1      28.465  31.007  21.561  1.00  0.00    -0.326 N 
ATOM     23  C   UNL A   1      28.783  32.531  23.514  1.00  0.00     0.114 C 
ATOM     24  C   UNL A   1      28.360  32.264  22.091  1.00  0.00     0.221 C 
ATOM     25  O   UNL A   1      27.981  33.190  21.370  1.00  0.00    -0.275 OA
ATOM     26  H   UNL A   1      28.417  30.972  20.579  1.00  0.00     0.169 HD
ENDBRANCH  17  22
ENDBRANCH  14  16
ENDBRANCH   9  14
ENDBRANCH   5   8
ENDBRANCH   3   4
ENDBRANCH   2   3
ENDBRANCH   1   2
BRANCH   1  27
ATOM     27  C   UNL A   1      34.282  31.976  28.157  1.00  0.00     0.002 C 
BRANCH  27  28
ATOM     28  C   UNL A   1      35.694  32.491  27.869  1.00  0.00     0.021 C 
BRANCH  28  29
ATOM     29  C   UNL A   1      36.663  32.326  29.032  1.00  0.00     0.116 C 
BRANCH  29  30
ATOM     30  N   UNL A   1      36.119  31.458  30.066  1.00  0.00    -0.352 N 
ATOM     31  C   UNL A   1      36.564  30.229  30.476  1.00  0.00     0.251 C 
ATOM     32  H   UNL A   1      35.324  31.802  30.534  1.00  0.00     0.163 HD
ATOM     33  O   UNL A   1      35.861  29.529  31.201  1.00  0.00    -0.269 OA
BRANCH  31  34
ATOM     34  C   UNL A   1      37.885  29.751  30.026  1.00  0.00     0.039 A 
ATOM     35  C   UNL A   1      38.144  29.655  28.658  1.00  0.00     0.014 A 
ATOM     36  C   UNL A   1      38.870  29.412  30.959  1.00  0.00     0.014 A 
ATOM     37  C   UNL A   1      39.412  29.264  28.224  1.00  0.00     0.010 A 
ATOM     38  C   UNL A   1      40.154  29.102  30.525  1.00  0.00     0.010 A 
ATOM     39  C   UNL A   1      40.435  29.016  29.154  1.00  0.00    -0.014 A 
BRANCH  39  40
ATOM     40  C   UNL A   1      41.807  28.658  28.710  1.00  0.00     0.031 A 
ATOM     41  C   UNL A   1      42.885  29.707  28.672  1.00  0.00     0.074 A 
ATOM     42  C   UNL A   1      42.065  27.403  28.294  1.00  0.00     0.049 A 
ATOM     43  N   UNL A   1      44.127  29.597  28.277  1.00  0.00    -0.248 NA
ATOM     44  C   UNL A   1      42.513  31.061  29.113  1.00  0.00     0.031 C 
ATOM     45  C   UNL A   1      41.096  26.306  28.254  1.00  0.00     0.029 A 
ATOM     46  N   UNL A   1      43.224  26.838  27.823  1.00  0.00    -0.354 N 
ATOM     47  C   UNL A   1      44.680  30.865  28.413  1.00  0.00     0.074 A 
ATOM     48  C   UNL A   1      43.621  31.741  28.866  1.00  0.00     0.031 C 
ATOM     49  C   UNL A   1      41.709  25.193  27.822  1.00  0.00     0.029 A 
ATOM     50  C   UNL A   1      43.100  25.505  27.509  1.00  0.00     0.049 A 
ATOM     51  H   UNL A   1      44.065  27.340  27.721  1.00  0.00     0.167 HD
ATOM     52  C   UNL A   1      45.958  31.263  28.202  1.00  0.00     0.031 A 
ATOM     53  C   UNL A   1      44.002  24.633  27.019  1.00  0.00     0.031 A 
ATOM     54  C   UNL A   1      47.005  30.387  27.747  1.00  0.00     0.049 A 
ATOM     55  C   UNL A   1      45.406  25.106  26.753  1.00  0.00     0.074 A 
ATOM     56  C   UNL A   1      48.342  30.680  27.539  1.00  0.00     0.029 A 
ATOM     57  N   UNL A   1      46.835  29.049  27.425  1.00  0.00    -0.354 N 
ATOM     58  N   UNL A   1      45.925  26.296  26.943  1.00  0.00    -0.248 NA
ATOM     59  C   UNL A   1      46.348  24.114  26.217  1.00  0.00     0.031 C 
ATOM     60  C   UNL A   1      48.966  29.536  27.033  1.00  0.00     0.029 A 
ATOM     61  C   UNL A   1      48.035  28.509  26.992  1.00  0.00     0.049 A 
ATOM     62  H   UNL A   1      45.986  28.555  27.492  1.00  0.00     0.167 HD
ATOM     63  C   UNL A   1      47.263  26.187  26.580  1.00  0.00     0.074 A 
ATOM     64  C   UNL A   1      47.475  24.812  26.173  1.00  0.00     0.031 C 
ATOM     65  C   UNL A   1      48.230  27.139  26.587  1.00  0.00     0.031 A 
BRANCH  52  66
ATOM     66  C   UNL A   1      46.284  32.713  28.454  1.00  0.00    -0.014 A 
ATOM     67  C   UNL A   1      46.705  33.155  29.722  1.00  0.00     0.010 A 
ATOM     68  C   UNL A   1      46.189  33.644  27.405  1.00  0.00     0.010 A 
ATOM     69  C   UNL A   1      46.972  34.507  29.950  1.00  0.00     0.020 A 
ATOM     70  C   UNL A   1      46.489  34.994  27.620  1.00  0.00     0.020 A 
ATOM     71  C   UNL A   1      46.857  35.419  28.897  1.00  0.00     0.054 A 
BRANCH  71  72
ATOM     72  S   UNL A   1      47.214  37.167  29.222  1.00  0.00     0.124 S 
ATOM     73  O   UNL A   1      46.610  37.358  30.538  1.00  0.00    -0.237 OA
ATOM     74  O   UNL A   1      48.674  37.207  29.189  1.00  0.00    -0.237 OA
ATOM     75  O   UNL A   1      46.550  37.868  28.125  1.00  0.00    -0.744 OA
ENDBRANCH  71  72
ENDBRANCH  52  66
BRANCH  53  76
ATOM     76  C   UNL A   1      43.612  23.218  26.771  1.00  0.00    -0.014 A 
ATOM     77  C   UNL A   1      44.247  22.470  25.765  1.00  0.00     0.010 A 
ATOM     78  C   UNL A   1      42.616  22.603  27.552  1.00  0.00     0.010 A 
ATOM     79  C   UNL A   1      43.882  21.141  25.531  1.00  0.00     0.020 A 
ATOM     80  C   UNL A   1      42.269  21.265  27.343  1.00  0.00     0.020 A 
ATOM     81  C   UNL A   1      42.898  20.545  26.325  1.00  0.00     0.054 A 
BRANCH  81  82
ATOM     82  S   UNL A   1      42.480  18.804  26.036  1.00  0.00     0.124 S 
ATOM     83  O   UNL A   1      42.794  18.198  27.326  1.00  0.00    -0.237 OA
ATOM     84  O   UNL A   1      41.062  18.874  25.696  1.00  0.00    -0.237 OA
ATOM     85  O   UNL A   1      43.358  18.421  24.932  1.00  0.00    -0.744 OA
ENDBRANCH  81  82
ENDBRANCH  53  76
BRANCH  65  86
ATOM     86  C   UNL A   1      49.618  26.720  26.177  1.00  0.00    -0.014 A 
ATOM     87  C   UNL A   1      50.461  26.015  27.052  1.00  0.00     0.010 A 
ATOM     88  C   UNL A   1      50.063  26.993  24.869  1.00  0.00     0.010 A 
ATOM     89  C   UNL A   1      51.736  25.618  26.639  1.00  0.00     0.020 A 
ATOM     90  C   UNL A   1      51.325  26.569  24.442  1.00  0.00     0.020 A 
ATOM     91  C   UNL A   1      52.159  25.897  25.336  1.00  0.00     0.054 A 
BRANCH  91  92
ATOM     92  S   UNL A   1      53.800  25.330  24.812  1.00  0.00     0.124 S 
ATOM     93  O   UNL A   1      54.666  25.928  25.824  1.00  0.00    -0.237 OA
ATOM     94  O   UNL A   1      53.670  23.876  24.874  1.00  0.00    -0.237 OA
ATOM     95  O   UNL A   1      53.943  25.878  23.466  1.00  0.00    -0.744 OA
ENDBRANCH  91  92
ENDBRANCH  65  86
ENDBRANCH  39  40
ENDBRANCH  31  34
ENDBRANCH  29  30
ENDBRANCH  28  29
ENDBRANCH  27  28
ENDBRANCH   1  27
TORSDOF 19
ENDMDL
MODEL 3
REMARK VINA RESULT:     -11.7      6.349     11.677
REMARK SMILES CC(=O)Nc1cccc(C(=O)N2CCCC[C@@H]2C(=O)NCCCCCCNC(=O)c2ccc(-c3c4nc(c(-c5ccc(S(=O)(=O)[O-])cc5)c5ccc([nH]5)c(-c5ccc(S(=O)(=O)[O-])cc5)c5nc(c(-c6ccc(S(=O)(=O)[O-])cc6)c6ccc3[nH]6)C=C5)C=C4)cc2)c1
REMARK SMILES IDX 23 1 22 2 21 3 20 4 18 5 19 6 17 8 12 9 13 10 14 11 16 12
REMARK SMILES IDX 15 13 10 14 11 15 9 16 5 17 6 18 90 19 7 20 8 21 4 22 1 23
REMARK SMILES IDX 2 24 3 25 24 27 25 28 26 29 27 30 28 31 29 33 30 34 31 35
REMARK SMILES IDX 89 36 32 37 88 38 33 39 34 40 35 41 82 42 36 43 87 44 81 45
REMARK SMILES IDX 83 46 37 47 86 48 80 49 79 50 38 52 68 53 49 54 67 55 50 56
REMARK SMILES IDX 53 57 66 58 84 59 51 60 52 61 65 63 85 64 54 65 39 66 40 67
REMARK SMILES IDX 48 68 41 69 47 70 42 71 43 72 44 73 45 74 46 75 69 76 70 77
REMARK SMILES IDX 78 78 71 79 77 80 72 81 73 82 74 83 75 84 76 85 55 86 56 87
REMARK SMILES IDX 64 88 57 89 63 90 58 91 59 92 60 93 61 94 62 95
REMARK H PARENT 20 7 4 26 27 32 83 51 53 62
REMARK Flexibility Score: inf
ROOT
ATOM      1  C   UNL A   1      36.447  23.308  26.128  1.00  0.00     0.002 C 
ENDROOT
BRANCH   1   2
ATOM      2  C   UNL A   1      35.962  23.439  24.680  1.00  0.00     0.021 C 
BRANCH   2   3
ATOM      3  C   UNL A   1      34.962  24.574  24.479  1.00  0.00     0.116 C 
BRANCH   3   4
ATOM      4  N   UNL A   1      34.519  24.597  23.098  1.00  0.00    -0.354 N 
ATOM      5  C   UNL A   1      33.598  25.401  22.503  1.00  0.00     0.242 C 
ATOM      6  O   UNL A   1      33.175  25.074  21.391  1.00  0.00    -0.273 OA
ATOM      7  H   UNL A   1      34.945  23.935  22.507  1.00  0.00     0.163 HD
BRANCH   5   8
ATOM      8  C   UNL A   1      33.015  26.628  23.235  1.00  0.00     0.174 C 
ATOM      9  N   UNL A   1      31.598  26.517  23.678  1.00  0.00    -0.327 N 
ATOM     10  C   UNL A   1      30.987  27.758  24.146  1.00  0.00     0.120 C 
ATOM     11  C   UNL A   1      31.097  28.872  23.124  1.00  0.00     0.022 C 
ATOM     12  C   UNL A   1      33.232  27.844  22.295  1.00  0.00     0.035 C 
ATOM     13  C   UNL A   1      32.557  29.123  22.773  1.00  0.00     0.004 C 
BRANCH   9  14
ATOM     14  C   UNL A   1      30.887  25.353  24.011  1.00  0.00     0.254 C 
ATOM     15  O   UNL A   1      29.824  25.070  23.457  1.00  0.00    -0.269 OA
BRANCH  14  16
ATOM     16  C   UNL A   1      31.336  24.428  25.079  1.00  0.00     0.042 A 
ATOM     17  C   UNL A   1      31.794  22.168  25.838  1.00  0.00     0.041 A 
ATOM     18  C   UNL A   1      32.348  22.686  27.013  1.00  0.00     0.026 A 
ATOM     19  C   UNL A   1      31.290  23.049  24.884  1.00  0.00     0.040 A 
ATOM     20  C   UNL A   1      32.450  24.068  27.196  1.00  0.00     0.003 A 
ATOM     21  C   UNL A   1      31.953  24.940  26.227  1.00  0.00     0.014 A 
BRANCH  17  22
ATOM     22  N   UNL A   1      31.731  20.773  25.691  1.00  0.00    -0.326 N 
ATOM     23  C   UNL A   1      33.967  20.321  24.676  1.00  0.00     0.114 C 
ATOM     24  C   UNL A   1      32.568  19.900  25.052  1.00  0.00     0.221 C 
ATOM     25  O   UNL A   1      32.190  18.744  24.851  1.00  0.00    -0.275 OA
ATOM     26  H   UNL A   1      30.953  20.352  26.123  1.00  0.00     0.169 HD
ENDBRANCH  17  22
ENDBRANCH  14  16
ENDBRANCH   9  14
ENDBRANCH   5   8
ENDBRANCH   3   4
ENDBRANCH   2   3
ENDBRANCH   1   2
BRANCH   1  27
ATOM     27  C   UNL A   1      37.834  23.905  26.386  1.00  0.00     0.002 C 
BRANCH  27  28
ATOM     28  C   UNL A   1      38.966  22.876  26.440  1.00  0.00     0.021 C 
BRANCH  28  29
ATOM     29  C   UNL A   1      40.265  23.414  27.024  1.00  0.00     0.116 C 
BRANCH  29  30
ATOM     30  N   UNL A   1      41.091  24.046  26.006  1.00  0.00    -0.352 N 
ATOM     31  C   UNL A   1      41.566  25.330  25.961  1.00  0.00     0.251 C 
ATOM     32  H   UNL A   1      41.341  23.473  25.246  1.00  0.00     0.163 HD
ATOM     33  O   UNL A   1      42.057  25.772  24.925  1.00  0.00    -0.269 OA
BRANCH  31  34
ATOM     34  C   UNL A   1      41.468  26.180  27.164  1.00  0.00     0.039 A 
ATOM     35  C   UNL A   1      42.275  27.314  27.262  1.00  0.00     0.014 A 
ATOM     36  C   UNL A   1      40.566  25.862  28.184  1.00  0.00     0.014 A 
ATOM     37  C   UNL A   1      42.143  28.158  28.366  1.00  0.00     0.010 A 
ATOM     38  C   UNL A   1      40.379  26.745  29.241  1.00  0.00     0.010 A 
ATOM     39  C   UNL A   1      41.172  27.897  29.348  1.00  0.00    -0.014 A 
BRANCH  39  40
ATOM     40  C   UNL A   1      40.975  28.815  30.498  1.00  0.00     0.031 A 
ATOM     41  C   UNL A   1      41.849  28.695  31.717  1.00  0.00     0.074 A 
ATOM     42  C   UNL A   1      39.977  29.719  30.465  1.00  0.00     0.049 A 
ATOM     43  N   UNL A   1      41.804  29.376  32.833  1.00  0.00    -0.248 NA
ATOM     44  C   UNL A   1      42.896  27.661  31.686  1.00  0.00     0.031 C 
ATOM     45  C   UNL A   1      39.043  29.911  29.353  1.00  0.00     0.029 A 
ATOM     46  N   UNL A   1      39.582  30.649  31.394  1.00  0.00    -0.354 N 
ATOM     47  C   UNL A   1      42.806  28.847  33.639  1.00  0.00     0.074 A 
ATOM     48  C   UNL A   1      43.399  27.748  32.908  1.00  0.00     0.031 C 
ATOM     49  C   UNL A   1      38.210  30.921  29.648  1.00  0.00     0.029 A 
ATOM     50  C   UNL A   1      38.516  31.417  30.986  1.00  0.00     0.049 A 
ATOM     51  H   UNL A   1      40.020  30.757  32.269  1.00  0.00     0.167 HD
ATOM     52  C   UNL A   1      43.212  29.251  34.866  1.00  0.00     0.031 A 
ATOM     53  C   UNL A   1      37.856  32.407  31.620  1.00  0.00     0.031 A 
ATOM     54  C   UNL A   1      42.614  30.342  35.590  1.00  0.00     0.049 A 
ATOM     55  C   UNL A   1      38.298  32.812  33.000  1.00  0.00     0.074 A 
ATOM     56  C   UNL A   1      42.975  30.858  36.823  1.00  0.00     0.029 A 
ATOM     57  N   UNL A   1      41.527  31.083  35.150  1.00  0.00    -0.354 N 
ATOM     58  N   UNL A   1      39.286  32.338  33.722  1.00  0.00    -0.248 NA
ATOM     59  C   UNL A   1      37.542  33.894  33.645  1.00  0.00     0.031 C 
ATOM     60  C   UNL A   1      42.069  31.869  37.155  1.00  0.00     0.029 A 
ATOM     61  C   UNL A   1      41.186  32.033  36.099  1.00  0.00     0.049 A 
ATOM     62  H   UNL A   1      41.065  30.953  34.291  1.00  0.00     0.167 HD
ATOM     63  C   UNL A   1      39.289  33.087  34.895  1.00  0.00     0.074 A 
ATOM     64  C   UNL A   1      38.216  34.053  34.777  1.00  0.00     0.031 C 
ATOM     65  C   UNL A   1      40.111  32.986  35.969  1.00  0.00     0.031 A 
BRANCH  52  66
ATOM     66  C   UNL A   1      44.352  28.498  35.503  1.00  0.00    -0.014 A 
ATOM     67  C   UNL A   1      45.684  28.919  35.339  1.00  0.00     0.010 A 
ATOM     68  C   UNL A   1      44.087  27.365  36.294  1.00  0.00     0.010 A 
ATOM     69  C   UNL A   1      46.733  28.192  35.908  1.00  0.00     0.020 A 
ATOM     70  C   UNL A   1      45.133  26.654  36.893  1.00  0.00     0.020 A 
ATOM     71  C   UNL A   1      46.450  27.060  36.678  1.00  0.00     0.054 A 
BRANCH  71  72
ATOM     72  S   UNL A   1      47.832  26.140  37.406  1.00  0.00     0.124 S 
ATOM     73  O   UNL A   1      48.823  26.186  36.334  1.00  0.00    -0.237 OA
ATOM     74  O   UNL A   1      48.153  26.929  38.592  1.00  0.00    -0.237 OA
ATOM     75  O   UNL A   1      47.267  24.819  37.675  1.00  0.00    -0.744 OA
ENDBRANCH  71  72
ENDBRANCH  52  66
BRANCH  53  76
ATOM     76  C   UNL A   1      36.724  33.098  30.944  1.00  0.00    -0.014 A 
ATOM     77  C   UNL A   1      35.402  32.879  31.368  1.00  0.00     0.010 A 
ATOM     78  C   UNL A   1      36.961  33.994  29.886  1.00  0.00     0.010 A 
ATOM     79  C   UNL A   1      34.337  33.527  30.736  1.00  0.00     0.020 A 
ATOM     80  C   UNL A   1      35.902  34.668  29.271  1.00  0.00     0.020 A 
ATOM     81  C   UNL A   1      34.595  34.421  29.694  1.00  0.00     0.054 A 
BRANCH  81  82
ATOM     82  S   UNL A   1      33.199  35.290  28.925  1.00  0.00     0.124 S 
ATOM     83  O   UNL A   1      32.593  34.236  28.118  1.00  0.00    -0.237 OA
ATOM     84  O   UNL A   1      32.425  35.726  30.084  1.00  0.00    -0.237 OA
ATOM     85  O   UNL A   1      33.840  36.366  28.172  1.00  0.00    -0.744 OA
ENDBRANCH  81  82
ENDBRANCH  53  76
BRANCH  65  86
ATOM     86  C   UNL A   1      39.908  33.969  37.092  1.00  0.00    -0.014 A 
ATOM     87  C   UNL A   1      40.542  35.223  37.094  1.00  0.00     0.010 A 
ATOM     88  C   UNL A   1      39.021  33.650  38.138  1.00  0.00     0.010 A 
ATOM     89  C   UNL A   1      40.319  36.127  38.137  1.00  0.00     0.020 A 
ATOM     90  C   UNL A   1      38.770  34.564  39.165  1.00  0.00     0.020 A 
ATOM     91  C   UNL A   1      39.433  35.791  39.165  1.00  0.00     0.054 A 
BRANCH  91  92
ATOM     92  S   UNL A   1      39.126  37.001  40.481  1.00  0.00     0.124 S 
ATOM     93  O   UNL A   1      38.267  37.971  39.808  1.00  0.00    -0.237 OA
ATOM     94  O   UNL A   1      38.476  36.194  41.512  1.00  0.00    -0.237 OA
ATOM     95  O   UNL A   1      40.460  37.483  40.827  1.00  0.00    -0.744 OA
ENDBRANCH  91  92
ENDBRANCH  65  86
ENDBRANCH  39  40
ENDBRANCH  31  34
ENDBRANCH  29  30
ENDBRANCH  28  29
ENDBRANCH  27  28
ENDBRANCH   1  27
TORSDOF 19
ENDMDL
