MODEL 1
REMARK VINA RESULT:     -11.1      0.000      0.000
REMARK SMILES Cc1cc2c(cc1C)O[C@H](C(=O)NCCCCCCNC(=O)c1ccc(-c3c4nc(c(-c5ccc(S(=O)(=O)[O-])cc5)c5ccc([nH]5)c(-c5ccc(S(=O)(=O)[O-])cc5)c5nc(c(-c6ccc(S(=O)(=O)[O-])cc6)c6ccc3[nH]6)C=C5)C=C4)cc1)C2
REMARK SMILES IDX 18 1 17 2 16 3 15 4 14 5 13 6 11 7 12 8 10 10 1 11 2 12 3 13
REMARK SMILES IDX 7 14 4 15 6 16 8 17 5 18 83 19 9 20 19 21 20 22 21 23 22 25
REMARK SMILES IDX 23 26 24 27 82 28 25 29 81 30 26 31 27 32 28 33 75 34 29 35
REMARK SMILES IDX 80 36 74 37 76 38 30 39 79 40 73 41 72 42 31 44 61 45 42 46
REMARK SMILES IDX 60 47 43 48 46 49 59 50 77 51 44 52 45 53 58 55 78 56 47 57
REMARK SMILES IDX 32 58 33 59 41 60 34 61 40 62 35 63 36 64 37 65 38 66 39 67
REMARK SMILES IDX 62 68 63 69 71 70 64 71 70 72 65 73 66 74 67 75 68 76 69 77
REMARK SMILES IDX 48 78 49 79 57 80 50 81 56 82 51 83 52 84 53 85 54 86 55 87
REMARK H PARENT 13 9 20 24 76 43 46 54
REMARK Flexibility Score: inf
ROOT
ATOM      1  C   UNL A   1      32.544  28.188  26.263  1.00  0.00     0.021 C 
ENDROOT
BRANCH   1   2
ATOM      2  C   UNL A   1      32.470  29.084  25.026  1.00  0.00     0.002 C 
BRANCH   2   3
ATOM      3  C   UNL A   1      31.059  29.351  24.489  1.00  0.00     0.002 C 
BRANCH   3   4
ATOM      4  C   UNL A   1      30.845  28.971  23.018  1.00  0.00     0.021 C 
BRANCH   4   5
ATOM      5  C   UNL A   1      30.746  27.462  22.786  1.00  0.00     0.116 C 
BRANCH   5   6
ATOM      6  N   UNL A   1      31.628  27.040  21.707  1.00  0.00    -0.353 N 
ATOM      7  C   UNL A   1      32.512  25.987  21.720  1.00  0.00     0.261 C 
ATOM      8  O   UNL A   1      33.288  25.841  20.776  1.00  0.00    -0.271 OA
ATOM      9  H   UNL A   1      31.586  27.567  20.876  1.00  0.00     0.163 HD
BRANCH   7  10
ATOM     10  C   UNL A   1      32.489  25.072  22.939  1.00  0.00     0.266 C 
ATOM     11  C   UNL A   1      34.114  21.643  27.495  1.00  0.00     0.044 C 
ATOM     12  C   UNL A   1      33.796  22.117  26.103  1.00  0.00    -0.048 A 
ATOM     13  C   UNL A   1      33.974  23.482  25.796  1.00  0.00     0.011 A 
ATOM     14  C   UNL A   1      33.293  21.223  25.116  1.00  0.00    -0.045 A 
ATOM     15  C   UNL A   1      33.584  23.940  24.555  1.00  0.00    -0.001 A 
ATOM     16  C   UNL A   1      32.925  21.717  23.855  1.00  0.00     0.050 A 
ATOM     17  C   UNL A   1      33.048  19.762  25.380  1.00  0.00     0.045 C 
ATOM     18  C   UNL A   1      33.049  23.066  23.622  1.00  0.00     0.124 A 
ATOM     19  C   UNL A   1      33.596  25.305  23.968  1.00  0.00     0.095 C 
ATOM     20  O   UNL A   1      32.600  23.695  22.490  1.00  0.00    -0.480 OA
ENDBRANCH   7  10
ENDBRANCH   5   6
ENDBRANCH   4   5
ENDBRANCH   3   4
ENDBRANCH   2   3
ENDBRANCH   1   2
BRANCH   1  21
ATOM     21  C   UNL A   1      33.651  28.537  27.252  1.00  0.00     0.116 C 
BRANCH  21  22
ATOM     22  N   UNL A   1      33.646  29.941  27.640  1.00  0.00    -0.352 N 
ATOM     23  C   UNL A   1      34.649  30.683  28.219  1.00  0.00     0.251 C 
ATOM     24  H   UNL A   1      32.808  30.426  27.462  1.00  0.00     0.163 HD
ATOM     25  O   UNL A   1      34.428  31.829  28.602  1.00  0.00    -0.269 OA
BRANCH  23  26
ATOM     26  C   UNL A   1      35.983  30.075  28.417  1.00  0.00     0.039 A 
ATOM     27  C   UNL A   1      36.333  29.513  29.646  1.00  0.00     0.014 A 
ATOM     28  C   UNL A   1      36.911  30.111  27.371  1.00  0.00     0.014 A 
ATOM     29  C   UNL A   1      37.655  29.148  29.884  1.00  0.00     0.010 A 
ATOM     30  C   UNL A   1      38.219  29.667  27.589  1.00  0.00     0.010 A 
ATOM     31  C   UNL A   1      38.617  29.235  28.864  1.00  0.00    -0.014 A 
BRANCH  31  32
ATOM     32  C   UNL A   1      40.030  28.878  29.159  1.00  0.00     0.031 A 
ATOM     33  C   UNL A   1      40.597  27.549  28.732  1.00  0.00     0.074 A 
ATOM     34  C   UNL A   1      40.825  29.781  29.764  1.00  0.00     0.049 A 
ATOM     35  N   UNL A   1      41.823  27.107  28.852  1.00  0.00    -0.248 NA
ATOM     36  C   UNL A   1      39.676  26.594  28.095  1.00  0.00     0.031 C 
ATOM     37  C   UNL A   1      40.395  31.106  30.215  1.00  0.00     0.029 A 
ATOM     38  N   UNL A   1      42.161  29.740  30.075  1.00  0.00    -0.354 N 
ATOM     39  C   UNL A   1      41.816  25.818  28.329  1.00  0.00     0.074 A 
ATOM     40  C   UNL A   1      40.461  25.540  27.912  1.00  0.00     0.031 C 
ATOM     41  C   UNL A   1      41.457  31.773  30.686  1.00  0.00     0.029 A 
ATOM     42  C   UNL A   1      42.632  30.907  30.629  1.00  0.00     0.049 A 
ATOM     43  H   UNL A   1      42.728  28.951  29.916  1.00  0.00     0.167 HD
ATOM     44  C   UNL A   1      42.850  24.952  28.201  1.00  0.00     0.031 A 
ATOM     45  C   UNL A   1      43.865  31.251  31.050  1.00  0.00     0.031 A 
ATOM     46  C   UNL A   1      44.204  25.243  28.594  1.00  0.00     0.049 A 
ATOM     47  C   UNL A   1      44.990  30.269  30.920  1.00  0.00     0.074 A 
ATOM     48  C   UNL A   1      45.325  24.446  28.446  1.00  0.00     0.029 A 
ATOM     49  N   UNL A   1      44.622  26.412  29.213  1.00  0.00    -0.354 N 
ATOM     50  N   UNL A   1      44.970  29.069  30.393  1.00  0.00    -0.248 NA
ATOM     51  C   UNL A   1      46.301  30.679  31.440  1.00  0.00     0.031 C 
ATOM     52  C   UNL A   1      46.408  25.103  29.034  1.00  0.00     0.029 A 
ATOM     53  C   UNL A   1      45.977  26.340  29.489  1.00  0.00     0.049 A 
ATOM     54  H   UNL A   1      44.041  27.178  29.425  1.00  0.00     0.167 HD
ATOM     55  C   UNL A   1      46.264  28.577  30.517  1.00  0.00     0.074 A 
ATOM     56  C   UNL A   1      47.047  29.618  31.151  1.00  0.00     0.031 C 
ATOM     57  C   UNL A   1      46.750  27.370  30.140  1.00  0.00     0.031 A 
BRANCH  44  58
ATOM     58  C   UNL A   1      42.570  23.590  27.623  1.00  0.00    -0.014 A 
ATOM     59  C   UNL A   1      42.205  22.535  28.479  1.00  0.00     0.010 A 
ATOM     60  C   UNL A   1      42.765  23.323  26.256  1.00  0.00     0.010 A 
ATOM     61  C   UNL A   1      42.056  21.236  27.986  1.00  0.00     0.020 A 
ATOM     62  C   UNL A   1      42.594  22.029  25.754  1.00  0.00     0.020 A 
ATOM     63  C   UNL A   1      42.258  20.990  26.627  1.00  0.00     0.054 A 
BRANCH  63  64
ATOM     64  S   UNL A   1      42.058  19.299  25.999  1.00  0.00     0.124 S 
ATOM     65  O   UNL A   1      42.945  19.294  24.840  1.00  0.00    -0.237 OA
ATOM     66  O   UNL A   1      42.491  18.482  27.131  1.00  0.00    -0.237 OA
ATOM     67  O   UNL A   1      40.630  19.217  25.697  1.00  0.00    -0.744 OA
ENDBRANCH  63  64
ENDBRANCH  44  58
BRANCH  45  68
ATOM     68  C   UNL A   1      44.065  32.616  31.606  1.00  0.00    -0.014 A 
ATOM     69  C   UNL A   1      43.850  32.861  32.975  1.00  0.00     0.010 A 
ATOM     70  C   UNL A   1      44.314  33.700  30.745  1.00  0.00     0.010 A 
ATOM     71  C   UNL A   1      43.794  34.168  33.461  1.00  0.00     0.020 A 
ATOM     72  C   UNL A   1      44.285  35.009  31.234  1.00  0.00     0.020 A 
ATOM     73  C   UNL A   1      43.985  35.235  32.579  1.00  0.00     0.054 A 
BRANCH  73  74
ATOM     74  S   UNL A   1      43.789  36.928  33.204  1.00  0.00     0.124 S 
ATOM     75  O   UNL A   1      42.548  36.820  33.967  1.00  0.00    -0.237 OA
ATOM     76  O   UNL A   1      45.000  37.121  33.997  1.00  0.00    -0.237 OA
ATOM     77  O   UNL A   1      43.708  37.733  31.988  1.00  0.00    -0.744 OA
ENDBRANCH  73  74
ENDBRANCH  45  68
BRANCH  57  78
ATOM     78  C   UNL A   1      48.199  27.070  30.413  1.00  0.00    -0.014 A 
ATOM     79  C   UNL A   1      48.574  26.485  31.637  1.00  0.00     0.010 A 
ATOM     80  C   UNL A   1      49.199  27.497  29.522  1.00  0.00     0.010 A 
ATOM     81  C   UNL A   1      49.922  26.367  31.984  1.00  0.00     0.020 A 
ATOM     82  C   UNL A   1      50.551  27.357  29.854  1.00  0.00     0.020 A 
ATOM     83  C   UNL A   1      50.902  26.819  31.095  1.00  0.00     0.054 A 
BRANCH  83  84
ATOM     84  S   UNL A   1      52.646  26.698  31.578  1.00  0.00     0.124 S 
ATOM     85  O   UNL A   1      52.921  28.041  32.077  1.00  0.00    -0.237 OA
ATOM     86  O   UNL A   1      52.629  25.642  32.588  1.00  0.00    -0.237 OA
ATOM     87  O   UNL A   1      53.322  26.343  30.332  1.00  0.00    -0.744 OA
ENDBRANCH  83  84
ENDBRANCH  57  78
ENDBRANCH  31  32
ENDBRANCH  23  26
ENDBRANCH  21  22
ENDBRANCH   1  21
TORSDOF 16
ENDMDL
MODEL 2
REMARK VINA RESULT:     -10.9      1.436      2.111
REMARK SMILES Cc1cc2c(cc1C)O[C@H](C(=O)NCCCCCCNC(=O)c1ccc(-c3c4nc(c(-c5ccc(S(=O)(=O)[O-])cc5)c5ccc([nH]5)c(-c5ccc(S(=O)(=O)[O-])cc5)c5nc(c(-c6ccc(S(=O)(=O)[O-])cc6)c6ccc3[nH]6)C=C5)C=C4)cc1)C2
REMARK SMILES IDX 18 1 17 2 16 3 15 4 14 5 13 6 11 7 12 8 10 10 1 11 2 12 3 13
REMARK SMILES IDX 7 14 4 15 6 16 8 17 5 18 83 19 9 20 19 21 20 22 21 23 22 25
REMARK SMILES IDX 23 26 24 27 82 28 25 29 81 30 26 31 27 32 28 33 75 34 29 35
REMARK SMILES IDX 80 36 74 37 76 38 30 39 79 40 73 41 72 42 31 44 61 45 42 46
REMARK SMILES IDX 60 47 43 48 46 49 59 50 77 51 44 52 45 53 58 55 78 56 47 57
REMARK SMILES IDX 32 58 33 59 41 60 34 61 40 62 35 63 36 64 37 65 38 66 39 67
REMARK SMILES IDX 62 68 63 69 71 70 64 71 70 72 65 73 66 74 67 75 68 76 69 77
REMARK SMILES IDX 48 78 49 79 57 80 50 81 56 82 51 83 52 84 53 85 54 86 55 87
REMARK H PARENT 13 9 20 24 76 43 46 54
REMARK Flexibility Score: inf
ROOT
ATOM      1  C   UNL A   1      33.578  28.500  25.267  1.00  0.00     0.021 C 
ENDROOT
BRANCH   1   2
ATOM      2  C   UNL A   1      32.239  28.918  24.656  1.00  0.00     0.002 C 
BRANCH   2   3
ATOM      3  C   UNL A   1      31.215  27.791  24.477  1.00  0.00     0.002 C 
BRANCH   3   4
ATOM      4  C   UNL A   1      31.776  26.500  23.867  1.00  0.00     0.021 C 
BRANCH   4   5
ATOM      5  C   UNL A   1      30.796  25.325  23.920  1.00  0.00     0.116 C 
BRANCH   5   6
ATOM      6  N   UNL A   1      30.478  24.972  25.296  1.00  0.00    -0.353 N 
ATOM      7  C   UNL A   1      31.174  24.112  26.115  1.00  0.00     0.261 C 
ATOM      8  O   UNL A   1      30.701  23.811  27.211  1.00  0.00    -0.271 OA
ATOM      9  H   UNL A   1      29.678  25.394  25.683  1.00  0.00     0.163 HD
BRANCH   7  10
ATOM     10  C   UNL A   1      32.493  23.560  25.588  1.00  0.00     0.266 C 
ATOM     11  C   UNL A   1      37.399  20.312  24.854  1.00  0.00     0.044 C 
ATOM     12  C   UNL A   1      36.424  21.336  25.369  1.00  0.00    -0.048 A 
ATOM     13  C   UNL A   1      35.045  21.049  25.305  1.00  0.00     0.011 A 
ATOM     14  C   UNL A   1      36.870  22.585  25.884  1.00  0.00    -0.045 A 
ATOM     15  C   UNL A   1      34.145  22.026  25.678  1.00  0.00    -0.001 A 
ATOM     16  C   UNL A   1      35.930  23.551  26.275  1.00  0.00     0.050 A 
ATOM     17  C   UNL A   1      38.322  22.973  25.954  1.00  0.00     0.045 C 
ATOM     18  C   UNL A   1      34.594  23.257  26.129  1.00  0.00     0.124 A 
ATOM     19  C   UNL A   1      32.659  22.041  25.670  1.00  0.00     0.095 C 
ATOM     20  O   UNL A   1      33.581  24.155  26.342  1.00  0.00    -0.480 OA
ENDBRANCH   7  10
ENDBRANCH   5   6
ENDBRANCH   4   5
ENDBRANCH   3   4
ENDBRANCH   2   3
ENDBRANCH   1   2
BRANCH   1  21
ATOM     21  C   UNL A   1      33.666  28.630  26.784  1.00  0.00     0.116 C 
BRANCH  21  22
ATOM     22  N   UNL A   1      33.622  30.012  27.240  1.00  0.00    -0.352 N 
ATOM     23  C   UNL A   1      34.563  30.717  27.956  1.00  0.00     0.251 C 
ATOM     24  H   UNL A   1      32.807  30.510  27.004  1.00  0.00     0.163 HD
ATOM     25  O   UNL A   1      34.305  31.844  28.372  1.00  0.00    -0.269 OA
BRANCH  23  26
ATOM     26  C   UNL A   1      35.870  30.092  28.256  1.00  0.00     0.039 A 
ATOM     27  C   UNL A   1      36.111  29.513  29.503  1.00  0.00     0.014 A 
ATOM     28  C   UNL A   1      36.880  30.127  27.290  1.00  0.00     0.014 A 
ATOM     29  C   UNL A   1      37.405  29.131  29.845  1.00  0.00     0.010 A 
ATOM     30  C   UNL A   1      38.161  29.667  27.610  1.00  0.00     0.010 A 
ATOM     31  C   UNL A   1      38.448  29.218  28.908  1.00  0.00    -0.014 A 
BRANCH  31  32
ATOM     32  C   UNL A   1      39.828  28.841  29.314  1.00  0.00     0.031 A 
ATOM     33  C   UNL A   1      40.430  27.529  28.884  1.00  0.00     0.074 A 
ATOM     34  C   UNL A   1      40.566  29.713  30.028  1.00  0.00     0.049 A 
ATOM     35  N   UNL A   1      41.640  27.076  29.095  1.00  0.00    -0.248 NA
ATOM     36  C   UNL A   1      39.571  26.606  28.125  1.00  0.00     0.031 C 
ATOM     37  C   UNL A   1      40.098  31.020  30.494  1.00  0.00     0.029 A 
ATOM     38  N   UNL A   1      41.868  29.652  30.456  1.00  0.00    -0.354 N 
ATOM     39  C   UNL A   1      41.680  25.811  28.519  1.00  0.00     0.074 A 
ATOM     40  C   UNL A   1      40.367  25.557  27.969  1.00  0.00     0.031 C 
ATOM     41  C   UNL A   1      41.114  31.662  31.087  1.00  0.00     0.029 A 
ATOM     42  C   UNL A   1      42.288  30.792  31.100  1.00  0.00     0.049 A 
ATOM     43  H   UNL A   1      42.447  28.869  30.315  1.00  0.00     0.167 HD
ATOM     44  C   UNL A   1      42.719  24.946  28.449  1.00  0.00     0.031 A 
ATOM     45  C   UNL A   1      43.478  31.112  31.645  1.00  0.00     0.031 A 
ATOM     46  C   UNL A   1      44.032  25.213  28.975  1.00  0.00     0.049 A 
ATOM     47  C   UNL A   1      44.610  30.131  31.575  1.00  0.00     0.074 A 
ATOM     48  C   UNL A   1      45.162  24.417  28.894  1.00  0.00     0.029 A 
ATOM     49  N   UNL A   1      44.394  26.352  29.678  1.00  0.00    -0.354 N 
ATOM     50  N   UNL A   1      44.637  28.955  30.998  1.00  0.00    -0.248 NA
ATOM     51  C   UNL A   1      45.869  30.512  32.229  1.00  0.00     0.031 C 
ATOM     52  C   UNL A   1      46.188  25.043  29.606  1.00  0.00     0.029 A 
ATOM     53  C   UNL A   1      45.719  26.262  30.072  1.00  0.00     0.049 A 
ATOM     54  H   UNL A   1      43.797  27.112  29.870  1.00  0.00     0.167 HD
ATOM     55  C   UNL A   1      45.913  28.452  31.218  1.00  0.00     0.074 A 
ATOM     56  C   UNL A   1      46.637  29.461  31.964  1.00  0.00     0.031 C 
ATOM     57  C   UNL A   1      46.430  27.260  30.834  1.00  0.00     0.031 A 
BRANCH  44  58
ATOM     58  C   UNL A   1      42.492  23.610  27.789  1.00  0.00    -0.014 A 
ATOM     59  C   UNL A   1      42.031  22.527  28.559  1.00  0.00     0.010 A 
ATOM     60  C   UNL A   1      42.828  23.396  26.441  1.00  0.00     0.010 A 
ATOM     61  C   UNL A   1      41.925  21.251  28.001  1.00  0.00     0.020 A 
ATOM     62  C   UNL A   1      42.701  22.125  25.872  1.00  0.00     0.020 A 
ATOM     63  C   UNL A   1      42.267  21.056  26.661  1.00  0.00     0.054 A 
BRANCH  63  64
ATOM     64  S   UNL A   1      42.122  19.394  25.949  1.00  0.00     0.124 S 
ATOM     65  O   UNL A   1      42.945  19.500  24.748  1.00  0.00    -0.237 OA
ATOM     66  O   UNL A   1      42.654  18.541  27.008  1.00  0.00    -0.237 OA
ATOM     67  O   UNL A   1      40.685  19.251  25.713  1.00  0.00    -0.744 OA
ENDBRANCH  63  64
ENDBRANCH  44  58
BRANCH  45  68
ATOM     68  C   UNL A   1      43.628  32.451  32.275  1.00  0.00    -0.014 A 
ATOM     69  C   UNL A   1      43.353  32.624  33.644  1.00  0.00     0.010 A 
ATOM     70  C   UNL A   1      43.892  33.580  31.480  1.00  0.00     0.010 A 
ATOM     71  C   UNL A   1      43.251  33.905  34.191  1.00  0.00     0.020 A 
ATOM     72  C   UNL A   1      43.817  34.864  32.030  1.00  0.00     0.020 A 
ATOM     73  C   UNL A   1      43.458  35.017  33.371  1.00  0.00     0.054 A 
BRANCH  73  74
ATOM     74  S   UNL A   1      43.202  36.673  34.068  1.00  0.00     0.124 S 
ATOM     75  O   UNL A   1      44.254  36.735  35.080  1.00  0.00    -0.237 OA
ATOM     76  O   UNL A   1      43.392  37.543  32.910  1.00  0.00    -0.237 OA
ATOM     77  O   UNL A   1      41.838  36.618  34.587  1.00  0.00    -0.744 OA
ENDBRANCH  73  74
ENDBRANCH  45  68
BRANCH  57  78
ATOM     78  C   UNL A   1      47.848  26.941  31.225  1.00  0.00    -0.014 A 
ATOM     79  C   UNL A   1      48.899  27.213  30.329  1.00  0.00     0.010 A 
ATOM     80  C   UNL A   1      48.124  26.243  32.414  1.00  0.00     0.010 A 
ATOM     81  C   UNL A   1      50.193  26.760  30.595  1.00  0.00     0.020 A 
ATOM     82  C   UNL A   1      49.423  25.810  32.696  1.00  0.00     0.020 A 
ATOM     83  C   UNL A   1      50.444  26.047  31.771  1.00  0.00     0.054 A 
BRANCH  83  84
ATOM     84  S   UNL A   1      52.120  25.429  32.081  1.00  0.00     0.124 S 
ATOM     85  O   UNL A   1      51.900  23.992  32.206  1.00  0.00    -0.237 OA
ATOM     86  O   UNL A   1      52.848  25.854  30.887  1.00  0.00    -0.237 OA
ATOM     87  O   UNL A   1      52.514  26.111  33.313  1.00  0.00    -0.744 OA
ENDBRANCH  83  84
ENDBRANCH  57  78
ENDBRANCH  31  32
ENDBRANCH  23  26
ENDBRANCH  21  22
ENDBRANCH   1  21
TORSDOF 16
ENDMDL
MODEL 3
REMARK VINA RESULT:     -10.9      3.708     10.576
REMARK SMILES Cc1cc2c(cc1C)O[C@H](C(=O)NCCCCCCNC(=O)c1ccc(-c3c4nc(c(-c5ccc(S(=O)(=O)[O-])cc5)c5ccc([nH]5)c(-c5ccc(S(=O)(=O)[O-])cc5)c5nc(c(-c6ccc(S(=O)(=O)[O-])cc6)c6ccc3[nH]6)C=C5)C=C4)cc1)C2
REMARK SMILES IDX 18 1 17 2 16 3 15 4 14 5 13 6 11 7 12 8 10 10 1 11 2 12 3 13
REMARK SMILES IDX 7 14 4 15 6 16 8 17 5 18 83 19 9 20 19 21 20 22 21 23 22 25
REMARK SMILES IDX 23 26 24 27 82 28 25 29 81 30 26 31 27 32 28 33 75 34 29 35
REMARK SMILES IDX 80 36 74 37 76 38 30 39 79 40 73 41 72 42 31 44 61 45 42 46
REMARK SMILES IDX 60 47 43 48 46 49 59 50 77 51 44 52 45 53 58 55 78 56 47 57
REMARK SMILES IDX 32 58 33 59 41 60 34 61 40 62 35 63 36 64 37 65 38 66 39 67
REMARK SMILES IDX 62 68 63 69 71 70 64 71 70 72 65 73 66 74 67 75 68 76 69 77
REMARK SMILES IDX 48 78 49 79 57 80 50 81 56 82 51 83 52 84 53 85 54 86 55 87
REMARK H PARENT 13 9 20 24 76 43 46 54
REMARK Flexibility Score: inf
ROOT
ATOM      1  C   UNL A   1      35.981  33.826  28.919  1.00  0.00     0.021 C 
ENDROOT
BRANCH   1   2
ATOM      2  C   UNL A   1      37.445  33.969  29.341  1.00  0.00     0.002 C 
BRANCH   2   3
ATOM      3  C   UNL A   1      37.728  33.731  30.829  1.00  0.00     0.002 C 
BRANCH   3   4
ATOM      4  C   UNL A   1      38.849  34.595  31.420  1.00  0.00     0.021 C 
BRANCH   4   5
ATOM      5  C   UNL A   1      38.991  34.454  32.937  1.00  0.00     0.116 C 
BRANCH   5   6
ATOM      6  N   UNL A   1      37.871  33.713  33.500  1.00  0.00    -0.353 N 
ATOM      7  C   UNL A   1      37.802  32.358  33.730  1.00  0.00     0.261 C 
ATOM      8  O   UNL A   1      36.733  31.862  34.085  1.00  0.00    -0.271 OA
ATOM      9  H   UNL A   1      37.076  34.239  33.744  1.00  0.00     0.163 HD
BRANCH   7  10
ATOM     10  C   UNL A   1      39.070  31.545  33.496  1.00  0.00     0.266 C 
ATOM     11  C   UNL A   1      43.070  27.170  33.393  1.00  0.00     0.044 C 
ATOM     12  C   UNL A   1      42.219  28.320  33.858  1.00  0.00    -0.048 A 
ATOM     13  C   UNL A   1      40.937  28.484  33.293  1.00  0.00     0.011 A 
ATOM     14  C   UNL A   1      42.698  29.249  34.823  1.00  0.00    -0.045 A 
ATOM     15  C   UNL A   1      40.197  29.596  33.639  1.00  0.00    -0.001 A 
ATOM     16  C   UNL A   1      41.912  30.359  35.170  1.00  0.00     0.050 A 
ATOM     17  C   UNL A   1      44.066  29.156  35.445  1.00  0.00     0.045 C 
ATOM     18  C   UNL A   1      40.699  30.519  34.542  1.00  0.00     0.124 A 
ATOM     19  C   UNL A   1      38.862  30.063  33.182  1.00  0.00     0.095 C 
ATOM     20  O   UNL A   1      39.898  31.622  34.686  1.00  0.00    -0.480 OA
ENDBRANCH   7  10
ENDBRANCH   5   6
ENDBRANCH   4   5
ENDBRANCH   3   4
ENDBRANCH   2   3
ENDBRANCH   1   2
BRANCH   1  21
ATOM     21  C   UNL A   1      35.147  32.885  29.782  1.00  0.00     0.116 C 
BRANCH  21  22
ATOM     22  N   UNL A   1      34.239  32.054  29.004  1.00  0.00    -0.352 N 
ATOM     23  C   UNL A   1      34.500  30.880  28.334  1.00  0.00     0.251 C 
ATOM     24  H   UNL A   1      33.311  32.376  28.951  1.00  0.00     0.163 HD
ATOM     25  O   UNL A   1      33.641  30.376  27.615  1.00  0.00    -0.269 OA
BRANCH  23  26
ATOM     26  C   UNL A   1      35.835  30.254  28.453  1.00  0.00     0.039 A 
ATOM     27  C   UNL A   1      36.189  29.547  29.604  1.00  0.00     0.014 A 
ATOM     28  C   UNL A   1      36.759  30.416  27.416  1.00  0.00     0.014 A 
ATOM     29  C   UNL A   1      37.512  29.157  29.792  1.00  0.00     0.010 A 
ATOM     30  C   UNL A   1      38.067  29.950  27.574  1.00  0.00     0.010 A 
ATOM     31  C   UNL A   1      38.470  29.368  28.786  1.00  0.00    -0.014 A 
BRANCH  31  32
ATOM     32  C   UNL A   1      39.884  28.978  29.031  1.00  0.00     0.031 A 
ATOM     33  C   UNL A   1      40.815  29.882  29.795  1.00  0.00     0.074 A 
ATOM     34  C   UNL A   1      40.317  27.773  28.612  1.00  0.00     0.049 A 
ATOM     35  N   UNL A   1      42.056  29.666  30.152  1.00  0.00    -0.248 NA
ATOM     36  C   UNL A   1      40.294  31.195  30.209  1.00  0.00     0.031 C 
ATOM     37  C   UNL A   1      39.506  26.804  27.872  1.00  0.00     0.029 A 
ATOM     38  N   UNL A   1      41.525  27.143  28.775  1.00  0.00    -0.354 N 
ATOM     39  C   UNL A   1      42.470  30.820  30.809  1.00  0.00     0.074 A 
ATOM     40  C   UNL A   1      41.358  31.743  30.782  1.00  0.00     0.031 C 
ATOM     41  C   UNL A   1      40.217  25.681  27.699  1.00  0.00     0.029 A 
ATOM     42  C   UNL A   1      41.554  25.869  28.260  1.00  0.00     0.049 A 
ATOM     43  H   UNL A   1      42.297  27.564  29.217  1.00  0.00     0.167 HD
ATOM     44  C   UNL A   1      43.666  31.079  31.388  1.00  0.00     0.031 A 
ATOM     45  C   UNL A   1      42.537  24.948  28.234  1.00  0.00     0.031 A 
ATOM     46  C   UNL A   1      44.762  30.147  31.436  1.00  0.00     0.049 A 
ATOM     47  C   UNL A   1      43.861  25.264  28.862  1.00  0.00     0.074 A 
ATOM     48  C   UNL A   1      45.990  30.304  32.055  1.00  0.00     0.029 A 
ATOM     49  N   UNL A   1      44.771  28.893  30.843  1.00  0.00    -0.354 N 
ATOM     50  N   UNL A   1      44.222  26.347  29.506  1.00  0.00    -0.248 NA
ATOM     51  C   UNL A   1      44.912  24.242  28.760  1.00  0.00     0.031 C 
ATOM     52  C   UNL A   1      46.765  29.175  31.781  1.00  0.00     0.029 A 
ATOM     53  C   UNL A   1      45.997  28.283  31.048  1.00  0.00     0.049 A 
ATOM     54  H   UNL A   1      44.017  28.496  30.349  1.00  0.00     0.167 HD
ATOM     55  C   UNL A   1      45.542  26.140  29.888  1.00  0.00     0.074 A 
ATOM     56  C   UNL A   1      45.910  24.819  29.420  1.00  0.00     0.031 C 
ATOM     57  C   UNL A   1      46.368  26.976  30.563  1.00  0.00     0.031 A 
BRANCH  44  58
ATOM     58  C   UNL A   1      43.876  32.433  32.016  1.00  0.00    -0.014 A 
ATOM     59  C   UNL A   1      43.533  32.631  33.366  1.00  0.00     0.010 A 
ATOM     60  C   UNL A   1      44.309  33.531  31.253  1.00  0.00     0.010 A 
ATOM     61  C   UNL A   1      43.604  33.903  33.939  1.00  0.00     0.020 A 
ATOM     62  C   UNL A   1      44.405  34.802  31.830  1.00  0.00     0.020 A 
ATOM     63  C   UNL A   1      44.034  34.982  33.165  1.00  0.00     0.054 A 
BRANCH  63  64
ATOM     64  S   UNL A   1      44.124  36.628  33.923  1.00  0.00     0.124 S 
ATOM     65  O   UNL A   1      44.468  36.312  35.306  1.00  0.00    -0.237 OA
ATOM     66  O   UNL A   1      45.172  37.285  33.145  1.00  0.00    -0.237 OA
ATOM     67  O   UNL A   1      42.781  37.170  33.719  1.00  0.00    -0.744 OA
ENDBRANCH  63  64
ENDBRANCH  44  58
BRANCH  45  68
ATOM     68  C   UNL A   1      42.254  23.632  27.601  1.00  0.00    -0.014 A 
ATOM     69  C   UNL A   1      41.628  22.611  28.341  1.00  0.00     0.010 A 
ATOM     70  C   UNL A   1      42.748  23.344  26.317  1.00  0.00     0.010 A 
ATOM     71  C   UNL A   1      41.578  21.306  27.847  1.00  0.00     0.020 A 
ATOM     72  C   UNL A   1      42.676  22.044  25.807  1.00  0.00     0.020 A 
ATOM     73  C   UNL A   1      42.128  21.027  26.593  1.00  0.00     0.054 A 
BRANCH  73  74
ATOM     74  S   UNL A   1      42.164  19.306  26.020  1.00  0.00     0.124 S 
ATOM     75  O   UNL A   1      40.754  19.061  25.729  1.00  0.00    -0.237 OA
ATOM     76  O   UNL A   1      43.044  19.372  24.857  1.00  0.00    -0.237 OA
ATOM     77  O   UNL A   1      42.702  18.576  27.165  1.00  0.00    -0.744 OA
ENDBRANCH  73  74
ENDBRANCH  45  68
BRANCH  57  78
ATOM     78  C   UNL A   1      47.777  26.519  30.832  1.00  0.00    -0.014 A 
ATOM     79  C   UNL A   1      48.057  25.755  31.979  1.00  0.00     0.010 A 
ATOM     80  C   UNL A   1      48.840  26.966  30.028  1.00  0.00     0.010 A 
ATOM     81  C   UNL A   1      49.378  25.478  32.342  1.00  0.00     0.020 A 
ATOM     82  C   UNL A   1      50.162  26.670  30.374  1.00  0.00     0.020 A 
ATOM     83  C   UNL A   1      50.423  25.951  31.544  1.00  0.00     0.054 A 
BRANCH  83  84
ATOM     84  S   UNL A   1      52.132  25.620  32.051  1.00  0.00     0.124 S 
ATOM     85  O   UNL A   1      52.395  26.714  32.980  1.00  0.00    -0.237 OA
ATOM     86  O   UNL A   1      52.039  24.292  32.653  1.00  0.00    -0.237 OA
ATOM     87  O   UNL A   1      52.878  25.672  30.795  1.00  0.00    -0.744 OA
ENDBRANCH  83  84
ENDBRANCH  57  78
ENDBRANCH  31  32
ENDBRANCH  23  26
ENDBRANCH  21  22
ENDBRANCH   1  21
TORSDOF 16
ENDMDL
