MODEL 1
REMARK VINA RESULT:     -10.4      0.000      0.000
REMARK SMILES C[C@H](c1ccncc1)[N@H+]1[C@@H]2CC[C@H]1C[C@H](CC(=O)NCCCCCCNC(=O)c1ccc(-c3c4nc(c(-c5ccc(S(=O)(=O)[O-])cc5)c5ccc([nH]5)c(-c5ccc(S(=O)(=O)[O-])cc5)c5nc(c(-c6ccc(S(=O)(=O)[O-])cc6)c6ccc3[nH]6)C=C5)C=C4)cc1)C2
REMARK SMILES IDX 22 1 21 2 20 3 19 4 17 5 18 6 16 8 15 9 9 10 10 11 13 12
REMARK SMILES IDX 11 14 89 15 12 16 14 17 2 18 1 19 3 20 4 21 8 22 5 23 7 24
REMARK SMILES IDX 6 25 23 26 24 27 25 28 26 29 27 30 28 32 29 33 30 34 88 35
REMARK SMILES IDX 31 36 87 37 32 38 33 39 34 40 81 41 35 42 86 43 80 44 82 45
REMARK SMILES IDX 36 46 85 47 79 48 78 49 37 51 67 52 48 53 66 54 49 55 52 56
REMARK SMILES IDX 65 57 83 58 50 59 51 60 64 62 84 63 53 64 38 65 39 66 47 67
REMARK SMILES IDX 40 68 46 69 41 70 42 71 43 72 44 73 45 74 68 75 69 76 77 77
REMARK SMILES IDX 70 78 76 79 71 80 72 81 73 82 74 83 75 84 54 85 55 86 63 87
REMARK SMILES IDX 56 88 62 89 57 90 58 91 59 92 60 93 61 94
REMARK H PARENT 19 7 9 13 26 31 82 50 52 61
REMARK Flexibility Score: inf
ROOT
ATOM      1  C   UNL A   1      31.092  28.857  23.911  1.00  0.00     0.002 C 
ENDROOT
BRANCH   1   2
ATOM      2  C   UNL A   1      31.672  27.761  23.021  1.00  0.00     0.021 C 
BRANCH   2   3
ATOM      3  C   UNL A   1      30.937  26.420  23.115  1.00  0.00     0.116 C 
BRANCH   3   4
ATOM      4  N   UNL A   1      30.328  26.269  24.425  1.00  0.00    -0.356 N 
ATOM      5  C   UNL A   1      30.777  25.647  25.551  1.00  0.00     0.220 C 
ATOM      6  O   UNL A   1      29.993  25.530  26.497  1.00  0.00    -0.275 OA
ATOM      7  H   UNL A   1      29.441  26.687  24.514  1.00  0.00     0.163 HD
BRANCH   5   8
ATOM      8  C   UNL A   1      32.206  25.149  25.670  1.00  0.00     0.104 C 
BRANCH   8   9
ATOM      9  C   UNL A   1      32.402  23.620  25.531  1.00  0.00     0.010 C 
ATOM     10  N   UNL A   1      34.892  22.155  24.878  1.00  0.00    -0.324 N 
ATOM     11  C   UNL A   1      34.334  21.982  26.208  1.00  0.00     0.185 C 
ATOM     12  C   UNL A   1      33.758  22.028  23.980  1.00  0.00     0.185 C 
ATOM     13  H   UNL A   1      35.611  21.440  24.767  1.00  0.00     0.349 HD
ATOM     14  C   UNL A   1      33.542  20.684  25.974  1.00  0.00     0.071 C 
ATOM     15  C   UNL A   1      33.371  23.109  26.629  1.00  0.00     0.069 C 
ATOM     16  C   UNL A   1      33.085  20.765  24.517  1.00  0.00     0.071 C 
ATOM     17  C   UNL A   1      32.840  23.239  24.105  1.00  0.00     0.069 C 
BRANCH  10  18
ATOM     18  C   UNL A   1      35.985  23.066  24.539  1.00  0.00     0.212 C 
ATOM     19  C   UNL A   1      36.282  22.957  23.036  1.00  0.00     0.081 C 
BRANCH  18  20
ATOM     20  C   UNL A   1      37.274  23.009  25.346  1.00  0.00     0.012 A 
ATOM     21  C   UNL A   1      37.718  24.078  26.131  1.00  0.00     0.030 A 
ATOM     22  C   UNL A   1      38.034  21.831  25.382  1.00  0.00     0.030 A 
ATOM     23  C   UNL A   1      38.913  23.962  26.827  1.00  0.00     0.111 A 
ATOM     24  C   UNL A   1      39.206  21.800  26.127  1.00  0.00     0.111 A 
ATOM     25  N   UNL A   1      39.673  22.848  26.833  1.00  0.00    -0.265 NA
ENDBRANCH  18  20
ENDBRANCH  10  18
ENDBRANCH   8   9
ENDBRANCH   5   8
ENDBRANCH   3   4
ENDBRANCH   2   3
ENDBRANCH   1   2
BRANCH   1  26
ATOM     26  C   UNL A   1      32.051  29.369  24.988  1.00  0.00     0.002 C 
BRANCH  26  27
ATOM     27  C   UNL A   1      33.315  28.528  25.209  1.00  0.00     0.021 C 
BRANCH  27  28
ATOM     28  C   UNL A   1      34.248  29.013  26.318  1.00  0.00     0.116 C 
BRANCH  28  29
ATOM     29  N   UNL A   1      33.970  30.386  26.708  1.00  0.00    -0.352 N 
ATOM     30  C   UNL A   1      34.537  31.157  27.685  1.00  0.00     0.251 C 
ATOM     31  H   UNL A   1      33.262  30.830  26.187  1.00  0.00     0.163 HD
ATOM     32  O   UNL A   1      34.002  32.222  28.002  1.00  0.00    -0.269 OA
BRANCH  30  33
ATOM     33  C   UNL A   1      35.776  30.726  28.367  1.00  0.00     0.039 A 
ATOM     34  C   UNL A   1      36.982  31.344  28.027  1.00  0.00     0.014 A 
ATOM     35  C   UNL A   1      35.763  29.682  29.297  1.00  0.00     0.014 A 
ATOM     36  C   UNL A   1      38.168  30.940  28.644  1.00  0.00     0.010 A 
ATOM     37  C   UNL A   1      36.936  29.327  29.961  1.00  0.00     0.010 A 
ATOM     38  C   UNL A   1      38.153  29.941  29.631  1.00  0.00    -0.014 A 
BRANCH  38  39
ATOM     39  C   UNL A   1      39.407  29.518  30.306  1.00  0.00     0.031 A 
ATOM     40  C   UNL A   1      39.875  30.225  31.551  1.00  0.00     0.074 A 
ATOM     41  C   UNL A   1      40.144  28.520  29.778  1.00  0.00     0.049 A 
ATOM     42  N   UNL A   1      40.944  30.004  32.271  1.00  0.00    -0.248 NA
ATOM     43  C   UNL A   1      39.045  31.340  32.037  1.00  0.00     0.031 C 
ATOM     44  C   UNL A   1      39.821  27.786  28.553  1.00  0.00     0.029 A 
ATOM     45  N   UNL A   1      41.317  27.952  30.206  1.00  0.00    -0.354 N 
ATOM     46  C   UNL A   1      40.924  30.957  33.284  1.00  0.00     0.074 A 
ATOM     47  C   UNL A   1      39.764  31.790  33.054  1.00  0.00     0.031 C 
ATOM     48  C   UNL A   1      40.755  26.845  28.345  1.00  0.00     0.029 A 
ATOM     49  C   UNL A   1      41.759  26.929  29.401  1.00  0.00     0.049 A 
ATOM     50  H   UNL A   1      41.796  28.248  31.013  1.00  0.00     0.167 HD
ATOM     51  C   UNL A   1      41.780  31.113  34.322  1.00  0.00     0.031 A 
ATOM     52  C   UNL A   1      42.849  26.143  29.502  1.00  0.00     0.031 A 
ATOM     53  C   UNL A   1      42.926  30.275  34.555  1.00  0.00     0.049 A 
ATOM     54  C   UNL A   1      43.780  26.329  30.669  1.00  0.00     0.074 A 
ATOM     55  C   UNL A   1      43.825  30.316  35.607  1.00  0.00     0.029 A 
ATOM     56  N   UNL A   1      43.332  29.242  33.723  1.00  0.00    -0.354 N 
ATOM     57  N   UNL A   1      43.707  27.195  31.651  1.00  0.00    -0.248 NA
ATOM     58  C   UNL A   1      44.930  25.418  30.749  1.00  0.00     0.031 C 
ATOM     59  C   UNL A   1      44.801  29.338  35.387  1.00  0.00     0.029 A 
ATOM     60  C   UNL A   1      44.478  28.650  34.227  1.00  0.00     0.049 A 
ATOM     61  H   UNL A   1      42.874  28.968  32.896  1.00  0.00     0.167 HD
ATOM     62  C   UNL A   1      44.787  26.917  32.481  1.00  0.00     0.074 A 
ATOM     63  C   UNL A   1      45.487  25.791  31.893  1.00  0.00     0.031 C 
ATOM     64  C   UNL A   1      45.165  27.535  33.627  1.00  0.00     0.031 A 
BRANCH  51  65
ATOM     65  C   UNL A   1      41.508  32.239  35.285  1.00  0.00    -0.014 A 
ATOM     66  C   UNL A   1      42.103  33.504  35.112  1.00  0.00     0.010 A 
ATOM     67  C   UNL A   1      40.623  32.044  36.360  1.00  0.00     0.010 A 
ATOM     68  C   UNL A   1      41.853  34.535  36.020  1.00  0.00     0.020 A 
ATOM     69  C   UNL A   1      40.347  33.082  37.256  1.00  0.00     0.020 A 
ATOM     70  C   UNL A   1      40.980  34.317  37.090  1.00  0.00     0.054 A 
BRANCH  70  71
ATOM     71  S   UNL A   1      40.661  35.678  38.245  1.00  0.00     0.124 S 
ATOM     72  O   UNL A   1      40.034  34.979  39.366  1.00  0.00    -0.237 OA
ATOM     73  O   UNL A   1      42.000  36.201  38.504  1.00  0.00    -0.237 OA
ATOM     74  O   UNL A   1      39.780  36.570  37.497  1.00  0.00    -0.744 OA
ENDBRANCH  70  71
ENDBRANCH  51  65
BRANCH  52  75
ATOM     75  C   UNL A   1      43.102  25.090  28.481  1.00  0.00    -0.014 A 
ATOM     76  C   UNL A   1      42.779  23.748  28.744  1.00  0.00     0.010 A 
ATOM     77  C   UNL A   1      43.652  25.429  27.232  1.00  0.00     0.010 A 
ATOM     78  C   UNL A   1      43.019  22.760  27.785  1.00  0.00     0.020 A 
ATOM     79  C   UNL A   1      43.869  24.448  26.259  1.00  0.00     0.020 A 
ATOM     80  C   UNL A   1      43.560  23.117  26.547  1.00  0.00     0.054 A 
BRANCH  80  81
ATOM     81  S   UNL A   1      43.811  21.827  25.296  1.00  0.00     0.124 S 
ATOM     82  O   UNL A   1      42.662  20.956  25.523  1.00  0.00    -0.237 OA
ATOM     83  O   UNL A   1      43.794  22.587  24.049  1.00  0.00    -0.237 OA
ATOM     84  O   UNL A   1      45.109  21.257  25.651  1.00  0.00    -0.744 OA
ENDBRANCH  80  81
ENDBRANCH  52  75
BRANCH  64  85
ATOM     85  C   UNL A   1      46.374  26.987  34.339  1.00  0.00    -0.014 A 
ATOM     86  C   UNL A   1      47.664  27.482  34.075  1.00  0.00     0.010 A 
ATOM     87  C   UNL A   1      46.209  25.986  35.315  1.00  0.00     0.010 A 
ATOM     88  C   UNL A   1      48.771  26.956  34.745  1.00  0.00     0.020 A 
ATOM     89  C   UNL A   1      47.312  25.480  36.007  1.00  0.00     0.020 A 
ATOM     90  C   UNL A   1      48.588  25.955  35.704  1.00  0.00     0.054 A 
BRANCH  90  91
ATOM     91  S   UNL A   1      50.039  25.307  36.579  1.00  0.00     0.124 S 
ATOM     92  O   UNL A   1      51.079  26.254  36.185  1.00  0.00    -0.237 OA
ATOM     93  O   UNL A   1      49.626  25.372  37.978  1.00  0.00    -0.237 OA
ATOM     94  O   UNL A   1      50.190  23.956  36.043  1.00  0.00    -0.744 OA
ENDBRANCH  90  91
ENDBRANCH  64  85
ENDBRANCH  38  39
ENDBRANCH  30  33
ENDBRANCH  28  29
ENDBRANCH  27  28
ENDBRANCH  26  27
ENDBRANCH   1  26
TORSDOF 19
ENDMDL
MODEL 2
REMARK VINA RESULT:     -10.3      2.406      3.528
REMARK SMILES C[C@H](c1ccncc1)[N@H+]1[C@@H]2CC[C@H]1C[C@H](CC(=O)NCCCCCCNC(=O)c1ccc(-c3c4nc(c(-c5ccc(S(=O)(=O)[O-])cc5)c5ccc([nH]5)c(-c5ccc(S(=O)(=O)[O-])cc5)c5nc(c(-c6ccc(S(=O)(=O)[O-])cc6)c6ccc3[nH]6)C=C5)C=C4)cc1)C2
REMARK SMILES IDX 22 1 21 2 20 3 19 4 17 5 18 6 16 8 15 9 9 10 10 11 13 12
REMARK SMILES IDX 11 14 89 15 12 16 14 17 2 18 1 19 3 20 4 21 8 22 5 23 7 24
REMARK SMILES IDX 6 25 23 26 24 27 25 28 26 29 27 30 28 32 29 33 30 34 88 35
REMARK SMILES IDX 31 36 87 37 32 38 33 39 34 40 81 41 35 42 86 43 80 44 82 45
REMARK SMILES IDX 36 46 85 47 79 48 78 49 37 51 67 52 48 53 66 54 49 55 52 56
REMARK SMILES IDX 65 57 83 58 50 59 51 60 64 62 84 63 53 64 38 65 39 66 47 67
REMARK SMILES IDX 40 68 46 69 41 70 42 71 43 72 44 73 45 74 68 75 69 76 77 77
REMARK SMILES IDX 70 78 76 79 71 80 72 81 73 82 74 83 75 84 54 85 55 86 63 87
REMARK SMILES IDX 56 88 62 89 57 90 58 91 59 92 60 93 61 94
REMARK H PARENT 19 7 9 13 26 31 82 50 52 61
REMARK Flexibility Score: inf
ROOT
ATOM      1  C   UNL A   1      31.216  28.875  24.316  1.00  0.00     0.002 C 
ENDROOT
BRANCH   1   2
ATOM      2  C   UNL A   1      32.414  28.563  23.422  1.00  0.00     0.021 C 
BRANCH   2   3
ATOM      3  C   UNL A   1      32.173  27.429  22.420  1.00  0.00     0.116 C 
BRANCH   3   4
ATOM      4  N   UNL A   1      31.354  26.390  23.021  1.00  0.00    -0.356 N 
ATOM      5  C   UNL A   1      31.435  25.033  22.943  1.00  0.00     0.220 C 
ATOM      6  O   UNL A   1      30.516  24.371  23.431  1.00  0.00    -0.275 OA
ATOM      7  H   UNL A   1      30.616  26.725  23.580  1.00  0.00     0.163 HD
BRANCH   5   8
ATOM      8  C   UNL A   1      32.635  24.342  22.318  1.00  0.00     0.104 C 
BRANCH   8   9
ATOM      9  C   UNL A   1      33.914  24.293  23.188  1.00  0.00     0.010 C 
ATOM     10  N   UNL A   1      34.645  22.284  25.238  1.00  0.00    -0.324 N 
ATOM     11  C   UNL A   1      35.447  22.339  24.028  1.00  0.00     0.185 C 
ATOM     12  C   UNL A   1      34.495  23.669  25.648  1.00  0.00     0.185 C 
ATOM     13  H   UNL A   1      35.151  21.693  25.898  1.00  0.00     0.349 HD
ATOM     14  C   UNL A   1      36.593  23.232  24.534  1.00  0.00     0.071 C 
ATOM     15  C   UNL A   1      34.738  23.025  22.844  1.00  0.00     0.069 C 
ATOM     16  C   UNL A   1      35.935  24.174  25.543  1.00  0.00     0.071 C 
ATOM     17  C   UNL A   1      33.578  24.414  24.685  1.00  0.00     0.069 C 
BRANCH  10  18
ATOM     18  C   UNL A   1      33.558  21.336  25.482  1.00  0.00     0.212 C 
ATOM     19  C   UNL A   1      33.432  21.096  26.994  1.00  0.00     0.081 C 
BRANCH  18  20
ATOM     20  C   UNL A   1      33.543  20.016  24.725  1.00  0.00     0.012 A 
ATOM     21  C   UNL A   1      34.542  19.049  24.881  1.00  0.00     0.030 A 
ATOM     22  C   UNL A   1      32.469  19.695  23.884  1.00  0.00     0.030 A 
ATOM     23  C   UNL A   1      34.474  17.875  24.144  1.00  0.00     0.111 A 
ATOM     24  C   UNL A   1      32.475  18.483  23.205  1.00  0.00     0.111 A 
ATOM     25  N   UNL A   1      33.466  17.576  23.300  1.00  0.00    -0.265 NA
ENDBRANCH  18  20
ENDBRANCH  10  18
ENDBRANCH   8   9
ENDBRANCH   5   8
ENDBRANCH   3   4
ENDBRANCH   2   3
ENDBRANCH   1   2
BRANCH   1  26
ATOM     26  C   UNL A   1      31.445  28.581  25.801  1.00  0.00     0.002 C 
BRANCH  26  27
ATOM     27  C   UNL A   1      32.586  27.608  26.119  1.00  0.00     0.021 C 
BRANCH  27  28
ATOM     28  C   UNL A   1      33.764  28.199  26.893  1.00  0.00     0.116 C 
BRANCH  28  29
ATOM     29  N   UNL A   1      33.588  29.617  27.161  1.00  0.00    -0.352 N 
ATOM     30  C   UNL A   1      34.391  30.491  27.841  1.00  0.00     0.251 C 
ATOM     31  H   UNL A   1      32.762  30.009  26.797  1.00  0.00     0.163 HD
ATOM     32  O   UNL A   1      33.950  31.602  28.150  1.00  0.00    -0.269 OA
BRANCH  30  33
ATOM     33  C   UNL A   1      35.772  30.120  28.214  1.00  0.00     0.039 A 
ATOM     34  C   UNL A   1      36.777  30.204  27.247  1.00  0.00     0.014 A 
ATOM     35  C   UNL A   1      36.071  29.638  29.493  1.00  0.00     0.014 A 
ATOM     36  C   UNL A   1      38.086  29.840  27.571  1.00  0.00     0.010 A 
ATOM     37  C   UNL A   1      37.389  29.340  29.834  1.00  0.00     0.010 A 
ATOM     38  C   UNL A   1      38.407  29.423  28.872  1.00  0.00    -0.014 A 
BRANCH  38  39
ATOM     39  C   UNL A   1      39.800  29.051  29.231  1.00  0.00     0.031 A 
ATOM     40  C   UNL A   1      40.686  30.031  29.955  1.00  0.00     0.074 A 
ATOM     41  C   UNL A   1      40.281  27.843  28.874  1.00  0.00     0.049 A 
ATOM     42  N   UNL A   1      41.928  29.891  30.341  1.00  0.00    -0.248 NA
ATOM     43  C   UNL A   1      40.108  31.350  30.263  1.00  0.00     0.031 C 
ATOM     44  C   UNL A   1      39.537  26.822  28.132  1.00  0.00     0.029 A 
ATOM     45  N   UNL A   1      41.509  27.270  29.086  1.00  0.00    -0.354 N 
ATOM     46  C   UNL A   1      42.284  31.102  30.925  1.00  0.00     0.074 A 
ATOM     47  C   UNL A   1      41.143  31.982  30.795  1.00  0.00     0.031 C 
ATOM     48  C   UNL A   1      40.314  25.738  27.979  1.00  0.00     0.029 A 
ATOM     49  C   UNL A   1      41.618  25.996  28.582  1.00  0.00     0.049 A 
ATOM     50  H   UNL A   1      42.243  27.728  29.556  1.00  0.00     0.167 HD
ATOM     51  C   UNL A   1      43.445  31.444  31.532  1.00  0.00     0.031 A 
ATOM     52  C   UNL A   1      42.650  25.130  28.603  1.00  0.00     0.031 A 
ATOM     53  C   UNL A   1      44.572  30.561  31.671  1.00  0.00     0.049 A 
ATOM     54  C   UNL A   1      43.926  25.530  29.292  1.00  0.00     0.074 A 
ATOM     55  C   UNL A   1      45.774  30.794  32.317  1.00  0.00     0.029 A 
ATOM     56  N   UNL A   1      44.638  29.274  31.158  1.00  0.00    -0.354 N 
ATOM     57  N   UNL A   1      44.219  26.657  29.893  1.00  0.00    -0.248 NA
ATOM     58  C   UNL A   1      45.004  24.531  29.318  1.00  0.00     0.031 C 
ATOM     59  C   UNL A   1      46.585  29.664  32.153  1.00  0.00     0.029 A 
ATOM     60  C   UNL A   1      45.866  28.707  31.454  1.00  0.00     0.049 A 
ATOM     61  H   UNL A   1      43.918  28.829  30.656  1.00  0.00     0.167 HD
ATOM     62  C   UNL A   1      45.506  26.495  30.394  1.00  0.00     0.074 A 
ATOM     63  C   UNL A   1      45.927  25.154  30.038  1.00  0.00     0.031 C 
ATOM     64  C   UNL A   1      46.271  27.374  31.088  1.00  0.00     0.031 A 
BRANCH  51  65
ATOM     65  C   UNL A   1      43.553  32.839  32.090  1.00  0.00    -0.014 A 
ATOM     66  C   UNL A   1      44.153  33.875  31.348  1.00  0.00     0.010 A 
ATOM     67  C   UNL A   1      43.022  33.130  33.360  1.00  0.00     0.010 A 
ATOM     68  C   UNL A   1      44.259  35.161  31.883  1.00  0.00     0.020 A 
ATOM     69  C   UNL A   1      43.101  34.423  33.888  1.00  0.00     0.020 A 
ATOM     70  C   UNL A   1      43.737  35.426  33.152  1.00  0.00     0.054 A 
BRANCH  70  71
ATOM     71  S   UNL A   1      43.875  37.108  33.817  1.00  0.00     0.124 S 
ATOM     72  O   UNL A   1      45.248  37.122  34.316  1.00  0.00    -0.237 OA
ATOM     73  O   UNL A   1      43.627  37.939  32.641  1.00  0.00    -0.237 OA
ATOM     74  O   UNL A   1      42.838  37.162  34.844  1.00  0.00    -0.744 OA
ENDBRANCH  70  71
ENDBRANCH  51  65
BRANCH  52  75
ATOM     75  C   UNL A   1      42.506  23.789  27.974  1.00  0.00    -0.014 A 
ATOM     76  C   UNL A   1      42.960  23.562  26.664  1.00  0.00     0.010 A 
ATOM     77  C   UNL A   1      41.927  22.726  28.691  1.00  0.00     0.010 A 
ATOM     78  C   UNL A   1      42.821  22.303  26.073  1.00  0.00     0.020 A 
ATOM     79  C   UNL A   1      41.812  21.458  28.115  1.00  0.00     0.020 A 
ATOM     80  C   UNL A   1      42.251  21.257  26.804  1.00  0.00     0.054 A 
BRANCH  80  81
ATOM     81  S   UNL A   1      42.131  19.616  26.039  1.00  0.00     0.124 S 
ATOM     82  O   UNL A   1      43.040  19.744  24.904  1.00  0.00    -0.237 OA
ATOM     83  O   UNL A   1      42.578  18.733  27.113  1.00  0.00    -0.237 OA
ATOM     84  O   UNL A   1      40.715  19.502  25.699  1.00  0.00    -0.744 OA
ENDBRANCH  80  81
ENDBRANCH  52  75
BRANCH  64  85
ATOM     85  C   UNL A   1      47.629  26.903  31.536  1.00  0.00    -0.014 A 
ATOM     86  C   UNL A   1      48.779  27.155  30.766  1.00  0.00     0.010 A 
ATOM     87  C   UNL A   1      47.759  26.230  32.764  1.00  0.00     0.010 A 
ATOM     88  C   UNL A   1      50.029  26.705  31.199  1.00  0.00     0.020 A 
ATOM     89  C   UNL A   1      49.012  25.805  33.214  1.00  0.00     0.020 A 
ATOM     90  C   UNL A   1      50.136  26.029  32.418  1.00  0.00     0.054 A 
BRANCH  90  91
ATOM     91  S   UNL A   1      51.774  25.479  32.971  1.00  0.00     0.124 S 
ATOM     92  O   UNL A   1      52.345  26.712  33.504  1.00  0.00    -0.237 OA
ATOM     93  O   UNL A   1      51.451  24.455  33.962  1.00  0.00    -0.237 OA
ATOM     94  O   UNL A   1      52.400  24.977  31.750  1.00  0.00    -0.744 OA
ENDBRANCH  90  91
ENDBRANCH  64  85
ENDBRANCH  38  39
ENDBRANCH  30  33
ENDBRANCH  28  29
ENDBRANCH  27  28
ENDBRANCH  26  27
ENDBRANCH   1  26
TORSDOF 19
ENDMDL
MODEL 3
REMARK VINA RESULT:     -10.0      0.661      8.125
REMARK SMILES C[C@H](c1ccncc1)[N@H+]1[C@@H]2CC[C@H]1C[C@H](CC(=O)NCCCCCCNC(=O)c1ccc(-c3c4nc(c(-c5ccc(S(=O)(=O)[O-])cc5)c5ccc([nH]5)c(-c5ccc(S(=O)(=O)[O-])cc5)c5nc(c(-c6ccc(S(=O)(=O)[O-])cc6)c6ccc3[nH]6)C=C5)C=C4)cc1)C2
REMARK SMILES IDX 22 1 21 2 20 3 19 4 17 5 18 6 16 8 15 9 9 10 10 11 13 12
REMARK SMILES IDX 11 14 89 15 12 16 14 17 2 18 1 19 3 20 4 21 8 22 5 23 7 24
REMARK SMILES IDX 6 25 23 26 24 27 25 28 26 29 27 30 28 32 29 33 30 34 88 35
REMARK SMILES IDX 31 36 87 37 32 38 33 39 34 40 81 41 35 42 86 43 80 44 82 45
REMARK SMILES IDX 36 46 85 47 79 48 78 49 37 51 67 52 48 53 66 54 49 55 52 56
REMARK SMILES IDX 65 57 83 58 50 59 51 60 64 62 84 63 53 64 38 65 39 66 47 67
REMARK SMILES IDX 40 68 46 69 41 70 42 71 43 72 44 73 45 74 68 75 69 76 77 77
REMARK SMILES IDX 70 78 76 79 71 80 72 81 73 82 74 83 75 84 54 85 55 86 63 87
REMARK SMILES IDX 56 88 62 89 57 90 58 91 59 92 60 93 61 94
REMARK H PARENT 19 7 9 13 26 31 82 50 52 61
REMARK Flexibility Score: inf
ROOT
ATOM      1  C   UNL A   1      30.994  28.426  24.443  1.00  0.00     0.002 C 
ENDROOT
BRANCH   1   2
ATOM      2  C   UNL A   1      31.554  27.252  23.644  1.00  0.00     0.021 C 
BRANCH   2   3
ATOM      3  C   UNL A   1      30.603  26.056  23.532  1.00  0.00     0.116 C 
BRANCH   3   4
ATOM      4  N   UNL A   1      29.981  25.784  24.816  1.00  0.00    -0.356 N 
ATOM      5  C   UNL A   1      30.436  25.097  25.901  1.00  0.00     0.220 C 
ATOM      6  O   UNL A   1      29.644  24.880  26.821  1.00  0.00    -0.275 OA
ATOM      7  H   UNL A   1      29.077  26.161  24.921  1.00  0.00     0.163 HD
BRANCH   5   8
ATOM      8  C   UNL A   1      31.882  24.645  26.007  1.00  0.00     0.104 C 
BRANCH   8   9
ATOM      9  C   UNL A   1      32.147  23.153  25.696  1.00  0.00     0.010 C 
ATOM     10  N   UNL A   1      34.680  21.902  24.805  1.00  0.00    -0.324 N 
ATOM     11  C   UNL A   1      34.183  21.557  26.125  1.00  0.00     0.185 C 
ATOM     12  C   UNL A   1      33.519  21.811  23.936  1.00  0.00     0.185 C 
ATOM     13  H   UNL A   1      35.428  21.241  24.592  1.00  0.00     0.349 HD
ATOM     14  C   UNL A   1      33.447  20.252  25.778  1.00  0.00     0.071 C 
ATOM     15  C   UNL A   1      33.183  22.580  26.699  1.00  0.00     0.069 C 
ATOM     16  C   UNL A   1      32.931  20.463  24.355  1.00  0.00     0.071 C 
ATOM     17  C   UNL A   1      32.548  22.951  24.223  1.00  0.00     0.069 C 
BRANCH  10  18
ATOM     18  C   UNL A   1      35.712  22.901  24.531  1.00  0.00     0.212 C 
ATOM     19  C   UNL A   1      35.963  22.961  23.017  1.00  0.00     0.081 C 
BRANCH  18  20
ATOM     20  C   UNL A   1      37.029  22.832  25.291  1.00  0.00     0.012 A 
ATOM     21  C   UNL A   1      37.859  21.705  25.258  1.00  0.00     0.030 A 
ATOM     22  C   UNL A   1      37.492  23.945  26.006  1.00  0.00     0.030 A 
ATOM     23  C   UNL A   1      39.036  21.706  25.990  1.00  0.00     0.111 A 
ATOM     24  C   UNL A   1      38.698  23.861  26.690  1.00  0.00     0.111 A 
ATOM     25  N   UNL A   1      39.470  22.757  26.716  1.00  0.00    -0.265 NA
ENDBRANCH  18  20
ENDBRANCH  10  18
ENDBRANCH   8   9
ENDBRANCH   5   8
ENDBRANCH   3   4
ENDBRANCH   2   3
ENDBRANCH   1   2
BRANCH   1  26
ATOM     26  C   UNL A   1      31.991  29.061  25.415  1.00  0.00     0.002 C 
BRANCH  26  27
ATOM     27  C   UNL A   1      33.173  28.176  25.829  1.00  0.00     0.021 C 
BRANCH  27  28
ATOM     28  C   UNL A   1      34.329  28.896  26.521  1.00  0.00     0.116 C 
BRANCH  28  29
ATOM     29  N   UNL A   1      34.016  30.287  26.809  1.00  0.00    -0.352 N 
ATOM     30  C   UNL A   1      34.573  31.147  27.715  1.00  0.00     0.251 C 
ATOM     31  H   UNL A   1      33.288  30.669  26.267  1.00  0.00     0.163 HD
ATOM     32  O   UNL A   1      34.010  32.218  27.958  1.00  0.00    -0.269 OA
BRANCH  30  33
ATOM     33  C   UNL A   1      35.834  30.807  28.407  1.00  0.00     0.039 A 
ATOM     34  C   UNL A   1      35.838  29.748  29.320  1.00  0.00     0.014 A 
ATOM     35  C   UNL A   1      36.996  31.559  28.204  1.00  0.00     0.014 A 
ATOM     36  C   UNL A   1      37.013  29.421  30.000  1.00  0.00     0.010 A 
ATOM     37  C   UNL A   1      38.184  31.188  28.832  1.00  0.00     0.010 A 
ATOM     38  C   UNL A   1      38.201  30.126  29.748  1.00  0.00    -0.014 A 
BRANCH  38  39
ATOM     39  C   UNL A   1      39.460  29.772  30.453  1.00  0.00     0.031 A 
ATOM     40  C   UNL A   1      40.343  28.673  29.926  1.00  0.00     0.074 A 
ATOM     41  C   UNL A   1      39.791  30.418  31.590  1.00  0.00     0.049 A 
ATOM     42  N   UNL A   1      41.471  28.218  30.409  1.00  0.00    -0.248 NA
ATOM     43  C   UNL A   1      39.888  27.977  28.711  1.00  0.00     0.031 C 
ATOM     44  C   UNL A   1      38.997  31.472  32.226  1.00  0.00     0.029 A 
ATOM     45  N   UNL A   1      40.882  30.283  32.411  1.00  0.00    -0.354 N 
ATOM     46  C   UNL A   1      41.853  27.178  29.568  1.00  0.00     0.074 A 
ATOM     47  C   UNL A   1      40.811  27.036  28.575  1.00  0.00     0.031 C 
ATOM     48  C   UNL A   1      39.643  31.908  33.320  1.00  0.00     0.029 A 
ATOM     49  C   UNL A   1      40.877  31.145  33.481  1.00  0.00     0.049 A 
ATOM     50  H   UNL A   1      41.600  29.630  32.248  1.00  0.00     0.167 HD
ATOM     51  C   UNL A   1      42.978  26.424  29.605  1.00  0.00     0.031 A 
ATOM     52  C   UNL A   1      41.767  31.308  34.480  1.00  0.00     0.031 A 
ATOM     53  C   UNL A   1      44.019  26.578  30.586  1.00  0.00     0.049 A 
ATOM     54  C   UNL A   1      43.013  30.465  34.494  1.00  0.00     0.074 A 
ATOM     55  C   UNL A   1      45.222  25.900  30.678  1.00  0.00     0.029 A 
ATOM     56  N   UNL A   1      43.982  27.471  31.646  1.00  0.00    -0.354 N 
ATOM     57  N   UNL A   1      43.385  29.531  33.652  1.00  0.00    -0.248 NA
ATOM     58  C   UNL A   1      43.967  30.714  35.584  1.00  0.00     0.031 C 
ATOM     59  C   UNL A   1      45.893  26.352  31.821  1.00  0.00     0.029 A 
ATOM     60  C   UNL A   1      45.131  27.351  32.409  1.00  0.00     0.049 A 
ATOM     61  H   UNL A   1      43.247  28.100  31.830  1.00  0.00     0.167 HD
ATOM     62  C   UNL A   1      44.630  29.097  34.095  1.00  0.00     0.074 A 
ATOM     63  C   UNL A   1      44.952  29.884  35.270  1.00  0.00     0.031 C 
ATOM     64  C   UNL A   1      45.434  28.137  33.577  1.00  0.00     0.031 A 
BRANCH  51  65
ATOM     65  C   UNL A   1      43.137  25.360  28.551  1.00  0.00    -0.014 A 
ATOM     66  C   UNL A   1      42.604  24.070  28.733  1.00  0.00     0.010 A 
ATOM     67  C   UNL A   1      43.800  25.659  27.346  1.00  0.00     0.010 A 
ATOM     68  C   UNL A   1      42.771  23.088  27.753  1.00  0.00     0.020 A 
ATOM     69  C   UNL A   1      43.945  24.688  26.351  1.00  0.00     0.020 A 
ATOM     70  C   UNL A   1      43.445  23.402  26.570  1.00  0.00     0.054 A 
BRANCH  70  71
ATOM     71  S   UNL A   1      43.634  22.114  25.307  1.00  0.00     0.124 S 
ATOM     72  O   UNL A   1      45.014  21.683  25.522  1.00  0.00    -0.237 OA
ATOM     73  O   UNL A   1      42.609  21.143  25.684  1.00  0.00    -0.237 OA
ATOM     74  O   UNL A   1      43.390  22.818  24.052  1.00  0.00    -0.744 OA
ENDBRANCH  70  71
ENDBRANCH  51  65
BRANCH  52  75
ATOM     75  C   UNL A   1      41.521  32.331  35.532  1.00  0.00    -0.014 A 
ATOM     76  C   UNL A   1      42.008  33.640  35.383  1.00  0.00     0.010 A 
ATOM     77  C   UNL A   1      40.784  32.002  36.684  1.00  0.00     0.010 A 
ATOM     78  C   UNL A   1      41.779  34.600  36.373  1.00  0.00     0.020 A 
ATOM     79  C   UNL A   1      40.529  32.966  37.665  1.00  0.00     0.020 A 
ATOM     80  C   UNL A   1      41.038  34.256  37.507  1.00  0.00     0.054 A 
BRANCH  80  81
ATOM     81  S   UNL A   1      40.705  35.531  38.755  1.00  0.00     0.124 S 
ATOM     82  O   UNL A   1      40.930  36.760  38.001  1.00  0.00    -0.237 OA
ATOM     83  O   UNL A   1      39.318  35.258  39.124  1.00  0.00    -0.237 OA
ATOM     84  O   UNL A   1      41.686  35.249  39.800  1.00  0.00    -0.744 OA
ENDBRANCH  80  81
ENDBRANCH  52  75
BRANCH  64  85
ATOM     85  C   UNL A   1      46.757  27.904  34.259  1.00  0.00    -0.014 A 
ATOM     86  C   UNL A   1      47.900  28.643  33.904  1.00  0.00     0.010 A 
ATOM     87  C   UNL A   1      46.845  26.957  35.296  1.00  0.00     0.010 A 
ATOM     88  C   UNL A   1      49.118  28.408  34.547  1.00  0.00     0.020 A 
ATOM     89  C   UNL A   1      48.055  26.742  35.961  1.00  0.00     0.020 A 
ATOM     90  C   UNL A   1      49.188  27.456  35.569  1.00  0.00     0.054 A 
BRANCH  90  91
ATOM     91  S   UNL A   1      50.775  27.189  36.407  1.00  0.00     0.124 S 
ATOM     92  O   UNL A   1      50.372  27.135  37.809  1.00  0.00    -0.237 OA
ATOM     93  O   UNL A   1      51.231  25.925  35.834  1.00  0.00    -0.237 OA
ATOM     94  O   UNL A   1      51.566  28.357  36.029  1.00  0.00    -0.744 OA
ENDBRANCH  90  91
ENDBRANCH  64  85
ENDBRANCH  38  39
ENDBRANCH  30  33
ENDBRANCH  28  29
ENDBRANCH  27  28
ENDBRANCH  26  27
ENDBRANCH   1  26
TORSDOF 19
ENDMDL
