MODEL 1
REMARK VINA RESULT:     -12.3      0.000      0.000
REMARK SMILES Cc1ccc(C(=O)NC2CC2)cc1NC(=O)[C@@H]1[C@@H](C(=O)NCCCCCCNC(=O)c2ccc(-c3c4nc(c(-c5ccc(S(=O)(=O)[O-])cc5)c5ccc([nH]5)c(-c5ccc(S(=O)(=O)[O-])cc5)c5nc(c(-c6ccc(S(=O)(=O)[O-])cc6)c6ccc3[nH]6)C=C5)C=C4)cc2)[C@H]2C=C[C@@H]1C2
REMARK SMILES IDX 24 1 23 2 22 3 21 4 19 5 20 6 18 8 17 9 94 10 91 11 93 12
REMARK SMILES IDX 95 13 92 14 15 15 14 16 16 18 13 19 1 20 2 21 3 22 4 23
REMARK SMILES IDX 12 24 5 25 6 26 7 27 8 28 9 30 10 31 11 32 25 33 26 34 27 35
REMARK SMILES IDX 28 36 29 37 30 39 31 40 32 41 90 42 33 43 89 44 34 45 35 46
REMARK SMILES IDX 36 47 83 48 37 49 88 50 82 51 84 52 38 53 87 54 81 55 80 56
REMARK SMILES IDX 39 58 69 59 50 60 68 61 51 62 54 63 67 64 85 65 52 66 53 67
REMARK SMILES IDX 66 69 86 70 55 71 40 72 41 73 49 74 42 75 48 76 43 77 44 78
REMARK SMILES IDX 45 79 46 80 47 81 70 82 71 83 79 84 72 85 78 86 73 87 74 88
REMARK SMILES IDX 75 89 76 90 77 91 56 92 57 93 65 94 58 95 64 96 59 97 60 98
REMARK SMILES IDX 61 99 62 100 63 101
REMARK H PARENT 21 7 14 17 8 29 28 38 84 57 54 68
REMARK Flexibility Score: inf
ROOT
ATOM      1  C   UNL A   1      38.833  24.396  27.222  1.00  0.00     0.002 C 
ENDROOT
BRANCH   1   2
ATOM      2  C   UNL A   1      38.448  23.297  26.224  1.00  0.00     0.021 C 
BRANCH   2   3
ATOM      3  C   UNL A   1      37.030  23.332  25.655  1.00  0.00     0.116 C 
BRANCH   3   4
ATOM      4  N   UNL A   1      36.058  22.692  26.512  1.00  0.00    -0.356 N 
ATOM      5  C   UNL A   1      34.914  22.024  26.228  1.00  0.00     0.224 C 
ATOM      6  O   UNL A   1      34.300  21.568  27.201  1.00  0.00    -0.275 OA
ATOM      7  H   UNL A   1      36.263  22.752  27.472  1.00  0.00     0.163 HD
BRANCH   5   8
ATOM      8  C   UNL A   1      34.307  21.915  24.828  1.00  0.00     0.098 C 
ATOM      9  C   UNL A   1      33.609  23.291  24.471  1.00  0.00     0.099 C 
ATOM     10  C   UNL A   1      32.251  22.851  23.867  1.00  0.00     0.025 C 
ATOM     11  C   UNL A   1      33.163  20.918  24.534  1.00  0.00     0.025 C 
ATOM     12  C   UNL A   1      31.400  22.321  25.000  1.00  0.00    -0.027 C 
ATOM     13  C   UNL A   1      32.610  21.512  23.228  1.00  0.00     0.017 C 
ATOM     14  C   UNL A   1      31.966  21.180  25.420  1.00  0.00    -0.027 C 
BRANCH   9  15
ATOM     15  C   UNL A   1      34.390  24.189  23.527  1.00  0.00     0.228 C 
ATOM     16  N   UNL A   1      34.077  25.516  23.368  1.00  0.00    -0.326 N 
ATOM     17  H   UNL A   1      34.631  25.967  22.691  1.00  0.00     0.169 HD
ATOM     18  O   UNL A   1      35.277  23.735  22.797  1.00  0.00    -0.274 OA
BRANCH  16  19
ATOM     19  C   UNL A   1      33.126  26.371  23.970  1.00  0.00     0.044 A 
ATOM     20  C   UNL A   1      31.675  26.300  21.836  1.00  0.00     0.046 C 
ATOM     21  C   UNL A   1      31.947  26.687  23.267  1.00  0.00    -0.027 A 
ATOM     22  C   UNL A   1      30.953  27.441  23.911  1.00  0.00     0.006 A 
ATOM     23  C   UNL A   1      31.119  27.874  25.227  1.00  0.00     0.014 A 
ATOM     24  C   UNL A   1      33.320  26.937  25.242  1.00  0.00     0.040 A 
ATOM     25  C   UNL A   1      32.315  27.640  25.917  1.00  0.00     0.041 A 
BRANCH  25  26
ATOM     26  C   UNL A   1      32.398  28.180  27.315  1.00  0.00     0.251 C 
ATOM     27  O   UNL A   1      31.508  27.879  28.117  1.00  0.00    -0.269 OA
ATOM     28  N   UNL A   1      33.422  28.969  27.797  1.00  0.00    -0.349 N 
ATOM     29  H   UNL A   1      33.337  29.202  28.749  1.00  0.00     0.164 HD
BRANCH  28  30
ATOM     30  C   UNL A   1      34.574  29.504  27.167  1.00  0.00     0.082 C 
ATOM     31  C   UNL A   1      35.213  30.748  27.719  1.00  0.00     0.027 C 
ATOM     32  C   UNL A   1      35.936  29.438  27.800  1.00  0.00     0.027 C 
ENDBRANCH  28  30
ENDBRANCH  25  26
ENDBRANCH  16  19
ENDBRANCH   9  15
ENDBRANCH   5   8
ENDBRANCH   3   4
ENDBRANCH   2   3
ENDBRANCH   1   2
BRANCH   1  33
ATOM     33  C   UNL A   1      40.041  25.283  26.888  1.00  0.00     0.002 C 
BRANCH  33  34
ATOM     34  C   UNL A   1      41.429  24.658  27.039  1.00  0.00     0.021 C 
BRANCH  34  35
ATOM     35  C   UNL A   1      42.572  25.658  27.169  1.00  0.00     0.116 C 
BRANCH  35  36
ATOM     36  N   UNL A   1      42.980  26.278  25.921  1.00  0.00    -0.352 N 
ATOM     37  C   UNL A   1      42.549  27.495  25.418  1.00  0.00     0.251 C 
ATOM     38  H   UNL A   1      43.631  25.780  25.374  1.00  0.00     0.163 HD
ATOM     39  O   UNL A   1      42.752  27.838  24.267  1.00  0.00    -0.269 OA
BRANCH  37  40
ATOM     40  C   UNL A   1      41.925  28.432  26.381  1.00  0.00     0.039 A 
ATOM     41  C   UNL A   1      42.743  28.952  27.390  1.00  0.00     0.014 A 
ATOM     42  C   UNL A   1      40.541  28.579  26.434  1.00  0.00     0.014 A 
ATOM     43  C   UNL A   1      42.160  29.482  28.540  1.00  0.00     0.010 A 
ATOM     44  C   UNL A   1      39.965  29.022  27.612  1.00  0.00     0.010 A 
ATOM     45  C   UNL A   1      40.771  29.436  28.682  1.00  0.00    -0.014 A 
BRANCH  45  46
ATOM     46  C   UNL A   1      40.087  29.724  29.938  1.00  0.00     0.031 A 
ATOM     47  C   UNL A   1      39.329  30.985  30.111  1.00  0.00     0.074 A 
ATOM     48  C   UNL A   1      40.126  28.851  30.971  1.00  0.00     0.049 A 
ATOM     49  N   UNL A   1      39.196  31.598  31.242  1.00  0.00    -0.248 NA
ATOM     50  C   UNL A   1      38.690  31.681  28.998  1.00  0.00     0.031 C 
ATOM     51  C   UNL A   1      39.294  28.893  32.172  1.00  0.00     0.029 A 
ATOM     52  N   UNL A   1      41.074  27.866  31.254  1.00  0.00    -0.354 N 
ATOM     53  C   UNL A   1      38.244  32.577  31.070  1.00  0.00     0.074 A 
ATOM     54  C   UNL A   1      38.025  32.647  29.642  1.00  0.00     0.031 C 
ATOM     55  C   UNL A   1      39.925  28.235  33.155  1.00  0.00     0.029 A 
ATOM     56  C   UNL A   1      41.233  27.850  32.649  1.00  0.00     0.049 A 
ATOM     57  H   UNL A   1      41.541  27.295  30.602  1.00  0.00     0.167 HD
ATOM     58  C   UNL A   1      37.617  33.128  32.147  1.00  0.00     0.031 A 
ATOM     59  C   UNL A   1      42.416  28.014  33.307  1.00  0.00     0.031 A 
ATOM     60  C   UNL A   1      38.075  32.553  33.408  1.00  0.00     0.049 A 
ATOM     61  C   UNL A   1      42.383  29.120  34.335  1.00  0.00     0.074 A 
ATOM     62  C   UNL A   1      37.535  31.585  34.239  1.00  0.00     0.029 A 
ATOM     63  N   UNL A   1      39.369  32.782  33.852  1.00  0.00    -0.354 N 
ATOM     64  N   UNL A   1      41.453  30.030  34.389  1.00  0.00    -0.248 NA
ATOM     65  C   UNL A   1      43.424  29.334  35.337  1.00  0.00     0.031 C 
ATOM     66  C   UNL A   1      38.522  31.215  35.183  1.00  0.00     0.029 A 
ATOM     67  C   UNL A   1      39.656  31.964  34.928  1.00  0.00     0.049 A 
ATOM     68  H   UNL A   1      39.993  33.433  33.458  1.00  0.00     0.167 HD
ATOM     69  C   UNL A   1      41.753  30.944  35.367  1.00  0.00     0.074 A 
ATOM     70  C   UNL A   1      42.989  30.454  35.944  1.00  0.00     0.031 C 
ATOM     71  C   UNL A   1      40.953  32.030  35.589  1.00  0.00     0.031 A 
BRANCH  58  72
ATOM     72  C   UNL A   1      36.363  33.966  32.043  1.00  0.00    -0.014 A 
ATOM     73  C   UNL A   1      36.058  34.890  33.065  1.00  0.00     0.010 A 
ATOM     74  C   UNL A   1      35.431  33.870  30.993  1.00  0.00     0.010 A 
ATOM     75  C   UNL A   1      34.841  35.584  33.105  1.00  0.00     0.020 A 
ATOM     76  C   UNL A   1      34.192  34.531  31.037  1.00  0.00     0.020 A 
ATOM     77  C   UNL A   1      33.897  35.372  32.105  1.00  0.00     0.054 A 
BRANCH  77  78
ATOM     78  S   UNL A   1      32.289  36.194  32.234  1.00  0.00     0.124 S 
ATOM     79  O   UNL A   1      31.399  35.092  32.591  1.00  0.00    -0.237 OA
ATOM     80  O   UNL A   1      32.523  37.180  33.284  1.00  0.00    -0.237 OA
ATOM     81  O   UNL A   1      32.075  36.747  30.898  1.00  0.00    -0.744 OA
ENDBRANCH  77  78
ENDBRANCH  58  72
BRANCH  59  82
ATOM     82  C   UNL A   1      43.617  27.634  32.519  1.00  0.00    -0.014 A 
ATOM     83  C   UNL A   1      44.295  28.657  31.826  1.00  0.00     0.010 A 
ATOM     84  C   UNL A   1      44.290  26.434  32.803  1.00  0.00     0.010 A 
ATOM     85  C   UNL A   1      45.664  28.551  31.573  1.00  0.00     0.020 A 
ATOM     86  C   UNL A   1      45.663  26.325  32.548  1.00  0.00     0.020 A 
ATOM     87  C   UNL A   1      46.349  27.411  31.993  1.00  0.00     0.054 A 
BRANCH  87  88
ATOM     88  S   UNL A   1      48.166  27.454  31.977  1.00  0.00     0.124 S 
ATOM     89  O   UNL A   1      48.469  27.307  30.557  1.00  0.00    -0.237 OA
ATOM     90  O   UNL A   1      48.444  28.772  32.546  1.00  0.00    -0.237 OA
ATOM     91  O   UNL A   1      48.535  26.321  32.821  1.00  0.00    -0.744 OA
ENDBRANCH  87  88
ENDBRANCH  59  82
BRANCH  71  92
ATOM     92  C   UNL A   1      41.232  33.215  36.491  1.00  0.00    -0.014 A 
ATOM     93  C   UNL A   1      41.705  34.462  36.056  1.00  0.00     0.010 A 
ATOM     94  C   UNL A   1      40.905  33.110  37.867  1.00  0.00     0.010 A 
ATOM     95  C   UNL A   1      41.888  35.529  36.952  1.00  0.00     0.020 A 
ATOM     96  C   UNL A   1      41.043  34.176  38.761  1.00  0.00     0.020 A 
ATOM     97  C   UNL A   1      41.559  35.379  38.299  1.00  0.00     0.054 A 
BRANCH  97  98
ATOM     98  S   UNL A   1      41.737  36.781  39.430  1.00  0.00     0.124 S 
ATOM     99  O   UNL A   1      42.408  37.766  38.587  1.00  0.00    -0.237 OA
ATOM    100  O   UNL A   1      40.352  37.097  39.778  1.00  0.00    -0.237 OA
ATOM    101  O   UNL A   1      42.537  36.242  40.525  1.00  0.00    -0.744 OA
ENDBRANCH  97  98
ENDBRANCH  71  92
ENDBRANCH  45  46
ENDBRANCH  37  40
ENDBRANCH  35  36
ENDBRANCH  34  35
ENDBRANCH  33  34
ENDBRANCH   1  33
TORSDOF 20
ENDMDL
MODEL 2
REMARK VINA RESULT:     -11.3      4.041      5.661
REMARK SMILES Cc1ccc(C(=O)NC2CC2)cc1NC(=O)[C@@H]1[C@@H](C(=O)NCCCCCCNC(=O)c2ccc(-c3c4nc(c(-c5ccc(S(=O)(=O)[O-])cc5)c5ccc([nH]5)c(-c5ccc(S(=O)(=O)[O-])cc5)c5nc(c(-c6ccc(S(=O)(=O)[O-])cc6)c6ccc3[nH]6)C=C5)C=C4)cc2)[C@H]2C=C[C@@H]1C2
REMARK SMILES IDX 24 1 23 2 22 3 21 4 19 5 20 6 18 8 17 9 94 10 91 11 93 12
REMARK SMILES IDX 95 13 92 14 15 15 14 16 16 18 13 19 1 20 2 21 3 22 4 23
REMARK SMILES IDX 12 24 5 25 6 26 7 27 8 28 9 30 10 31 11 32 25 33 26 34 27 35
REMARK SMILES IDX 28 36 29 37 30 39 31 40 32 41 90 42 33 43 89 44 34 45 35 46
REMARK SMILES IDX 36 47 83 48 37 49 88 50 82 51 84 52 38 53 87 54 81 55 80 56
REMARK SMILES IDX 39 58 69 59 50 60 68 61 51 62 54 63 67 64 85 65 52 66 53 67
REMARK SMILES IDX 66 69 86 70 55 71 40 72 41 73 49 74 42 75 48 76 43 77 44 78
REMARK SMILES IDX 45 79 46 80 47 81 70 82 71 83 79 84 72 85 78 86 73 87 74 88
REMARK SMILES IDX 75 89 76 90 77 91 56 92 57 93 65 94 58 95 64 96 59 97 60 98
REMARK SMILES IDX 61 99 62 100 63 101
REMARK H PARENT 21 7 14 17 8 29 28 38 84 57 54 68
REMARK Flexibility Score: inf
ROOT
ATOM      1  C   UNL A   1      36.266  22.261  24.200  1.00  0.00     0.002 C 
ENDROOT
BRANCH   1   2
ATOM      2  C   UNL A   1      35.671  23.494  23.508  1.00  0.00     0.021 C 
BRANCH   2   3
ATOM      3  C   UNL A   1      34.222  23.399  23.032  1.00  0.00     0.116 C 
BRANCH   3   4
ATOM      4  N   UNL A   1      33.656  22.079  23.190  1.00  0.00    -0.356 N 
ATOM      5  C   UNL A   1      32.581  21.640  23.887  1.00  0.00     0.224 C 
ATOM      6  O   UNL A   1      32.341  20.429  23.804  1.00  0.00    -0.275 OA
ATOM      7  H   UNL A   1      34.138  21.372  22.704  1.00  0.00     0.163 HD
BRANCH   5   8
ATOM      8  C   UNL A   1      31.753  22.516  24.830  1.00  0.00     0.098 C 
ATOM      9  C   UNL A   1      32.066  24.035  24.512  1.00  0.00     0.099 C 
ATOM     10  C   UNL A   1      32.252  24.659  25.920  1.00  0.00     0.025 C 
ATOM     11  C   UNL A   1      31.987  22.479  26.358  1.00  0.00     0.025 C 
ATOM     12  C   UNL A   1      33.565  24.149  26.472  1.00  0.00    -0.027 C 
ATOM     13  C   UNL A   1      31.318  23.801  26.770  1.00  0.00     0.017 C 
ATOM     14  C   UNL A   1      33.415  22.836  26.702  1.00  0.00    -0.027 C 
BRANCH   9  15
ATOM     15  C   UNL A   1      31.004  24.760  23.703  1.00  0.00     0.228 C 
ATOM     16  N   UNL A   1      31.058  26.116  23.490  1.00  0.00    -0.326 N 
ATOM     17  H   UNL A   1      30.283  26.462  22.992  1.00  0.00     0.169 HD
ATOM     18  O   UNL A   1      30.002  24.172  23.287  1.00  0.00    -0.274 OA
BRANCH  16  19
ATOM     19  C   UNL A   1      31.992  27.119  23.836  1.00  0.00     0.044 A 
ATOM     20  C   UNL A   1      33.385  26.581  21.730  1.00  0.00     0.046 C 
ATOM     21  C   UNL A   1      33.062  27.390  22.960  1.00  0.00    -0.027 A 
ATOM     22  C   UNL A   1      33.920  28.464  23.247  1.00  0.00     0.006 A 
ATOM     23  C   UNL A   1      33.726  29.257  24.377  1.00  0.00     0.014 A 
ATOM     24  C   UNL A   1      31.905  27.850  25.034  1.00  0.00     0.040 A 
ATOM     25  C   UNL A   1      32.718  28.958  25.302  1.00  0.00     0.041 A 
BRANCH  25  26
ATOM     26  C   UNL A   1      32.619  29.858  26.500  1.00  0.00     0.251 C 
ATOM     27  O   UNL A   1      31.546  30.427  26.723  1.00  0.00    -0.269 OA
ATOM     28  N   UNL A   1      33.634  30.077  27.408  1.00  0.00    -0.349 N 
ATOM     29  H   UNL A   1      33.386  30.667  28.156  1.00  0.00     0.164 HD
BRANCH  28  30
ATOM     30  C   UNL A   1      34.970  29.607  27.457  1.00  0.00     0.082 C 
ATOM     31  C   UNL A   1      36.094  30.581  27.680  1.00  0.00     0.027 C 
ATOM     32  C   UNL A   1      35.761  29.571  28.737  1.00  0.00     0.027 C 
ENDBRANCH  28  30
ENDBRANCH  25  26
ENDBRANCH  16  19
ENDBRANCH   9  15
ENDBRANCH   5   8
ENDBRANCH   3   4
ENDBRANCH   2   3
ENDBRANCH   1   2
BRANCH   1  33
ATOM     33  C   UNL A   1      36.897  22.447  25.588  1.00  0.00     0.002 C 
BRANCH  33  34
ATOM     34  C   UNL A   1      37.221  23.877  26.021  1.00  0.00     0.021 C 
BRANCH  34  35
ATOM     35  C   UNL A   1      38.647  24.090  26.516  1.00  0.00     0.116 C 
BRANCH  35  36
ATOM     36  N   UNL A   1      39.528  22.951  26.336  1.00  0.00    -0.352 N 
ATOM     37  C   UNL A   1      40.909  22.978  26.218  1.00  0.00     0.251 C 
ATOM     38  H   UNL A   1      39.099  22.065  26.292  1.00  0.00     0.163 HD
ATOM     39  O   UNL A   1      41.555  22.018  25.838  1.00  0.00    -0.269 OA
BRANCH  37  40
ATOM     40  C   UNL A   1      41.595  24.202  26.695  1.00  0.00     0.039 A 
ATOM     41  C   UNL A   1      42.426  24.076  27.814  1.00  0.00     0.014 A 
ATOM     42  C   UNL A   1      41.225  25.456  26.216  1.00  0.00     0.014 A 
ATOM     43  C   UNL A   1      42.758  25.210  28.553  1.00  0.00     0.010 A 
ATOM     44  C   UNL A   1      41.481  26.569  26.999  1.00  0.00     0.010 A 
ATOM     45  C   UNL A   1      42.212  26.443  28.189  1.00  0.00    -0.014 A 
BRANCH  45  46
ATOM     46  C   UNL A   1      42.287  27.630  29.034  1.00  0.00     0.031 A 
ATOM     47  C   UNL A   1      41.098  28.493  29.226  1.00  0.00     0.074 A 
ATOM     48  C   UNL A   1      43.436  27.970  29.662  1.00  0.00     0.049 A 
ATOM     49  N   UNL A   1      41.157  29.770  29.425  1.00  0.00    -0.248 NA
ATOM     50  C   UNL A   1      39.732  27.981  29.164  1.00  0.00     0.031 C 
ATOM     51  C   UNL A   1      43.581  28.968  30.720  1.00  0.00     0.029 A 
ATOM     52  N   UNL A   1      44.750  27.639  29.329  1.00  0.00    -0.354 N 
ATOM     53  C   UNL A   1      39.900  30.187  29.798  1.00  0.00     0.074 A 
ATOM     54  C   UNL A   1      39.033  29.059  29.535  1.00  0.00     0.031 C 
ATOM     55  C   UNL A   1      44.852  29.396  30.734  1.00  0.00     0.029 A 
ATOM     56  C   UNL A   1      45.533  28.771  29.612  1.00  0.00     0.049 A 
ATOM     57  H   UNL A   1      45.067  26.781  28.965  1.00  0.00     0.167 HD
ATOM     58  C   UNL A   1      39.728  31.380  30.434  1.00  0.00     0.031 A 
ATOM     59  C   UNL A   1      46.339  29.411  28.718  1.00  0.00     0.031 A 
ATOM     60  C   UNL A   1      40.990  32.081  30.646  1.00  0.00     0.049 A 
ATOM     61  C   UNL A   1      46.049  30.889  28.600  1.00  0.00     0.074 A 
ATOM     62  C   UNL A   1      41.815  32.197  31.753  1.00  0.00     0.029 A 
ATOM     63  N   UNL A   1      41.700  32.586  29.567  1.00  0.00    -0.354 N 
ATOM     64  N   UNL A   1      44.963  31.451  29.048  1.00  0.00    -0.248 NA
ATOM     65  C   UNL A   1      46.919  31.838  27.910  1.00  0.00     0.031 C 
ATOM     66  C   UNL A   1      43.041  32.761  31.332  1.00  0.00     0.029 A 
ATOM     67  C   UNL A   1      42.957  32.994  29.971  1.00  0.00     0.049 A 
ATOM     68  H   UNL A   1      41.359  32.644  28.645  1.00  0.00     0.167 HD
ATOM     69  C   UNL A   1      44.953  32.780  28.706  1.00  0.00     0.074 A 
ATOM     70  C   UNL A   1      46.209  32.977  28.009  1.00  0.00     0.031 C 
ATOM     71  C   UNL A   1      43.891  33.582  29.020  1.00  0.00     0.031 A 
BRANCH  58  72
ATOM     72  C   UNL A   1      38.451  31.769  31.144  1.00  0.00    -0.014 A 
ATOM     73  C   UNL A   1      37.482  32.535  30.461  1.00  0.00     0.010 A 
ATOM     74  C   UNL A   1      38.159  31.448  32.482  1.00  0.00     0.010 A 
ATOM     75  C   UNL A   1      36.352  33.055  31.106  1.00  0.00     0.020 A 
ATOM     76  C   UNL A   1      37.050  31.991  33.153  1.00  0.00     0.020 A 
ATOM     77  C   UNL A   1      36.161  32.808  32.462  1.00  0.00     0.054 A 
BRANCH  77  78
ATOM     78  S   UNL A   1      34.754  33.580  33.300  1.00  0.00     0.124 S 
ATOM     79  O   UNL A   1      33.622  32.813  32.787  1.00  0.00    -0.237 OA
ATOM     80  O   UNL A   1      35.072  33.368  34.709  1.00  0.00    -0.237 OA
ATOM     81  O   UNL A   1      34.806  34.971  32.853  1.00  0.00    -0.744 OA
ENDBRANCH  77  78
ENDBRANCH  58  72
BRANCH  59  82
ATOM     82  C   UNL A   1      46.823  28.558  27.602  1.00  0.00    -0.014 A 
ATOM     83  C   UNL A   1      47.642  27.458  27.928  1.00  0.00     0.010 A 
ATOM     84  C   UNL A   1      46.155  28.575  26.366  1.00  0.00     0.010 A 
ATOM     85  C   UNL A   1      47.659  26.324  27.114  1.00  0.00     0.020 A 
ATOM     86  C   UNL A   1      46.172  27.438  25.547  1.00  0.00     0.020 A 
ATOM     87  C   UNL A   1      46.874  26.301  25.961  1.00  0.00     0.054 A 
BRANCH  87  88
ATOM     88  S   UNL A   1      46.634  24.705  25.124  1.00  0.00     0.124 S 
ATOM     89  O   UNL A   1      46.983  23.749  26.171  1.00  0.00    -0.237 OA
ATOM     90  O   UNL A   1      45.218  24.758  24.767  1.00  0.00    -0.237 OA
ATOM     91  O   UNL A   1      47.563  24.773  24.000  1.00  0.00    -0.744 OA
ENDBRANCH  87  88
ENDBRANCH  59  82
BRANCH  71  92
ATOM     92  C   UNL A   1      43.640  35.004  28.562  1.00  0.00    -0.014 A 
ATOM     93  C   UNL A   1      42.616  35.399  27.690  1.00  0.00     0.010 A 
ATOM     94  C   UNL A   1      44.427  36.044  29.122  1.00  0.00     0.010 A 
ATOM     95  C   UNL A   1      42.417  36.749  27.356  1.00  0.00     0.020 A 
ATOM     96  C   UNL A   1      44.214  37.394  28.830  1.00  0.00     0.020 A 
ATOM     97  C   UNL A   1      43.219  37.739  27.926  1.00  0.00     0.054 A 
BRANCH  97  98
ATOM     98  S   UNL A   1      42.911  39.480  27.539  1.00  0.00     0.124 S 
ATOM     99  O   UNL A   1      44.265  40.021  27.477  1.00  0.00    -0.237 OA
ATOM    100  O   UNL A   1      42.206  39.410  26.260  1.00  0.00    -0.237 OA
ATOM    101  O   UNL A   1      42.099  39.944  28.661  1.00  0.00    -0.744 OA
ENDBRANCH  97  98
ENDBRANCH  71  92
ENDBRANCH  45  46
ENDBRANCH  37  40
ENDBRANCH  35  36
ENDBRANCH  34  35
ENDBRANCH  33  34
ENDBRANCH   1  33
TORSDOF 20
ENDMDL
MODEL 3
REMARK VINA RESULT:     -11.1      4.629      9.835
REMARK SMILES Cc1ccc(C(=O)NC2CC2)cc1NC(=O)[C@@H]1[C@@H](C(=O)NCCCCCCNC(=O)c2ccc(-c3c4nc(c(-c5ccc(S(=O)(=O)[O-])cc5)c5ccc([nH]5)c(-c5ccc(S(=O)(=O)[O-])cc5)c5nc(c(-c6ccc(S(=O)(=O)[O-])cc6)c6ccc3[nH]6)C=C5)C=C4)cc2)[C@H]2C=C[C@@H]1C2
REMARK SMILES IDX 24 1 23 2 22 3 21 4 19 5 20 6 18 8 17 9 94 10 91 11 93 12
REMARK SMILES IDX 95 13 92 14 15 15 14 16 16 18 13 19 1 20 2 21 3 22 4 23
REMARK SMILES IDX 12 24 5 25 6 26 7 27 8 28 9 30 10 31 11 32 25 33 26 34 27 35
REMARK SMILES IDX 28 36 29 37 30 39 31 40 32 41 90 42 33 43 89 44 34 45 35 46
REMARK SMILES IDX 36 47 83 48 37 49 88 50 82 51 84 52 38 53 87 54 81 55 80 56
REMARK SMILES IDX 39 58 69 59 50 60 68 61 51 62 54 63 67 64 85 65 52 66 53 67
REMARK SMILES IDX 66 69 86 70 55 71 40 72 41 73 49 74 42 75 48 76 43 77 44 78
REMARK SMILES IDX 45 79 46 80 47 81 70 82 71 83 79 84 72 85 78 86 73 87 74 88
REMARK SMILES IDX 75 89 76 90 77 91 56 92 57 93 65 94 58 95 64 96 59 97 60 98
REMARK SMILES IDX 61 99 62 100 63 101
REMARK H PARENT 21 7 14 17 8 29 28 38 84 57 54 68
REMARK Flexibility Score: inf
ROOT
ATOM      1  C   UNL A   1      42.816  23.097  29.018  1.00  0.00     0.002 C 
ENDROOT
BRANCH   1   2
ATOM      2  C   UNL A   1      44.203  22.967  29.659  1.00  0.00     0.021 C 
BRANCH   2   3
ATOM      3  C   UNL A   1      44.328  23.328  31.140  1.00  0.00     0.116 C 
BRANCH   3   4
ATOM      4  N   UNL A   1      44.034  24.716  31.413  1.00  0.00    -0.356 N 
ATOM      5  C   UNL A   1      44.801  25.713  31.916  1.00  0.00     0.224 C 
ATOM      6  O   UNL A   1      44.253  26.818  32.013  1.00  0.00    -0.275 OA
ATOM      7  H   UNL A   1      43.114  24.985  31.196  1.00  0.00     0.163 HD
BRANCH   5   8
ATOM      8  C   UNL A   1      46.218  25.517  32.458  1.00  0.00     0.098 C 
ATOM      9  C   UNL A   1      46.154  25.486  34.040  1.00  0.00     0.099 C 
ATOM     10  C   UNL A   1      47.333  26.402  34.458  1.00  0.00     0.025 C 
ATOM     11  C   UNL A   1      47.312  26.585  32.227  1.00  0.00     0.025 C 
ATOM     12  C   UNL A   1      46.942  27.826  34.129  1.00  0.00    -0.027 C 
ATOM     13  C   UNL A   1      48.322  26.184  33.315  1.00  0.00     0.017 C 
ATOM     14  C   UNL A   1      46.897  27.925  32.792  1.00  0.00    -0.027 C 
BRANCH   9  15
ATOM     15  C   UNL A   1      46.253  24.106  34.666  1.00  0.00     0.228 C 
ATOM     16  N   UNL A   1      45.696  23.827  35.890  1.00  0.00    -0.326 N 
ATOM     17  H   UNL A   1      45.876  22.909  36.198  1.00  0.00     0.169 HD
ATOM     18  O   UNL A   1      46.920  23.210  34.141  1.00  0.00    -0.274 OA
BRANCH  16  19
ATOM     19  C   UNL A   1      44.918  24.578  36.800  1.00  0.00     0.044 A 
ATOM     20  C   UNL A   1      46.849  24.543  38.514  1.00  0.00     0.046 C 
ATOM     21  C   UNL A   1      45.493  24.981  38.022  1.00  0.00    -0.027 A 
ATOM     22  C   UNL A   1      44.760  25.824  38.873  1.00  0.00     0.006 A 
ATOM     23  C   UNL A   1      43.483  26.262  38.524  1.00  0.00     0.014 A 
ATOM     24  C   UNL A   1      43.580  24.925  36.542  1.00  0.00     0.040 A 
ATOM     25  C   UNL A   1      42.861  25.811  37.353  1.00  0.00     0.041 A 
BRANCH  25  26
ATOM     26  C   UNL A   1      41.473  26.321  37.092  1.00  0.00     0.251 C 
ATOM     27  O   UNL A   1      40.515  25.606  37.404  1.00  0.00    -0.269 OA
ATOM     28  N   UNL A   1      41.173  27.555  36.556  1.00  0.00    -0.349 N 
ATOM     29  H   UNL A   1      40.209  27.743  36.489  1.00  0.00     0.164 HD
BRANCH  28  30
ATOM     30  C   UNL A   1      42.003  28.603  36.084  1.00  0.00     0.082 C 
ATOM     31  C   UNL A   1      42.608  28.511  34.710  1.00  0.00     0.027 C 
ATOM     32  C   UNL A   1      41.564  29.547  34.999  1.00  0.00     0.027 C 
ENDBRANCH  28  30
ENDBRANCH  25  26
ENDBRANCH  16  19
ENDBRANCH   9  15
ENDBRANCH   5   8
ENDBRANCH   3   4
ENDBRANCH   2   3
ENDBRANCH   1   2
BRANCH   1  33
ATOM     33  C   UNL A   1      42.246  21.877  28.280  1.00  0.00     0.002 C 
BRANCH  33  34
ATOM     34  C   UNL A   1      40.863  22.028  27.646  1.00  0.00     0.021 C 
BRANCH  34  35
ATOM     35  C   UNL A   1      40.824  22.879  26.383  1.00  0.00     0.116 C 
BRANCH  35  36
ATOM     36  N   UNL A   1      39.495  23.297  25.974  1.00  0.00    -0.352 N 
ATOM     37  C   UNL A   1      38.724  24.294  26.549  1.00  0.00     0.251 C 
ATOM     38  H   UNL A   1      39.100  22.821  25.207  1.00  0.00     0.163 HD
ATOM     39  O   UNL A   1      37.538  24.430  26.305  1.00  0.00    -0.269 OA
BRANCH  37  40
ATOM     40  C   UNL A   1      39.433  25.282  27.395  1.00  0.00     0.039 A 
ATOM     41  C   UNL A   1      39.197  25.231  28.774  1.00  0.00     0.014 A 
ATOM     42  C   UNL A   1      40.091  26.367  26.822  1.00  0.00     0.014 A 
ATOM     43  C   UNL A   1      39.479  26.347  29.560  1.00  0.00     0.010 A 
ATOM     44  C   UNL A   1      40.288  27.505  27.586  1.00  0.00     0.010 A 
ATOM     45  C   UNL A   1      39.946  27.511  28.945  1.00  0.00    -0.014 A 
BRANCH  45  46
ATOM     46  C   UNL A   1      40.026  28.798  29.629  1.00  0.00     0.031 A 
ATOM     47  C   UNL A   1      38.962  29.813  29.449  1.00  0.00     0.074 A 
ATOM     48  C   UNL A   1      41.066  29.094  30.442  1.00  0.00     0.049 A 
ATOM     49  N   UNL A   1      39.167  31.090  29.493  1.00  0.00    -0.248 NA
ATOM     50  C   UNL A   1      37.575  29.461  29.159  1.00  0.00     0.031 C 
ATOM     51  C   UNL A   1      41.145  30.220  31.370  1.00  0.00     0.029 A 
ATOM     52  N   UNL A   1      42.357  28.565  30.445  1.00  0.00    -0.354 N 
ATOM     53  C   UNL A   1      37.936  31.703  29.529  1.00  0.00     0.074 A 
ATOM     54  C   UNL A   1      36.982  30.658  29.231  1.00  0.00     0.031 C 
ATOM     55  C   UNL A   1      42.437  30.493  31.605  1.00  0.00     0.029 A 
ATOM     56  C   UNL A   1      43.226  29.627  30.744  1.00  0.00     0.049 A 
ATOM     57  H   UNL A   1      42.610  27.630  30.270  1.00  0.00     0.167 HD
ATOM     58  C   UNL A   1      37.820  32.993  29.956  1.00  0.00     0.031 A 
ATOM     59  C   UNL A   1      44.277  30.022  29.971  1.00  0.00     0.031 A 
ATOM     60  C   UNL A   1      39.104  33.565  30.345  1.00  0.00     0.049 A 
ATOM     61  C   UNL A   1      44.236  31.488  29.607  1.00  0.00     0.074 A 
ATOM     62  C   UNL A   1      39.702  33.754  31.580  1.00  0.00     0.029 A 
ATOM     63  N   UNL A   1      40.078  33.811  29.389  1.00  0.00    -0.354 N 
ATOM     64  N   UNL A   1      43.178  32.236  29.735  1.00  0.00    -0.248 NA
ATOM     65  C   UNL A   1      45.354  32.211  29.006  1.00  0.00     0.031 C 
ATOM     66  C   UNL A   1      41.057  34.099  31.365  1.00  0.00     0.029 A 
ATOM     67  C   UNL A   1      41.277  34.127  30.000  1.00  0.00     0.049 A 
ATOM     68  H   UNL A   1      39.937  33.765  28.416  1.00  0.00     0.167 HD
ATOM     69  C   UNL A   1      43.430  33.488  29.233  1.00  0.00     0.074 A 
ATOM     70  C   UNL A   1      44.813  33.426  28.804  1.00  0.00     0.031 C 
ATOM     71  C   UNL A   1      42.456  34.447  29.206  1.00  0.00     0.031 A 
BRANCH  58  72
ATOM     72  C   UNL A   1      36.498  33.633  30.319  1.00  0.00    -0.014 A 
ATOM     73  C   UNL A   1      35.600  33.999  29.295  1.00  0.00     0.010 A 
ATOM     74  C   UNL A   1      36.098  33.934  31.634  1.00  0.00     0.010 A 
ATOM     75  C   UNL A   1      34.433  34.731  29.552  1.00  0.00     0.020 A 
ATOM     76  C   UNL A   1      34.951  34.698  31.905  1.00  0.00     0.020 A 
ATOM     77  C   UNL A   1      34.133  35.107  30.857  1.00  0.00     0.054 A 
BRANCH  77  78
ATOM     78  S   UNL A   1      32.680  36.146  31.154  1.00  0.00     0.124 S 
ATOM     79  O   UNL A   1      33.270  37.368  31.695  1.00  0.00    -0.237 OA
ATOM     80  O   UNL A   1      32.099  36.264  29.820  1.00  0.00    -0.237 OA
ATOM     81  O   UNL A   1      31.890  35.371  32.110  1.00  0.00    -0.744 OA
ENDBRANCH  77  78
ENDBRANCH  58  72
BRANCH  59  82
ATOM     82  C   UNL A   1      44.841  28.956  29.103  1.00  0.00    -0.014 A 
ATOM     83  C   UNL A   1      44.060  28.518  28.015  1.00  0.00     0.010 A 
ATOM     84  C   UNL A   1      46.226  28.718  29.096  1.00  0.00     0.010 A 
ATOM     85  C   UNL A   1      44.671  28.007  26.869  1.00  0.00     0.020 A 
ATOM     86  C   UNL A   1      46.840  28.204  27.946  1.00  0.00     0.020 A 
ATOM     87  C   UNL A   1      46.062  27.913  26.821  1.00  0.00     0.054 A 
BRANCH  87  88
ATOM     88  S   UNL A   1      46.840  27.591  25.210  1.00  0.00     0.124 S 
ATOM     89  O   UNL A   1      46.064  26.461  24.709  1.00  0.00    -0.237 OA
ATOM     90  O   UNL A   1      46.628  28.859  24.512  1.00  0.00    -0.237 OA
ATOM     91  O   UNL A   1      48.227  27.298  25.560  1.00  0.00    -0.744 OA
ENDBRANCH  87  88
ENDBRANCH  59  82
BRANCH  71  92
ATOM     92  C   UNL A   1      42.511  35.801  28.529  1.00  0.00    -0.014 A 
ATOM     93  C   UNL A   1      41.864  36.125  27.328  1.00  0.00     0.010 A 
ATOM     94  C   UNL A   1      43.182  36.862  29.190  1.00  0.00     0.010 A 
ATOM     95  C   UNL A   1      41.922  37.423  26.792  1.00  0.00     0.020 A 
ATOM     96  C   UNL A   1      43.212  38.166  28.689  1.00  0.00     0.020 A 
ATOM     97  C   UNL A   1      42.598  38.435  27.474  1.00  0.00     0.054 A 
BRANCH  97  98
ATOM     98  S   UNL A   1      42.609  40.118  26.806  1.00  0.00     0.124 S 
ATOM     99  O   UNL A   1      42.792  40.921  28.012  1.00  0.00    -0.237 OA
ATOM    100  O   UNL A   1      43.748  40.098  25.889  1.00  0.00    -0.237 OA
ATOM    101  O   UNL A   1      41.305  40.241  26.161  1.00  0.00    -0.744 OA
ENDBRANCH  97  98
ENDBRANCH  71  92
ENDBRANCH  45  46
ENDBRANCH  37  40
ENDBRANCH  35  36
ENDBRANCH  34  35
ENDBRANCH  33  34
ENDBRANCH   1  33
TORSDOF 20
ENDMDL
