MODEL 1
REMARK VINA RESULT:     -10.7      0.000      0.000
REMARK SMILES O=C(Cc1ccccc1Nc1c(Cl)cccc1Cl)NCCCCCCNC(=O)c1ccc(-c2c3nc(c(-c4ccc(S(=O)(=O)[O-])cc4)c4ccc([nH]4)c(-c4ccc(S(=O)(=O)[O-])cc4)c4nc(c(-c5ccc(S(=O)(=O)[O-])cc5)c5ccc2[nH]5)C=C4)C=C3)cc1
REMARK SMILES IDX 22 1 21 2 20 3 19 4 1 5 2 6 3 8 4 9 5 10 9 11 6 12 8 13 7 14
REMARK SMILES IDX 10 15 11 17 12 18 17 19 13 20 14 21 16 22 18 23 15 24 23 25
REMARK SMILES IDX 24 26 25 27 26 28 27 29 28 31 29 32 30 33 88 34 31 35 87 36
REMARK SMILES IDX 32 37 33 38 34 39 81 40 35 41 86 42 80 43 82 44 36 45 85 46
REMARK SMILES IDX 79 47 78 48 37 50 67 51 48 52 66 53 49 54 52 55 65 56 83 57
REMARK SMILES IDX 50 58 51 59 64 61 84 62 53 63 38 64 39 65 47 66 40 67 46 68
REMARK SMILES IDX 41 69 42 70 43 71 44 72 45 73 68 74 69 75 77 76 70 77 76 78
REMARK SMILES IDX 71 79 72 80 73 81 74 82 75 83 54 84 55 85 63 86 56 87 62 88
REMARK SMILES IDX 57 89 58 90 59 91 60 92 61 93
REMARK H PARENT 19 7 10 16 26 30 82 49 52 60
REMARK Flexibility Score: inf
ROOT
ATOM      1  C   UNL A   1      31.973  27.852  23.972  1.00  0.00     0.002 C 
ENDROOT
BRANCH   1   2
ATOM      2  C   UNL A   1      30.526  27.517  24.355  1.00  0.00     0.021 C 
BRANCH   2   3
ATOM      3  C   UNL A   1      29.980  26.223  23.743  1.00  0.00     0.116 C 
BRANCH   3   4
ATOM      4  N   UNL A   1      30.616  25.055  24.317  1.00  0.00    -0.356 N 
ATOM      5  O   UNL A   1      29.938  25.414  26.478  1.00  0.00    -0.275 OA
ATOM      6  C   UNL A   1      30.577  24.758  25.658  1.00  0.00     0.224 C 
ATOM      7  H   UNL A   1      31.101  24.444  23.717  1.00  0.00     0.163 HD
BRANCH   6   8
ATOM      8  C   UNL A   1      31.510  23.644  26.099  1.00  0.00     0.137 C 
BRANCH   8   9
ATOM      9  C   UNL A   1      32.903  23.657  25.505  1.00  0.00    -0.015 A 
ATOM     10  C   UNL A   1      33.826  24.593  26.009  1.00  0.00     0.006 A 
ATOM     11  C   UNL A   1      33.301  22.786  24.464  1.00  0.00     0.042 A 
ATOM     12  C   UNL A   1      35.112  24.693  25.479  1.00  0.00     0.000 A 
ATOM     13  C   UNL A   1      34.597  22.915  23.940  1.00  0.00     0.026 A 
ATOM     14  C   UNL A   1      35.495  23.858  24.438  1.00  0.00     0.002 A 
BRANCH  11  15
ATOM     15  N   UNL A   1      32.424  21.784  23.992  1.00  0.00    -0.353 N 
ATOM     16  H   UNL A   1      31.565  22.120  23.648  1.00  0.00     0.167 HD
BRANCH  15  17
ATOM     17  C   UNL A   1      32.575  20.373  23.932  1.00  0.00     0.076 A 
ATOM     18  C   UNL A   1      32.266  19.709  22.724  1.00  0.00     0.066 A 
ATOM     19  C   UNL A   1      33.046  19.578  24.999  1.00  0.00     0.066 A 
ATOM     20  Cl  UNL A   1      31.649  20.595  21.367  1.00  0.00    -0.082 Cl
ATOM     21  C   UNL A   1      32.436  18.329  22.575  1.00  0.00     0.023 A 
ATOM     22  C   UNL A   1      33.215  18.194  24.847  1.00  0.00     0.023 A 
ATOM     23  Cl  UNL A   1      33.309  20.207  26.593  1.00  0.00    -0.082 Cl
ATOM     24  C   UNL A   1      32.917  17.572  23.638  1.00  0.00     0.003 A 
ENDBRANCH  15  17
ENDBRANCH  11  15
ENDBRANCH   8   9
ENDBRANCH   6   8
ENDBRANCH   3   4
ENDBRANCH   2   3
ENDBRANCH   1   2
BRANCH   1  25
ATOM     25  C   UNL A   1      32.954  27.955  25.143  1.00  0.00     0.002 C 
BRANCH  25  26
ATOM     26  C   UNL A   1      32.327  28.169  26.519  1.00  0.00     0.021 C 
BRANCH  26  27
ATOM     27  C   UNL A   1      33.290  28.659  27.592  1.00  0.00     0.116 C 
BRANCH  27  28
ATOM     28  N   UNL A   1      33.455  30.107  27.580  1.00  0.00    -0.352 N 
ATOM     29  C   UNL A   1      34.544  30.863  27.938  1.00  0.00     0.251 C 
ATOM     30  H   UNL A   1      32.672  30.617  27.269  1.00  0.00     0.163 HD
ATOM     31  O   UNL A   1      34.443  32.085  28.015  1.00  0.00    -0.269 OA
BRANCH  29  32
ATOM     32  C   UNL A   1      35.827  30.202  28.266  1.00  0.00     0.039 A 
ATOM     33  C   UNL A   1      36.832  30.153  27.297  1.00  0.00     0.014 A 
ATOM     34  C   UNL A   1      36.048  29.656  29.534  1.00  0.00     0.014 A 
ATOM     35  C   UNL A   1      38.088  29.637  27.627  1.00  0.00     0.010 A 
ATOM     36  C   UNL A   1      37.320  29.209  29.883  1.00  0.00     0.010 A 
ATOM     37  C   UNL A   1      38.357  29.206  28.937  1.00  0.00    -0.014 A 
BRANCH  37  38
ATOM     38  C   UNL A   1      39.723  28.793  29.350  1.00  0.00     0.031 A 
ATOM     39  C   UNL A   1      40.634  29.761  30.053  1.00  0.00     0.074 A 
ATOM     40  C   UNL A   1      40.176  27.570  29.010  1.00  0.00     0.049 A 
ATOM     41  N   UNL A   1      41.881  29.604  30.416  1.00  0.00    -0.248 NA
ATOM     42  C   UNL A   1      40.077  31.086  30.368  1.00  0.00     0.031 C 
ATOM     43  C   UNL A   1      39.412  26.557  28.279  1.00  0.00     0.029 A 
ATOM     44  N   UNL A   1      41.398  26.978  29.216  1.00  0.00    -0.354 N 
ATOM     45  C   UNL A   1      42.263  30.810  30.990  1.00  0.00     0.074 A 
ATOM     46  C   UNL A   1      41.130  31.705  30.880  1.00  0.00     0.031 C 
ATOM     47  C   UNL A   1      40.177  25.467  28.108  1.00  0.00     0.029 A 
ATOM     48  C   UNL A   1      41.497  25.717  28.679  1.00  0.00     0.049 A 
ATOM     49  H   UNL A   1      42.133  27.416  29.703  1.00  0.00     0.167 HD
ATOM     50  C   UNL A   1      43.442  31.140  31.571  1.00  0.00     0.031 A 
ATOM     51  C   UNL A   1      42.535  24.860  28.630  1.00  0.00     0.031 A 
ATOM     52  C   UNL A   1      44.571  30.251  31.670  1.00  0.00     0.049 A 
ATOM     53  C   UNL A   1      43.840  25.248  29.265  1.00  0.00     0.074 A 
ATOM     54  C   UNL A   1      45.790  30.473  32.286  1.00  0.00     0.029 A 
ATOM     55  N   UNL A   1      44.625  28.975  31.130  1.00  0.00    -0.354 N 
ATOM     56  N   UNL A   1      44.158  26.368  29.872  1.00  0.00    -0.248 NA
ATOM     57  C   UNL A   1      44.924  24.256  29.219  1.00  0.00     0.031 C 
ATOM     58  C   UNL A   1      46.599  29.352  32.072  1.00  0.00     0.029 A 
ATOM     59  C   UNL A   1      45.864  28.408  31.372  1.00  0.00     0.049 A 
ATOM     60  H   UNL A   1      43.888  28.536  30.645  1.00  0.00     0.167 HD
ATOM     61  C   UNL A   1      45.475  26.210  30.291  1.00  0.00     0.074 A 
ATOM     62  C   UNL A   1      45.886  24.880  29.886  1.00  0.00     0.031 C 
ATOM     63  C   UNL A   1      46.269  27.089  30.950  1.00  0.00     0.031 A 
BRANCH  50  64
ATOM     64  C   UNL A   1      43.567  32.533  32.132  1.00  0.00    -0.014 A 
ATOM     65  C   UNL A   1      43.165  32.823  33.449  1.00  0.00     0.010 A 
ATOM     66  C   UNL A   1      44.096  33.566  31.337  1.00  0.00     0.010 A 
ATOM     67  C   UNL A   1      43.231  34.129  33.940  1.00  0.00     0.020 A 
ATOM     68  C   UNL A   1      44.192  34.869  31.834  1.00  0.00     0.020 A 
ATOM     69  C   UNL A   1      43.735  35.147  33.124  1.00  0.00     0.054 A 
BRANCH  69  70
ATOM     70  S   UNL A   1      43.795  36.837  33.779  1.00  0.00     0.124 S 
ATOM     71  O   UNL A   1      42.650  36.847  34.687  1.00  0.00    -0.237 OA
ATOM     72  O   UNL A   1      45.106  36.887  34.423  1.00  0.00    -0.237 OA
ATOM     73  O   UNL A   1      43.656  37.674  32.591  1.00  0.00    -0.744 OA
ENDBRANCH  69  70
ENDBRANCH  50  64
BRANCH  51  74
ATOM     74  C   UNL A   1      42.369  23.547  27.949  1.00  0.00    -0.014 A 
ATOM     75  C   UNL A   1      42.997  23.294  26.719  1.00  0.00     0.010 A 
ATOM     76  C   UNL A   1      41.622  22.523  28.560  1.00  0.00     0.010 A 
ATOM     77  C   UNL A   1      42.883  22.040  26.111  1.00  0.00     0.020 A 
ATOM     78  C   UNL A   1      41.526  21.260  27.969  1.00  0.00     0.020 A 
ATOM     79  C   UNL A   1      42.155  21.028  26.744  1.00  0.00     0.054 A 
BRANCH  79  80
ATOM     80  S   UNL A   1      42.095  19.383  25.980  1.00  0.00     0.124 S 
ATOM     81  O   UNL A   1      40.663  19.199  25.766  1.00  0.00    -0.237 OA
ATOM     82  O   UNL A   1      42.898  19.567  24.773  1.00  0.00    -0.237 OA
ATOM     83  O   UNL A   1      42.696  18.515  26.990  1.00  0.00    -0.744 OA
ENDBRANCH  79  80
ENDBRANCH  51  74
BRANCH  63  84
ATOM     84  C   UNL A   1      47.667  26.643  31.286  1.00  0.00    -0.014 A 
ATOM     85  C   UNL A   1      47.950  26.011  32.511  1.00  0.00     0.010 A 
ATOM     86  C   UNL A   1      48.696  26.801  30.342  1.00  0.00     0.010 A 
ATOM     87  C   UNL A   1      49.245  25.567  32.792  1.00  0.00     0.020 A 
ATOM     88  C   UNL A   1      49.986  26.335  30.610  1.00  0.00     0.020 A 
ATOM     89  C   UNL A   1      50.254  25.730  31.839  1.00  0.00     0.054 A 
BRANCH  89  90
ATOM     90  S   UNL A   1      51.915  25.095  32.206  1.00  0.00     0.124 S 
ATOM     91  O   UNL A   1      52.179  25.679  33.518  1.00  0.00    -0.237 OA
ATOM     92  O   UNL A   1      51.715  23.648  32.189  1.00  0.00    -0.237 OA
ATOM     93  O   UNL A   1      52.734  25.617  31.115  1.00  0.00    -0.744 OA
ENDBRANCH  89  90
ENDBRANCH  63  84
ENDBRANCH  37  38
ENDBRANCH  29  32
ENDBRANCH  27  28
ENDBRANCH  26  27
ENDBRANCH  25  26
ENDBRANCH   1  25
TORSDOF 19
ENDMDL
MODEL 2
REMARK VINA RESULT:     -10.6      4.452     10.553
REMARK SMILES O=C(Cc1ccccc1Nc1c(Cl)cccc1Cl)NCCCCCCNC(=O)c1ccc(-c2c3nc(c(-c4ccc(S(=O)(=O)[O-])cc4)c4ccc([nH]4)c(-c4ccc(S(=O)(=O)[O-])cc4)c4nc(c(-c5ccc(S(=O)(=O)[O-])cc5)c5ccc2[nH]5)C=C4)C=C3)cc1
REMARK SMILES IDX 22 1 21 2 20 3 19 4 1 5 2 6 3 8 4 9 5 10 9 11 6 12 8 13 7 14
REMARK SMILES IDX 10 15 11 17 12 18 17 19 13 20 14 21 16 22 18 23 15 24 23 25
REMARK SMILES IDX 24 26 25 27 26 28 27 29 28 31 29 32 30 33 88 34 31 35 87 36
REMARK SMILES IDX 32 37 33 38 34 39 81 40 35 41 86 42 80 43 82 44 36 45 85 46
REMARK SMILES IDX 79 47 78 48 37 50 67 51 48 52 66 53 49 54 52 55 65 56 83 57
REMARK SMILES IDX 50 58 51 59 64 61 84 62 53 63 38 64 39 65 47 66 40 67 46 68
REMARK SMILES IDX 41 69 42 70 43 71 44 72 45 73 68 74 69 75 77 76 70 77 76 78
REMARK SMILES IDX 71 79 72 80 73 81 74 82 75 83 54 84 55 85 63 86 56 87 62 88
REMARK SMILES IDX 57 89 58 90 59 91 60 92 61 93
REMARK H PARENT 19 7 10 16 26 30 82 49 52 60
REMARK Flexibility Score: inf
ROOT
ATOM      1  C   UNL A   1      36.823  23.263  25.308  1.00  0.00     0.002 C 
ENDROOT
BRANCH   1   2
ATOM      2  C   UNL A   1      35.513  24.054  25.414  1.00  0.00     0.021 C 
BRANCH   2   3
ATOM      3  C   UNL A   1      34.261  23.295  24.965  1.00  0.00     0.116 C 
BRANCH   3   4
ATOM      4  N   UNL A   1      33.054  24.040  25.260  1.00  0.00    -0.356 N 
ATOM      5  O   UNL A   1      33.257  25.563  23.558  1.00  0.00    -0.275 OA
ATOM      6  C   UNL A   1      32.662  25.149  24.551  1.00  0.00     0.224 C 
ATOM      7  H   UNL A   1      32.489  23.737  26.005  1.00  0.00     0.163 HD
BRANCH   6   8
ATOM      8  C   UNL A   1      31.518  25.936  25.167  1.00  0.00     0.137 C 
BRANCH   8   9
ATOM      9  C   UNL A   1      31.076  27.178  24.421  1.00  0.00    -0.015 A 
ATOM     10  C   UNL A   1      30.505  27.012  23.145  1.00  0.00     0.006 A 
ATOM     11  C   UNL A   1      31.228  28.482  24.946  1.00  0.00     0.042 A 
ATOM     12  C   UNL A   1      30.117  28.112  22.381  1.00  0.00     0.000 A 
ATOM     13  C   UNL A   1      30.840  29.573  24.153  1.00  0.00     0.026 A 
ATOM     14  C   UNL A   1      30.292  29.394  22.883  1.00  0.00     0.002 A 
BRANCH  11  15
ATOM     15  N   UNL A   1      31.724  28.676  26.254  1.00  0.00    -0.353 N 
ATOM     16  H   UNL A   1      31.178  28.268  26.965  1.00  0.00     0.167 HD
BRANCH  15  17
ATOM     17  C   UNL A   1      32.878  29.363  26.715  1.00  0.00     0.076 A 
ATOM     18  C   UNL A   1      32.768  30.733  27.039  1.00  0.00     0.066 A 
ATOM     19  C   UNL A   1      34.141  28.759  26.901  1.00  0.00     0.066 A 
ATOM     20  Cl  UNL A   1      31.266  31.571  26.813  1.00  0.00    -0.082 Cl
ATOM     21  C   UNL A   1      33.849  31.463  27.544  1.00  0.00     0.023 A 
ATOM     22  C   UNL A   1      35.224  29.493  27.407  1.00  0.00     0.023 A 
ATOM     23  Cl  UNL A   1      34.489  27.138  26.395  1.00  0.00    -0.082 Cl
ATOM     24  C   UNL A   1      35.077  30.839  27.734  1.00  0.00     0.003 A 
ENDBRANCH  15  17
ENDBRANCH  11  15
ENDBRANCH   8   9
ENDBRANCH   6   8
ENDBRANCH   3   4
ENDBRANCH   2   3
ENDBRANCH   1   2
BRANCH   1  25
ATOM     25  C   UNL A   1      37.972  23.777  26.179  1.00  0.00     0.002 C 
BRANCH  25  26
ATOM     26  C   UNL A   1      39.053  22.756  26.523  1.00  0.00     0.021 C 
BRANCH  26  27
ATOM     27  C   UNL A   1      40.383  23.355  26.963  1.00  0.00     0.116 C 
BRANCH  27  28
ATOM     28  N   UNL A   1      41.005  24.164  25.923  1.00  0.00    -0.352 N 
ATOM     29  C   UNL A   1      41.383  25.484  25.955  1.00  0.00     0.251 C 
ATOM     30  H   UNL A   1      41.180  23.697  25.075  1.00  0.00     0.163 HD
ATOM     31  O   UNL A   1      41.748  26.043  24.923  1.00  0.00    -0.269 OA
BRANCH  29  32
ATOM     32  C   UNL A   1      41.317  26.241  27.226  1.00  0.00     0.039 A 
ATOM     33  C   UNL A   1      42.424  26.994  27.625  1.00  0.00     0.014 A 
ATOM     34  C   UNL A   1      40.158  26.230  28.005  1.00  0.00     0.014 A 
ATOM     35  C   UNL A   1      42.337  27.805  28.759  1.00  0.00     0.010 A 
ATOM     36  C   UNL A   1      40.047  27.093  29.094  1.00  0.00     0.010 A 
ATOM     37  C   UNL A   1      41.131  27.899  29.475  1.00  0.00    -0.014 A 
BRANCH  37  38
ATOM     38  C   UNL A   1      40.967  28.864  30.592  1.00  0.00     0.031 A 
ATOM     39  C   UNL A   1      41.793  28.732  31.842  1.00  0.00     0.074 A 
ATOM     40  C   UNL A   1      40.007  29.807  30.518  1.00  0.00     0.049 A 
ATOM     41  N   UNL A   1      41.732  29.430  32.947  1.00  0.00    -0.248 NA
ATOM     42  C   UNL A   1      42.803  27.662  31.860  1.00  0.00     0.031 C 
ATOM     43  C   UNL A   1      39.101  30.005  29.384  1.00  0.00     0.029 A 
ATOM     44  N   UNL A   1      39.619  30.764  31.423  1.00  0.00    -0.354 N 
ATOM     45  C   UNL A   1      42.683  28.878  33.796  1.00  0.00     0.074 A 
ATOM     46  C   UNL A   1      43.272  27.756  33.096  1.00  0.00     0.031 C 
ATOM     47  C   UNL A   1      38.272  31.025  29.656  1.00  0.00     0.029 A 
ATOM     48  C   UNL A   1      38.558  31.526  30.997  1.00  0.00     0.049 A 
ATOM     49  H   UNL A   1      40.059  30.891  32.294  1.00  0.00     0.167 HD
ATOM     50  C   UNL A   1      43.048  29.277  35.039  1.00  0.00     0.031 A 
ATOM     51  C   UNL A   1      37.874  32.508  31.618  1.00  0.00     0.031 A 
ATOM     52  C   UNL A   1      42.455  30.388  35.738  1.00  0.00     0.049 A 
ATOM     53  C   UNL A   1      38.282  32.927  33.002  1.00  0.00     0.074 A 
ATOM     54  C   UNL A   1      42.791  30.904  36.977  1.00  0.00     0.029 A 
ATOM     55  N   UNL A   1      41.395  31.148  35.264  1.00  0.00    -0.354 N 
ATOM     56  N   UNL A   1      39.237  32.442  33.759  1.00  0.00    -0.248 NA
ATOM     57  C   UNL A   1      37.528  34.031  33.611  1.00  0.00     0.031 C 
ATOM     58  C   UNL A   1      41.900  31.941  37.276  1.00  0.00     0.029 A 
ATOM     59  C   UNL A   1      41.045  32.108  36.198  1.00  0.00     0.049 A 
ATOM     60  H   UNL A   1      40.956  31.021  34.392  1.00  0.00     0.167 HD
ATOM     61  C   UNL A   1      39.207  33.189  34.931  1.00  0.00     0.074 A 
ATOM     62  C   UNL A   1      38.153  34.172  34.773  1.00  0.00     0.031 C 
ATOM     63  C   UNL A   1      39.983  33.071  36.037  1.00  0.00     0.031 A 
BRANCH  50  64
ATOM     64  C   UNL A   1      44.136  28.490  35.723  1.00  0.00    -0.014 A 
ATOM     65  C   UNL A   1      45.482  28.894  35.643  1.00  0.00     0.010 A 
ATOM     66  C   UNL A   1      43.812  27.336  36.458  1.00  0.00     0.010 A 
ATOM     67  C   UNL A   1      46.489  28.125  36.232  1.00  0.00     0.020 A 
ATOM     68  C   UNL A   1      44.814  26.580  37.075  1.00  0.00     0.020 A 
ATOM     69  C   UNL A   1      46.148  26.966  36.937  1.00  0.00     0.054 A 
BRANCH  69  70
ATOM     70  S   UNL A   1      47.476  25.977  37.678  1.00  0.00     0.124 S 
ATOM     71  O   UNL A   1      47.385  26.361  39.085  1.00  0.00    -0.237 OA
ATOM     72  O   UNL A   1      47.065  24.608  37.373  1.00  0.00    -0.237 OA
ATOM     73  O   UNL A   1      48.676  26.434  36.983  1.00  0.00    -0.744 OA
ENDBRANCH  69  70
ENDBRANCH  50  64
BRANCH  51  74
ATOM     74  C   UNL A   1      36.730  33.155  30.920  1.00  0.00    -0.014 A 
ATOM     75  C   UNL A   1      35.413  32.945  31.359  1.00  0.00     0.010 A 
ATOM     76  C   UNL A   1      36.963  34.033  29.845  1.00  0.00     0.010 A 
ATOM     77  C   UNL A   1      34.347  33.601  30.736  1.00  0.00     0.020 A 
ATOM     78  C   UNL A   1      35.903  34.710  29.235  1.00  0.00     0.020 A 
ATOM     79  C   UNL A   1      34.599  34.486  29.683  1.00  0.00     0.054 A 
BRANCH  79  80
ATOM     80  S   UNL A   1      33.210  35.392  28.947  1.00  0.00     0.124 S 
ATOM     81  O   UNL A   1      33.889  36.482  28.254  1.00  0.00    -0.237 OA
ATOM     82  O   UNL A   1      32.594  34.382  28.089  1.00  0.00    -0.237 OA
ATOM     83  O   UNL A   1      32.408  35.786  30.103  1.00  0.00    -0.744 OA
ENDBRANCH  79  80
ENDBRANCH  51  74
BRANCH  63  84
ATOM     84  C   UNL A   1      39.730  34.033  37.167  1.00  0.00    -0.014 A 
ATOM     85  C   UNL A   1      38.883  33.689  38.235  1.00  0.00     0.010 A 
ATOM     86  C   UNL A   1      40.396  35.272  37.191  1.00  0.00     0.010 A 
ATOM     87  C   UNL A   1      38.689  34.577  39.297  1.00  0.00     0.020 A 
ATOM     88  C   UNL A   1      40.225  36.151  38.263  1.00  0.00     0.020 A 
ATOM     89  C   UNL A   1      39.363  35.802  39.305  1.00  0.00     0.054 A 
BRANCH  89  90
ATOM     90  S   UNL A   1      39.137  36.914  40.721  1.00  0.00     0.124 S 
ATOM     91  O   UNL A   1      38.327  37.983  40.142  1.00  0.00    -0.237 OA
ATOM     92  O   UNL A   1      38.454  36.062  41.692  1.00  0.00    -0.237 OA
ATOM     93  O   UNL A   1      40.500  37.293  41.085  1.00  0.00    -0.744 OA
ENDBRANCH  89  90
ENDBRANCH  63  84
ENDBRANCH  37  38
ENDBRANCH  29  32
ENDBRANCH  27  28
ENDBRANCH  26  27
ENDBRANCH  25  26
ENDBRANCH   1  25
TORSDOF 19
ENDMDL
MODEL 3
REMARK VINA RESULT:      -9.9      4.475     10.265
REMARK SMILES O=C(Cc1ccccc1Nc1c(Cl)cccc1Cl)NCCCCCCNC(=O)c1ccc(-c2c3nc(c(-c4ccc(S(=O)(=O)[O-])cc4)c4ccc([nH]4)c(-c4ccc(S(=O)(=O)[O-])cc4)c4nc(c(-c5ccc(S(=O)(=O)[O-])cc5)c5ccc2[nH]5)C=C4)C=C3)cc1
REMARK SMILES IDX 22 1 21 2 20 3 19 4 1 5 2 6 3 8 4 9 5 10 9 11 6 12 8 13 7 14
REMARK SMILES IDX 10 15 11 17 12 18 17 19 13 20 14 21 16 22 18 23 15 24 23 25
REMARK SMILES IDX 24 26 25 27 26 28 27 29 28 31 29 32 30 33 88 34 31 35 87 36
REMARK SMILES IDX 32 37 33 38 34 39 81 40 35 41 86 42 80 43 82 44 36 45 85 46
REMARK SMILES IDX 79 47 78 48 37 50 67 51 48 52 66 53 49 54 52 55 65 56 83 57
REMARK SMILES IDX 50 58 51 59 64 61 84 62 53 63 38 64 39 65 47 66 40 67 46 68
REMARK SMILES IDX 41 69 42 70 43 71 44 72 45 73 68 74 69 75 77 76 70 77 76 78
REMARK SMILES IDX 71 79 72 80 73 81 74 82 75 83 54 84 55 85 63 86 56 87 62 88
REMARK SMILES IDX 57 89 58 90 59 91 60 92 61 93
REMARK H PARENT 19 7 10 16 26 30 82 49 52 60
REMARK Flexibility Score: inf
ROOT
ATOM      1  C   UNL A   1      37.103  23.455  25.942  1.00  0.00     0.002 C 
ENDROOT
BRANCH   1   2
ATOM      2  C   UNL A   1      35.639  23.104  26.238  1.00  0.00     0.021 C 
BRANCH   2   3
ATOM      3  C   UNL A   1      34.877  22.474  25.069  1.00  0.00     0.116 C 
BRANCH   3   4
ATOM      4  N   UNL A   1      33.818  23.344  24.596  1.00  0.00    -0.356 N 
ATOM      5  O   UNL A   1      34.970  24.233  22.825  1.00  0.00    -0.275 OA
ATOM      6  C   UNL A   1      33.960  24.191  23.524  1.00  0.00     0.224 C 
ATOM      7  H   UNL A   1      32.955  23.327  25.068  1.00  0.00     0.163 HD
BRANCH   6   8
ATOM      8  C   UNL A   1      32.838  25.198  23.345  1.00  0.00     0.137 C 
BRANCH   8   9
ATOM      9  C   UNL A   1      32.701  26.253  24.423  1.00  0.00    -0.015 A 
ATOM     10  C   UNL A   1      33.749  26.385  25.354  1.00  0.00     0.006 A 
ATOM     11  C   UNL A   1      31.567  27.090  24.537  1.00  0.00     0.042 A 
ATOM     12  C   UNL A   1      33.672  27.303  26.400  1.00  0.00     0.000 A 
ATOM     13  C   UNL A   1      31.507  27.998  25.606  1.00  0.00     0.026 A 
ATOM     14  C   UNL A   1      32.546  28.105  26.530  1.00  0.00     0.002 A 
BRANCH  11  15
ATOM     15  N   UNL A   1      30.535  27.036  23.573  1.00  0.00    -0.353 N 
ATOM     16  H   UNL A   1      30.437  26.165  23.125  1.00  0.00     0.167 HD
BRANCH  15  17
ATOM     17  C   UNL A   1      29.617  28.030  23.143  1.00  0.00     0.076 A 
ATOM     18  C   UNL A   1      30.118  29.183  22.498  1.00  0.00     0.066 A 
ATOM     19  C   UNL A   1      28.216  27.935  23.289  1.00  0.00     0.066 A 
ATOM     20  Cl  UNL A   1      31.827  29.406  22.301  1.00  0.00    -0.082 Cl
ATOM     21  C   UNL A   1      29.272  30.181  22.005  1.00  0.00     0.023 A 
ATOM     22  C   UNL A   1      27.369  28.937  22.794  1.00  0.00     0.023 A 
ATOM     23  Cl  UNL A   1      27.452  26.675  24.201  1.00  0.00    -0.082 Cl
ATOM     24  C   UNL A   1      27.894  30.054  22.148  1.00  0.00     0.003 A 
ENDBRANCH  15  17
ENDBRANCH  11  15
ENDBRANCH   8   9
ENDBRANCH   6   8
ENDBRANCH   3   4
ENDBRANCH   2   3
ENDBRANCH   1   2
BRANCH   1  25
ATOM     25  C   UNL A   1      38.019  22.262  25.659  1.00  0.00     0.002 C 
BRANCH  25  26
ATOM     26  C   UNL A   1      39.341  22.243  26.423  1.00  0.00     0.021 C 
BRANCH  26  27
ATOM     27  C   UNL A   1      39.913  23.618  26.745  1.00  0.00     0.116 C 
BRANCH  27  28
ATOM     28  N   UNL A   1      41.065  23.954  25.918  1.00  0.00    -0.352 N 
ATOM     29  C   UNL A   1      41.977  24.970  26.065  1.00  0.00     0.251 C 
ATOM     30  H   UNL A   1      41.210  23.368  25.140  1.00  0.00     0.163 HD
ATOM     31  O   UNL A   1      42.792  25.197  25.174  1.00  0.00    -0.269 OA
BRANCH  29  32
ATOM     32  C   UNL A   1      41.954  25.812  27.283  1.00  0.00     0.039 A 
ATOM     33  C   UNL A   1      42.727  26.976  27.317  1.00  0.00     0.014 A 
ATOM     34  C   UNL A   1      41.152  25.470  28.375  1.00  0.00     0.014 A 
ATOM     35  C   UNL A   1      42.627  27.841  28.410  1.00  0.00     0.010 A 
ATOM     36  C   UNL A   1      40.999  26.368  29.429  1.00  0.00     0.010 A 
ATOM     37  C   UNL A   1      41.725  27.568  29.452  1.00  0.00    -0.014 A 
BRANCH  37  38
ATOM     38  C   UNL A   1      41.492  28.543  30.548  1.00  0.00     0.031 A 
ATOM     39  C   UNL A   1      42.292  28.468  31.820  1.00  0.00     0.074 A 
ATOM     40  C   UNL A   1      40.494  29.442  30.435  1.00  0.00     0.049 A 
ATOM     41  N   UNL A   1      42.172  29.180  32.911  1.00  0.00    -0.248 NA
ATOM     42  C   UNL A   1      43.346  27.444  31.881  1.00  0.00     0.031 C 
ATOM     43  C   UNL A   1      39.609  29.582  29.276  1.00  0.00     0.029 A 
ATOM     44  N   UNL A   1      40.043  30.396  31.314  1.00  0.00    -0.354 N 
ATOM     45  C   UNL A   1      43.126  28.685  33.792  1.00  0.00     0.074 A 
ATOM     46  C   UNL A   1      43.779  27.578  33.126  1.00  0.00     0.031 C 
ATOM     47  C   UNL A   1      38.730  30.569  29.510  1.00  0.00     0.029 A 
ATOM     48  C   UNL A   1      38.960  31.104  30.849  1.00  0.00     0.049 A 
ATOM     49  H   UNL A   1      40.455  30.556  32.193  1.00  0.00     0.167 HD
ATOM     50  C   UNL A   1      43.442  29.119  35.036  1.00  0.00     0.031 A 
ATOM     51  C   UNL A   1      38.219  32.065  31.435  1.00  0.00     0.031 A 
ATOM     52  C   UNL A   1      42.784  30.214  35.701  1.00  0.00     0.049 A 
ATOM     53  C   UNL A   1      38.574  32.523  32.822  1.00  0.00     0.074 A 
ATOM     54  C   UNL A   1      43.066  30.765  36.940  1.00  0.00     0.029 A 
ATOM     55  N   UNL A   1      41.704  30.919  35.189  1.00  0.00    -0.354 N 
ATOM     56  N   UNL A   1      39.531  32.093  33.610  1.00  0.00    -0.248 NA
ATOM     57  C   UNL A   1      37.758  33.604  33.394  1.00  0.00     0.031 C 
ATOM     58  C   UNL A   1      42.124  31.766  37.198  1.00  0.00     0.029 A 
ATOM     59  C   UNL A   1      41.290  31.878  36.097  1.00  0.00     0.049 A 
ATOM     60  H   UNL A   1      41.293  30.760  34.309  1.00  0.00     0.167 HD
ATOM     61  C   UNL A   1      39.439  32.858  34.768  1.00  0.00     0.074 A 
ATOM     62  C   UNL A   1      38.348  33.791  34.568  1.00  0.00     0.031 C 
ATOM     63  C   UNL A   1      40.191  32.791  35.894  1.00  0.00     0.031 A 
BRANCH  50  64
ATOM     64  C   UNL A   1      44.545  28.392  35.760  1.00  0.00    -0.014 A 
ATOM     65  C   UNL A   1      44.264  27.290  36.590  1.00  0.00     0.010 A 
ATOM     66  C   UNL A   1      45.879  28.809  35.609  1.00  0.00     0.010 A 
ATOM     67  C   UNL A   1      45.286  26.659  37.302  1.00  0.00     0.020 A 
ATOM     68  C   UNL A   1      46.910  28.161  36.297  1.00  0.00     0.020 A 
ATOM     69  C   UNL A   1      46.603  27.106  37.158  1.00  0.00     0.054 A 
BRANCH  69  70
ATOM     70  S   UNL A   1      47.910  26.280  38.107  1.00  0.00     0.124 S 
ATOM     71  O   UNL A   1      48.555  25.464  37.081  1.00  0.00    -0.237 OA
ATOM     72  O   UNL A   1      48.703  27.402  38.606  1.00  0.00    -0.237 OA
ATOM     73  O   UNL A   1      47.179  25.536  39.128  1.00  0.00    -0.744 OA
ENDBRANCH  69  70
ENDBRANCH  50  64
BRANCH  51  74
ATOM     74  C   UNL A   1      37.066  32.650  30.700  1.00  0.00    -0.014 A 
ATOM     75  C   UNL A   1      35.777  32.114  30.846  1.00  0.00     0.010 A 
ATOM     76  C   UNL A   1      37.248  33.787  29.890  1.00  0.00     0.010 A 
ATOM     77  C   UNL A   1      34.688  32.704  30.197  1.00  0.00     0.020 A 
ATOM     78  C   UNL A   1      36.159  34.394  29.259  1.00  0.00     0.020 A 
ATOM     79  C   UNL A   1      34.885  33.845  29.414  1.00  0.00     0.054 A 
BRANCH  79  80
ATOM     80  S   UNL A   1      33.444  34.645  28.652  1.00  0.00     0.124 S 
ATOM     81  O   UNL A   1      34.047  35.803  28.001  1.00  0.00    -0.237 OA
ATOM     82  O   UNL A   1      32.944  33.603  27.757  1.00  0.00    -0.237 OA
ATOM     83  O   UNL A   1      32.578  34.943  29.790  1.00  0.00    -0.744 OA
ENDBRANCH  79  80
ENDBRANCH  51  74
BRANCH  63  84
ATOM     84  C   UNL A   1      39.869  33.760  37.001  1.00  0.00    -0.014 A 
ATOM     85  C   UNL A   1      38.981  33.410  38.033  1.00  0.00     0.010 A 
ATOM     86  C   UNL A   1      40.510  35.011  37.042  1.00  0.00     0.010 A 
ATOM     87  C   UNL A   1      38.722  34.305  39.075  1.00  0.00     0.020 A 
ATOM     88  C   UNL A   1      40.273  35.897  38.095  1.00  0.00     0.020 A 
ATOM     89  C   UNL A   1      39.371  35.542  39.100  1.00  0.00     0.054 A 
BRANCH  89  90
ATOM     90  S   UNL A   1      39.060  36.665  40.492  1.00  0.00     0.124 S 
ATOM     91  O   UNL A   1      40.409  36.899  41.000  1.00  0.00    -0.237 OA
ATOM     92  O   UNL A   1      38.423  37.809  39.845  1.00  0.00    -0.237 OA
ATOM     93  O   UNL A   1      38.188  35.891  41.373  1.00  0.00    -0.744 OA
ENDBRANCH  89  90
ENDBRANCH  63  84
ENDBRANCH  37  38
ENDBRANCH  29  32
ENDBRANCH  27  28
ENDBRANCH  26  27
ENDBRANCH  25  26
ENDBRANCH   1  25
TORSDOF 19
ENDMDL
