MODEL 1
REMARK VINA RESULT:     -10.8      0.000      0.000
REMARK SMILES C[C@@H](C(=O)NCCCCCCNC(=O)c1ccc(-c2c3nc(c(-c4ccc(S(=O)(=O)[O-])cc4)c4ccc([nH]4)c(-c4ccc(S(=O)(=O)[O-])cc4)c4nc(c(-c5ccc(S(=O)(=O)[O-])cc5)c5ccc2[nH]5)C=C4)C=C3)cc1)[C@H](C)[S@@](=O)c1ccc(F)c(F)c1
REMARK SMILES IDX 8 1 7 2 6 3 5 4 3 5 4 6 2 8 1 9 75 10 76 11 77 12 78 13
REMARK SMILES IDX 79 14 80 15 86 16 81 17 84 18 82 19 85 20 83 21 9 22 10 23
REMARK SMILES IDX 11 24 12 25 13 26 14 28 15 29 16 30 74 31 17 32 73 33 18 34
REMARK SMILES IDX 19 35 20 36 67 37 21 38 72 39 66 40 68 41 22 42 71 43 65 44
REMARK SMILES IDX 64 45 23 47 53 48 34 49 52 50 35 51 38 52 51 53 69 54 36 55
REMARK SMILES IDX 37 56 50 58 70 59 39 60 24 61 25 62 33 63 26 64 32 65 27 66
REMARK SMILES IDX 28 67 29 68 30 69 31 70 54 71 55 72 63 73 56 74 62 75 57 76
REMARK SMILES IDX 58 77 59 78 60 79 61 80 40 81 41 82 49 83 42 84 48 85 43 86
REMARK SMILES IDX 44 87 45 88 46 89 47 90
REMARK H PARENT 5 7 12 27 68 46 38 57
REMARK Flexibility Score: inf
ROOT
ATOM      1  C   UNL A   1      31.222  28.247  24.983  1.00  0.00     0.002 C 
ENDROOT
BRANCH   1   2
ATOM      2  C   UNL A   1      30.891  27.236  23.884  1.00  0.00     0.021 C 
BRANCH   2   3
ATOM      3  C   UNL A   1      31.360  25.808  24.180  1.00  0.00     0.116 C 
BRANCH   3   4
ATOM      4  N   UNL A   1      32.374  25.379  23.231  1.00  0.00    -0.356 N 
ATOM      5  C   UNL A   1      33.507  24.636  23.421  1.00  0.00     0.224 C 
ATOM      6  O   UNL A   1      34.215  24.430  22.436  1.00  0.00    -0.275 OA
ATOM      7  H   UNL A   1      32.223  25.671  22.304  1.00  0.00     0.163 HD
BRANCH   5   8
ATOM      8  C   UNL A   1      33.812  24.056  24.813  1.00  0.00     0.091 C 
ATOM      9  C   UNL A   1      35.007  24.784  25.424  1.00  0.00     0.019 C 
BRANCH   8  10
ATOM     10  C   UNL A   1      33.855  22.495  24.789  1.00  0.00     0.093 C 
ATOM     11  C   UNL A   1      35.074  21.907  24.057  1.00  0.00     0.023 C 
BRANCH  10  12
ATOM     12  S   UNL A   1      32.346  21.550  24.374  1.00  0.00     0.057 S 
ATOM     13  O   UNL A   1      31.798  22.071  23.078  1.00  0.00    -0.254 OA
BRANCH  12  14
ATOM     14  C   UNL A   1      32.883  19.857  24.030  1.00  0.00     0.042 A 
ATOM     15  C   UNL A   1      32.255  19.173  22.970  1.00  0.00     0.021 A 
ATOM     16  C   UNL A   1      33.897  19.204  24.737  1.00  0.00     0.060 A 
ATOM     17  C   UNL A   1      32.676  17.898  22.583  1.00  0.00     0.043 A 
ATOM     18  C   UNL A   1      34.333  17.945  24.324  1.00  0.00     0.160 A 
ATOM     19  C   UNL A   1      33.731  17.298  23.253  1.00  0.00     0.158 A 
ATOM     20  F   UNL A   1      35.372  17.381  24.955  1.00  0.00    -0.204 F 
ATOM     21  F   UNL A   1      34.170  16.097  22.854  1.00  0.00    -0.204 F 
ENDBRANCH  12  14
ENDBRANCH  10  12
ENDBRANCH   8  10
ENDBRANCH   5   8
ENDBRANCH   3   4
ENDBRANCH   2   3
ENDBRANCH   1   2
BRANCH   1  22
ATOM     22  C   UNL A   1      32.605  28.888  24.864  1.00  0.00     0.002 C 
BRANCH  22  23
ATOM     23  C   UNL A   1      33.706  28.193  25.668  1.00  0.00     0.021 C 
BRANCH  23  24
ATOM     24  C   UNL A   1      33.627  28.429  27.173  1.00  0.00     0.116 C 
BRANCH  24  25
ATOM     25  N   UNL A   1      33.552  29.846  27.493  1.00  0.00    -0.352 N 
ATOM     26  C   UNL A   1      34.468  30.631  28.151  1.00  0.00     0.251 C 
ATOM     27  H   UNL A   1      32.733  30.305  27.199  1.00  0.00     0.163 HD
ATOM     28  O   UNL A   1      34.156  31.746  28.548  1.00  0.00    -0.269 OA
BRANCH  26  29
ATOM     29  C   UNL A   1      35.829  30.106  28.383  1.00  0.00     0.039 A 
ATOM     30  C   UNL A   1      36.766  30.158  27.349  1.00  0.00     0.014 A 
ATOM     31  C   UNL A   1      36.177  29.580  29.630  1.00  0.00     0.014 A 
ATOM     32  C   UNL A   1      38.076  29.737  27.588  1.00  0.00     0.010 A 
ATOM     33  C   UNL A   1      37.499  29.236  29.887  1.00  0.00     0.010 A 
ATOM     34  C   UNL A   1      38.461  29.305  28.867  1.00  0.00    -0.014 A 
BRANCH  34  35
ATOM     35  C   UNL A   1      39.863  28.920  29.169  1.00  0.00     0.031 A 
ATOM     36  C   UNL A   1      40.819  29.940  29.723  1.00  0.00     0.074 A 
ATOM     37  C   UNL A   1      40.299  27.684  28.858  1.00  0.00     0.049 A 
ATOM     38  N   UNL A   1      42.101  29.828  29.956  1.00  0.00    -0.248 NA
ATOM     39  C   UNL A   1      40.266  31.271  30.025  1.00  0.00     0.031 C 
ATOM     40  C   UNL A   1      39.479  26.621  28.272  1.00  0.00     0.029 A 
ATOM     41  N   UNL A   1      41.545  27.119  28.970  1.00  0.00    -0.354 N 
ATOM     42  C   UNL A   1      42.513  31.077  30.407  1.00  0.00     0.074 A 
ATOM     43  C   UNL A   1      41.355  31.944  30.365  1.00  0.00     0.031 C 
ATOM     44  C   UNL A   1      40.242  25.532  28.085  1.00  0.00     0.029 A 
ATOM     45  C   UNL A   1      41.612  25.833  28.491  1.00  0.00     0.049 A 
ATOM     46  H   UNL A   1      42.318  27.592  29.356  1.00  0.00     0.167 HD
ATOM     47  C   UNL A   1      43.740  31.464  30.830  1.00  0.00     0.031 A 
ATOM     48  C   UNL A   1      42.660  24.994  28.367  1.00  0.00     0.031 A 
ATOM     49  C   UNL A   1      44.886  30.595  30.867  1.00  0.00     0.049 A 
ATOM     50  C   UNL A   1      44.017  25.442  28.832  1.00  0.00     0.074 A 
ATOM     51  C   UNL A   1      46.157  30.869  31.338  1.00  0.00     0.029 A 
ATOM     52  N   UNL A   1      44.905  29.288  30.399  1.00  0.00    -0.354 N 
ATOM     53  N   UNL A   1      44.371  26.601  29.334  1.00  0.00    -0.248 NA
ATOM     54  C   UNL A   1      45.113  24.469  28.729  1.00  0.00     0.031 C 
ATOM     55  C   UNL A   1      46.962  29.752  31.094  1.00  0.00     0.029 A 
ATOM     56  C   UNL A   1      46.175  28.755  30.540  1.00  0.00     0.049 A 
ATOM     57  H   UNL A   1      44.130  28.812  30.024  1.00  0.00     0.167 HD
ATOM     58  C   UNL A   1      45.726  26.490  29.630  1.00  0.00     0.074 A 
ATOM     59  C   UNL A   1      46.124  25.146  29.259  1.00  0.00     0.031 C 
ATOM     60  C   UNL A   1      46.560  27.416  30.165  1.00  0.00     0.031 A 
BRANCH  47  61
ATOM     61  C   UNL A   1      43.905  32.901  31.258  1.00  0.00    -0.014 A 
ATOM     62  C   UNL A   1      44.250  33.906  30.336  1.00  0.00     0.010 A 
ATOM     63  C   UNL A   1      43.708  33.252  32.605  1.00  0.00     0.010 A 
ATOM     64  C   UNL A   1      44.462  35.220  30.764  1.00  0.00     0.020 A 
ATOM     65  C   UNL A   1      43.882  34.572  33.032  1.00  0.00     0.020 A 
ATOM     66  C   UNL A   1      44.284  35.542  32.113  1.00  0.00     0.054 A 
BRANCH  66  67
ATOM     67  S   UNL A   1      44.583  37.249  32.645  1.00  0.00     0.124 S 
ATOM     68  O   UNL A   1      43.342  37.565  33.349  1.00  0.00    -0.237 OA
ATOM     69  O   UNL A   1      45.769  37.119  33.488  1.00  0.00    -0.237 OA
ATOM     70  O   UNL A   1      44.789  37.973  31.393  1.00  0.00    -0.744 OA
ENDBRANCH  66  67
ENDBRANCH  47  61
BRANCH  48  71
ATOM     71  C   UNL A   1      42.449  23.647  27.768  1.00  0.00    -0.014 A 
ATOM     72  C   UNL A   1      42.728  23.411  26.410  1.00  0.00     0.010 A 
ATOM     73  C   UNL A   1      42.025  22.575  28.574  1.00  0.00     0.010 A 
ATOM     74  C   UNL A   1      42.588  22.128  25.871  1.00  0.00     0.020 A 
ATOM     75  C   UNL A   1      41.912  21.285  28.046  1.00  0.00     0.020 A 
ATOM     76  C   UNL A   1      42.191  21.071  26.696  1.00  0.00     0.054 A 
BRANCH  76  77
ATOM     77  S   UNL A   1      42.105  19.399  25.997  1.00  0.00     0.124 S 
ATOM     78  O   UNL A   1      42.583  18.580  27.105  1.00  0.00    -0.237 OA
ATOM     79  O   UNL A   1      40.686  19.267  25.676  1.00  0.00    -0.237 OA
ATOM     80  O   UNL A   1      42.993  19.466  24.838  1.00  0.00    -0.744 OA
ENDBRANCH  76  77
ENDBRANCH  48  71
BRANCH  60  81
ATOM     81  C   UNL A   1      47.988  27.010  30.420  1.00  0.00    -0.014 A 
ATOM     82  C   UNL A   1      49.017  27.342  29.522  1.00  0.00     0.010 A 
ATOM     83  C   UNL A   1      48.315  26.367  31.630  1.00  0.00     0.010 A 
ATOM     84  C   UNL A   1      50.345  27.029  29.824  1.00  0.00     0.020 A 
ATOM     85  C   UNL A   1      49.643  26.079  31.948  1.00  0.00     0.020 A 
ATOM     86  C   UNL A   1      50.651  26.406  31.040  1.00  0.00     0.054 A 
BRANCH  86  87
ATOM     87  S   UNL A   1      52.390  26.081  31.440  1.00  0.00     0.124 S 
ATOM     88  O   UNL A   1      52.700  27.173  32.358  1.00  0.00    -0.237 OA
ATOM     89  O   UNL A   1      52.336  24.751  32.041  1.00  0.00    -0.237 OA
ATOM     90  O   UNL A   1      53.063  26.147  30.145  1.00  0.00    -0.744 OA
ENDBRANCH  86  87
ENDBRANCH  60  81
ENDBRANCH  34  35
ENDBRANCH  26  29
ENDBRANCH  24  25
ENDBRANCH  23  24
ENDBRANCH  22  23
ENDBRANCH   1  22
TORSDOF 19
ENDMDL
MODEL 2
REMARK VINA RESULT:     -10.5      4.907     10.553
REMARK SMILES C[C@@H](C(=O)NCCCCCCNC(=O)c1ccc(-c2c3nc(c(-c4ccc(S(=O)(=O)[O-])cc4)c4ccc([nH]4)c(-c4ccc(S(=O)(=O)[O-])cc4)c4nc(c(-c5ccc(S(=O)(=O)[O-])cc5)c5ccc2[nH]5)C=C4)C=C3)cc1)[C@H](C)[S@@](=O)c1ccc(F)c(F)c1
REMARK SMILES IDX 8 1 7 2 6 3 5 4 3 5 4 6 2 8 1 9 75 10 76 11 77 12 78 13
REMARK SMILES IDX 79 14 80 15 86 16 81 17 84 18 82 19 85 20 83 21 9 22 10 23
REMARK SMILES IDX 11 24 12 25 13 26 14 28 15 29 16 30 74 31 17 32 73 33 18 34
REMARK SMILES IDX 19 35 20 36 67 37 21 38 72 39 66 40 68 41 22 42 71 43 65 44
REMARK SMILES IDX 64 45 23 47 53 48 34 49 52 50 35 51 38 52 51 53 69 54 36 55
REMARK SMILES IDX 37 56 50 58 70 59 39 60 24 61 25 62 33 63 26 64 32 65 27 66
REMARK SMILES IDX 28 67 29 68 30 69 31 70 54 71 55 72 63 73 56 74 62 75 57 76
REMARK SMILES IDX 58 77 59 78 60 79 61 80 40 81 41 82 49 83 42 84 48 85 43 86
REMARK SMILES IDX 44 87 45 88 46 89 47 90
REMARK H PARENT 5 7 12 27 68 46 38 57
REMARK Flexibility Score: inf
ROOT
ATOM      1  C   UNL A   1      36.676  23.605  25.785  1.00  0.00     0.002 C 
ENDROOT
BRANCH   1   2
ATOM      2  C   UNL A   1      36.426  22.100  25.669  1.00  0.00     0.021 C 
BRANCH   2   3
ATOM      3  C   UNL A   1      35.521  21.700  24.500  1.00  0.00     0.116 C 
BRANCH   3   4
ATOM      4  N   UNL A   1      35.265  22.829  23.622  1.00  0.00    -0.356 N 
ATOM      5  C   UNL A   1      34.108  23.515  23.375  1.00  0.00     0.224 C 
ATOM      6  O   UNL A   1      34.162  24.433  22.558  1.00  0.00    -0.275 OA
ATOM      7  H   UNL A   1      36.051  23.152  23.124  1.00  0.00     0.163 HD
BRANCH   5   8
ATOM      8  C   UNL A   1      32.829  23.154  24.151  1.00  0.00     0.091 C 
ATOM      9  C   UNL A   1      31.673  22.952  23.174  1.00  0.00     0.019 C 
BRANCH   8  10
ATOM     10  C   UNL A   1      32.594  24.122  25.354  1.00  0.00     0.093 C 
ATOM     11  C   UNL A   1      33.229  23.655  26.676  1.00  0.00     0.023 C 
BRANCH  10  12
ATOM     12  S   UNL A   1      30.926  24.809  25.655  1.00  0.00     0.057 S 
ATOM     13  O   UNL A   1      30.497  24.428  27.042  1.00  0.00    -0.254 OA
BRANCH  12  14
ATOM     14  C   UNL A   1      31.113  26.608  25.680  1.00  0.00     0.042 A 
ATOM     15  C   UNL A   1      31.559  27.203  26.877  1.00  0.00     0.021 A 
ATOM     16  C   UNL A   1      30.864  27.431  24.578  1.00  0.00     0.060 A 
ATOM     17  C   UNL A   1      31.817  28.575  26.949  1.00  0.00     0.043 A 
ATOM     18  C   UNL A   1      31.154  28.794  24.648  1.00  0.00     0.160 A 
ATOM     19  C   UNL A   1      31.630  29.361  25.822  1.00  0.00     0.158 A 
ATOM     20  F   UNL A   1      31.001  29.545  23.549  1.00  0.00    -0.204 F 
ATOM     21  F   UNL A   1      31.922  30.668  25.872  1.00  0.00    -0.204 F 
ENDBRANCH  12  14
ENDBRANCH  10  12
ENDBRANCH   8  10
ENDBRANCH   5   8
ENDBRANCH   3   4
ENDBRANCH   2   3
ENDBRANCH   1   2
BRANCH   1  22
ATOM     22  C   UNL A   1      38.069  23.983  26.289  1.00  0.00     0.002 C 
BRANCH  22  23
ATOM     23  C   UNL A   1      39.069  22.826  26.339  1.00  0.00     0.021 C 
BRANCH  23  24
ATOM     24  C   UNL A   1      40.349  23.136  27.108  1.00  0.00     0.116 C 
BRANCH  24  25
ATOM     25  N   UNL A   1      41.422  23.557  26.222  1.00  0.00    -0.352 N 
ATOM     26  C   UNL A   1      42.003  24.796  26.099  1.00  0.00     0.251 C 
ATOM     27  H   UNL A   1      41.780  22.859  25.628  1.00  0.00     0.163 HD
ATOM     28  O   UNL A   1      42.728  25.048  25.146  1.00  0.00    -0.269 OA
BRANCH  26  29
ATOM     29  C   UNL A   1      41.727  25.823  27.125  1.00  0.00     0.039 A 
ATOM     30  C   UNL A   1      40.808  25.545  28.138  1.00  0.00     0.014 A 
ATOM     31  C   UNL A   1      42.395  27.050  27.090  1.00  0.00     0.014 A 
ATOM     32  C   UNL A   1      40.604  26.479  29.156  1.00  0.00     0.010 A 
ATOM     33  C   UNL A   1      42.249  27.943  28.145  1.00  0.00     0.010 A 
ATOM     34  C   UNL A   1      41.348  27.670  29.185  1.00  0.00    -0.014 A 
BRANCH  34  35
ATOM     35  C   UNL A   1      41.204  28.649  30.292  1.00  0.00     0.031 A 
ATOM     36  C   UNL A   1      42.078  28.537  31.511  1.00  0.00     0.074 A 
ATOM     37  C   UNL A   1      40.230  29.578  30.243  1.00  0.00     0.049 A 
ATOM     38  N   UNL A   1      42.038  29.228  32.622  1.00  0.00    -0.248 NA
ATOM     39  C   UNL A   1      43.111  27.488  31.492  1.00  0.00     0.031 C 
ATOM     40  C   UNL A   1      39.288  29.757  29.135  1.00  0.00     0.029 A 
ATOM     41  N   UNL A   1      39.854  30.532  31.155  1.00  0.00    -0.354 N 
ATOM     42  C   UNL A   1      43.021  28.683  33.440  1.00  0.00     0.074 A 
ATOM     43  C   UNL A   1      43.603  27.572  32.719  1.00  0.00     0.031 C 
ATOM     44  C   UNL A   1      38.451  30.765  29.430  1.00  0.00     0.029 A 
ATOM     45  C   UNL A   1      38.763  31.270  30.764  1.00  0.00     0.049 A 
ATOM     46  H   UNL A   1      40.322  30.673  32.011  1.00  0.00     0.167 HD
ATOM     47  C   UNL A   1      43.413  29.079  34.675  1.00  0.00     0.031 A 
ATOM     48  C   UNL A   1      38.072  32.229  31.411  1.00  0.00     0.031 A 
ATOM     49  C   UNL A   1      42.826  30.184  35.385  1.00  0.00     0.049 A 
ATOM     50  C   UNL A   1      38.513  32.651  32.785  1.00  0.00     0.074 A 
ATOM     51  C   UNL A   1      43.192  30.708  36.612  1.00  0.00     0.029 A 
ATOM     52  N   UNL A   1      41.740  30.926  34.940  1.00  0.00    -0.354 N 
ATOM     53  N   UNL A   1      39.498  32.180  33.511  1.00  0.00    -0.248 NA
ATOM     54  C   UNL A   1      37.762  33.740  33.422  1.00  0.00     0.031 C 
ATOM     55  C   UNL A   1      42.286  31.722  36.940  1.00  0.00     0.029 A 
ATOM     56  C   UNL A   1      41.402  31.881  35.884  1.00  0.00     0.049 A 
ATOM     57  H   UNL A   1      41.279  30.792  34.080  1.00  0.00     0.167 HD
ATOM     58  C   UNL A   1      39.502  32.931  34.681  1.00  0.00     0.074 A 
ATOM     59  C   UNL A   1      38.425  33.894  34.560  1.00  0.00     0.031 C 
ATOM     60  C   UNL A   1      40.326  32.833  35.754  1.00  0.00     0.031 A 
BRANCH  47  61
ATOM     61  C   UNL A   1      44.509  28.287  35.342  1.00  0.00    -0.014 A 
ATOM     62  C   UNL A   1      45.866  28.610  35.155  1.00  0.00     0.010 A 
ATOM     63  C   UNL A   1      44.176  27.203  36.173  1.00  0.00     0.010 A 
ATOM     64  C   UNL A   1      46.868  27.824  35.729  1.00  0.00     0.020 A 
ATOM     65  C   UNL A   1      45.174  26.436  36.781  1.00  0.00     0.020 A 
ATOM     66  C   UNL A   1      46.515  26.736  36.532  1.00  0.00     0.054 A 
BRANCH  66  67
ATOM     67  S   UNL A   1      47.835  25.721  37.251  1.00  0.00     0.124 S 
ATOM     68  O   UNL A   1      47.596  25.889  38.683  1.00  0.00    -0.237 OA
ATOM     69  O   UNL A   1      47.545  24.393  36.717  1.00  0.00    -0.237 OA
ATOM     70  O   UNL A   1      49.060  26.338  36.749  1.00  0.00    -0.744 OA
ENDBRANCH  66  67
ENDBRANCH  47  61
BRANCH  48  71
ATOM     71  C   UNL A   1      36.886  32.843  30.753  1.00  0.00    -0.014 A 
ATOM     72  C   UNL A   1      35.582  32.507  31.158  1.00  0.00     0.010 A 
ATOM     73  C   UNL A   1      37.060  33.820  29.754  1.00  0.00     0.010 A 
ATOM     74  C   UNL A   1      34.476  33.136  30.578  1.00  0.00     0.020 A 
ATOM     75  C   UNL A   1      35.958  34.471  29.192  1.00  0.00     0.020 A 
ATOM     76  C   UNL A   1      34.672  34.123  29.606  1.00  0.00     0.054 A 
BRANCH  76  77
ATOM     77  S   UNL A   1      33.226  34.990  28.934  1.00  0.00     0.124 S 
ATOM     78  O   UNL A   1      32.703  34.017  27.981  1.00  0.00    -0.237 OA
ATOM     79  O   UNL A   1      32.412  35.211  30.127  1.00  0.00    -0.237 OA
ATOM     80  O   UNL A   1      33.796  36.200  28.346  1.00  0.00    -0.744 OA
ENDBRANCH  76  77
ENDBRANCH  48  71
BRANCH  60  81
ATOM     81  C   UNL A   1      40.129  33.813  36.882  1.00  0.00    -0.014 A 
ATOM     82  C   UNL A   1      40.859  35.012  36.946  1.00  0.00     0.010 A 
ATOM     83  C   UNL A   1      39.127  33.568  37.839  1.00  0.00     0.010 A 
ATOM     84  C   UNL A   1      40.598  35.943  37.955  1.00  0.00     0.020 A 
ATOM     85  C   UNL A   1      38.842  34.509  38.831  1.00  0.00     0.020 A 
ATOM     86  C   UNL A   1      39.585  35.689  38.887  1.00  0.00     0.054 A 
BRANCH  86  87
ATOM     87  S   UNL A   1      39.215  36.949  40.138  1.00  0.00     0.124 S 
ATOM     88  O   UNL A   1      38.385  36.206  41.083  1.00  0.00    -0.237 OA
ATOM     89  O   UNL A   1      40.542  37.318  40.622  1.00  0.00    -0.237 OA
ATOM     90  O   UNL A   1      38.520  37.991  39.386  1.00  0.00    -0.744 OA
ENDBRANCH  86  87
ENDBRANCH  60  81
ENDBRANCH  34  35
ENDBRANCH  26  29
ENDBRANCH  24  25
ENDBRANCH  23  24
ENDBRANCH  22  23
ENDBRANCH   1  22
TORSDOF 19
ENDMDL
MODEL 3
REMARK VINA RESULT:     -10.3      1.670      2.419
REMARK SMILES C[C@@H](C(=O)NCCCCCCNC(=O)c1ccc(-c2c3nc(c(-c4ccc(S(=O)(=O)[O-])cc4)c4ccc([nH]4)c(-c4ccc(S(=O)(=O)[O-])cc4)c4nc(c(-c5ccc(S(=O)(=O)[O-])cc5)c5ccc2[nH]5)C=C4)C=C3)cc1)[C@H](C)[S@@](=O)c1ccc(F)c(F)c1
REMARK SMILES IDX 8 1 7 2 6 3 5 4 3 5 4 6 2 8 1 9 75 10 76 11 77 12 78 13
REMARK SMILES IDX 79 14 80 15 86 16 81 17 84 18 82 19 85 20 83 21 9 22 10 23
REMARK SMILES IDX 11 24 12 25 13 26 14 28 15 29 16 30 74 31 17 32 73 33 18 34
REMARK SMILES IDX 19 35 20 36 67 37 21 38 72 39 66 40 68 41 22 42 71 43 65 44
REMARK SMILES IDX 64 45 23 47 53 48 34 49 52 50 35 51 38 52 51 53 69 54 36 55
REMARK SMILES IDX 37 56 50 58 70 59 39 60 24 61 25 62 33 63 26 64 32 65 27 66
REMARK SMILES IDX 28 67 29 68 30 69 31 70 54 71 55 72 63 73 56 74 62 75 57 76
REMARK SMILES IDX 58 77 59 78 60 79 61 80 40 81 41 82 49 83 42 84 48 85 43 86
REMARK SMILES IDX 44 87 45 88 46 89 47 90
REMARK H PARENT 5 7 12 27 68 46 38 57
REMARK Flexibility Score: inf
ROOT
ATOM      1  C   UNL A   1      31.279  28.529  24.568  1.00  0.00     0.002 C 
ENDROOT
BRANCH   1   2
ATOM      2  C   UNL A   1      30.151  27.512  24.379  1.00  0.00     0.021 C 
BRANCH   2   3
ATOM      3  C   UNL A   1      30.301  26.242  25.222  1.00  0.00     0.116 C 
BRANCH   3   4
ATOM      4  N   UNL A   1      30.030  25.052  24.433  1.00  0.00    -0.356 N 
ATOM      5  C   UNL A   1      30.745  24.479  23.418  1.00  0.00     0.224 C 
ATOM      6  O   UNL A   1      30.274  23.468  22.898  1.00  0.00    -0.275 OA
ATOM      7  H   UNL A   1      29.197  24.583  24.666  1.00  0.00     0.163 HD
BRANCH   5   8
ATOM      8  C   UNL A   1      32.105  25.076  23.015  1.00  0.00     0.091 C 
ATOM      9  C   UNL A   1      32.005  25.691  21.621  1.00  0.00     0.019 C 
BRANCH   8  10
ATOM     10  C   UNL A   1      33.274  24.073  23.278  1.00  0.00     0.093 C 
ATOM     11  C   UNL A   1      33.429  22.985  22.201  1.00  0.00     0.023 C 
BRANCH  10  12
ATOM     12  S   UNL A   1      33.500  23.357  24.945  1.00  0.00     0.057 S 
ATOM     13  O   UNL A   1      32.788  22.038  24.998  1.00  0.00    -0.254 OA
BRANCH  12  14
ATOM     14  C   UNL A   1      35.260  22.966  25.097  1.00  0.00     0.042 A 
ATOM     15  C   UNL A   1      36.088  23.912  25.733  1.00  0.00     0.021 A 
ATOM     16  C   UNL A   1      35.834  21.775  24.644  1.00  0.00     0.060 A 
ATOM     17  C   UNL A   1      37.439  23.645  25.972  1.00  0.00     0.043 A 
ATOM     18  C   UNL A   1      37.175  21.502  24.914  1.00  0.00     0.160 A 
ATOM     19  C   UNL A   1      37.971  22.427  25.576  1.00  0.00     0.158 A 
ATOM     20  F   UNL A   1      37.678  20.313  24.557  1.00  0.00    -0.204 F 
ATOM     21  F   UNL A   1      39.252  22.146  25.846  1.00  0.00    -0.204 F 
ENDBRANCH  12  14
ENDBRANCH  10  12
ENDBRANCH   8  10
ENDBRANCH   5   8
ENDBRANCH   3   4
ENDBRANCH   2   3
ENDBRANCH   1   2
BRANCH   1  22
ATOM     22  C   UNL A   1      32.688  27.949  24.438  1.00  0.00     0.002 C 
BRANCH  22  23
ATOM     23  C   UNL A   1      33.305  27.464  25.751  1.00  0.00     0.021 C 
BRANCH  23  24
ATOM     24  C   UNL A   1      34.481  28.303  26.239  1.00  0.00     0.116 C 
BRANCH  24  25
ATOM     25  N   UNL A   1      34.059  29.628  26.664  1.00  0.00    -0.352 N 
ATOM     26  C   UNL A   1      34.634  30.460  27.594  1.00  0.00     0.251 C 
ATOM     27  H   UNL A   1      33.248  29.976  26.227  1.00  0.00     0.163 HD
ATOM     28  O   UNL A   1      34.028  31.439  28.008  1.00  0.00    -0.269 OA
BRANCH  26  29
ATOM     29  C   UNL A   1      35.989  30.149  28.095  1.00  0.00     0.039 A 
ATOM     30  C   UNL A   1      36.137  29.643  29.388  1.00  0.00     0.014 A 
ATOM     31  C   UNL A   1      37.104  30.341  27.276  1.00  0.00     0.014 A 
ATOM     32  C   UNL A   1      37.406  29.270  29.838  1.00  0.00     0.010 A 
ATOM     33  C   UNL A   1      38.352  29.896  27.697  1.00  0.00     0.010 A 
ATOM     34  C   UNL A   1      38.517  29.363  28.984  1.00  0.00    -0.014 A 
BRANCH  34  35
ATOM     35  C   UNL A   1      39.865  28.907  29.410  1.00  0.00     0.031 A 
ATOM     36  C   UNL A   1      40.788  29.857  30.122  1.00  0.00     0.074 A 
ATOM     37  C   UNL A   1      40.291  27.673  29.076  1.00  0.00     0.049 A 
ATOM     38  N   UNL A   1      42.033  29.682  30.484  1.00  0.00    -0.248 NA
ATOM     39  C   UNL A   1      40.250  31.190  30.440  1.00  0.00     0.031 C 
ATOM     40  C   UNL A   1      39.505  26.676  28.346  1.00  0.00     0.029 A 
ATOM     41  N   UNL A   1      41.498  27.055  29.288  1.00  0.00    -0.354 N 
ATOM     42  C   UNL A   1      42.434  30.888  31.048  1.00  0.00     0.074 A 
ATOM     43  C   UNL A   1      41.317  31.800  30.933  1.00  0.00     0.031 C 
ATOM     44  C   UNL A   1      40.247  25.570  28.179  1.00  0.00     0.029 A 
ATOM     45  C   UNL A   1      41.574  25.795  28.745  1.00  0.00     0.049 A 
ATOM     46  H   UNL A   1      42.239  27.475  29.781  1.00  0.00     0.167 HD
ATOM     47  C   UNL A   1      43.620  31.203  31.622  1.00  0.00     0.031 A 
ATOM     48  C   UNL A   1      42.600  24.923  28.686  1.00  0.00     0.031 A 
ATOM     49  C   UNL A   1      44.726  30.289  31.729  1.00  0.00     0.049 A 
ATOM     50  C   UNL A   1      43.913  25.291  29.318  1.00  0.00     0.074 A 
ATOM     51  C   UNL A   1      45.947  30.487  32.349  1.00  0.00     0.029 A 
ATOM     52  N   UNL A   1      44.752  29.009  31.192  1.00  0.00    -0.354 N 
ATOM     53  N   UNL A   1      44.248  26.407  29.922  1.00  0.00    -0.248 NA
ATOM     54  C   UNL A   1      44.981  24.283  29.276  1.00  0.00     0.031 C 
ATOM     55  C   UNL A   1      46.736  29.353  32.128  1.00  0.00     0.029 A 
ATOM     56  C   UNL A   1      45.981  28.420  31.436  1.00  0.00     0.049 A 
ATOM     57  H   UNL A   1      44.007  28.585  30.709  1.00  0.00     0.167 HD
ATOM     58  C   UNL A   1      45.558  26.226  30.353  1.00  0.00     0.074 A 
ATOM     59  C   UNL A   1      45.949  24.890  29.949  1.00  0.00     0.031 C 
ATOM     60  C   UNL A   1      46.360  27.088  31.026  1.00  0.00     0.031 A 
BRANCH  47  61
ATOM     61  C   UNL A   1      43.785  32.607  32.147  1.00  0.00    -0.014 A 
ATOM     62  C   UNL A   1      43.402  32.950  33.457  1.00  0.00     0.010 A 
ATOM     63  C   UNL A   1      44.336  33.599  31.318  1.00  0.00     0.010 A 
ATOM     64  C   UNL A   1      43.502  34.270  33.903  1.00  0.00     0.020 A 
ATOM     65  C   UNL A   1      44.473  34.914  31.772  1.00  0.00     0.020 A 
ATOM     66  C   UNL A   1      44.030  35.246  33.053  1.00  0.00     0.054 A 
BRANCH  66  67
ATOM     67  S   UNL A   1      44.132  36.955  33.650  1.00  0.00     0.124 S 
ATOM     68  O   UNL A   1      45.399  36.943  34.378  1.00  0.00    -0.237 OA
ATOM     69  O   UNL A   1      44.128  37.729  32.411  1.00  0.00    -0.237 OA
ATOM     70  O   UNL A   1      42.940  37.107  34.479  1.00  0.00    -0.744 OA
ENDBRANCH  66  67
ENDBRANCH  47  61
BRANCH  48  71
ATOM     71  C   UNL A   1      42.411  23.620  27.989  1.00  0.00    -0.014 A 
ATOM     72  C   UNL A   1      43.051  23.358  26.765  1.00  0.00     0.010 A 
ATOM     73  C   UNL A   1      41.634  22.609  28.585  1.00  0.00     0.010 A 
ATOM     74  C   UNL A   1      42.919  22.108  26.151  1.00  0.00     0.020 A 
ATOM     75  C   UNL A   1      41.523  21.349  27.989  1.00  0.00     0.020 A 
ATOM     76  C   UNL A   1      42.164  21.108  26.773  1.00  0.00     0.054 A 
BRANCH  76  77
ATOM     77  S   UNL A   1      42.082  19.467  26.003  1.00  0.00     0.124 S 
ATOM     78  O   UNL A   1      42.622  18.610  27.054  1.00  0.00    -0.237 OA
ATOM     79  O   UNL A   1      40.654  19.318  25.736  1.00  0.00    -0.237 OA
ATOM     80  O   UNL A   1      42.919  19.604  24.814  1.00  0.00    -0.744 OA
ENDBRANCH  76  77
ENDBRANCH  48  71
BRANCH  60  81
ATOM     81  C   UNL A   1      47.737  26.613  31.409  1.00  0.00    -0.014 A 
ATOM     82  C   UNL A   1      48.825  26.731  30.527  1.00  0.00     0.010 A 
ATOM     83  C   UNL A   1      47.961  26.130  32.712  1.00  0.00     0.010 A 
ATOM     84  C   UNL A   1      50.109  26.361  30.937  1.00  0.00     0.020 A 
ATOM     85  C   UNL A   1      49.247  25.787  33.135  1.00  0.00     0.020 A 
ATOM     86  C   UNL A   1      50.313  25.899  32.242  1.00  0.00     0.054 A 
BRANCH  86  87
ATOM     87  S   UNL A   1      52.001  25.501  32.772  1.00  0.00     0.124 S 
ATOM     88  O   UNL A   1      51.816  25.221  34.193  1.00  0.00    -0.237 OA
ATOM     89  O   UNL A   1      52.332  24.346  31.941  1.00  0.00    -0.237 OA
ATOM     90  O   UNL A   1      52.756  26.715  32.470  1.00  0.00    -0.744 OA
ENDBRANCH  86  87
ENDBRANCH  60  81
ENDBRANCH  34  35
ENDBRANCH  26  29
ENDBRANCH  24  25
ENDBRANCH  23  24
ENDBRANCH  22  23
ENDBRANCH   1  22
TORSDOF 19
ENDMDL
