MODEL 1
REMARK VINA RESULT:     -10.1      0.000      0.000
REMARK SMILES CCCC[C@@H](C(=O)NCCCCCCNC(=O)c1ccc(-c2c3nc(c(-c4ccc(S(=O)(=O)[O-])cc4)c4ccc([nH]4)c(-c4ccc(S(=O)(=O)[O-])cc4)c4nc(c(-c5ccc(S(=O)(=O)[O-])cc5)c5ccc2[nH]5)C=C4)C=C3)cc1)[C@]1(O)COc2cc(O)ccc21
REMARK SMILES IDX 11 1 10 2 9 3 8 4 6 5 7 6 5 8 4 9 3 10 2 11 1 12 78 13 80 14
REMARK SMILES IDX 88 15 81 16 82 17 87 18 83 19 86 20 84 21 79 22 85 24 12 26
REMARK SMILES IDX 13 27 14 28 15 29 16 30 17 32 18 33 19 34 77 35 20 36 76 37
REMARK SMILES IDX 21 38 22 39 23 40 70 41 24 42 75 43 69 44 71 45 25 46 74 47
REMARK SMILES IDX 68 48 67 49 26 51 56 52 37 53 55 54 38 55 41 56 54 57 72 58
REMARK SMILES IDX 39 59 40 60 53 62 73 63 42 64 27 65 28 66 36 67 29 68 35 69
REMARK SMILES IDX 30 70 31 71 32 72 33 73 34 74 57 75 58 76 66 77 59 78 65 79
REMARK SMILES IDX 60 80 61 81 62 82 63 83 64 84 43 85 44 86 52 87 45 88 51 89
REMARK SMILES IDX 46 90 47 91 48 92 49 93 50 94
REMARK H PARENT 8 7 79 23 85 25 15 31 71 50 41 61
REMARK Flexibility Score: inf
ROOT
ATOM      1  C   UNL A   1      34.081  22.664  23.107  1.00  0.00     0.002 C 
ENDROOT
BRANCH   1   2
ATOM      2  C   UNL A   1      33.225  23.072  21.906  1.00  0.00     0.021 C 
BRANCH   2   3
ATOM      3  C   UNL A   1      33.006  24.588  21.802  1.00  0.00     0.116 C 
BRANCH   3   4
ATOM      4  N   UNL A   1      31.598  24.882  21.965  1.00  0.00    -0.356 N 
ATOM      5  C   UNL A   1      30.912  24.649  23.130  1.00  0.00     0.226 C 
ATOM      6  O   UNL A   1      29.903  23.952  23.072  1.00  0.00    -0.275 OA
ATOM      7  H   UNL A   1      31.109  25.268  21.203  1.00  0.00     0.163 HD
BRANCH   5   8
ATOM      8  C   UNL A   1      31.415  25.310  24.417  1.00  0.00     0.118 C 
BRANCH   8   9
ATOM      9  C   UNL A   1      31.565  24.298  25.588  1.00  0.00     0.017 C 
BRANCH   9  10
ATOM     10  C   UNL A   1      32.932  24.083  26.247  1.00  0.00     0.001 C 
BRANCH  10  11
ATOM     11  C   UNL A   1      33.299  22.642  26.609  1.00  0.00    -0.003 C 
ATOM     12  C   UNL A   1      34.185  22.544  27.839  1.00  0.00     0.004 C 
ENDBRANCH  10  11
ENDBRANCH   9  10
ENDBRANCH   8   9
BRANCH   8  13
ATOM     13  C   UNL A   1      30.469  26.504  24.839  1.00  0.00     0.139 C 
ATOM     14  C   UNL A   1      29.990  27.438  23.695  1.00  0.00     0.270 C 
ATOM     15  C   UNL A   1      31.062  27.584  25.699  1.00  0.00     0.030 A 
ATOM     16  O   UNL A   1      30.872  28.573  23.607  1.00  0.00    -0.490 OA
ATOM     17  C   UNL A   1      31.315  28.701  24.898  1.00  0.00     0.129 A 
ATOM     18  C   UNL A   1      31.405  27.615  27.043  1.00  0.00     0.014 A 
ATOM     19  C   UNL A   1      31.980  29.819  25.357  1.00  0.00     0.093 A 
ATOM     20  C   UNL A   1      32.040  28.762  27.544  1.00  0.00     0.047 A 
ATOM     21  C   UNL A   1      32.346  29.836  26.694  1.00  0.00     0.119 A 
BRANCH  13  22
ATOM     22  O   UNL A   1      29.309  25.936  25.469  1.00  0.00    -0.381 OA
ATOM     23  H   UNL A   1      29.572  25.169  26.000  1.00  0.00     0.212 HD
ENDBRANCH  13  22
BRANCH  21  24
ATOM     24  O   UNL A   1      33.014  30.935  27.152  1.00  0.00    -0.508 OA
ATOM     25  H   UNL A   1      33.246  30.999  28.058  1.00  0.00     0.293 HD
ENDBRANCH  21  24
ENDBRANCH   8  13
ENDBRANCH   5   8
ENDBRANCH   3   4
ENDBRANCH   2   3
ENDBRANCH   1   2
BRANCH   1  26
ATOM     26  C   UNL A   1      35.084  23.732  23.547  1.00  0.00     0.002 C 
BRANCH  26  27
ATOM     27  C   UNL A   1      36.509  23.214  23.752  1.00  0.00     0.021 C 
BRANCH  27  28
ATOM     28  C   UNL A   1      37.146  23.650  25.069  1.00  0.00     0.116 C 
BRANCH  28  29
ATOM     29  N   UNL A   1      38.128  22.677  25.527  1.00  0.00    -0.352 N 
ATOM     30  C   UNL A   1      39.315  22.893  26.183  1.00  0.00     0.251 C 
ATOM     31  H   UNL A   1      37.912  21.736  25.340  1.00  0.00     0.163 HD
ATOM     32  O   UNL A   1      40.163  22.013  26.238  1.00  0.00    -0.269 OA
BRANCH  30  33
ATOM     33  C   UNL A   1      39.551  24.205  26.817  1.00  0.00     0.039 A 
ATOM     34  C   UNL A   1      39.067  24.440  28.105  1.00  0.00     0.014 A 
ATOM     35  C   UNL A   1      40.270  25.192  26.135  1.00  0.00     0.014 A 
ATOM     36  C   UNL A   1      39.370  25.645  28.740  1.00  0.00     0.010 A 
ATOM     37  C   UNL A   1      40.630  26.360  26.796  1.00  0.00     0.010 A 
ATOM     38  C   UNL A   1      40.190  26.595  28.107  1.00  0.00    -0.014 A 
BRANCH  38  39
ATOM     39  C   UNL A   1      40.636  27.821  28.811  1.00  0.00     0.031 A 
ATOM     40  C   UNL A   1      41.980  27.864  29.481  1.00  0.00     0.074 A 
ATOM     41  C   UNL A   1      39.788  28.864  28.917  1.00  0.00     0.049 A 
ATOM     42  N   UNL A   1      42.505  28.814  30.211  1.00  0.00    -0.248 NA
ATOM     43  C   UNL A   1      42.838  26.678  29.329  1.00  0.00     0.031 C 
ATOM     44  C   UNL A   1      38.443  28.924  28.340  1.00  0.00     0.029 A 
ATOM     45  N   UNL A   1      39.926  30.071  29.557  1.00  0.00    -0.354 N 
ATOM     46  C   UNL A   1      43.746  28.337  30.615  1.00  0.00     0.074 A 
ATOM     47  C   UNL A   1      43.877  26.996  30.089  1.00  0.00     0.031 C 
ATOM     48  C   UNL A   1      37.891  30.112  28.632  1.00  0.00     0.029 A 
ATOM     49  C   UNL A   1      38.817  30.876  29.460  1.00  0.00     0.049 A 
ATOM     50  H   UNL A   1      40.743  30.334  30.040  1.00  0.00     0.167 HD
ATOM     51  C   UNL A   1      44.696  28.967  31.347  1.00  0.00     0.031 A 
ATOM     52  C   UNL A   1      38.562  32.087  29.993  1.00  0.00     0.031 A 
ATOM     53  C   UNL A   1      44.555  30.301  31.869  1.00  0.00     0.049 A 
ATOM     54  C   UNL A   1      39.616  32.748  30.839  1.00  0.00     0.074 A 
ATOM     55  C   UNL A   1      45.481  31.049  32.575  1.00  0.00     0.029 A 
ATOM     56  N   UNL A   1      43.413  31.080  31.756  1.00  0.00    -0.354 N 
ATOM     57  N   UNL A   1      40.816  32.313  31.145  1.00  0.00    -0.248 NA
ATOM     58  C   UNL A   1      39.286  34.061  31.408  1.00  0.00     0.031 C 
ATOM     59  C   UNL A   1      44.877  32.253  32.945  1.00  0.00     0.029 A 
ATOM     60  C   UNL A   1      43.597  32.285  32.413  1.00  0.00     0.049 A 
ATOM     61  H   UNL A   1      42.594  30.816  31.279  1.00  0.00     0.167 HD
ATOM     62  C   UNL A   1      41.390  33.309  31.927  1.00  0.00     0.074 A 
ATOM     63  C   UNL A   1      40.415  34.375  32.030  1.00  0.00     0.031 C 
ATOM     64  C   UNL A   1      42.614  33.335  32.511  1.00  0.00     0.031 A 
BRANCH  51  65
ATOM     65  C   UNL A   1      45.969  28.215  31.639  1.00  0.00    -0.014 A 
ATOM     66  C   UNL A   1      47.078  28.299  30.777  1.00  0.00     0.010 A 
ATOM     67  C   UNL A   1      46.077  27.453  32.816  1.00  0.00     0.010 A 
ATOM     68  C   UNL A   1      48.256  27.606  31.068  1.00  0.00     0.020 A 
ATOM     69  C   UNL A   1      47.263  26.782  33.127  1.00  0.00     0.020 A 
ATOM     70  C   UNL A   1      48.340  26.850  32.241  1.00  0.00     0.054 A 
BRANCH  70  71
ATOM     71  S   UNL A   1      49.891  25.981  32.605  1.00  0.00     0.124 S 
ATOM     72  O   UNL A   1      50.483  25.855  31.275  1.00  0.00    -0.237 OA
ATOM     73  O   UNL A   1      50.569  26.905  33.509  1.00  0.00    -0.237 OA
ATOM     74  O   UNL A   1      49.453  24.727  33.211  1.00  0.00    -0.744 OA
ENDBRANCH  70  71
ENDBRANCH  51  65
BRANCH  52  75
ATOM     75  C   UNL A   1      37.250  32.746  29.749  1.00  0.00    -0.014 A 
ATOM     76  C   UNL A   1      36.193  32.598  30.663  1.00  0.00     0.010 A 
ATOM     77  C   UNL A   1      37.055  33.542  28.604  1.00  0.00     0.010 A 
ATOM     78  C   UNL A   1      34.963  33.220  30.432  1.00  0.00     0.020 A 
ATOM     79  C   UNL A   1      35.838  34.191  28.385  1.00  0.00     0.020 A 
ATOM     80  C   UNL A   1      34.795  34.017  29.296  1.00  0.00     0.054 A 
BRANCH  80  81
ATOM     81  S   UNL A   1      33.208  34.861  29.046  1.00  0.00     0.124 S 
ATOM     82  O   UNL A   1      32.628  34.819  30.385  1.00  0.00    -0.237 OA
ATOM     83  O   UNL A   1      33.624  36.180  28.576  1.00  0.00    -0.237 OA
ATOM     84  O   UNL A   1      32.536  34.035  28.046  1.00  0.00    -0.744 OA
ENDBRANCH  80  81
ENDBRANCH  52  75
BRANCH  64  85
ATOM     85  C   UNL A   1      42.980  34.561  33.304  1.00  0.00    -0.014 A 
ATOM     86  C   UNL A   1      42.734  34.631  34.686  1.00  0.00     0.010 A 
ATOM     87  C   UNL A   1      43.650  35.625  32.671  1.00  0.00     0.010 A 
ATOM     88  C   UNL A   1      43.139  35.750  35.420  1.00  0.00     0.020 A 
ATOM     89  C   UNL A   1      44.082  36.731  33.406  1.00  0.00     0.020 A 
ATOM     90  C   UNL A   1      43.816  36.790  34.776  1.00  0.00     0.054 A 
BRANCH  90  91
ATOM     91  S   UNL A   1      44.393  38.196  35.766  1.00  0.00     0.124 S 
ATOM     92  O   UNL A   1      43.761  37.939  37.058  1.00  0.00    -0.237 OA
ATOM     93  O   UNL A   1      45.844  38.035  35.732  1.00  0.00    -0.237 OA
ATOM     94  O   UNL A   1      43.883  39.361  35.045  1.00  0.00    -0.744 OA
ENDBRANCH  90  91
ENDBRANCH  64  85
ENDBRANCH  38  39
ENDBRANCH  30  33
ENDBRANCH  28  29
ENDBRANCH  27  28
ENDBRANCH  26  27
ENDBRANCH   1  26
TORSDOF 22
ENDMDL
MODEL 2
REMARK VINA RESULT:      -9.6      1.172      2.345
REMARK SMILES CCCC[C@@H](C(=O)NCCCCCCNC(=O)c1ccc(-c2c3nc(c(-c4ccc(S(=O)(=O)[O-])cc4)c4ccc([nH]4)c(-c4ccc(S(=O)(=O)[O-])cc4)c4nc(c(-c5ccc(S(=O)(=O)[O-])cc5)c5ccc2[nH]5)C=C4)C=C3)cc1)[C@]1(O)COc2cc(O)ccc21
REMARK SMILES IDX 11 1 10 2 9 3 8 4 6 5 7 6 5 8 4 9 3 10 2 11 1 12 78 13 80 14
REMARK SMILES IDX 88 15 81 16 82 17 87 18 83 19 86 20 84 21 79 22 85 24 12 26
REMARK SMILES IDX 13 27 14 28 15 29 16 30 17 32 18 33 19 34 77 35 20 36 76 37
REMARK SMILES IDX 21 38 22 39 23 40 70 41 24 42 75 43 69 44 71 45 25 46 74 47
REMARK SMILES IDX 68 48 67 49 26 51 56 52 37 53 55 54 38 55 41 56 54 57 72 58
REMARK SMILES IDX 39 59 40 60 53 62 73 63 42 64 27 65 28 66 36 67 29 68 35 69
REMARK SMILES IDX 30 70 31 71 32 72 33 73 34 74 57 75 58 76 66 77 59 78 65 79
REMARK SMILES IDX 60 80 61 81 62 82 63 83 64 84 43 85 44 86 52 87 45 88 51 89
REMARK SMILES IDX 46 90 47 91 48 92 49 93 50 94
REMARK H PARENT 8 7 79 23 85 25 15 31 71 50 41 61
REMARK Flexibility Score: inf
ROOT
ATOM      1  C   UNL A   1      33.631  23.226  23.637  1.00  0.00     0.002 C 
ENDROOT
BRANCH   1   2
ATOM      2  C   UNL A   1      32.162  23.142  24.059  1.00  0.00     0.021 C 
BRANCH   2   3
ATOM      3  C   UNL A   1      31.460  24.507  24.089  1.00  0.00     0.116 C 
BRANCH   3   4
ATOM      4  N   UNL A   1      31.974  25.335  23.019  1.00  0.00    -0.356 N 
ATOM      5  C   UNL A   1      31.343  26.471  22.579  1.00  0.00     0.226 C 
ATOM      6  O   UNL A   1      31.074  26.551  21.384  1.00  0.00    -0.275 OA
ATOM      7  H   UNL A   1      32.818  25.071  22.587  1.00  0.00     0.163 HD
BRANCH   5   8
ATOM      8  C   UNL A   1      31.059  27.586  23.591  1.00  0.00     0.118 C 
BRANCH   8   9
ATOM      9  C   UNL A   1      29.649  28.214  23.405  1.00  0.00     0.017 C 
BRANCH   9  10
ATOM     10  C   UNL A   1      28.399  27.331  23.490  1.00  0.00     0.001 C 
BRANCH  10  11
ATOM     11  C   UNL A   1      27.049  28.052  23.471  1.00  0.00    -0.003 C 
ATOM     12  C   UNL A   1      27.164  29.520  23.095  1.00  0.00     0.004 C 
ENDBRANCH  10  11
ENDBRANCH   9  10
ENDBRANCH   8   9
BRANCH   8  13
ATOM     13  C   UNL A   1      32.174  28.703  23.518  1.00  0.00     0.139 C 
ATOM     14  C   UNL A   1      33.621  28.213  23.244  1.00  0.00     0.270 C 
ATOM     15  C   UNL A   1      32.487  29.451  24.784  1.00  0.00     0.030 A 
ATOM     16  O   UNL A   1      34.310  28.042  24.498  1.00  0.00    -0.490 OA
ATOM     17  C   UNL A   1      33.689  28.963  25.302  1.00  0.00     0.129 A 
ATOM     18  C   UNL A   1      31.795  30.436  25.473  1.00  0.00     0.014 A 
ATOM     19  C   UNL A   1      34.190  29.347  26.528  1.00  0.00     0.093 A 
ATOM     20  C   UNL A   1      32.311  30.878  26.702  1.00  0.00     0.047 A 
ATOM     21  C   UNL A   1      33.482  30.313  27.229  1.00  0.00     0.119 A 
BRANCH  13  22
ATOM     22  O   UNL A   1      31.805  29.616  22.471  1.00  0.00    -0.381 OA
ATOM     23  H   UNL A   1      31.544  30.466  22.859  1.00  0.00     0.212 HD
ENDBRANCH  13  22
BRANCH  21  24
ATOM     24  O   UNL A   1      33.966  30.690  28.448  1.00  0.00    -0.508 OA
ATOM     25  H   UNL A   1      33.384  31.035  29.097  1.00  0.00     0.293 HD
ENDBRANCH  21  24
ENDBRANCH   8  13
ENDBRANCH   5   8
ENDBRANCH   3   4
ENDBRANCH   2   3
ENDBRANCH   1   2
BRANCH   1  26
ATOM     26  C   UNL A   1      34.606  22.638  24.658  1.00  0.00     0.002 C 
BRANCH  26  27
ATOM     27  C   UNL A   1      36.017  23.228  24.595  1.00  0.00     0.021 C 
BRANCH  27  28
ATOM     28  C   UNL A   1      36.683  23.392  25.959  1.00  0.00     0.116 C 
BRANCH  28  29
ATOM     29  N   UNL A   1      37.869  22.555  26.071  1.00  0.00    -0.352 N 
ATOM     30  C   UNL A   1      39.162  22.923  26.349  1.00  0.00     0.251 C 
ATOM     31  H   UNL A   1      37.723  21.592  25.929  1.00  0.00     0.163 HD
ATOM     32  O   UNL A   1      40.089  22.157  26.120  1.00  0.00    -0.269 OA
BRANCH  30  33
ATOM     33  C   UNL A   1      39.416  24.258  26.923  1.00  0.00     0.039 A 
ATOM     34  C   UNL A   1      39.026  24.523  28.237  1.00  0.00     0.014 A 
ATOM     35  C   UNL A   1      40.059  25.238  26.160  1.00  0.00     0.014 A 
ATOM     36  C   UNL A   1      39.349  25.753  28.812  1.00  0.00     0.010 A 
ATOM     37  C   UNL A   1      40.441  26.433  26.756  1.00  0.00     0.010 A 
ATOM     38  C   UNL A   1      40.096  26.700  28.089  1.00  0.00    -0.014 A 
BRANCH  38  39
ATOM     39  C   UNL A   1      40.567  27.956  28.721  1.00  0.00     0.031 A 
ATOM     40  C   UNL A   1      41.944  28.036  29.316  1.00  0.00     0.074 A 
ATOM     41  C   UNL A   1      39.716  28.996  28.832  1.00  0.00     0.049 A 
ATOM     42  N   UNL A   1      42.497  29.018  29.980  1.00  0.00    -0.248 NA
ATOM     43  C   UNL A   1      42.805  26.851  29.165  1.00  0.00     0.031 C 
ATOM     44  C   UNL A   1      38.341  29.022  28.324  1.00  0.00     0.029 A 
ATOM     45  N   UNL A   1      39.875  30.228  29.416  1.00  0.00    -0.354 N 
ATOM     46  C   UNL A   1      43.763  28.567  30.336  1.00  0.00     0.074 A 
ATOM     47  C   UNL A   1      43.879  27.207  29.856  1.00  0.00     0.031 C 
ATOM     48  C   UNL A   1      37.793  30.216  28.600  1.00  0.00     0.029 A 
ATOM     49  C   UNL A   1      38.754  31.019  29.347  1.00  0.00     0.049 A 
ATOM     50  H   UNL A   1      40.714  30.516  29.844  1.00  0.00     0.167 HD
ATOM     51  C   UNL A   1      44.743  29.233  30.992  1.00  0.00     0.031 A 
ATOM     52  C   UNL A   1      38.516  32.248  29.845  1.00  0.00     0.031 A 
ATOM     53  C   UNL A   1      44.617  30.584  31.468  1.00  0.00     0.049 A 
ATOM     54  C   UNL A   1      39.607  32.950  30.608  1.00  0.00     0.074 A 
ATOM     55  C   UNL A   1      45.572  31.367  32.094  1.00  0.00     0.029 A 
ATOM     56  N   UNL A   1      43.463  31.350  31.386  1.00  0.00    -0.354 N 
ATOM     57  N   UNL A   1      40.824  32.537  30.867  1.00  0.00    -0.248 NA
ATOM     58  C   UNL A   1      39.293  34.282  31.142  1.00  0.00     0.031 C 
ATOM     59  C   UNL A   1      44.976  32.580  32.449  1.00  0.00     0.029 A 
ATOM     60  C   UNL A   1      43.669  32.581  31.985  1.00  0.00     0.049 A 
ATOM     61  H   UNL A   1      42.622  31.061  30.963  1.00  0.00     0.167 HD
ATOM     62  C   UNL A   1      41.429  33.567  31.578  1.00  0.00     0.074 A 
ATOM     63  C   UNL A   1      40.450  34.629  31.691  1.00  0.00     0.031 C 
ATOM     64  C   UNL A   1      42.682  33.626  32.095  1.00  0.00     0.031 A 
BRANCH  51  65
ATOM     65  C   UNL A   1      46.037  28.503  31.244  1.00  0.00    -0.014 A 
ATOM     66  C   UNL A   1      46.110  27.449  32.175  1.00  0.00     0.010 A 
ATOM     67  C   UNL A   1      47.186  28.840  30.505  1.00  0.00     0.010 A 
ATOM     68  C   UNL A   1      47.315  26.775  32.388  1.00  0.00     0.020 A 
ATOM     69  C   UNL A   1      48.385  28.148  30.693  1.00  0.00     0.020 A 
ATOM     70  C   UNL A   1      48.446  27.129  31.646  1.00  0.00     0.054 A 
BRANCH  70  71
ATOM     71  S   UNL A   1      49.989  26.218  31.927  1.00  0.00     0.124 S 
ATOM     72  O   UNL A   1      50.507  26.867  33.129  1.00  0.00    -0.237 OA
ATOM     73  O   UNL A   1      49.521  24.846  32.107  1.00  0.00    -0.237 OA
ATOM     74  O   UNL A   1      50.761  26.456  30.710  1.00  0.00    -0.744 OA
ENDBRANCH  70  71
ENDBRANCH  51  65
BRANCH  52  75
ATOM     75  C   UNL A   1      37.186  32.886  29.646  1.00  0.00    -0.014 A 
ATOM     76  C   UNL A   1      36.324  33.101  30.735  1.00  0.00     0.010 A 
ATOM     77  C   UNL A   1      36.780  33.300  28.362  1.00  0.00     0.010 A 
ATOM     78  C   UNL A   1      35.077  33.703  30.544  1.00  0.00     0.020 A 
ATOM     79  C   UNL A   1      35.549  33.931  28.173  1.00  0.00     0.020 A 
ATOM     80  C   UNL A   1      34.699  34.119  29.264  1.00  0.00     0.054 A 
BRANCH  80  81
ATOM     81  S   UNL A   1      33.100  34.950  29.050  1.00  0.00     0.124 S 
ATOM     82  O   UNL A   1      33.505  36.269  28.574  1.00  0.00    -0.237 OA
ATOM     83  O   UNL A   1      32.432  34.098  28.070  1.00  0.00    -0.237 OA
ATOM     84  O   UNL A   1      32.518  34.918  30.390  1.00  0.00    -0.744 OA
ENDBRANCH  80  81
ENDBRANCH  52  75
BRANCH  64  85
ATOM     85  C   UNL A   1      43.077  34.885  32.818  1.00  0.00    -0.014 A 
ATOM     86  C   UNL A   1      42.906  35.007  34.208  1.00  0.00     0.010 A 
ATOM     87  C   UNL A   1      43.700  35.930  32.110  1.00  0.00     0.010 A 
ATOM     88  C   UNL A   1      43.337  36.157  34.876  1.00  0.00     0.020 A 
ATOM     89  C   UNL A   1      44.160  37.067  32.777  1.00  0.00     0.020 A 
ATOM     90  C   UNL A   1      43.967  37.177  34.157  1.00  0.00     0.054 A 
BRANCH  90  91
ATOM     91  S   UNL A   1      44.581  38.625  35.059  1.00  0.00     0.124 S 
ATOM     92  O   UNL A   1      44.192  38.316  36.433  1.00  0.00    -0.237 OA
ATOM     93  O   UNL A   1      46.016  38.585  34.788  1.00  0.00    -0.237 OA
ATOM     94  O   UNL A   1      43.868  39.744  34.447  1.00  0.00    -0.744 OA
ENDBRANCH  90  91
ENDBRANCH  64  85
ENDBRANCH  38  39
ENDBRANCH  30  33
ENDBRANCH  28  29
ENDBRANCH  27  28
ENDBRANCH  26  27
ENDBRANCH   1  26
TORSDOF 22
ENDMDL
MODEL 3
REMARK VINA RESULT:      -9.5      1.197      2.394
REMARK SMILES CCCC[C@@H](C(=O)NCCCCCCNC(=O)c1ccc(-c2c3nc(c(-c4ccc(S(=O)(=O)[O-])cc4)c4ccc([nH]4)c(-c4ccc(S(=O)(=O)[O-])cc4)c4nc(c(-c5ccc(S(=O)(=O)[O-])cc5)c5ccc2[nH]5)C=C4)C=C3)cc1)[C@]1(O)COc2cc(O)ccc21
REMARK SMILES IDX 11 1 10 2 9 3 8 4 6 5 7 6 5 8 4 9 3 10 2 11 1 12 78 13 80 14
REMARK SMILES IDX 88 15 81 16 82 17 87 18 83 19 86 20 84 21 79 22 85 24 12 26
REMARK SMILES IDX 13 27 14 28 15 29 16 30 17 32 18 33 19 34 77 35 20 36 76 37
REMARK SMILES IDX 21 38 22 39 23 40 70 41 24 42 75 43 69 44 71 45 25 46 74 47
REMARK SMILES IDX 68 48 67 49 26 51 56 52 37 53 55 54 38 55 41 56 54 57 72 58
REMARK SMILES IDX 39 59 40 60 53 62 73 63 42 64 27 65 28 66 36 67 29 68 35 69
REMARK SMILES IDX 30 70 31 71 32 72 33 73 34 74 57 75 58 76 66 77 59 78 65 79
REMARK SMILES IDX 60 80 61 81 62 82 63 83 64 84 43 85 44 86 52 87 45 88 51 89
REMARK SMILES IDX 46 90 47 91 48 92 49 93 50 94
REMARK H PARENT 8 7 79 23 85 25 15 31 71 50 41 61
REMARK Flexibility Score: inf
ROOT
ATOM      1  C   UNL A   1      33.688  22.044  25.446  1.00  0.00     0.002 C 
ENDROOT
BRANCH   1   2
ATOM      2  C   UNL A   1      32.520  21.847  24.478  1.00  0.00     0.021 C 
BRANCH   2   3
ATOM      3  C   UNL A   1      31.677  23.115  24.278  1.00  0.00     0.116 C 
BRANCH   3   4
ATOM      4  N   UNL A   1      30.589  23.124  25.234  1.00  0.00    -0.356 N 
ATOM      5  C   UNL A   1      30.439  24.096  26.190  1.00  0.00     0.226 C 
ATOM      6  O   UNL A   1      30.357  23.739  27.362  1.00  0.00    -0.275 OA
ATOM      7  H   UNL A   1      29.927  22.398  25.195  1.00  0.00     0.163 HD
BRANCH   5   8
ATOM      8  C   UNL A   1      30.332  25.556  25.737  1.00  0.00     0.118 C 
BRANCH   8   9
ATOM      9  C   UNL A   1      29.825  25.689  24.273  1.00  0.00     0.017 C 
BRANCH   9  10
ATOM     10  C   UNL A   1      28.610  26.570  23.960  1.00  0.00     0.001 C 
BRANCH  10  11
ATOM     11  C   UNL A   1      28.889  27.886  23.230  1.00  0.00    -0.003 C 
ATOM     12  C   UNL A   1      27.638  28.719  23.005  1.00  0.00     0.004 C 
ENDBRANCH  10  11
ENDBRANCH   9  10
ENDBRANCH   8   9
BRANCH   8  13
ATOM     13  C   UNL A   1      31.717  26.297  25.910  1.00  0.00     0.139 C 
ATOM     14  C   UNL A   1      31.656  27.743  26.471  1.00  0.00     0.270 C 
ATOM     15  C   UNL A   1      32.481  26.634  24.660  1.00  0.00     0.030 A 
ATOM     16  O   UNL A   1      31.643  28.678  25.376  1.00  0.00    -0.490 OA
ATOM     17  C   UNL A   1      32.329  27.999  24.402  1.00  0.00     0.129 A 
ATOM     18  C   UNL A   1      33.213  25.848  23.782  1.00  0.00     0.014 A 
ATOM     19  C   UNL A   1      32.799  28.603  23.254  1.00  0.00     0.093 A 
ATOM     20  C   UNL A   1      33.741  26.452  22.629  1.00  0.00     0.047 A 
ATOM     21  C   UNL A   1      33.507  27.810  22.364  1.00  0.00     0.119 A 
BRANCH  13  22
ATOM     22  O   UNL A   1      32.524  25.505  26.797  1.00  0.00    -0.381 OA
ATOM     23  H   UNL A   1      31.981  25.193  27.538  1.00  0.00     0.212 HD
ENDBRANCH  13  22
BRANCH  21  24
ATOM     24  O   UNL A   1      33.965  28.398  21.221  1.00  0.00    -0.508 OA
ATOM     25  H   UNL A   1      34.364  29.246  21.257  1.00  0.00     0.293 HD
ENDBRANCH  21  24
ENDBRANCH   8  13
ENDBRANCH   5   8
ENDBRANCH   3   4
ENDBRANCH   2   3
ENDBRANCH   1   2
BRANCH   1  26
ATOM     26  C   UNL A   1      34.584  23.237  25.105  1.00  0.00     0.002 C 
BRANCH  26  27
ATOM     27  C   UNL A   1      35.815  23.379  26.004  1.00  0.00     0.021 C 
BRANCH  27  28
ATOM     28  C   UNL A   1      37.109  23.659  25.245  1.00  0.00     0.116 C 
BRANCH  28  29
ATOM     29  N   UNL A   1      38.157  22.720  25.623  1.00  0.00    -0.352 N 
ATOM     30  C   UNL A   1      39.376  22.975  26.201  1.00  0.00     0.251 C 
ATOM     31  H   UNL A   1      37.964  21.773  25.439  1.00  0.00     0.163 HD
ATOM     32  O   UNL A   1      40.259  22.128  26.188  1.00  0.00    -0.269 OA
BRANCH  30  33
ATOM     33  C   UNL A   1      39.604  24.289  26.834  1.00  0.00     0.039 A 
ATOM     34  C   UNL A   1      39.128  24.517  28.127  1.00  0.00     0.014 A 
ATOM     35  C   UNL A   1      40.309  25.283  26.149  1.00  0.00     0.014 A 
ATOM     36  C   UNL A   1      39.424  25.724  28.762  1.00  0.00     0.010 A 
ATOM     37  C   UNL A   1      40.662  26.454  26.808  1.00  0.00     0.010 A 
ATOM     38  C   UNL A   1      40.230  26.682  28.123  1.00  0.00    -0.014 A 
BRANCH  38  39
ATOM     39  C   UNL A   1      40.669  27.912  28.825  1.00  0.00     0.031 A 
ATOM     40  C   UNL A   1      42.016  27.965  29.489  1.00  0.00     0.074 A 
ATOM     41  C   UNL A   1      39.814  28.949  28.936  1.00  0.00     0.049 A 
ATOM     42  N   UNL A   1      42.537  28.919  30.217  1.00  0.00    -0.248 NA
ATOM     43  C   UNL A   1      42.883  26.786  29.333  1.00  0.00     0.031 C 
ATOM     44  C   UNL A   1      38.466  28.998  28.364  1.00  0.00     0.029 A 
ATOM     45  N   UNL A   1      39.946  30.156  29.575  1.00  0.00    -0.354 N 
ATOM     46  C   UNL A   1      43.784  28.452  30.616  1.00  0.00     0.074 A 
ATOM     47  C   UNL A   1      43.923  27.111  30.089  1.00  0.00     0.031 C 
ATOM     48  C   UNL A   1      37.906  30.181  28.660  1.00  0.00     0.029 A 
ATOM     49  C   UNL A   1      38.830  30.953  29.484  1.00  0.00     0.049 A 
ATOM     50  H   UNL A   1      40.763  30.425  30.054  1.00  0.00     0.167 HD
ATOM     51  C   UNL A   1      44.732  29.089  31.344  1.00  0.00     0.031 A 
ATOM     52  C   UNL A   1      38.568  32.161  30.018  1.00  0.00     0.031 A 
ATOM     53  C   UNL A   1      44.583  30.421  31.866  1.00  0.00     0.049 A 
ATOM     54  C   UNL A   1      39.621  32.830  30.859  1.00  0.00     0.074 A 
ATOM     55  C   UNL A   1      45.507  31.177  32.568  1.00  0.00     0.029 A 
ATOM     56  N   UNL A   1      43.435  31.192  31.759  1.00  0.00    -0.354 N 
ATOM     57  N   UNL A   1      40.825  32.405  31.160  1.00  0.00    -0.248 NA
ATOM     58  C   UNL A   1      39.283  34.141  31.430  1.00  0.00     0.031 C 
ATOM     59  C   UNL A   1      44.895  32.376  32.941  1.00  0.00     0.029 A 
ATOM     60  C   UNL A   1      43.612  32.398  32.415  1.00  0.00     0.049 A 
ATOM     61  H   UNL A   1      42.615  30.921  31.285  1.00  0.00     0.167 HD
ATOM     62  C   UNL A   1      41.395  33.405  31.940  1.00  0.00     0.074 A 
ATOM     63  C   UNL A   1      40.412  34.464  32.047  1.00  0.00     0.031 C 
ATOM     64  C   UNL A   1      42.621  33.440  32.518  1.00  0.00     0.031 A 
BRANCH  51  65
ATOM     65  C   UNL A   1      46.012  28.347  31.629  1.00  0.00    -0.014 A 
ATOM     66  C   UNL A   1      46.124  27.488  32.739  1.00  0.00     0.010 A 
ATOM     67  C   UNL A   1      47.103  28.469  30.749  1.00  0.00     0.010 A 
ATOM     68  C   UNL A   1      47.314  26.798  32.982  1.00  0.00     0.020 A 
ATOM     69  C   UNL A   1      48.284  27.757  30.973  1.00  0.00     0.020 A 
ATOM     70  C   UNL A   1      48.388  26.938  32.098  1.00  0.00     0.054 A 
BRANCH  70  71
ATOM     71  S   UNL A   1      49.911  26.009  32.427  1.00  0.00     0.124 S 
ATOM     72  O   UNL A   1      49.901  25.924  33.886  1.00  0.00    -0.237 OA
ATOM     73  O   UNL A   1      49.675  24.751  31.724  1.00  0.00    -0.237 OA
ATOM     74  O   UNL A   1      50.961  26.850  31.860  1.00  0.00    -0.744 OA
ENDBRANCH  70  71
ENDBRANCH  51  65
BRANCH  52  75
ATOM     75  C   UNL A   1      37.249  32.810  29.780  1.00  0.00    -0.014 A 
ATOM     76  C   UNL A   1      36.119  32.426  30.520  1.00  0.00     0.010 A 
ATOM     77  C   UNL A   1      37.122  33.831  28.819  1.00  0.00     0.010 A 
ATOM     78  C   UNL A   1      34.883  33.038  30.296  1.00  0.00     0.020 A 
ATOM     79  C   UNL A   1      35.896  34.468  28.614  1.00  0.00     0.020 A 
ATOM     80  C   UNL A   1      34.780  34.060  29.347  1.00  0.00     0.054 A 
BRANCH  80  81
ATOM     81  S   UNL A   1      33.178  34.881  29.114  1.00  0.00     0.124 S 
ATOM     82  O   UNL A   1      33.579  36.191  28.611  1.00  0.00    -0.237 OA
ATOM     83  O   UNL A   1      32.515  34.006  28.150  1.00  0.00    -0.237 OA
ATOM     84  O   UNL A   1      32.594  34.875  30.453  1.00  0.00    -0.744 OA
ENDBRANCH  80  81
ENDBRANCH  52  75
BRANCH  64  85
ATOM     85  C   UNL A   1      42.981  34.669  33.309  1.00  0.00    -0.014 A 
ATOM     86  C   UNL A   1      42.818  34.707  34.705  1.00  0.00     0.010 A 
ATOM     87  C   UNL A   1      43.564  35.772  32.657  1.00  0.00     0.010 A 
ATOM     88  C   UNL A   1      43.218  35.831  35.433  1.00  0.00     0.020 A 
ATOM     89  C   UNL A   1      43.992  36.885  33.384  1.00  0.00     0.020 A 
ATOM     90  C   UNL A   1      43.808  36.910  34.768  1.00  0.00     0.054 A 
BRANCH  90  91
ATOM     91  S   UNL A   1      44.382  38.325  35.747  1.00  0.00     0.124 S 
ATOM     92  O   UNL A   1      43.684  38.123  37.014  1.00  0.00    -0.237 OA
ATOM     93  O   UNL A   1      45.828  38.119  35.786  1.00  0.00    -0.237 OA
ATOM     94  O   UNL A   1      43.944  39.484  34.973  1.00  0.00    -0.744 OA
ENDBRANCH  90  91
ENDBRANCH  64  85
ENDBRANCH  38  39
ENDBRANCH  30  33
ENDBRANCH  28  29
ENDBRANCH  27  28
ENDBRANCH  26  27
ENDBRANCH   1  26
TORSDOF 22
ENDMDL
