MODEL 1
REMARK VINA RESULT:     -10.0      0.000      0.000
REMARK SMILES CCC(CC)[C@H](C(=O)NCCCCCCNC(=O)c1ccc(-c2c3nc(c(-c4ccc(S(=O)(=O)[O-])cc4)c4ccc([nH]4)c(-c4ccc(S(=O)(=O)[O-])cc4)c4nc(c(-c5ccc(S(=O)(=O)[O-])cc5)c5ccc2[nH]5)C=C4)C=C3)cc1)c1ccc(OC(F)F)cc1
REMARK SMILES IDX 12 1 11 2 10 3 9 4 7 5 8 6 6 8 3 9 2 10 1 11 4 12 5 13 79 14
REMARK SMILES IDX 80 15 88 16 81 17 87 18 82 19 83 20 84 21 85 22 86 23 13 24
REMARK SMILES IDX 14 25 15 26 16 27 17 28 18 30 19 31 20 32 78 33 21 34 77 35
REMARK SMILES IDX 22 36 23 37 24 38 71 39 25 40 76 41 70 42 72 43 26 44 75 45
REMARK SMILES IDX 69 46 68 47 27 49 57 50 38 51 56 52 39 53 42 54 55 55 73 56
REMARK SMILES IDX 40 57 41 58 54 60 74 61 43 62 28 63 29 64 37 65 30 66 36 67
REMARK SMILES IDX 31 68 32 69 33 70 34 71 35 72 58 73 59 74 67 75 60 76 66 77
REMARK SMILES IDX 61 78 62 79 63 80 64 81 65 82 44 83 45 84 53 85 46 86 52 87
REMARK SMILES IDX 47 88 48 89 49 90 50 91 51 92
REMARK H PARENT 9 7 16 29 72 48 42 59
REMARK Flexibility Score: inf
ROOT
ATOM      1  C   UNL A   1      37.182  22.870  25.628  1.00  0.00     0.002 C 
ENDROOT
BRANCH   1   2
ATOM      2  C   UNL A   1      35.883  23.541  26.105  1.00  0.00     0.021 C 
BRANCH   2   3
ATOM      3  C   UNL A   1      34.657  22.638  26.226  1.00  0.00     0.116 C 
BRANCH   3   4
ATOM      4  N   UNL A   1      33.507  23.117  26.966  1.00  0.00    -0.356 N 
ATOM      5  C   UNL A   1      32.526  24.012  26.584  1.00  0.00     0.227 C 
ATOM      6  O   UNL A   1      31.490  23.989  27.258  1.00  0.00    -0.274 OA
ATOM      7  H   UNL A   1      33.410  22.750  27.875  1.00  0.00     0.163 HD
BRANCH   5   8
ATOM      8  C   UNL A   1      32.736  25.075  25.443  1.00  0.00     0.111 C 
BRANCH   8   9
ATOM      9  C   UNL A   1      31.911  24.918  24.053  1.00  0.00     0.005 C 
BRANCH   9  10
ATOM     10  C   UNL A   1      32.478  23.854  23.090  1.00  0.00     0.001 C 
ATOM     11  C   UNL A   1      32.014  22.405  23.202  1.00  0.00     0.004 C 
ENDBRANCH   9  10
BRANCH   9  12
ATOM     12  C   UNL A   1      30.377  24.768  24.098  1.00  0.00     0.001 C 
ATOM     13  C   UNL A   1      29.610  26.070  23.891  1.00  0.00     0.004 C 
ENDBRANCH   9  12
ENDBRANCH   8   9
BRANCH   8  14
ATOM     14  C   UNL A   1      32.777  26.520  26.051  1.00  0.00    -0.035 A 
ATOM     15  C   UNL A   1      31.701  27.070  26.758  1.00  0.00     0.008 A 
ATOM     16  C   UNL A   1      33.925  27.333  25.982  1.00  0.00     0.008 A 
ATOM     17  C   UNL A   1      31.668  28.400  27.181  1.00  0.00     0.047 A 
ATOM     18  C   UNL A   1      33.934  28.659  26.494  1.00  0.00     0.047 A 
ATOM     19  C   UNL A   1      32.784  29.209  27.054  1.00  0.00     0.126 A 
BRANCH  19  20
ATOM     20  O   UNL A   1      32.580  30.481  27.495  1.00  0.00    -0.435 OA
BRANCH  20  21
ATOM     21  C   UNL A   1      31.968  31.421  26.633  1.00  0.00     0.542 C 
ATOM     22  F   UNL A   1      31.695  30.855  25.434  1.00  0.00    -0.167 F 
ATOM     23  F   UNL A   1      30.810  31.867  27.172  1.00  0.00    -0.167 F 
ENDBRANCH  20  21
ENDBRANCH  19  20
ENDBRANCH   8  14
ENDBRANCH   5   8
ENDBRANCH   3   4
ENDBRANCH   2   3
ENDBRANCH   1   2
BRANCH   1  24
ATOM     24  C   UNL A   1      37.081  21.629  24.727  1.00  0.00     0.002 C 
BRANCH  24  25
ATOM     25  C   UNL A   1      38.018  20.450  25.013  1.00  0.00     0.021 C 
BRANCH  25  26
ATOM     26  C   UNL A   1      39.237  20.736  25.886  1.00  0.00     0.116 C 
BRANCH  26  27
ATOM     27  N   UNL A   1      40.176  19.629  25.954  1.00  0.00    -0.352 N 
ATOM     28  C   UNL A   1      41.537  19.631  26.164  1.00  0.00     0.251 C 
ATOM     29  H   UNL A   1      39.776  18.737  25.832  1.00  0.00     0.163 HD
ATOM     30  O   UNL A   1      42.162  18.582  26.089  1.00  0.00    -0.269 OA
BRANCH  28  31
ATOM     31  C   UNL A   1      42.254  20.898  26.448  1.00  0.00     0.039 A 
ATOM     32  C   UNL A   1      42.657  21.697  25.372  1.00  0.00     0.014 A 
ATOM     33  C   UNL A   1      42.540  21.300  27.754  1.00  0.00     0.014 A 
ATOM     34  C   UNL A   1      43.275  22.930  25.609  1.00  0.00     0.010 A 
ATOM     35  C   UNL A   1      43.092  22.558  27.991  1.00  0.00     0.010 A 
ATOM     36  C   UNL A   1      43.460  23.391  26.922  1.00  0.00    -0.014 A 
BRANCH  36  37
ATOM     37  C   UNL A   1      44.020  24.740  27.201  1.00  0.00     0.031 A 
ATOM     38  C   UNL A   1      43.122  25.854  27.672  1.00  0.00     0.074 A 
ATOM     39  C   UNL A   1      45.327  24.984  26.966  1.00  0.00     0.049 A 
ATOM     40  N   UNL A   1      43.410  27.114  27.881  1.00  0.00    -0.248 NA
ATOM     41  C   UNL A   1      41.712  25.512  27.918  1.00  0.00     0.031 C 
ATOM     42  C   UNL A   1      46.300  24.000  26.487  1.00  0.00     0.029 A 
ATOM     43  N   UNL A   1      46.061  26.139  27.090  1.00  0.00    -0.354 N 
ATOM     44  C   UNL A   1      42.220  27.716  28.271  1.00  0.00     0.074 A 
ATOM     45  C   UNL A   1      41.195  26.695  28.218  1.00  0.00     0.031 C 
ATOM     46  C   UNL A   1      47.504  24.584  26.382  1.00  0.00     0.029 A 
ATOM     47  C   UNL A   1      47.383  25.995  26.737  1.00  0.00     0.049 A 
ATOM     48  H   UNL A   1      45.677  26.989  27.403  1.00  0.00     0.167 HD
ATOM     49  C   UNL A   1      42.000  28.995  28.658  1.00  0.00     0.031 A 
ATOM     50  C   UNL A   1      48.384  26.897  26.691  1.00  0.00     0.031 A 
ATOM     51  C   UNL A   1      43.022  30.007  28.714  1.00  0.00     0.049 A 
ATOM     52  C   UNL A   1      48.105  28.323  27.084  1.00  0.00     0.074 A 
ATOM     53  C   UNL A   1      42.906  31.323  29.129  1.00  0.00     0.029 A 
ATOM     54  N   UNL A   1      44.345  29.821  28.344  1.00  0.00    -0.354 N 
ATOM     55  N   UNL A   1      46.982  28.859  27.498  1.00  0.00    -0.248 NA
ATOM     56  C   UNL A   1      49.231  29.264  27.011  1.00  0.00     0.031 C 
ATOM     57  C   UNL A   1      44.145  31.947  28.955  1.00  0.00     0.029 A 
ATOM     58  C   UNL A   1      45.051  31.003  28.498  1.00  0.00     0.049 A 
ATOM     59  H   UNL A   1      44.727  28.973  28.019  1.00  0.00     0.167 HD
ATOM     60  C   UNL A   1      47.276  30.191  27.771  1.00  0.00     0.074 A 
ATOM     61  C   UNL A   1      48.683  30.376  27.485  1.00  0.00     0.031 C 
ATOM     62  C   UNL A   1      46.454  31.172  28.219  1.00  0.00     0.031 A 
BRANCH  49  63
ATOM     63  C   UNL A   1      40.596  29.376  29.053  1.00  0.00    -0.014 A 
ATOM     64  C   UNL A   1      40.274  29.675  30.389  1.00  0.00     0.010 A 
ATOM     65  C   UNL A   1      39.597  29.490  28.068  1.00  0.00     0.010 A 
ATOM     66  C   UNL A   1      38.971  30.039  30.739  1.00  0.00     0.020 A 
ATOM     67  C   UNL A   1      38.300  29.885  28.409  1.00  0.00     0.020 A 
ATOM     68  C   UNL A   1      37.992  30.142  29.747  1.00  0.00     0.054 A 
BRANCH  68  69
ATOM     69  S   UNL A   1      36.318  30.646  30.229  1.00  0.00     0.124 S 
ATOM     70  O   UNL A   1      35.633  30.687  28.940  1.00  0.00    -0.237 OA
ATOM     71  O   UNL A   1      35.906  29.568  31.125  1.00  0.00    -0.237 OA
ATOM     72  O   UNL A   1      36.515  31.944  30.870  1.00  0.00    -0.744 OA
ENDBRANCH  68  69
ENDBRANCH  49  63
BRANCH  50  73
ATOM     73  C   UNL A   1      49.749  26.482  26.259  1.00  0.00    -0.014 A 
ATOM     74  C   UNL A   1      50.587  25.764  27.131  1.00  0.00     0.010 A 
ATOM     75  C   UNL A   1      50.224  26.811  24.976  1.00  0.00     0.010 A 
ATOM     76  C   UNL A   1      51.881  25.409  26.742  1.00  0.00     0.020 A 
ATOM     77  C   UNL A   1      51.506  26.429  24.570  1.00  0.00     0.020 A 
ATOM     78  C   UNL A   1      52.333  25.744  25.462  1.00  0.00     0.054 A 
BRANCH  78  79
ATOM     79  S   UNL A   1      54.005  25.246  24.967  1.00  0.00     0.124 S 
ATOM     80  O   UNL A   1      53.892  23.791  24.940  1.00  0.00    -0.237 OA
ATOM     81  O   UNL A   1      54.156  25.894  23.667  1.00  0.00    -0.237 OA
ATOM     82  O   UNL A   1      54.851  25.788  26.028  1.00  0.00    -0.744 OA
ENDBRANCH  78  79
ENDBRANCH  50  73
BRANCH  62  83
ATOM     83  C   UNL A   1      47.060  32.527  28.478  1.00  0.00    -0.014 A 
ATOM     84  C   UNL A   1      47.638  32.847  29.719  1.00  0.00     0.010 A 
ATOM     85  C   UNL A   1      47.109  33.471  27.435  1.00  0.00     0.010 A 
ATOM     86  C   UNL A   1      48.231  34.097  29.920  1.00  0.00     0.020 A 
ATOM     87  C   UNL A   1      47.729  34.708  27.622  1.00  0.00     0.020 A 
ATOM     88  C   UNL A   1      48.277  35.018  28.869  1.00  0.00     0.054 A 
BRANCH  88  89
ATOM     89  S   UNL A   1      49.105  36.609  29.138  1.00  0.00     0.124 S 
ATOM     90  O   UNL A   1      50.130  36.257  30.117  1.00  0.00    -0.237 OA
ATOM     91  O   UNL A   1      49.599  36.941  27.804  1.00  0.00    -0.237 OA
ATOM     92  O   UNL A   1      48.040  37.476  29.635  1.00  0.00    -0.744 OA
ENDBRANCH  88  89
ENDBRANCH  62  83
ENDBRANCH  36  37
ENDBRANCH  28  31
ENDBRANCH  26  27
ENDBRANCH  25  26
ENDBRANCH  24  25
ENDBRANCH   1  24
TORSDOF 22
ENDMDL
MODEL 2
REMARK VINA RESULT:     -10.0      2.779      9.072
REMARK SMILES CCC(CC)[C@H](C(=O)NCCCCCCNC(=O)c1ccc(-c2c3nc(c(-c4ccc(S(=O)(=O)[O-])cc4)c4ccc([nH]4)c(-c4ccc(S(=O)(=O)[O-])cc4)c4nc(c(-c5ccc(S(=O)(=O)[O-])cc5)c5ccc2[nH]5)C=C4)C=C3)cc1)c1ccc(OC(F)F)cc1
REMARK SMILES IDX 12 1 11 2 10 3 9 4 7 5 8 6 6 8 3 9 2 10 1 11 4 12 5 13 79 14
REMARK SMILES IDX 80 15 88 16 81 17 87 18 82 19 83 20 84 21 85 22 86 23 13 24
REMARK SMILES IDX 14 25 15 26 16 27 17 28 18 30 19 31 20 32 78 33 21 34 77 35
REMARK SMILES IDX 22 36 23 37 24 38 71 39 25 40 76 41 70 42 72 43 26 44 75 45
REMARK SMILES IDX 69 46 68 47 27 49 57 50 38 51 56 52 39 53 42 54 55 55 73 56
REMARK SMILES IDX 40 57 41 58 54 60 74 61 43 62 28 63 29 64 37 65 30 66 36 67
REMARK SMILES IDX 31 68 32 69 33 70 34 71 35 72 58 73 59 74 67 75 60 76 66 77
REMARK SMILES IDX 61 78 62 79 63 80 64 81 65 82 44 83 45 84 53 85 46 86 52 87
REMARK SMILES IDX 47 88 48 89 49 90 50 91 51 92
REMARK H PARENT 9 7 16 29 72 48 42 59
REMARK Flexibility Score: inf
ROOT
ATOM      1  C   UNL A   1      37.099  21.673  25.216  1.00  0.00     0.002 C 
ENDROOT
BRANCH   1   2
ATOM      2  C   UNL A   1      36.869  22.564  23.984  1.00  0.00     0.021 C 
BRANCH   2   3
ATOM      3  C   UNL A   1      35.710  23.555  24.067  1.00  0.00     0.116 C 
BRANCH   3   4
ATOM      4  N   UNL A   1      34.816  23.684  22.934  1.00  0.00    -0.356 N 
ATOM      5  C   UNL A   1      33.435  23.736  22.905  1.00  0.00     0.227 C 
ATOM      6  O   UNL A   1      32.940  24.185  21.865  1.00  0.00    -0.274 OA
ATOM      7  H   UNL A   1      35.258  23.743  22.056  1.00  0.00     0.163 HD
BRANCH   5   8
ATOM      8  C   UNL A   1      32.534  23.165  24.061  1.00  0.00     0.111 C 
BRANCH   8   9
ATOM      9  C   UNL A   1      31.042  23.772  24.275  1.00  0.00     0.005 C 
BRANCH   9  10
ATOM     10  C   UNL A   1      30.745  24.244  25.713  1.00  0.00     0.001 C 
ATOM     11  C   UNL A   1      31.194  23.395  26.898  1.00  0.00     0.004 C 
ENDBRANCH   9  10
BRANCH   9  12
ATOM     12  C   UNL A   1      30.512  24.835  23.292  1.00  0.00     0.001 C 
ATOM     13  C   UNL A   1      30.687  26.274  23.766  1.00  0.00     0.004 C 
ENDBRANCH   9  12
ENDBRANCH   8   9
BRANCH   8  14
ATOM     14  C   UNL A   1      32.646  21.602  24.111  1.00  0.00    -0.035 A 
ATOM     15  C   UNL A   1      32.317  20.787  23.021  1.00  0.00     0.008 A 
ATOM     16  C   UNL A   1      33.150  20.919  25.236  1.00  0.00     0.008 A 
ATOM     17  C   UNL A   1      32.276  19.394  23.096  1.00  0.00     0.047 A 
ATOM     18  C   UNL A   1      33.201  19.500  25.288  1.00  0.00     0.047 A 
ATOM     19  C   UNL A   1      32.718  18.734  24.230  1.00  0.00     0.126 A 
BRANCH  19  20
ATOM     20  O   UNL A   1      32.592  17.381  24.150  1.00  0.00    -0.435 OA
BRANCH  20  21
ATOM     21  C   UNL A   1      33.666  16.616  23.639  1.00  0.00     0.542 C 
ATOM     22  F   UNL A   1      34.770  17.387  23.500  1.00  0.00    -0.167 F 
ATOM     23  F   UNL A   1      33.956  15.596  24.479  1.00  0.00    -0.167 F 
ENDBRANCH  20  21
ENDBRANCH  19  20
ENDBRANCH   8  14
ENDBRANCH   5   8
ENDBRANCH   3   4
ENDBRANCH   2   3
ENDBRANCH   1   2
BRANCH   1  24
ATOM     24  C   UNL A   1      37.150  20.149  25.023  1.00  0.00     0.002 C 
BRANCH  24  25
ATOM     25  C   UNL A   1      38.520  19.462  25.051  1.00  0.00     0.021 C 
BRANCH  25  26
ATOM     26  C   UNL A   1      39.532  19.986  26.066  1.00  0.00     0.116 C 
BRANCH  26  27
ATOM     27  N   UNL A   1      40.755  19.204  26.124  1.00  0.00    -0.352 N 
ATOM     28  C   UNL A   1      42.063  19.611  26.267  1.00  0.00     0.251 C 
ATOM     29  H   UNL A   1      40.629  18.230  26.051  1.00  0.00     0.163 HD
ATOM     30  O   UNL A   1      42.964  18.787  26.196  1.00  0.00    -0.269 OA
BRANCH  28  31
ATOM     31  C   UNL A   1      42.388  21.044  26.473  1.00  0.00     0.039 A 
ATOM     32  C   UNL A   1      42.554  21.513  27.781  1.00  0.00     0.014 A 
ATOM     33  C   UNL A   1      42.518  21.926  25.399  1.00  0.00     0.014 A 
ATOM     34  C   UNL A   1      42.927  22.843  28.004  1.00  0.00     0.010 A 
ATOM     35  C   UNL A   1      42.956  23.231  25.618  1.00  0.00     0.010 A 
ATOM     36  C   UNL A   1      43.172  23.704  26.922  1.00  0.00    -0.014 A 
BRANCH  36  37
ATOM     37  C   UNL A   1      43.667  25.091  27.128  1.00  0.00     0.031 A 
ATOM     38  C   UNL A   1      45.117  25.424  26.892  1.00  0.00     0.074 A 
ATOM     39  C   UNL A   1      42.827  26.039  27.593  1.00  0.00     0.049 A 
ATOM     40  N   UNL A   1      45.750  26.551  27.103  1.00  0.00    -0.248 NA
ATOM     41  C   UNL A   1      45.972  24.343  26.375  1.00  0.00     0.031 C 
ATOM     42  C   UNL A   1      41.405  25.843  27.884  1.00  0.00     0.029 A 
ATOM     43  N   UNL A   1      43.049  27.358  27.911  1.00  0.00    -0.354 N 
ATOM     44  C   UNL A   1      47.075  26.312  26.755  1.00  0.00     0.074 A 
ATOM     45  C   UNL A   1      47.165  24.920  26.371  1.00  0.00     0.031 C 
ATOM     46  C   UNL A   1      40.878  27.002  28.312  1.00  0.00     0.029 A 
ATOM     47  C   UNL A   1      41.930  28.011  28.375  1.00  0.00     0.049 A 
ATOM     48  H   UNL A   1      43.926  27.794  27.815  1.00  0.00     0.167 HD
ATOM     49  C   UNL A   1      48.118  27.176  26.736  1.00  0.00     0.031 A 
ATOM     50  C   UNL A   1      41.770  29.275  28.815  1.00  0.00     0.031 A 
ATOM     51  C   UNL A   1      48.024  28.562  27.115  1.00  0.00     0.049 A 
ATOM     52  C   UNL A   1      42.954  30.204  28.826  1.00  0.00     0.074 A 
ATOM     53  C   UNL A   1      49.017  29.528  27.094  1.00  0.00     0.029 A 
ATOM     54  N   UNL A   1      46.875  29.181  27.583  1.00  0.00    -0.354 N 
ATOM     55  N   UNL A   1      44.187  29.972  28.445  1.00  0.00    -0.248 NA
ATOM     56  C   UNL A   1      42.723  31.569  29.319  1.00  0.00     0.031 C 
ATOM     57  C   UNL A   1      48.482  30.714  27.603  1.00  0.00     0.029 A 
ATOM     58  C   UNL A   1      47.140  30.509  27.877  1.00  0.00     0.049 A 
ATOM     59  H   UNL A   1      46.001  28.742  27.691  1.00  0.00     0.167 HD
ATOM     60  C   UNL A   1      44.870  31.172  28.617  1.00  0.00     0.074 A 
ATOM     61  C   UNL A   1      43.910  32.129  29.126  1.00  0.00     0.031 C 
ATOM     62  C   UNL A   1      46.173  31.455  28.374  1.00  0.00     0.031 A 
BRANCH  49  63
ATOM     63  C   UNL A   1      49.457  26.647  26.291  1.00  0.00    -0.014 A 
ATOM     64  C   UNL A   1      49.901  26.816  24.967  1.00  0.00     0.010 A 
ATOM     65  C   UNL A   1      50.308  26.020  27.221  1.00  0.00     0.010 A 
ATOM     66  C   UNL A   1      51.151  26.332  24.571  1.00  0.00     0.020 A 
ATOM     67  C   UNL A   1      51.572  25.563  26.837  1.00  0.00     0.020 A 
ATOM     68  C   UNL A   1      51.979  25.709  25.508  1.00  0.00     0.054 A 
BRANCH  68  69
ATOM     69  S   UNL A   1      53.606  25.118  24.970  1.00  0.00     0.124 S 
ATOM     70  O   UNL A   1      53.459  23.670  25.099  1.00  0.00    -0.237 OA
ATOM     71  O   UNL A   1      53.692  25.620  23.602  1.00  0.00    -0.237 OA
ATOM     72  O   UNL A   1      54.532  25.735  25.917  1.00  0.00    -0.744 OA
ENDBRANCH  68  69
ENDBRANCH  49  63
BRANCH  50  73
ATOM     73  C   UNL A   1      40.433  29.744  29.280  1.00  0.00    -0.014 A 
ATOM     74  C   UNL A   1      40.164  29.887  30.653  1.00  0.00     0.010 A 
ATOM     75  C   UNL A   1      39.418  30.039  28.352  1.00  0.00     0.010 A 
ATOM     76  C   UNL A   1      38.898  30.287  31.091  1.00  0.00     0.020 A 
ATOM     77  C   UNL A   1      38.161  30.472  28.785  1.00  0.00     0.020 A 
ATOM     78  C   UNL A   1      37.904  30.578  30.153  1.00  0.00     0.054 A 
BRANCH  78  79
ATOM     79  S   UNL A   1      36.279  31.127  30.743  1.00  0.00     0.124 S 
ATOM     80  O   UNL A   1      35.897  30.038  31.636  1.00  0.00    -0.237 OA
ATOM     81  O   UNL A   1      36.591  32.398  31.391  1.00  0.00    -0.237 OA
ATOM     82  O   UNL A   1      35.490  31.237  29.518  1.00  0.00    -0.744 OA
ENDBRANCH  78  79
ENDBRANCH  50  73
BRANCH  62  83
ATOM     83  C   UNL A   1      46.636  32.869  28.607  1.00  0.00    -0.014 A 
ATOM     84  C   UNL A   1      46.951  33.336  29.896  1.00  0.00     0.010 A 
ATOM     85  C   UNL A   1      46.822  33.724  27.505  1.00  0.00     0.010 A 
ATOM     86  C   UNL A   1      47.419  34.640  30.079  1.00  0.00     0.020 A 
ATOM     87  C   UNL A   1      47.319  35.018  27.680  1.00  0.00     0.020 A 
ATOM     88  C   UNL A   1      47.605  35.471  28.970  1.00  0.00     0.054 A 
BRANCH  88  89
ATOM     89  S   UNL A   1      48.269  37.139  29.231  1.00  0.00     0.124 S 
ATOM     90  O   UNL A   1      48.472  37.603  27.862  1.00  0.00    -0.237 OA
ATOM     91  O   UNL A   1      47.192  37.799  29.965  1.00  0.00    -0.237 OA
ATOM     92  O   UNL A   1      49.490  36.911  30.000  1.00  0.00    -0.744 OA
ENDBRANCH  88  89
ENDBRANCH  62  83
ENDBRANCH  36  37
ENDBRANCH  28  31
ENDBRANCH  26  27
ENDBRANCH  25  26
ENDBRANCH  24  25
ENDBRANCH   1  24
TORSDOF 22
ENDMDL
MODEL 3
REMARK VINA RESULT:      -9.5      2.476      3.639
REMARK SMILES CCC(CC)[C@H](C(=O)NCCCCCCNC(=O)c1ccc(-c2c3nc(c(-c4ccc(S(=O)(=O)[O-])cc4)c4ccc([nH]4)c(-c4ccc(S(=O)(=O)[O-])cc4)c4nc(c(-c5ccc(S(=O)(=O)[O-])cc5)c5ccc2[nH]5)C=C4)C=C3)cc1)c1ccc(OC(F)F)cc1
REMARK SMILES IDX 12 1 11 2 10 3 9 4 7 5 8 6 6 8 3 9 2 10 1 11 4 12 5 13 79 14
REMARK SMILES IDX 80 15 88 16 81 17 87 18 82 19 83 20 84 21 85 22 86 23 13 24
REMARK SMILES IDX 14 25 15 26 16 27 17 28 18 30 19 31 20 32 78 33 21 34 77 35
REMARK SMILES IDX 22 36 23 37 24 38 71 39 25 40 76 41 70 42 72 43 26 44 75 45
REMARK SMILES IDX 69 46 68 47 27 49 57 50 38 51 56 52 39 53 42 54 55 55 73 56
REMARK SMILES IDX 40 57 41 58 54 60 74 61 43 62 28 63 29 64 37 65 30 66 36 67
REMARK SMILES IDX 31 68 32 69 33 70 34 71 35 72 58 73 59 74 67 75 60 76 66 77
REMARK SMILES IDX 61 78 62 79 63 80 64 81 65 82 44 83 45 84 53 85 46 86 52 87
REMARK SMILES IDX 47 88 48 89 49 90 50 91 51 92
REMARK H PARENT 9 7 16 29 72 48 42 59
REMARK Flexibility Score: inf
ROOT
ATOM      1  C   UNL A   1      35.930  22.234  24.186  1.00  0.00     0.002 C 
ENDROOT
BRANCH   1   2
ATOM      2  C   UNL A   1      35.843  23.607  24.872  1.00  0.00     0.021 C 
BRANCH   2   3
ATOM      3  C   UNL A   1      34.814  24.585  24.309  1.00  0.00     0.116 C 
BRANCH   3   4
ATOM      4  N   UNL A   1      34.044  25.398  25.228  1.00  0.00    -0.356 N 
ATOM      5  C   UNL A   1      32.685  25.394  25.478  1.00  0.00     0.227 C 
ATOM      6  O   UNL A   1      32.335  25.934  26.534  1.00  0.00    -0.274 OA
ATOM      7  H   UNL A   1      34.566  26.049  25.751  1.00  0.00     0.163 HD
BRANCH   5   8
ATOM      8  C   UNL A   1      31.628  24.845  24.450  1.00  0.00     0.111 C 
BRANCH   8   9
ATOM      9  C   UNL A   1      31.262  25.734  23.141  1.00  0.00     0.005 C 
BRANCH   9  10
ATOM     10  C   UNL A   1      30.185  26.812  23.382  1.00  0.00     0.001 C 
ATOM     11  C   UNL A   1      28.831  26.417  23.964  1.00  0.00     0.004 C 
ENDBRANCH   9  10
BRANCH   9  12
ATOM     12  C   UNL A   1      32.400  26.358  22.309  1.00  0.00     0.001 C 
ATOM     13  C   UNL A   1      32.634  25.689  20.959  1.00  0.00     0.004 C 
ENDBRANCH   9  12
ENDBRANCH   8   9
BRANCH   8  14
ATOM     14  C   UNL A   1      31.870  23.318  24.189  1.00  0.00    -0.035 A 
ATOM     15  C   UNL A   1      32.018  22.391  25.228  1.00  0.00     0.008 A 
ATOM     16  C   UNL A   1      31.888  22.769  22.892  1.00  0.00     0.008 A 
ATOM     17  C   UNL A   1      32.374  21.058  25.014  1.00  0.00     0.047 A 
ATOM     18  C   UNL A   1      32.156  21.392  22.666  1.00  0.00     0.047 A 
ATOM     19  C   UNL A   1      32.446  20.543  23.732  1.00  0.00     0.126 A 
BRANCH  19  20
ATOM     20  O   UNL A   1      32.826  19.236  23.696  1.00  0.00    -0.435 OA
BRANCH  20  21
ATOM     21  C   UNL A   1      33.059  18.551  24.911  1.00  0.00     0.542 C 
ATOM     22  F   UNL A   1      32.026  17.723  25.192  1.00  0.00    -0.167 F 
ATOM     23  F   UNL A   1      34.191  17.814  24.823  1.00  0.00    -0.167 F 
ENDBRANCH  20  21
ENDBRANCH  19  20
ENDBRANCH   8  14
ENDBRANCH   5   8
ENDBRANCH   3   4
ENDBRANCH   2   3
ENDBRANCH   1   2
BRANCH   1  24
ATOM     24  C   UNL A   1      36.964  21.219  24.701  1.00  0.00     0.002 C 
BRANCH  24  25
ATOM     25  C   UNL A   1      38.348  21.740  25.103  1.00  0.00     0.021 C 
BRANCH  25  26
ATOM     26  C   UNL A   1      38.978  21.130  26.353  1.00  0.00     0.116 C 
BRANCH  26  27
ATOM     27  N   UNL A   1      39.907  20.050  26.069  1.00  0.00    -0.352 N 
ATOM     28  C   UNL A   1      41.283  20.054  26.017  1.00  0.00     0.251 C 
ATOM     29  H   UNL A   1      39.487  19.178  25.887  1.00  0.00     0.163 HD
ATOM     30  O   UNL A   1      41.878  19.045  25.661  1.00  0.00    -0.269 OA
BRANCH  28  31
ATOM     31  C   UNL A   1      42.046  21.280  26.354  1.00  0.00     0.039 A 
ATOM     32  C   UNL A   1      42.339  22.192  25.334  1.00  0.00     0.014 A 
ATOM     33  C   UNL A   1      42.484  21.533  27.656  1.00  0.00     0.014 A 
ATOM     34  C   UNL A   1      42.998  23.389  25.634  1.00  0.00     0.010 A 
ATOM     35  C   UNL A   1      43.079  22.756  27.966  1.00  0.00     0.010 A 
ATOM     36  C   UNL A   1      43.337  23.701  26.960  1.00  0.00    -0.014 A 
BRANCH  36  37
ATOM     37  C   UNL A   1      43.946  25.009  27.321  1.00  0.00     0.031 A 
ATOM     38  C   UNL A   1      43.096  26.110  27.899  1.00  0.00     0.074 A 
ATOM     39  C   UNL A   1      45.252  25.233  27.064  1.00  0.00     0.049 A 
ATOM     40  N   UNL A   1      43.428  27.342  28.192  1.00  0.00    -0.248 NA
ATOM     41  C   UNL A   1      41.683  25.791  28.162  1.00  0.00     0.031 C 
ATOM     42  C   UNL A   1      46.181  24.260  26.484  1.00  0.00     0.029 A 
ATOM     43  N   UNL A   1      46.024  26.354  27.251  1.00  0.00    -0.354 N 
ATOM     44  C   UNL A   1      42.268  27.947  28.661  1.00  0.00     0.074 A 
ATOM     45  C   UNL A   1      41.211  26.962  28.564  1.00  0.00     0.031 C 
ATOM     46  C   UNL A   1      47.399  24.816  26.387  1.00  0.00     0.029 A 
ATOM     47  C   UNL A   1      47.331  26.199  26.848  1.00  0.00     0.049 A 
ATOM     48  H   UNL A   1      45.675  27.189  27.637  1.00  0.00     0.167 HD
ATOM     49  C   UNL A   1      42.098  29.200  29.148  1.00  0.00     0.031 A 
ATOM     50  C   UNL A   1      48.357  27.074  26.837  1.00  0.00     0.031 A 
ATOM     51  C   UNL A   1      43.152  30.175  29.247  1.00  0.00     0.049 A 
ATOM     52  C   UNL A   1      48.133  28.474  27.343  1.00  0.00     0.074 A 
ATOM     53  C   UNL A   1      43.088  31.460  29.761  1.00  0.00     0.029 A 
ATOM     54  N   UNL A   1      44.458  29.980  28.824  1.00  0.00    -0.354 N 
ATOM     55  N   UNL A   1      47.039  29.009  27.829  1.00  0.00    -0.248 NA
ATOM     56  C   UNL A   1      49.284  29.386  27.305  1.00  0.00     0.031 C 
ATOM     57  C   UNL A   1      44.340  32.059  29.596  1.00  0.00     0.029 A 
ATOM     58  C   UNL A   1      45.203  31.126  29.043  1.00  0.00     0.049 A 
ATOM     59  H   UNL A   1      44.804  29.148  28.426  1.00  0.00     0.167 HD
ATOM     60  C   UNL A   1      47.381  30.308  28.190  1.00  0.00     0.074 A 
ATOM     61  C   UNL A   1      48.785  30.474  27.876  1.00  0.00     0.031 C 
ATOM     62  C   UNL A   1      46.602  31.276  28.734  1.00  0.00     0.031 A 
BRANCH  49  63
ATOM     63  C   UNL A   1      40.719  29.590  29.612  1.00  0.00    -0.014 A 
ATOM     64  C   UNL A   1      40.409  29.669  30.982  1.00  0.00     0.010 A 
ATOM     65  C   UNL A   1      39.732  29.933  28.669  1.00  0.00     0.010 A 
ATOM     66  C   UNL A   1      39.129  30.045  31.399  1.00  0.00     0.020 A 
ATOM     67  C   UNL A   1      38.460  30.340  29.082  1.00  0.00     0.020 A 
ATOM     68  C   UNL A   1      38.163  30.378  30.447  1.00  0.00     0.054 A 
BRANCH  68  69
ATOM     69  S   UNL A   1      36.521  30.890  31.020  1.00  0.00     0.124 S 
ATOM     70  O   UNL A   1      35.876  31.290  29.772  1.00  0.00    -0.237 OA
ATOM     71  O   UNL A   1      36.001  29.670  31.631  1.00  0.00    -0.237 OA
ATOM     72  O   UNL A   1      36.800  31.980  31.952  1.00  0.00    -0.744 OA
ENDBRANCH  68  69
ENDBRANCH  49  63
BRANCH  50  73
ATOM     73  C   UNL A   1      49.696  26.653  26.335  1.00  0.00    -0.014 A 
ATOM     74  C   UNL A   1      50.181  27.134  25.106  1.00  0.00     0.010 A 
ATOM     75  C   UNL A   1      50.490  25.760  27.078  1.00  0.00     0.010 A 
ATOM     76  C   UNL A   1      51.419  26.709  24.615  1.00  0.00     0.020 A 
ATOM     77  C   UNL A   1      51.743  25.358  26.606  1.00  0.00     0.020 A 
ATOM     78  C   UNL A   1      52.193  25.823  25.369  1.00  0.00     0.054 A 
BRANCH  78  79
ATOM     79  S   UNL A   1      53.810  25.309  24.728  1.00  0.00     0.124 S 
ATOM     80  O   UNL A   1      53.820  25.926  23.405  1.00  0.00    -0.237 OA
ATOM     81  O   UNL A   1      54.733  25.884  25.702  1.00  0.00    -0.237 OA
ATOM     82  O   UNL A   1      53.733  23.850  24.738  1.00  0.00    -0.744 OA
ENDBRANCH  78  79
ENDBRANCH  50  73
BRANCH  62  83
ATOM     83  C   UNL A   1      47.256  32.590  29.073  1.00  0.00    -0.014 A 
ATOM     84  C   UNL A   1      47.879  32.801  30.317  1.00  0.00     0.010 A 
ATOM     85  C   UNL A   1      47.305  33.607  28.102  1.00  0.00     0.010 A 
ATOM     86  C   UNL A   1      48.516  34.015  30.591  1.00  0.00     0.020 A 
ATOM     87  C   UNL A   1      47.967  34.810  28.360  1.00  0.00     0.020 A 
ATOM     88  C   UNL A   1      48.560  35.010  29.609  1.00  0.00     0.054 A 
BRANCH  88  89
ATOM     89  S   UNL A   1      49.443  36.552  29.970  1.00  0.00     0.124 S 
ATOM     90  O   UNL A   1      50.524  36.521  28.989  1.00  0.00    -0.237 OA
ATOM     91  O   UNL A   1      48.417  37.567  29.743  1.00  0.00    -0.237 OA
ATOM     92  O   UNL A   1      49.860  36.398  31.361  1.00  0.00    -0.744 OA
ENDBRANCH  88  89
ENDBRANCH  62  83
ENDBRANCH  36  37
ENDBRANCH  28  31
ENDBRANCH  26  27
ENDBRANCH  25  26
ENDBRANCH  24  25
ENDBRANCH   1  24
TORSDOF 22
ENDMDL
