MODEL 1
REMARK VINA RESULT:     -10.5      0.000      0.000
REMARK SMILES CCN(CC(C)(C)O)C(=O)[C@H]1CC=CC[C@H]1C(=O)NCCCCCCNC(=O)c1ccc(-c2c3nc(c(-c4ccc(S(=O)(=O)[O-])cc4)c4ccc([nH]4)c(-c4ccc(S(=O)(=O)[O-])cc4)c4nc(c(-c5ccc(S(=O)(=O)[O-])cc5)c5ccc2[nH]5)C=C4)C=C3)cc1
REMARK SMILES IDX 21 1 20 2 19 3 17 4 18 5 16 7 11 8 12 9 13 10 15 11 14 12
REMARK SMILES IDX 9 13 10 14 3 15 2 16 1 17 4 18 5 19 6 20 7 21 8 22 22 24
REMARK SMILES IDX 23 25 24 26 25 27 26 28 27 29 28 31 29 32 30 33 88 34 31 35
REMARK SMILES IDX 87 36 32 37 33 38 34 39 81 40 35 41 86 42 80 43 82 44 36 45
REMARK SMILES IDX 85 46 79 47 78 48 37 50 67 51 48 52 66 53 49 54 52 55 65 56
REMARK SMILES IDX 83 57 50 58 51 59 64 61 84 62 53 63 38 64 39 65 47 66 40 67
REMARK SMILES IDX 46 68 41 69 42 70 43 71 44 72 45 73 68 74 69 75 77 76 70 77
REMARK SMILES IDX 76 78 71 79 72 80 73 81 74 82 75 83 54 84 55 85 63 86 56 87
REMARK SMILES IDX 62 88 57 89 58 90 59 91 60 92 61 93
REMARK H PARENT 19 6 8 23 26 30 82 49 52 60
REMARK Flexibility Score: inf
ROOT
ATOM      1  C   UNL A   1      35.974  23.430  26.199  1.00  0.00     0.021 C 
ENDROOT
BRANCH   1   2
ATOM      2  C   UNL A   1      35.493  22.012  26.540  1.00  0.00     0.116 C 
BRANCH   2   3
ATOM      3  N   UNL A   1      34.285  22.051  27.343  1.00  0.00    -0.356 N 
ATOM      4  C   UNL A   1      33.004  22.423  27.148  1.00  0.00     0.224 C 
ATOM      5  O   UNL A   1      32.335  22.444  28.198  1.00  0.00    -0.275 OA
ATOM      6  H   UNL A   1      34.440  21.722  28.258  1.00  0.00     0.163 HD
BRANCH   4   7
ATOM      7  C   UNL A   1      32.239  22.634  25.829  1.00  0.00     0.095 C 
ATOM      8  C   UNL A   1      31.422  23.890  25.433  1.00  0.00     0.095 C 
ATOM      9  C   UNL A   1      30.696  23.763  24.081  1.00  0.00     0.041 C 
ATOM     10  C   UNL A   1      31.385  22.907  23.058  1.00  0.00    -0.030 C 
ATOM     11  C   UNL A   1      33.025  21.956  24.697  1.00  0.00     0.041 C 
ATOM     12  C   UNL A   1      32.423  22.108  23.332  1.00  0.00    -0.030 C 
BRANCH   8  13
ATOM     13  C   UNL A   1      31.874  25.285  25.872  1.00  0.00     0.226 C 
ATOM     14  O   UNL A   1      31.407  25.649  26.962  1.00  0.00    -0.275 OA
BRANCH  13  15
ATOM     15  N   UNL A   1      32.725  26.130  25.173  1.00  0.00    -0.340 N 
BRANCH  15  16
ATOM     16  C   UNL A   1      33.941  26.618  25.864  1.00  0.00     0.116 C 
ATOM     17  C   UNL A   1      33.827  27.950  26.602  1.00  0.00     0.027 C 
ENDBRANCH  15  16
BRANCH  15  18
ATOM     18  C   UNL A   1      32.617  26.586  23.771  1.00  0.00     0.154 C 
BRANCH  18  19
ATOM     19  C   UNL A   1      31.614  27.744  23.458  1.00  0.00     0.077 C 
ATOM     20  C   UNL A   1      32.288  28.929  22.783  1.00  0.00     0.043 C 
ATOM     21  C   UNL A   1      30.525  27.212  22.515  1.00  0.00     0.043 C 
BRANCH  19  22
ATOM     22  O   UNL A   1      30.975  28.220  24.644  1.00  0.00    -0.389 OA
ATOM     23  H   UNL A   1      30.787  29.167  24.552  1.00  0.00     0.211 HD
ENDBRANCH  19  22
ENDBRANCH  18  19
ENDBRANCH  15  18
ENDBRANCH  13  15
ENDBRANCH   8  13
ENDBRANCH   4   7
ENDBRANCH   2   3
ENDBRANCH   1   2
BRANCH   1  24
ATOM     24  C   UNL A   1      37.449  23.558  25.815  1.00  0.00     0.002 C 
BRANCH  24  25
ATOM     25  C   UNL A   1      38.234  22.245  25.704  1.00  0.00     0.002 C 
BRANCH  25  26
ATOM     26  C   UNL A   1      39.558  22.161  26.473  1.00  0.00     0.021 C 
BRANCH  26  27
ATOM     27  C   UNL A   1      40.121  23.480  27.005  1.00  0.00     0.116 C 
BRANCH  27  28
ATOM     28  N   UNL A   1      40.974  24.150  26.037  1.00  0.00    -0.352 N 
ATOM     29  C   UNL A   1      41.453  25.435  25.998  1.00  0.00     0.251 C 
ATOM     30  H   UNL A   1      41.257  23.585  25.283  1.00  0.00     0.163 HD
ATOM     31  O   UNL A   1      42.020  25.828  24.981  1.00  0.00    -0.269 OA
BRANCH  29  32
ATOM     32  C   UNL A   1      41.290  26.362  27.145  1.00  0.00     0.039 A 
ATOM     33  C   UNL A   1      40.279  26.094  28.075  1.00  0.00     0.014 A 
ATOM     34  C   UNL A   1      42.057  27.523  27.276  1.00  0.00     0.014 A 
ATOM     35  C   UNL A   1      40.070  26.957  29.156  1.00  0.00     0.010 A 
ATOM     36  C   UNL A   1      41.884  28.356  28.386  1.00  0.00     0.010 A 
ATOM     37  C   UNL A   1      40.885  28.085  29.334  1.00  0.00    -0.014 A 
BRANCH  37  38
ATOM     38  C   UNL A   1      40.698  28.988  30.501  1.00  0.00     0.031 A 
ATOM     39  C   UNL A   1      41.553  28.833  31.732  1.00  0.00     0.074 A 
ATOM     40  C   UNL A   1      39.729  29.924  30.474  1.00  0.00     0.049 A 
ATOM     41  N   UNL A   1      41.503  29.498  32.860  1.00  0.00    -0.248 NA
ATOM     42  C   UNL A   1      42.584  27.784  31.698  1.00  0.00     0.031 C 
ATOM     43  C   UNL A   1      38.813  30.161  29.357  1.00  0.00     0.029 A 
ATOM     44  N   UNL A   1      39.348  30.847  31.419  1.00  0.00    -0.354 N 
ATOM     45  C   UNL A   1      42.481  28.938  33.674  1.00  0.00     0.074 A 
ATOM     46  C   UNL A   1      43.084  27.856  32.924  1.00  0.00     0.031 C 
ATOM     47  C   UNL A   1      37.990  31.176  29.673  1.00  0.00     0.029 A 
ATOM     48  C   UNL A   1      38.295  31.637  31.023  1.00  0.00     0.049 A 
ATOM     49  H   UNL A   1      39.788  30.934  32.294  1.00  0.00     0.167 HD
ATOM     50  C   UNL A   1      42.855  29.298  34.927  1.00  0.00     0.031 A 
ATOM     51  C   UNL A   1      37.643  32.621  31.674  1.00  0.00     0.031 A 
ATOM     52  C   UNL A   1      42.267  30.381  35.670  1.00  0.00     0.049 A 
ATOM     53  C   UNL A   1      38.077  33.005  33.061  1.00  0.00     0.074 A 
ATOM     54  C   UNL A   1      42.612  30.850  36.927  1.00  0.00     0.029 A 
ATOM     55  N   UNL A   1      41.213  31.165  35.228  1.00  0.00    -0.354 N 
ATOM     56  N   UNL A   1      39.037  32.495  33.794  1.00  0.00    -0.248 NA
ATOM     57  C   UNL A   1      37.345  34.106  33.704  1.00  0.00     0.031 C 
ATOM     58  C   UNL A   1      41.740  31.893  37.259  1.00  0.00     0.029 A 
ATOM     59  C   UNL A   1      40.883  32.104  36.191  1.00  0.00     0.049 A 
ATOM     60  H   UNL A   1      40.765  31.070  34.357  1.00  0.00     0.167 HD
ATOM     61  C   UNL A   1      39.041  33.229  34.975  1.00  0.00     0.074 A 
ATOM     62  C   UNL A   1      37.996  34.225  34.854  1.00  0.00     0.031 C 
ATOM     63  C   UNL A   1      39.841  33.090  36.060  1.00  0.00     0.031 A 
BRANCH  50  64
ATOM     64  C   UNL A   1      43.953  28.500  35.578  1.00  0.00    -0.014 A 
ATOM     65  C   UNL A   1      45.303  28.864  35.424  1.00  0.00     0.010 A 
ATOM     66  C   UNL A   1      43.631  27.393  36.383  1.00  0.00     0.010 A 
ATOM     67  C   UNL A   1      46.314  28.109  36.026  1.00  0.00     0.020 A 
ATOM     68  C   UNL A   1      44.638  26.649  37.007  1.00  0.00     0.020 A 
ATOM     69  C   UNL A   1      45.974  27.001  36.807  1.00  0.00     0.054 A 
BRANCH  69  70
ATOM     70  S   UNL A   1      47.302  26.043  37.587  1.00  0.00     0.124 S 
ATOM     71  O   UNL A   1      46.711  25.703  38.878  1.00  0.00    -0.237 OA
ATOM     72  O   UNL A   1      47.480  24.925  36.663  1.00  0.00    -0.237 OA
ATOM     73  O   UNL A   1      48.420  26.982  37.642  1.00  0.00    -0.744 OA
ENDBRANCH  69  70
ENDBRANCH  50  64
BRANCH  51  74
ATOM     74  C   UNL A   1      36.515  33.325  31.007  1.00  0.00    -0.014 A 
ATOM     75  C   UNL A   1      35.259  33.412  31.631  1.00  0.00     0.010 A 
ATOM     76  C   UNL A   1      36.699  33.929  29.749  1.00  0.00     0.010 A 
ATOM     77  C   UNL A   1      34.202  34.080  31.006  1.00  0.00     0.020 A 
ATOM     78  C   UNL A   1      35.651  34.616  29.131  1.00  0.00     0.020 A 
ATOM     79  C   UNL A   1      34.406  34.680  29.760  1.00  0.00     0.054 A 
BRANCH  79  80
ATOM     80  S   UNL A   1      33.041  35.594  28.991  1.00  0.00     0.124 S 
ATOM     81  O   UNL A   1      32.280  36.039  30.154  1.00  0.00    -0.237 OA
ATOM     82  O   UNL A   1      33.738  36.644  28.251  1.00  0.00    -0.237 OA
ATOM     83  O   UNL A   1      32.385  34.589  28.158  1.00  0.00    -0.744 OA
ENDBRANCH  79  80
ENDBRANCH  51  74
BRANCH  63  84
ATOM     84  C   UNL A   1      39.642  34.059  37.194  1.00  0.00    -0.014 A 
ATOM     85  C   UNL A   1      38.951  33.683  38.360  1.00  0.00     0.010 A 
ATOM     86  C   UNL A   1      40.195  35.349  37.110  1.00  0.00     0.010 A 
ATOM     87  C   UNL A   1      38.790  34.592  39.410  1.00  0.00     0.020 A 
ATOM     88  C   UNL A   1      40.057  36.253  38.167  1.00  0.00     0.020 A 
ATOM     89  C   UNL A   1      39.342  35.872  39.305  1.00  0.00     0.054 A 
BRANCH  89  90
ATOM     90  S   UNL A   1      39.156  37.022  40.696  1.00  0.00     0.124 S 
ATOM     91  O   UNL A   1      38.416  38.122  40.084  1.00  0.00    -0.237 OA
ATOM     92  O   UNL A   1      38.413  36.231  41.673  1.00  0.00    -0.237 OA
ATOM     93  O   UNL A   1      40.534  37.332  41.074  1.00  0.00    -0.744 OA
ENDBRANCH  89  90
ENDBRANCH  63  84
ENDBRANCH  37  38
ENDBRANCH  29  32
ENDBRANCH  27  28
ENDBRANCH  26  27
ENDBRANCH  25  26
ENDBRANCH  24  25
ENDBRANCH   1  24
TORSDOF 22
ENDMDL
MODEL 2
REMARK VINA RESULT:     -10.4      1.585      3.370
REMARK SMILES CCN(CC(C)(C)O)C(=O)[C@H]1CC=CC[C@H]1C(=O)NCCCCCCNC(=O)c1ccc(-c2c3nc(c(-c4ccc(S(=O)(=O)[O-])cc4)c4ccc([nH]4)c(-c4ccc(S(=O)(=O)[O-])cc4)c4nc(c(-c5ccc(S(=O)(=O)[O-])cc5)c5ccc2[nH]5)C=C4)C=C3)cc1
REMARK SMILES IDX 21 1 20 2 19 3 17 4 18 5 16 7 11 8 12 9 13 10 15 11 14 12
REMARK SMILES IDX 9 13 10 14 3 15 2 16 1 17 4 18 5 19 6 20 7 21 8 22 22 24
REMARK SMILES IDX 23 25 24 26 25 27 26 28 27 29 28 31 29 32 30 33 88 34 31 35
REMARK SMILES IDX 87 36 32 37 33 38 34 39 81 40 35 41 86 42 80 43 82 44 36 45
REMARK SMILES IDX 85 46 79 47 78 48 37 50 67 51 48 52 66 53 49 54 52 55 65 56
REMARK SMILES IDX 83 57 50 58 51 59 64 61 84 62 53 63 38 64 39 65 47 66 40 67
REMARK SMILES IDX 46 68 41 69 42 70 43 71 44 72 45 73 68 74 69 75 77 76 70 77
REMARK SMILES IDX 76 78 71 79 72 80 73 81 74 82 75 83 54 84 55 85 63 86 56 87
REMARK SMILES IDX 62 88 57 89 58 90 59 91 60 92 61 93
REMARK H PARENT 19 6 8 23 26 30 82 49 52 60
REMARK Flexibility Score: inf
ROOT
ATOM      1  C   UNL A   1      37.167  23.699  25.996  1.00  0.00     0.021 C 
ENDROOT
BRANCH   1   2
ATOM      2  C   UNL A   1      36.384  22.385  25.863  1.00  0.00     0.116 C 
BRANCH   2   3
ATOM      3  N   UNL A   1      35.265  22.350  26.787  1.00  0.00    -0.356 N 
ATOM      4  C   UNL A   1      33.966  22.706  26.748  1.00  0.00     0.224 C 
ATOM      5  O   UNL A   1      33.409  22.650  27.861  1.00  0.00    -0.275 OA
ATOM      6  H   UNL A   1      35.520  21.971  27.659  1.00  0.00     0.163 HD
BRANCH   4   7
ATOM      7  C   UNL A   1      33.064  22.980  25.530  1.00  0.00     0.095 C 
ATOM      8  C   UNL A   1      32.708  21.972  24.408  1.00  0.00     0.095 C 
ATOM      9  C   UNL A   1      31.853  22.572  23.277  1.00  0.00     0.041 C 
ATOM     10  C   UNL A   1      30.913  23.667  23.691  1.00  0.00    -0.030 C 
ATOM     11  C   UNL A   1      31.942  23.935  25.961  1.00  0.00     0.041 C 
ATOM     12  C   UNL A   1      30.951  24.269  24.886  1.00  0.00    -0.030 C 
BRANCH   8  13
ATOM     13  C   UNL A   1      32.531  20.484  24.724  1.00  0.00     0.226 C 
ATOM     14  O   UNL A   1      32.013  20.259  25.828  1.00  0.00    -0.275 OA
BRANCH  13  15
ATOM     15  N   UNL A   1      32.892  19.422  23.906  1.00  0.00    -0.340 N 
BRANCH  15  16
ATOM     16  C   UNL A   1      32.437  19.446  22.496  1.00  0.00     0.116 C 
ATOM     17  C   UNL A   1      32.212  18.094  21.822  1.00  0.00     0.027 C 
ENDBRANCH  15  16
BRANCH  15  18
ATOM     18  C   UNL A   1      33.742  18.258  24.235  1.00  0.00     0.154 C 
BRANCH  18  19
ATOM     19  C   UNL A   1      33.196  17.232  25.281  1.00  0.00     0.077 C 
ATOM     20  C   UNL A   1      31.811  16.716  24.919  1.00  0.00     0.043 C 
ATOM     21  C   UNL A   1      34.153  16.033  25.342  1.00  0.00     0.043 C 
BRANCH  19  22
ATOM     22  O   UNL A   1      33.123  17.804  26.589  1.00  0.00    -0.389 OA
ATOM     23  H   UNL A   1      32.825  17.130  27.220  1.00  0.00     0.211 HD
ENDBRANCH  19  22
ENDBRANCH  18  19
ENDBRANCH  15  18
ENDBRANCH  13  15
ENDBRANCH   8  13
ENDBRANCH   4   7
ENDBRANCH   2   3
ENDBRANCH   1   2
BRANCH   1  24
ATOM     24  C   UNL A   1      38.680  23.557  26.180  1.00  0.00     0.002 C 
BRANCH  24  25
ATOM     25  C   UNL A   1      39.206  22.128  26.357  1.00  0.00     0.002 C 
BRANCH  25  26
ATOM     26  C   UNL A   1      40.722  21.961  26.514  1.00  0.00     0.021 C 
BRANCH  26  27
ATOM     27  C   UNL A   1      41.490  23.178  27.033  1.00  0.00     0.116 C 
BRANCH  27  28
ATOM     28  N   UNL A   1      41.999  24.014  25.959  1.00  0.00    -0.352 N 
ATOM     29  C   UNL A   1      42.125  25.377  25.863  1.00  0.00     0.251 C 
ATOM     30  H   UNL A   1      42.307  23.517  25.166  1.00  0.00     0.163 HD
ATOM     31  O   UNL A   1      42.424  25.871  24.778  1.00  0.00    -0.269 OA
BRANCH  29  32
ATOM     32  C   UNL A   1      41.896  26.264  27.029  1.00  0.00     0.039 A 
ATOM     33  C   UNL A   1      40.808  25.991  27.866  1.00  0.00     0.014 A 
ATOM     34  C   UNL A   1      42.679  27.396  27.265  1.00  0.00     0.014 A 
ATOM     35  C   UNL A   1      40.536  26.818  28.961  1.00  0.00     0.010 A 
ATOM     36  C   UNL A   1      42.441  28.192  28.391  1.00  0.00     0.010 A 
ATOM     37  C   UNL A   1      41.364  27.915  29.246  1.00  0.00    -0.014 A 
BRANCH  37  38
ATOM     38  C   UNL A   1      41.109  28.778  30.430  1.00  0.00     0.031 A 
ATOM     39  C   UNL A   1      41.940  28.630  31.678  1.00  0.00     0.074 A 
ATOM     40  C   UNL A   1      40.098  29.670  30.403  1.00  0.00     0.049 A 
ATOM     41  N   UNL A   1      41.833  29.263  32.820  1.00  0.00    -0.248 NA
ATOM     42  C   UNL A   1      43.019  27.631  31.643  1.00  0.00     0.031 C 
ATOM     43  C   UNL A   1      39.199  29.894  29.269  1.00  0.00     0.029 A 
ATOM     44  N   UNL A   1      39.654  30.550  31.359  1.00  0.00    -0.354 N 
ATOM     45  C   UNL A   1      42.817  28.727  33.644  1.00  0.00     0.074 A 
ATOM     46  C   UNL A   1      43.485  27.693  32.883  1.00  0.00     0.031 C 
ATOM     47  C   UNL A   1      38.324  30.862  29.589  1.00  0.00     0.029 A 
ATOM     48  C   UNL A   1      38.575  31.302  30.957  1.00  0.00     0.049 A 
ATOM     49  H   UNL A   1      40.069  30.635  32.247  1.00  0.00     0.167 HD
ATOM     50  C   UNL A   1      43.144  29.072  34.914  1.00  0.00     0.031 A 
ATOM     51  C   UNL A   1      37.863  32.239  31.616  1.00  0.00     0.031 A 
ATOM     52  C   UNL A   1      42.490  30.108  35.669  1.00  0.00     0.049 A 
ATOM     53  C   UNL A   1      38.247  32.606  33.022  1.00  0.00     0.074 A 
ATOM     54  C   UNL A   1      42.783  30.559  36.945  1.00  0.00     0.029 A 
ATOM     55  N   UNL A   1      41.412  30.855  35.220  1.00  0.00    -0.354 N 
ATOM     56  N   UNL A   1      39.211  32.121  33.766  1.00  0.00    -0.248 NA
ATOM     57  C   UNL A   1      37.451  33.656  33.674  1.00  0.00     0.031 C 
ATOM     58  C   UNL A   1      41.857  31.554  37.281  1.00  0.00     0.029 A 
ATOM     59  C   UNL A   1      41.017  31.753  36.198  1.00  0.00     0.049 A 
ATOM     60  H   UNL A   1      40.989  30.761  34.336  1.00  0.00     0.167 HD
ATOM     61  C   UNL A   1      39.154  32.824  34.964  1.00  0.00     0.074 A 
ATOM     62  C   UNL A   1      38.068  33.775  34.842  1.00  0.00     0.031 C 
ATOM     63  C   UNL A   1      39.935  32.694  36.065  1.00  0.00     0.031 A 
BRANCH  50  64
ATOM     64  C   UNL A   1      44.262  28.308  35.573  1.00  0.00    -0.014 A 
ATOM     65  C   UNL A   1      44.006  27.133  36.303  1.00  0.00     0.010 A 
ATOM     66  C   UNL A   1      45.589  28.750  35.431  1.00  0.00     0.010 A 
ATOM     67  C   UNL A   1      45.052  26.440  36.919  1.00  0.00     0.020 A 
ATOM     68  C   UNL A   1      46.642  28.045  36.025  1.00  0.00     0.020 A 
ATOM     69  C   UNL A   1      46.363  26.906  36.781  1.00  0.00     0.054 A 
BRANCH  69  70
ATOM     70  S   UNL A   1      47.705  25.982  37.580  1.00  0.00     0.124 S 
ATOM     71  O   UNL A   1      47.213  24.609  37.501  1.00  0.00    -0.237 OA
ATOM     72  O   UNL A   1      48.856  26.287  36.735  1.00  0.00    -0.237 OA
ATOM     73  O   UNL A   1      47.760  26.547  38.927  1.00  0.00    -0.744 OA
ENDBRANCH  69  70
ENDBRANCH  50  64
BRANCH  51  74
ATOM     74  C   UNL A   1      36.721  32.908  30.938  1.00  0.00    -0.014 A 
ATOM     75  C   UNL A   1      35.399  32.613  31.312  1.00  0.00     0.010 A 
ATOM     76  C   UNL A   1      36.953  33.859  29.927  1.00  0.00     0.010 A 
ATOM     77  C   UNL A   1      34.326  33.248  30.679  1.00  0.00     0.020 A 
ATOM     78  C   UNL A   1      35.884  34.512  29.308  1.00  0.00     0.020 A 
ATOM     79  C   UNL A   1      34.576  34.195  29.681  1.00  0.00     0.054 A 
BRANCH  79  80
ATOM     80  S   UNL A   1      33.174  35.054  28.914  1.00  0.00     0.124 S 
ATOM     81  O   UNL A   1      32.343  35.372  30.069  1.00  0.00    -0.237 OA
ATOM     82  O   UNL A   1      33.817  36.193  28.263  1.00  0.00    -0.237 OA
ATOM     83  O   UNL A   1      32.624  34.055  27.999  1.00  0.00    -0.744 OA
ENDBRANCH  79  80
ENDBRANCH  51  74
BRANCH  63  84
ATOM     84  C   UNL A   1      39.664  33.624  37.217  1.00  0.00    -0.014 A 
ATOM     85  C   UNL A   1      38.818  33.245  38.275  1.00  0.00     0.010 A 
ATOM     86  C   UNL A   1      40.304  34.875  37.264  1.00  0.00     0.010 A 
ATOM     87  C   UNL A   1      38.593  34.116  39.345  1.00  0.00     0.020 A 
ATOM     88  C   UNL A   1      40.100  35.739  38.343  1.00  0.00     0.020 A 
ATOM     89  C   UNL A   1      39.233  35.359  39.370  1.00  0.00     0.054 A 
BRANCH  89  90
ATOM     90  S   UNL A   1      38.958  36.457  40.788  1.00  0.00     0.124 S 
ATOM     91  O   UNL A   1      37.939  35.731  41.542  1.00  0.00    -0.237 OA
ATOM     92  O   UNL A   1      40.278  36.517  41.412  1.00  0.00    -0.237 OA
ATOM     93  O   UNL A   1      38.509  37.706  40.176  1.00  0.00    -0.744 OA
ENDBRANCH  89  90
ENDBRANCH  63  84
ENDBRANCH  37  38
ENDBRANCH  29  32
ENDBRANCH  27  28
ENDBRANCH  26  27
ENDBRANCH  25  26
ENDBRANCH  24  25
ENDBRANCH   1  24
TORSDOF 22
ENDMDL
MODEL 3
REMARK VINA RESULT:     -10.1      1.469      8.265
REMARK SMILES CCN(CC(C)(C)O)C(=O)[C@H]1CC=CC[C@H]1C(=O)NCCCCCCNC(=O)c1ccc(-c2c3nc(c(-c4ccc(S(=O)(=O)[O-])cc4)c4ccc([nH]4)c(-c4ccc(S(=O)(=O)[O-])cc4)c4nc(c(-c5ccc(S(=O)(=O)[O-])cc5)c5ccc2[nH]5)C=C4)C=C3)cc1
REMARK SMILES IDX 21 1 20 2 19 3 17 4 18 5 16 7 11 8 12 9 13 10 15 11 14 12
REMARK SMILES IDX 9 13 10 14 3 15 2 16 1 17 4 18 5 19 6 20 7 21 8 22 22 24
REMARK SMILES IDX 23 25 24 26 25 27 26 28 27 29 28 31 29 32 30 33 88 34 31 35
REMARK SMILES IDX 87 36 32 37 33 38 34 39 81 40 35 41 86 42 80 43 82 44 36 45
REMARK SMILES IDX 85 46 79 47 78 48 37 50 67 51 48 52 66 53 49 54 52 55 65 56
REMARK SMILES IDX 83 57 50 58 51 59 64 61 84 62 53 63 38 64 39 65 47 66 40 67
REMARK SMILES IDX 46 68 41 69 42 70 43 71 44 72 45 73 68 74 69 75 77 76 70 77
REMARK SMILES IDX 76 78 71 79 72 80 73 81 74 82 75 83 54 84 55 85 63 86 56 87
REMARK SMILES IDX 62 88 57 89 58 90 59 91 60 92 61 93
REMARK H PARENT 19 6 8 23 26 30 82 49 52 60
REMARK Flexibility Score: inf
ROOT
ATOM      1  C   UNL A   1      38.854  23.602  26.313  1.00  0.00     0.021 C 
ENDROOT
BRANCH   1   2
ATOM      2  C   UNL A   1      37.352  23.908  26.215  1.00  0.00     0.116 C 
BRANCH   2   3
ATOM      3  N   UNL A   1      36.873  23.736  24.856  1.00  0.00    -0.356 N 
ATOM      4  C   UNL A   1      35.806  23.157  24.271  1.00  0.00     0.224 C 
ATOM      5  O   UNL A   1      35.896  23.101  23.031  1.00  0.00    -0.275 OA
ATOM      6  H   UNL A   1      37.480  24.144  24.197  1.00  0.00     0.163 HD
BRANCH   4   7
ATOM      7  C   UNL A   1      34.458  22.742  24.892  1.00  0.00     0.095 C 
ATOM      8  C   UNL A   1      33.450  23.679  25.604  1.00  0.00     0.095 C 
ATOM      9  C   UNL A   1      32.231  22.949  26.198  1.00  0.00     0.041 C 
ATOM     10  C   UNL A   1      31.789  21.723  25.454  1.00  0.00    -0.030 C 
ATOM     11  C   UNL A   1      33.850  21.625  24.031  1.00  0.00     0.041 C 
ATOM     12  C   UNL A   1      32.507  21.139  24.488  1.00  0.00    -0.030 C 
BRANCH   8  13
ATOM     13  C   UNL A   1      33.257  25.122  25.130  1.00  0.00     0.226 C 
ATOM     14  O   UNL A   1      34.214  25.870  25.384  1.00  0.00    -0.275 OA
BRANCH  13  15
ATOM     15  N   UNL A   1      32.144  25.629  24.473  1.00  0.00    -0.340 N 
BRANCH  15  16
ATOM     16  C   UNL A   1      31.177  26.429  25.261  1.00  0.00     0.116 C 
ATOM     17  C   UNL A   1      29.817  25.790  25.535  1.00  0.00     0.027 C 
ENDBRANCH  15  16
BRANCH  15  18
ATOM     18  C   UNL A   1      31.801  25.529  23.039  1.00  0.00     0.154 C 
BRANCH  18  19
ATOM     19  C   UNL A   1      32.899  25.930  21.999  1.00  0.00     0.077 C 
ATOM     20  C   UNL A   1      32.417  25.790  20.564  1.00  0.00     0.043 C 
ATOM     21  C   UNL A   1      33.287  27.398  22.233  1.00  0.00     0.043 C 
BRANCH  19  22
ATOM     22  O   UNL A   1      34.077  25.135  22.146  1.00  0.00    -0.389 OA
ATOM     23  H   UNL A   1      33.883  24.219  21.893  1.00  0.00     0.211 HD
ENDBRANCH  19  22
ENDBRANCH  18  19
ENDBRANCH  15  18
ENDBRANCH  13  15
ENDBRANCH   8  13
ENDBRANCH   4   7
ENDBRANCH   2   3
ENDBRANCH   1   2
BRANCH   1  24
ATOM     24  C   UNL A   1      39.231  22.120  26.341  1.00  0.00     0.002 C 
BRANCH  24  25
ATOM     25  C   UNL A   1      40.670  21.782  25.935  1.00  0.00     0.002 C 
BRANCH  25  26
ATOM     26  C   UNL A   1      41.732  21.829  27.040  1.00  0.00     0.021 C 
BRANCH  26  27
ATOM     27  C   UNL A   1      42.250  23.215  27.427  1.00  0.00     0.116 C 
BRANCH  27  28
ATOM     28  N   UNL A   1      42.376  24.102  26.283  1.00  0.00    -0.352 N 
ATOM     29  C   UNL A   1      42.181  25.455  26.167  1.00  0.00     0.251 C 
ATOM     30  H   UNL A   1      42.649  23.654  25.449  1.00  0.00     0.163 HD
ATOM     31  O   UNL A   1      42.180  25.961  25.047  1.00  0.00    -0.269 OA
BRANCH  29  32
ATOM     32  C   UNL A   1      41.959  26.314  27.355  1.00  0.00     0.039 A 
ATOM     33  C   UNL A   1      40.861  26.038  28.178  1.00  0.00     0.014 A 
ATOM     34  C   UNL A   1      42.761  27.426  27.627  1.00  0.00     0.014 A 
ATOM     35  C   UNL A   1      40.596  26.840  29.293  1.00  0.00     0.010 A 
ATOM     36  C   UNL A   1      42.529  28.194  28.772  1.00  0.00     0.010 A 
ATOM     37  C   UNL A   1      41.441  27.913  29.613  1.00  0.00    -0.014 A 
BRANCH  37  38
ATOM     38  C   UNL A   1      41.193  28.748  30.819  1.00  0.00     0.031 A 
ATOM     39  C   UNL A   1      40.067  29.750  30.837  1.00  0.00     0.074 A 
ATOM     40  C   UNL A   1      42.007  28.638  31.887  1.00  0.00     0.049 A 
ATOM     41  N   UNL A   1      39.729  30.593  31.781  1.00  0.00    -0.248 NA
ATOM     42  C   UNL A   1      39.224  29.825  29.634  1.00  0.00     0.031 C 
ATOM     43  C   UNL A   1      43.150  27.730  31.990  1.00  0.00     0.029 A 
ATOM     44  N   UNL A   1      42.001  29.303  33.090  1.00  0.00    -0.354 N 
ATOM     45  C   UNL A   1      38.648  31.310  31.280  1.00  0.00     0.074 A 
ATOM     46  C   UNL A   1      38.410  30.827  29.937  1.00  0.00     0.031 C 
ATOM     47  C   UNL A   1      43.723  27.880  33.196  1.00  0.00     0.029 A 
ATOM     48  C   UNL A   1      43.012  28.916  33.937  1.00  0.00     0.049 A 
ATOM     49  H   UNL A   1      41.336  29.989  33.323  1.00  0.00     0.167 HD
ATOM     50  C   UNL A   1      37.911  32.273  31.886  1.00  0.00     0.031 A 
ATOM     51  C   UNL A   1      43.337  29.349  35.172  1.00  0.00     0.031 A 
ATOM     52  C   UNL A   1      38.137  32.746  33.226  1.00  0.00     0.049 A 
ATOM     53  C   UNL A   1      42.503  30.416  35.825  1.00  0.00     0.074 A 
ATOM     54  C   UNL A   1      37.412  33.685  33.942  1.00  0.00     0.029 A 
ATOM     55  N   UNL A   1      39.162  32.318  34.056  1.00  0.00    -0.354 N 
ATOM     56  N   UNL A   1      41.455  31.046  35.352  1.00  0.00    -0.248 NA
ATOM     57  C   UNL A   1      42.891  30.821  37.184  1.00  0.00     0.031 C 
ATOM     58  C   UNL A   1      38.023  33.852  35.190  1.00  0.00     0.029 A 
ATOM     59  C   UNL A   1      39.100  32.984  35.269  1.00  0.00     0.049 A 
ATOM     60  H   UNL A   1      39.835  31.641  33.818  1.00  0.00     0.167 HD
ATOM     61  C   UNL A   1      41.043  31.905  36.365  1.00  0.00     0.074 A 
ATOM     62  C   UNL A   1      41.946  31.706  37.479  1.00  0.00     0.031 C 
ATOM     63  C   UNL A   1      40.006  32.778  36.370  1.00  0.00     0.031 A 
BRANCH  50  64
ATOM     64  C   UNL A   1      36.789  32.889  31.093  1.00  0.00    -0.014 A 
ATOM     65  C   UNL A   1      35.448  32.552  31.352  1.00  0.00     0.010 A 
ATOM     66  C   UNL A   1      37.076  33.842  30.099  1.00  0.00     0.010 A 
ATOM     67  C   UNL A   1      34.417  33.123  30.601  1.00  0.00     0.020 A 
ATOM     68  C   UNL A   1      36.045  34.434  29.362  1.00  0.00     0.020 A 
ATOM     69  C   UNL A   1      34.724  34.055  29.605  1.00  0.00     0.054 A 
BRANCH  69  70
ATOM     70  S   UNL A   1      33.367  34.790  28.651  1.00  0.00     0.124 S 
ATOM     71  O   UNL A   1      33.028  33.710  27.729  1.00  0.00    -0.237 OA
ATOM     72  O   UNL A   1      32.367  35.076  29.677  1.00  0.00    -0.237 OA
ATOM     73  O   UNL A   1      33.975  35.967  28.034  1.00  0.00    -0.744 OA
ENDBRANCH  69  70
ENDBRANCH  50  64
BRANCH  51  74
ATOM     74  C   UNL A   1      44.503  28.754  35.879  1.00  0.00    -0.014 A 
ATOM     75  C   UNL A   1      45.787  29.303  35.723  1.00  0.00     0.010 A 
ATOM     76  C   UNL A   1      44.329  27.646  36.728  1.00  0.00     0.010 A 
ATOM     77  C   UNL A   1      46.881  28.748  36.393  1.00  0.00     0.020 A 
ATOM     78  C   UNL A   1      45.417  27.101  37.417  1.00  0.00     0.020 A 
ATOM     79  C   UNL A   1      46.688  27.651  37.238  1.00  0.00     0.054 A 
BRANCH  79  80
ATOM     80  S   UNL A   1      48.108  26.981  38.147  1.00  0.00     0.124 S 
ATOM     81  O   UNL A   1      48.467  28.097  39.015  1.00  0.00    -0.237 OA
ATOM     82  O   UNL A   1      47.535  25.816  38.818  1.00  0.00    -0.237 OA
ATOM     83  O   UNL A   1      49.070  26.670  37.092  1.00  0.00    -0.744 OA
ENDBRANCH  79  80
ENDBRANCH  51  74
BRANCH  63  84
ATOM     84  C   UNL A   1      39.770  33.564  37.631  1.00  0.00    -0.014 A 
ATOM     85  C   UNL A   1      39.250  32.951  38.785  1.00  0.00     0.010 A 
ATOM     86  C   UNL A   1      40.119  34.926  37.675  1.00  0.00     0.010 A 
ATOM     87  C   UNL A   1      39.055  33.695  39.953  1.00  0.00     0.020 A 
ATOM     88  C   UNL A   1      39.947  35.667  38.847  1.00  0.00     0.020 A 
ATOM     89  C   UNL A   1      39.402  35.049  39.975  1.00  0.00     0.054 A 
BRANCH  89  90
ATOM     90  S   UNL A   1      39.178  35.985  41.513  1.00  0.00     0.124 S 
ATOM     91  O   UNL A   1      39.329  37.363  41.055  1.00  0.00    -0.237 OA
ATOM     92  O   UNL A   1      37.830  35.606  41.929  1.00  0.00    -0.237 OA
ATOM     93  O   UNL A   1      40.250  35.493  42.376  1.00  0.00    -0.744 OA
ENDBRANCH  89  90
ENDBRANCH  63  84
ENDBRANCH  37  38
ENDBRANCH  29  32
ENDBRANCH  27  28
ENDBRANCH  26  27
ENDBRANCH  25  26
ENDBRANCH  24  25
ENDBRANCH   1  24
TORSDOF 22
ENDMDL
