MODEL 1
REMARK VINA RESULT:     -11.0      0.000      0.000
REMARK SMILES C[C@@H](C(=O)NCCCCCCNC(=O)c1ccc(-c2c3nc(c(-c4ccc(S(=O)(=O)[O-])cc4)c4ccc([nH]4)c(-c4ccc(S(=O)(=O)[O-])cc4)c4nc(c(-c5ccc(S(=O)(=O)[O-])cc5)c5ccc2[nH]5)C=C4)C=C3)cc1)N1C(=O)c2nccnc2C1=O
REMARK SMILES IDX 9 1 8 2 7 3 6 4 5 5 3 6 4 7 2 9 1 10 75 11 76 12 84 13 77 14
REMARK SMILES IDX 78 15 83 16 85 17 79 18 82 19 80 20 81 21 10 22 11 23 12 24
REMARK SMILES IDX 13 25 14 27 15 28 16 29 74 30 17 31 73 32 18 33 19 34 20 35
REMARK SMILES IDX 67 36 21 37 72 38 66 39 68 40 22 41 71 42 65 43 64 44 23 46
REMARK SMILES IDX 53 47 34 48 52 49 35 50 38 51 51 52 69 53 36 54 37 55 50 57
REMARK SMILES IDX 70 58 39 59 24 60 25 61 33 62 26 63 32 64 27 65 28 66 29 67
REMARK SMILES IDX 30 68 31 69 54 70 55 71 63 72 56 73 62 74 57 75 58 76 59 77
REMARK SMILES IDX 60 78 61 79 40 80 41 81 49 82 42 83 48 84 43 85 44 86 45 87
REMARK SMILES IDX 46 88 47 89
REMARK H PARENT 5 8 12 26 68 45 38 56
REMARK Flexibility Score: inf
ROOT
ATOM      1  C   UNL A   1      31.411  27.450  26.468  1.00  0.00     0.002 C 
ENDROOT
BRANCH   1   2
ATOM      2  C   UNL A   1      31.635  25.945  26.291  1.00  0.00     0.002 C 
BRANCH   2   3
ATOM      3  C   UNL A   1      31.967  25.498  24.860  1.00  0.00     0.021 C 
BRANCH   3   4
ATOM      4  C   UNL A   1      33.294  26.044  24.331  1.00  0.00     0.116 C 
BRANCH   4   5
ATOM      5  N   UNL A   1      33.911  25.104  23.412  1.00  0.00    -0.354 N 
ATOM      6  C   UNL A   1      34.511  23.903  23.660  1.00  0.00     0.243 C 
ATOM      7  O   UNL A   1      34.982  23.288  22.699  1.00  0.00    -0.273 OA
ATOM      8  H   UNL A   1      33.895  25.375  22.465  1.00  0.00     0.163 HD
BRANCH   6   9
ATOM      9  C   UNL A   1      34.561  23.349  25.098  1.00  0.00     0.180 C 
ATOM     10  C   UNL A   1      35.876  23.653  25.812  1.00  0.00     0.042 C 
BRANCH   9  11
ATOM     11  N   UNL A   1      34.269  21.915  25.039  1.00  0.00    -0.259 N 
ATOM     12  C   UNL A   1      35.175  20.922  24.756  1.00  0.00     0.282 C 
ATOM     13  C   UNL A   1      32.993  21.419  25.122  1.00  0.00     0.282 C 
ATOM     14  O   UNL A   1      36.374  21.009  24.572  1.00  0.00    -0.267 OA
ATOM     15  C   UNL A   1      34.419  19.671  24.741  1.00  0.00     0.160 A 
ATOM     16  C   UNL A   1      33.101  19.970  24.959  1.00  0.00     0.160 A 
ATOM     17  O   UNL A   1      31.959  22.039  25.305  1.00  0.00    -0.267 OA
ATOM     18  N   UNL A   1      34.905  18.418  24.626  1.00  0.00    -0.247 NA
ATOM     19  N   UNL A   1      32.125  19.048  25.083  1.00  0.00    -0.247 NA
ATOM     20  C   UNL A   1      33.939  17.470  24.743  1.00  0.00     0.132 A 
ATOM     21  C   UNL A   1      32.588  17.776  24.963  1.00  0.00     0.132 A 
ENDBRANCH   9  11
ENDBRANCH   6   9
ENDBRANCH   4   5
ENDBRANCH   3   4
ENDBRANCH   2   3
ENDBRANCH   1   2
BRANCH   1  22
ATOM     22  C   UNL A   1      32.169  28.087  27.636  1.00  0.00     0.021 C 
BRANCH  22  23
ATOM     23  C   UNL A   1      33.495  28.741  27.257  1.00  0.00     0.116 C 
BRANCH  23  24
ATOM     24  N   UNL A   1      33.547  30.144  27.648  1.00  0.00    -0.352 N 
ATOM     25  C   UNL A   1      34.542  30.833  28.298  1.00  0.00     0.251 C 
ATOM     26  H   UNL A   1      32.754  30.675  27.411  1.00  0.00     0.163 HD
ATOM     27  O   UNL A   1      34.329  31.967  28.718  1.00  0.00    -0.269 OA
BRANCH  25  28
ATOM     28  C   UNL A   1      35.859  30.197  28.515  1.00  0.00     0.039 A 
ATOM     29  C   UNL A   1      36.780  30.172  27.464  1.00  0.00     0.014 A 
ATOM     30  C   UNL A   1      36.193  29.644  29.754  1.00  0.00     0.014 A 
ATOM     31  C   UNL A   1      38.067  29.676  27.683  1.00  0.00     0.010 A 
ATOM     32  C   UNL A   1      37.497  29.211  29.990  1.00  0.00     0.010 A 
ATOM     33  C   UNL A   1      38.453  29.242  28.963  1.00  0.00    -0.014 A 
BRANCH  33  34
ATOM     34  C   UNL A   1      39.867  28.890  29.265  1.00  0.00     0.031 A 
ATOM     35  C   UNL A   1      40.815  29.924  29.807  1.00  0.00     0.074 A 
ATOM     36  C   UNL A   1      40.314  27.654  28.959  1.00  0.00     0.049 A 
ATOM     37  N   UNL A   1      42.098  29.816  30.040  1.00  0.00    -0.248 NA
ATOM     38  C   UNL A   1      40.261  31.254  30.107  1.00  0.00     0.031 C 
ATOM     39  C   UNL A   1      39.501  26.575  28.389  1.00  0.00     0.029 A 
ATOM     40  N   UNL A   1      41.567  27.099  29.065  1.00  0.00    -0.354 N 
ATOM     41  C   UNL A   1      42.509  31.066  30.490  1.00  0.00     0.074 A 
ATOM     42  C   UNL A   1      41.345  31.924  30.475  1.00  0.00     0.031 C 
ATOM     43  C   UNL A   1      40.271  25.491  28.206  1.00  0.00     0.029 A 
ATOM     44  C   UNL A   1      41.641  25.807  28.591  1.00  0.00     0.049 A 
ATOM     45  H   UNL A   1      42.338  27.579  29.443  1.00  0.00     0.167 HD
ATOM     46  C   UNL A   1      43.744  31.457  30.884  1.00  0.00     0.031 A 
ATOM     47  C   UNL A   1      42.696  24.979  28.452  1.00  0.00     0.031 A 
ATOM     48  C   UNL A   1      44.895  30.592  30.913  1.00  0.00     0.049 A 
ATOM     49  C   UNL A   1      44.061  25.454  28.875  1.00  0.00     0.074 A 
ATOM     50  C   UNL A   1      46.165  30.875  31.384  1.00  0.00     0.029 A 
ATOM     51  N   UNL A   1      44.926  29.291  30.438  1.00  0.00    -0.354 N 
ATOM     52  N   UNL A   1      44.403  26.604  29.406  1.00  0.00    -0.248 NA
ATOM     53  C   UNL A   1      45.182  24.523  28.680  1.00  0.00     0.031 C 
ATOM     54  C   UNL A   1      46.984  29.775  31.120  1.00  0.00     0.029 A 
ATOM     55  C   UNL A   1      46.207  28.779  30.553  1.00  0.00     0.049 A 
ATOM     56  H   UNL A   1      44.152  28.803  30.073  1.00  0.00     0.167 HD
ATOM     57  C   UNL A   1      45.774  26.525  29.624  1.00  0.00     0.074 A 
ATOM     58  C   UNL A   1      46.194  25.208  29.196  1.00  0.00     0.031 C 
ATOM     59  C   UNL A   1      46.612  27.464  30.125  1.00  0.00     0.031 A 
BRANCH  46  60
ATOM     60  C   UNL A   1      43.942  32.890  31.306  1.00  0.00    -0.014 A 
ATOM     61  C   UNL A   1      44.004  33.929  30.362  1.00  0.00     0.010 A 
ATOM     62  C   UNL A   1      43.947  33.210  32.677  1.00  0.00     0.010 A 
ATOM     63  C   UNL A   1      44.079  35.260  30.781  1.00  0.00     0.020 A 
ATOM     64  C   UNL A   1      43.996  34.541  33.100  1.00  0.00     0.020 A 
ATOM     65  C   UNL A   1      44.068  35.558  32.148  1.00  0.00     0.054 A 
BRANCH  65  66
ATOM     66  S   UNL A   1      44.090  37.299  32.658  1.00  0.00     0.124 S 
ATOM     67  O   UNL A   1      42.933  37.367  33.548  1.00  0.00    -0.237 OA
ATOM     68  O   UNL A   1      45.391  37.423  33.309  1.00  0.00    -0.237 OA
ATOM     69  O   UNL A   1      43.951  38.033  31.402  1.00  0.00    -0.744 OA
ENDBRANCH  65  66
ENDBRANCH  46  60
BRANCH  47  70
ATOM     70  C   UNL A   1      42.520  23.631  27.841  1.00  0.00    -0.014 A 
ATOM     71  C   UNL A   1      42.219  22.510  28.635  1.00  0.00     0.010 A 
ATOM     72  C   UNL A   1      42.687  23.457  26.453  1.00  0.00     0.010 A 
ATOM     73  C   UNL A   1      42.130  21.238  28.062  1.00  0.00     0.020 A 
ATOM     74  C   UNL A   1      42.562  22.193  25.871  1.00  0.00     0.020 A 
ATOM     75  C   UNL A   1      42.305  21.088  26.683  1.00  0.00     0.054 A 
BRANCH  75  76
ATOM     76  S   UNL A   1      42.178  19.430  25.958  1.00  0.00     0.124 S 
ATOM     77  O   UNL A   1      40.739  19.297  25.757  1.00  0.00    -0.237 OA
ATOM     78  O   UNL A   1      42.979  19.556  24.743  1.00  0.00    -0.237 OA
ATOM     79  O   UNL A   1      42.751  18.563  26.986  1.00  0.00    -0.744 OA
ENDBRANCH  75  76
ENDBRANCH  47  70
BRANCH  59  80
ATOM     80  C   UNL A   1      48.069  27.105  30.254  1.00  0.00    -0.014 A 
ATOM     81  C   UNL A   1      49.007  27.536  29.300  1.00  0.00     0.010 A 
ATOM     82  C   UNL A   1      48.517  26.401  31.388  1.00  0.00     0.010 A 
ATOM     83  C   UNL A   1      50.367  27.256  29.470  1.00  0.00     0.020 A 
ATOM     84  C   UNL A   1      49.878  26.148  31.577  1.00  0.00     0.020 A 
ATOM     85  C   UNL A   1      50.793  26.572  30.612  1.00  0.00     0.054 A 
BRANCH  85  86
ATOM     86  S   UNL A   1      52.570  26.292  30.843  1.00  0.00     0.124 S 
ATOM     87  O   UNL A   1      52.585  25.113  31.704  1.00  0.00    -0.237 OA
ATOM     88  O   UNL A   1      53.039  26.079  29.476  1.00  0.00    -0.237 OA
ATOM     89  O   UNL A   1      53.038  27.526  31.471  1.00  0.00    -0.744 OA
ENDBRANCH  85  86
ENDBRANCH  59  80
ENDBRANCH  33  34
ENDBRANCH  25  28
ENDBRANCH  23  24
ENDBRANCH  22  23
ENDBRANCH   1  22
TORSDOF 17
ENDMDL
MODEL 2
REMARK VINA RESULT:     -10.6      4.149     10.824
REMARK SMILES C[C@@H](C(=O)NCCCCCCNC(=O)c1ccc(-c2c3nc(c(-c4ccc(S(=O)(=O)[O-])cc4)c4ccc([nH]4)c(-c4ccc(S(=O)(=O)[O-])cc4)c4nc(c(-c5ccc(S(=O)(=O)[O-])cc5)c5ccc2[nH]5)C=C4)C=C3)cc1)N1C(=O)c2nccnc2C1=O
REMARK SMILES IDX 9 1 8 2 7 3 6 4 5 5 3 6 4 7 2 9 1 10 75 11 76 12 84 13 77 14
REMARK SMILES IDX 78 15 83 16 85 17 79 18 82 19 80 20 81 21 10 22 11 23 12 24
REMARK SMILES IDX 13 25 14 27 15 28 16 29 74 30 17 31 73 32 18 33 19 34 20 35
REMARK SMILES IDX 67 36 21 37 72 38 66 39 68 40 22 41 71 42 65 43 64 44 23 46
REMARK SMILES IDX 53 47 34 48 52 49 35 50 38 51 51 52 69 53 36 54 37 55 50 57
REMARK SMILES IDX 70 58 39 59 24 60 25 61 33 62 26 63 32 64 27 65 28 66 29 67
REMARK SMILES IDX 30 68 31 69 54 70 55 71 63 72 56 73 62 74 57 75 58 76 59 77
REMARK SMILES IDX 60 78 61 79 40 80 41 81 49 82 42 83 48 84 43 85 44 86 45 87
REMARK SMILES IDX 46 88 47 89
REMARK H PARENT 5 8 12 26 68 45 38 56
REMARK Flexibility Score: inf
ROOT
ATOM      1  C   UNL A   1      36.408  33.829  28.617  1.00  0.00     0.002 C 
ENDROOT
BRANCH   1   2
ATOM      2  C   UNL A   1      37.747  33.345  29.185  1.00  0.00     0.002 C 
BRANCH   2   3
ATOM      3  C   UNL A   1      38.331  34.213  30.309  1.00  0.00     0.021 C 
BRANCH   3   4
ATOM      4  C   UNL A   1      37.596  34.079  31.643  1.00  0.00     0.116 C 
BRANCH   4   5
ATOM      5  N   UNL A   1      38.322  34.755  32.705  1.00  0.00    -0.354 N 
ATOM      6  C   UNL A   1      38.358  34.493  34.044  1.00  0.00     0.243 C 
ATOM      7  O   UNL A   1      39.048  35.231  34.754  1.00  0.00    -0.273 OA
ATOM      8  H   UNL A   1      38.872  35.518  32.413  1.00  0.00     0.163 HD
BRANCH   6   9
ATOM      9  C   UNL A   1      37.573  33.296  34.617  1.00  0.00     0.180 C 
ATOM     10  C   UNL A   1      37.278  33.431  36.109  1.00  0.00     0.042 C 
BRANCH   9  11
ATOM     11  N   UNL A   1      38.315  32.075  34.297  1.00  0.00    -0.259 N 
ATOM     12  C   UNL A   1      37.852  31.030  33.535  1.00  0.00     0.282 C 
ATOM     13  C   UNL A   1      39.530  31.781  34.863  1.00  0.00     0.282 C 
ATOM     14  O   UNL A   1      36.802  30.930  32.930  1.00  0.00    -0.267 OA
ATOM     15  C   UNL A   1      38.904  30.015  33.549  1.00  0.00     0.160 A 
ATOM     16  C   UNL A   1      39.917  30.466  34.353  1.00  0.00     0.160 A 
ATOM     17  O   UNL A   1      40.183  32.465  35.632  1.00  0.00    -0.267 OA
ATOM     18  N   UNL A   1      38.950  28.868  32.841  1.00  0.00    -0.247 NA
ATOM     19  N   UNL A   1      41.083  29.816  34.538  1.00  0.00    -0.247 NA
ATOM     20  C   UNL A   1      40.115  28.192  33.015  1.00  0.00     0.132 A 
ATOM     21  C   UNL A   1      41.151  28.652  33.842  1.00  0.00     0.132 A 
ENDBRANCH   9  11
ENDBRANCH   6   9
ENDBRANCH   4   5
ENDBRANCH   3   4
ENDBRANCH   2   3
ENDBRANCH   1   2
BRANCH   1  22
ATOM     22  C   UNL A   1      35.225  33.752  29.584  1.00  0.00     0.021 C 
BRANCH  22  23
ATOM     23  C   UNL A   1      34.819  32.335  29.985  1.00  0.00     0.116 C 
BRANCH  23  24
ATOM     24  N   UNL A   1      34.120  31.640  28.913  1.00  0.00    -0.352 N 
ATOM     25  C   UNL A   1      34.587  30.691  28.036  1.00  0.00     0.251 C 
ATOM     26  H   UNL A   1      33.174  31.886  28.800  1.00  0.00     0.163 HD
ATOM     27  O   UNL A   1      33.905  30.358  27.071  1.00  0.00    -0.269 OA
BRANCH  25  28
ATOM     28  C   UNL A   1      35.923  30.091  28.243  1.00  0.00     0.039 A 
ATOM     29  C   UNL A   1      36.867  30.170  27.217  1.00  0.00     0.014 A 
ATOM     30  C   UNL A   1      36.250  29.468  29.451  1.00  0.00     0.014 A 
ATOM     31  C   UNL A   1      38.167  29.709  27.434  1.00  0.00     0.010 A 
ATOM     32  C   UNL A   1      37.564  29.069  29.690  1.00  0.00     0.010 A 
ATOM     33  C   UNL A   1      38.541  29.205  28.692  1.00  0.00    -0.014 A 
BRANCH  33  34
ATOM     34  C   UNL A   1      39.960  28.886  29.005  1.00  0.00     0.031 A 
ATOM     35  C   UNL A   1      40.550  27.557  28.617  1.00  0.00     0.074 A 
ATOM     36  C   UNL A   1      40.688  29.766  29.724  1.00  0.00     0.049 A 
ATOM     37  N   UNL A   1      41.736  27.077  28.890  1.00  0.00    -0.248 NA
ATOM     38  C   UNL A   1      39.696  26.642  27.843  1.00  0.00     0.031 C 
ATOM     39  C   UNL A   1      40.213  31.071  30.196  1.00  0.00     0.029 A 
ATOM     40  N   UNL A   1      41.973  29.692  30.203  1.00  0.00    -0.354 N 
ATOM     41  C   UNL A   1      41.764  25.799  28.343  1.00  0.00     0.074 A 
ATOM     42  C   UNL A   1      40.468  25.567  27.745  1.00  0.00     0.031 C 
ATOM     43  C   UNL A   1      41.194  31.674  30.885  1.00  0.00     0.029 A 
ATOM     44  C   UNL A   1      42.347  30.785  30.954  1.00  0.00     0.049 A 
ATOM     45  H   UNL A   1      42.570  28.929  30.027  1.00  0.00     0.167 HD
ATOM     46  C   UNL A   1      42.781  24.905  28.340  1.00  0.00     0.031 A 
ATOM     47  C   UNL A   1      43.477  31.032  31.647  1.00  0.00     0.031 A 
ATOM     48  C   UNL A   1      44.074  25.149  28.923  1.00  0.00     0.049 A 
ATOM     49  C   UNL A   1      44.578  30.006  31.644  1.00  0.00     0.074 A 
ATOM     50  C   UNL A   1      45.195  24.337  28.886  1.00  0.00     0.029 A 
ATOM     51  N   UNL A   1      44.416  26.269  29.661  1.00  0.00    -0.354 N 
ATOM     52  N   UNL A   1      44.624  28.851  31.023  1.00  0.00    -0.248 NA
ATOM     53  C   UNL A   1      45.779  30.313  32.434  1.00  0.00     0.031 C 
ATOM     54  C   UNL A   1      46.188  24.929  29.670  1.00  0.00     0.029 A 
ATOM     55  C   UNL A   1      45.712  26.144  30.133  1.00  0.00     0.049 A 
ATOM     56  H   UNL A   1      43.826  27.041  29.826  1.00  0.00     0.167 HD
ATOM     57  C   UNL A   1      45.864  28.305  31.334  1.00  0.00     0.074 A 
ATOM     58  C   UNL A   1      46.549  29.264  32.172  1.00  0.00     0.031 C 
ATOM     59  C   UNL A   1      46.384  27.109  30.966  1.00  0.00     0.031 A 
BRANCH  46  60
ATOM     60  C   UNL A   1      42.550  23.559  27.701  1.00  0.00    -0.014 A 
ATOM     61  C   UNL A   1      43.155  23.213  26.481  1.00  0.00     0.010 A 
ATOM     62  C   UNL A   1      41.807  22.586  28.397  1.00  0.00     0.010 A 
ATOM     63  C   UNL A   1      43.014  21.923  25.964  1.00  0.00     0.020 A 
ATOM     64  C   UNL A   1      41.685  21.287  27.895  1.00  0.00     0.020 A 
ATOM     65  C   UNL A   1      42.286  20.966  26.677  1.00  0.00     0.054 A 
BRANCH  65  66
ATOM     66  S   UNL A   1      42.184  19.280  26.015  1.00  0.00     0.124 S 
ATOM     67  O   UNL A   1      40.749  19.132  25.786  1.00  0.00    -0.237 OA
ATOM     68  O   UNL A   1      43.007  19.360  24.811  1.00  0.00    -0.237 OA
ATOM     69  O   UNL A   1      42.730  18.451  27.087  1.00  0.00    -0.744 OA
ENDBRANCH  65  66
ENDBRANCH  46  60
BRANCH  47  70
ATOM     70  C   UNL A   1      43.612  32.284  32.445  1.00  0.00    -0.014 A 
ATOM     71  C   UNL A   1      43.238  32.323  33.800  1.00  0.00     0.010 A 
ATOM     72  C   UNL A   1      44.088  33.462  31.836  1.00  0.00     0.010 A 
ATOM     73  C   UNL A   1      43.298  33.521  34.518  1.00  0.00     0.020 A 
ATOM     74  C   UNL A   1      44.184  34.652  32.561  1.00  0.00     0.020 A 
ATOM     75  C   UNL A   1      43.769  34.679  33.892  1.00  0.00     0.054 A 
BRANCH  75  76
ATOM     76  S   UNL A   1      43.846  36.221  34.844  1.00  0.00     0.124 S 
ATOM     77  O   UNL A   1      42.557  36.832  34.537  1.00  0.00    -0.237 OA
ATOM     78  O   UNL A   1      44.009  35.737  36.213  1.00  0.00    -0.237 OA
ATOM     79  O   UNL A   1      45.012  36.906  34.291  1.00  0.00    -0.744 OA
ENDBRANCH  75  76
ENDBRANCH  47  70
BRANCH  59  80
ATOM     80  C   UNL A   1      47.768  26.768  31.452  1.00  0.00    -0.014 A 
ATOM     81  C   UNL A   1      47.961  26.084  32.665  1.00  0.00     0.010 A 
ATOM     82  C   UNL A   1      48.884  27.060  30.645  1.00  0.00     0.010 A 
ATOM     83  C   UNL A   1      49.246  25.711  33.069  1.00  0.00     0.020 A 
ATOM     84  C   UNL A   1      50.166  26.660  31.031  1.00  0.00     0.020 A 
ATOM     85  C   UNL A   1      50.338  25.994  32.245  1.00  0.00     0.054 A 
BRANCH  85  86
ATOM     86  S   UNL A   1      51.983  25.429  32.759  1.00  0.00     0.124 S 
ATOM     87  O   UNL A   1      52.051  25.899  34.140  1.00  0.00    -0.237 OA
ATOM     88  O   UNL A   1      51.889  23.980  32.592  1.00  0.00    -0.237 OA
ATOM     89  O   UNL A   1      52.888  26.100  31.829  1.00  0.00    -0.744 OA
ENDBRANCH  85  86
ENDBRANCH  59  80
ENDBRANCH  33  34
ENDBRANCH  25  28
ENDBRANCH  23  24
ENDBRANCH  22  23
ENDBRANCH   1  22
TORSDOF 17
ENDMDL
MODEL 3
REMARK VINA RESULT:     -10.5      2.969      9.652
REMARK SMILES C[C@@H](C(=O)NCCCCCCNC(=O)c1ccc(-c2c3nc(c(-c4ccc(S(=O)(=O)[O-])cc4)c4ccc([nH]4)c(-c4ccc(S(=O)(=O)[O-])cc4)c4nc(c(-c5ccc(S(=O)(=O)[O-])cc5)c5ccc2[nH]5)C=C4)C=C3)cc1)N1C(=O)c2nccnc2C1=O
REMARK SMILES IDX 9 1 8 2 7 3 6 4 5 5 3 6 4 7 2 9 1 10 75 11 76 12 84 13 77 14
REMARK SMILES IDX 78 15 83 16 85 17 79 18 82 19 80 20 81 21 10 22 11 23 12 24
REMARK SMILES IDX 13 25 14 27 15 28 16 29 74 30 17 31 73 32 18 33 19 34 20 35
REMARK SMILES IDX 67 36 21 37 72 38 66 39 68 40 22 41 71 42 65 43 64 44 23 46
REMARK SMILES IDX 53 47 34 48 52 49 35 50 38 51 51 52 69 53 36 54 37 55 50 57
REMARK SMILES IDX 70 58 39 59 24 60 25 61 33 62 26 63 32 64 27 65 28 66 29 67
REMARK SMILES IDX 30 68 31 69 54 70 55 71 63 72 56 73 62 74 57 75 58 76 59 77
REMARK SMILES IDX 60 78 61 79 40 80 41 81 49 82 42 83 48 84 43 85 44 86 45 87
REMARK SMILES IDX 46 88 47 89
REMARK H PARENT 5 8 12 26 68 45 38 56
REMARK Flexibility Score: inf
ROOT
ATOM      1  C   UNL A   1      35.292  21.676  24.580  1.00  0.00     0.002 C 
ENDROOT
BRANCH   1   2
ATOM      2  C   UNL A   1      33.787  21.732  24.294  1.00  0.00     0.002 C 
BRANCH   2   3
ATOM      3  C   UNL A   1      33.368  22.714  23.191  1.00  0.00     0.021 C 
BRANCH   3   4
ATOM      4  C   UNL A   1      32.073  23.471  23.493  1.00  0.00     0.116 C 
BRANCH   4   5
ATOM      5  N   UNL A   1      31.917  24.605  22.600  1.00  0.00    -0.354 N 
ATOM      6  C   UNL A   1      31.207  25.759  22.768  1.00  0.00     0.243 C 
ATOM      7  O   UNL A   1      31.217  26.578  21.844  1.00  0.00    -0.273 OA
ATOM      8  H   UNL A   1      32.395  24.530  21.742  1.00  0.00     0.163 HD
BRANCH   6   9
ATOM      9  C   UNL A   1      30.451  26.014  24.087  1.00  0.00     0.180 C 
ATOM     10  C   UNL A   1      28.975  26.344  23.879  1.00  0.00     0.042 C 
BRANCH   9  11
ATOM     11  N   UNL A   1      31.164  27.063  24.820  1.00  0.00    -0.259 N 
ATOM     12  C   UNL A   1      31.032  28.415  24.619  1.00  0.00     0.282 C 
ATOM     13  C   UNL A   1      32.173  26.785  25.709  1.00  0.00     0.282 C 
ATOM     14  O   UNL A   1      30.277  29.008  23.874  1.00  0.00    -0.267 OA
ATOM     15  C   UNL A   1      31.984  29.058  25.524  1.00  0.00     0.160 A 
ATOM     16  C   UNL A   1      32.675  28.075  26.180  1.00  0.00     0.160 A 
ATOM     17  O   UNL A   1      32.581  25.692  26.060  1.00  0.00    -0.267 OA
ATOM     18  N   UNL A   1      32.126  30.378  25.766  1.00  0.00    -0.247 NA
ATOM     19  N   UNL A   1      33.586  28.305  27.147  1.00  0.00    -0.247 NA
ATOM     20  C   UNL A   1      33.043  30.636  26.734  1.00  0.00     0.132 A 
ATOM     21  C   UNL A   1      33.753  29.629  27.404  1.00  0.00     0.132 A 
ENDBRANCH   9  11
ENDBRANCH   6   9
ENDBRANCH   4   5
ENDBRANCH   3   4
ENDBRANCH   2   3
ENDBRANCH   1   2
BRANCH   1  22
ATOM     22  C   UNL A   1      36.108  22.830  23.992  1.00  0.00     0.021 C 
BRANCH  22  23
ATOM     23  C   UNL A   1      37.077  23.490  24.971  1.00  0.00     0.116 C 
BRANCH  23  24
ATOM     24  N   UNL A   1      38.104  22.567  25.434  1.00  0.00    -0.352 N 
ATOM     25  C   UNL A   1      39.238  22.817  26.169  1.00  0.00     0.251 C 
ATOM     26  H   UNL A   1      37.965  21.625  25.185  1.00  0.00     0.163 HD
ATOM     27  O   UNL A   1      40.090  21.943  26.300  1.00  0.00    -0.269 OA
BRANCH  25  28
ATOM     28  C   UNL A   1      39.442  24.150  26.777  1.00  0.00     0.039 A 
ATOM     29  C   UNL A   1      38.945  24.392  28.059  1.00  0.00     0.014 A 
ATOM     30  C   UNL A   1      40.138  25.151  26.093  1.00  0.00     0.014 A 
ATOM     31  C   UNL A   1      39.225  25.605  28.693  1.00  0.00     0.010 A 
ATOM     32  C   UNL A   1      40.473  26.334  26.750  1.00  0.00     0.010 A 
ATOM     33  C   UNL A   1      40.037  26.565  28.064  1.00  0.00    -0.014 A 
BRANCH  33  34
ATOM     34  C   UNL A   1      40.503  27.777  28.790  1.00  0.00     0.031 A 
ATOM     35  C   UNL A   1      41.823  27.777  29.513  1.00  0.00     0.074 A 
ATOM     36  C   UNL A   1      39.686  28.848  28.871  1.00  0.00     0.049 A 
ATOM     37  N   UNL A   1      42.342  28.710  30.270  1.00  0.00    -0.248 NA
ATOM     38  C   UNL A   1      42.658  26.571  29.389  1.00  0.00     0.031 C 
ATOM     39  C   UNL A   1      38.363  28.953  28.249  1.00  0.00     0.029 A 
ATOM     40  N   UNL A   1      39.835  30.046  29.527  1.00  0.00    -0.354 N 
ATOM     41  C   UNL A   1      43.549  28.197  30.730  1.00  0.00     0.074 A 
ATOM     42  C   UNL A   1      43.676  26.862  30.189  1.00  0.00     0.031 C 
ATOM     43  C   UNL A   1      37.830  30.149  28.543  1.00  0.00     0.029 A 
ATOM     44  C   UNL A   1      38.741  30.876  29.419  1.00  0.00     0.049 A 
ATOM     45  H   UNL A   1      40.647  30.288  30.028  1.00  0.00     0.167 HD
ATOM     46  C   UNL A   1      44.469  28.791  31.528  1.00  0.00     0.031 A 
ATOM     47  C   UNL A   1      38.484  32.073  29.983  1.00  0.00     0.031 A 
ATOM     48  C   UNL A   1      44.344  30.127  32.049  1.00  0.00     0.049 A 
ATOM     49  C   UNL A   1      39.517  32.694  30.886  1.00  0.00     0.074 A 
ATOM     50  C   UNL A   1      45.268  30.845  32.789  1.00  0.00     0.029 A 
ATOM     51  N   UNL A   1      43.230  30.937  31.906  1.00  0.00    -0.354 N 
ATOM     52  N   UNL A   1      40.702  32.239  31.214  1.00  0.00    -0.248 NA
ATOM     53  C   UNL A   1      39.178  33.989  31.495  1.00  0.00     0.031 C 
ATOM     54  C   UNL A   1      44.681  32.056  33.162  1.00  0.00     0.029 A 
ATOM     55  C   UNL A   1      43.421  32.125  32.592  1.00  0.00     0.049 A 
ATOM     56  H   UNL A   1      42.422  30.704  31.392  1.00  0.00     0.167 HD
ATOM     57  C   UNL A   1      41.256  33.199  32.053  1.00  0.00     0.074 A 
ATOM     58  C   UNL A   1      40.291  34.273  32.159  1.00  0.00     0.031 C 
ATOM     59  C   UNL A   1      42.453  33.188  32.688  1.00  0.00     0.031 A 
BRANCH  46  60
ATOM     60  C   UNL A   1      45.696  28.007  31.914  1.00  0.00    -0.014 A 
ATOM     61  C   UNL A   1      46.885  28.093  31.171  1.00  0.00     0.010 A 
ATOM     62  C   UNL A   1      45.689  27.263  33.110  1.00  0.00     0.010 A 
ATOM     63  C   UNL A   1      48.041  27.442  31.610  1.00  0.00     0.020 A 
ATOM     64  C   UNL A   1      46.850  26.632  33.566  1.00  0.00     0.020 A 
ATOM     65  C   UNL A   1      48.018  26.721  32.808  1.00  0.00     0.054 A 
BRANCH  65  66
ATOM     66  S   UNL A   1      49.555  25.951  33.389  1.00  0.00     0.124 S 
ATOM     67  O   UNL A   1      49.562  24.695  32.643  1.00  0.00    -0.237 OA
ATOM     68  O   UNL A   1      50.569  26.923  32.990  1.00  0.00    -0.237 OA
ATOM     69  O   UNL A   1      49.355  25.817  34.830  1.00  0.00    -0.744 OA
ENDBRANCH  65  66
ENDBRANCH  46  60
BRANCH  47  70
ATOM     70  C   UNL A   1      37.175  32.748  29.753  1.00  0.00    -0.014 A 
ATOM     71  C   UNL A   1      36.938  33.489  28.582  1.00  0.00     0.010 A 
ATOM     72  C   UNL A   1      36.165  32.680  30.732  1.00  0.00     0.010 A 
ATOM     73  C   UNL A   1      35.734  34.180  28.411  1.00  0.00     0.020 A 
ATOM     74  C   UNL A   1      34.946  33.338  30.548  1.00  0.00     0.020 A 
ATOM     75  C   UNL A   1      34.747  34.102  29.398  1.00  0.00     0.054 A 
BRANCH  75  76
ATOM     76  S   UNL A   1      33.190  35.000  29.153  1.00  0.00     0.124 S 
ATOM     77  O   UNL A   1      32.531  34.191  28.132  1.00  0.00    -0.237 OA
ATOM     78  O   UNL A   1      32.588  34.954  30.484  1.00  0.00    -0.237 OA
ATOM     79  O   UNL A   1      33.625  36.326  28.720  1.00  0.00    -0.744 OA
ENDBRANCH  75  76
ENDBRANCH  47  70
BRANCH  59  80
ATOM     80  C   UNL A   1      42.802  34.376  33.546  1.00  0.00    -0.014 A 
ATOM     81  C   UNL A   1      42.454  34.412  34.907  1.00  0.00     0.010 A 
ATOM     82  C   UNL A   1      43.562  35.429  33.003  1.00  0.00     0.010 A 
ATOM     83  C   UNL A   1      42.847  35.488  35.708  1.00  0.00     0.020 A 
ATOM     84  C   UNL A   1      43.983  36.490  33.809  1.00  0.00     0.020 A 
ATOM     85  C   UNL A   1      43.616  36.515  35.155  1.00  0.00     0.054 A 
BRANCH  85  86
ATOM     86  S   UNL A   1      44.176  37.859  36.237  1.00  0.00     0.124 S 
ATOM     87  O   UNL A   1      43.388  37.629  37.445  1.00  0.00    -0.237 OA
ATOM     88  O   UNL A   1      45.608  37.592  36.361  1.00  0.00    -0.237 OA
ATOM     89  O   UNL A   1      43.836  39.069  35.493  1.00  0.00    -0.744 OA
ENDBRANCH  85  86
ENDBRANCH  59  80
ENDBRANCH  33  34
ENDBRANCH  25  28
ENDBRANCH  23  24
ENDBRANCH  22  23
ENDBRANCH   1  22
TORSDOF 17
ENDMDL
