MODEL 1
REMARK VINA RESULT:     -11.2      0.000      0.000
REMARK SMILES O=C(Cn1cccc1C(=O)N1CC[N@H+]2CCC[C@@H]2C1)NCCCCCCNC(=O)c1ccc(-c2c3nc(c(-c4ccc(S(=O)(=O)[O-])cc4)c4ccc([nH]4)c(-c4ccc(S(=O)(=O)[O-])cc4)c4nc(c(-c5ccc(S(=O)(=O)[O-])cc5)c5ccc2[nH]5)C=C4)C=C3)cc1
REMARK SMILES IDX 23 1 22 2 21 3 20 4 1 5 2 6 3 8 4 9 5 10 8 11 6 12 7 13 9 14
REMARK SMILES IDX 10 15 11 16 12 17 19 18 13 19 18 20 14 21 17 22 15 23 16 25
REMARK SMILES IDX 24 26 25 27 26 28 27 29 28 30 29 32 30 33 31 34 89 35 32 36
REMARK SMILES IDX 88 37 33 38 34 39 35 40 82 41 36 42 87 43 81 44 83 45 37 46
REMARK SMILES IDX 86 47 80 48 79 49 38 51 68 52 49 53 67 54 50 55 53 56 66 57
REMARK SMILES IDX 84 58 51 59 52 60 65 62 85 63 54 64 39 65 40 66 48 67 41 68
REMARK SMILES IDX 47 69 42 70 43 71 44 72 45 73 46 74 69 75 70 76 78 77 71 78
REMARK SMILES IDX 77 79 72 80 73 81 74 82 75 83 76 84 55 85 56 86 64 87 57 88
REMARK SMILES IDX 63 89 58 90 59 91 60 92 61 93 62 94
REMARK H PARENT 20 7 14 24 27 31 83 50 53 61
REMARK Flexibility Score: inf
ROOT
ATOM      1  C   UNL A   1      35.030  32.943  27.886  1.00  0.00     0.002 C 
ENDROOT
BRANCH   1   2
ATOM      2  C   UNL A   1      33.975  31.825  27.998  1.00  0.00     0.021 C 
BRANCH   2   3
ATOM      3  C   UNL A   1      34.426  30.443  27.484  1.00  0.00     0.116 C 
BRANCH   3   4
ATOM      4  N   UNL A   1      33.926  30.089  26.155  1.00  0.00    -0.355 N 
ATOM      5  O   UNL A   1      33.993  27.833  26.478  1.00  0.00    -0.273 OA
ATOM      6  C   UNL A   1      33.752  28.785  25.731  1.00  0.00     0.239 C 
ATOM      7  H   UNL A   1      33.704  30.816  25.531  1.00  0.00     0.163 HD
BRANCH   6   8
ATOM      8  C   UNL A   1      33.307  28.509  24.294  1.00  0.00     0.222 C 
BRANCH   8   9
ATOM      9  N   UNL A   1      32.228  27.545  24.095  1.00  0.00    -0.334 N 
ATOM     10  C   UNL A   1      30.985  27.703  24.670  1.00  0.00     0.087 A 
ATOM     11  C   UNL A   1      32.241  26.386  23.332  1.00  0.00     0.107 A 
ATOM     12  C   UNL A   1      30.135  26.779  24.116  1.00  0.00     0.020 A 
ATOM     13  C   UNL A   1      30.912  25.980  23.250  1.00  0.00     0.033 A 
BRANCH  11  14
ATOM     14  C   UNL A   1      33.359  25.772  22.622  1.00  0.00     0.270 C 
ATOM     15  O   UNL A   1      33.804  26.234  21.574  1.00  0.00    -0.267 OA
BRANCH  14  16
ATOM     16  N   UNL A   1      33.974  24.714  23.261  1.00  0.00    -0.326 N 
ATOM     17  C   UNL A   1      34.504  24.827  24.625  1.00  0.00     0.181 C 
ATOM     18  C   UNL A   1      33.632  23.371  22.828  1.00  0.00     0.185 C 
ATOM     19  C   UNL A   1      33.895  23.807  25.648  1.00  0.00     0.284 C 
ATOM     20  C   UNL A   1      32.816  22.628  23.857  1.00  0.00     0.204 C 
ATOM     21  N   UNL A   1      33.648  22.492  25.051  1.00  0.00    -0.330 N 
ATOM     22  C   UNL A   1      32.521  21.181  23.521  1.00  0.00     0.073 C 
ATOM     23  C   UNL A   1      33.017  21.469  25.880  1.00  0.00     0.262 C 
ATOM     24  H   UNL A   1      34.598  22.162  24.870  1.00  0.00     0.348 HD
ATOM     25  C   UNL A   1      32.208  20.610  24.896  1.00  0.00     0.068 C 
ENDBRANCH  14  16
ENDBRANCH  11  14
ENDBRANCH   8   9
ENDBRANCH   6   8
ENDBRANCH   3   4
ENDBRANCH   2   3
ENDBRANCH   1   2
BRANCH   1  26
ATOM     26  C   UNL A   1      34.850  34.148  28.807  1.00  0.00     0.002 C 
BRANCH  26  27
ATOM     27  C   UNL A   1      33.414  34.665  28.975  1.00  0.00     0.021 C 
BRANCH  27  28
ATOM     28  C   UNL A   1      33.272  36.091  29.521  1.00  0.00     0.116 C 
BRANCH  28  29
ATOM     29  N   UNL A   1      32.453  36.138  30.722  1.00  0.00    -0.352 N 
ATOM     30  C   UNL A   1      32.604  35.431  31.893  1.00  0.00     0.251 C 
ATOM     31  H   UNL A   1      31.689  36.759  30.693  1.00  0.00     0.163 HD
ATOM     32  O   UNL A   1      31.668  35.341  32.673  1.00  0.00    -0.269 OA
BRANCH  30  33
ATOM     33  C   UNL A   1      33.893  34.781  32.218  1.00  0.00     0.039 A 
ATOM     34  C   UNL A   1      33.901  33.413  32.516  1.00  0.00     0.014 A 
ATOM     35  C   UNL A   1      35.068  35.534  32.328  1.00  0.00     0.014 A 
ATOM     36  C   UNL A   1      35.097  32.790  32.867  1.00  0.00     0.010 A 
ATOM     37  C   UNL A   1      36.265  34.914  32.681  1.00  0.00     0.010 A 
ATOM     38  C   UNL A   1      36.282  33.538  32.932  1.00  0.00    -0.014 A 
BRANCH  38  39
ATOM     39  C   UNL A   1      37.574  32.823  33.085  1.00  0.00     0.031 A 
ATOM     40  C   UNL A   1      37.806  31.837  31.914  1.00  0.00     0.074 A 
ATOM     41  C   UNL A   1      38.305  33.088  34.214  1.00  0.00     0.049 A 
ATOM     42  N   UNL A   1      38.472  30.725  31.886  1.00  0.00    -0.248 NA
ATOM     43  C   UNL A   1      37.131  32.071  30.603  1.00  0.00     0.031 C 
ATOM     44  C   UNL A   1      37.949  34.108  35.233  1.00  0.00     0.029 A 
ATOM     45  N   UNL A   1      39.473  32.582  34.752  1.00  0.00    -0.354 N 
ATOM     46  C   UNL A   1      38.428  30.211  30.565  1.00  0.00     0.074 A 
ATOM     47  C   UNL A   1      37.519  31.044  29.841  1.00  0.00     0.031 C 
ATOM     48  C   UNL A   1      38.809  34.080  36.277  1.00  0.00     0.029 A 
ATOM     49  C   UNL A   1      39.813  33.059  36.051  1.00  0.00     0.049 A 
ATOM     50  H   UNL A   1      40.035  31.933  34.269  1.00  0.00     0.167 HD
ATOM     51  C   UNL A   1      39.230  29.188  30.134  1.00  0.00     0.031 A 
ATOM     52  C   UNL A   1      40.796  32.625  36.905  1.00  0.00     0.031 A 
ATOM     53  C   UNL A   1      40.017  28.714  31.218  1.00  0.00     0.049 A 
ATOM     54  C   UNL A   1      41.550  31.616  36.146  1.00  0.00     0.074 A 
ATOM     55  C   UNL A   1      39.706  27.987  32.338  1.00  0.00     0.029 A 
ATOM     56  N   UNL A   1      41.230  29.333  31.394  1.00  0.00    -0.354 N 
ATOM     57  N   UNL A   1      42.370  31.866  35.174  1.00  0.00    -0.248 NA
ATOM     58  C   UNL A   1      41.322  30.199  36.458  1.00  0.00     0.031 C 
ATOM     59  C   UNL A   1      40.468  28.623  33.338  1.00  0.00     0.029 A 
ATOM     60  C   UNL A   1      41.377  29.508  32.744  1.00  0.00     0.049 A 
ATOM     61  H   UNL A   1      41.865  29.598  30.690  1.00  0.00     0.167 HD
ATOM     62  C   UNL A   1      42.432  30.656  34.533  1.00  0.00     0.074 A 
ATOM     63  C   UNL A   1      42.071  29.648  35.508  1.00  0.00     0.031 C 
ATOM     64  C   UNL A   1      42.205  30.596  33.198  1.00  0.00     0.031 A 
BRANCH  51  65
ATOM     65  C   UNL A   1      39.596  28.663  28.769  1.00  0.00    -0.014 A 
ATOM     66  C   UNL A   1      39.830  27.263  28.665  1.00  0.00     0.010 A 
ATOM     67  C   UNL A   1      40.054  29.468  27.719  1.00  0.00     0.010 A 
ATOM     68  C   UNL A   1      40.613  26.712  27.649  1.00  0.00     0.020 A 
ATOM     69  C   UNL A   1      40.812  28.913  26.667  1.00  0.00     0.020 A 
ATOM     70  C   UNL A   1      41.130  27.551  26.671  1.00  0.00     0.054 A 
BRANCH  70  71
ATOM     71  S   UNL A   1      42.278  26.836  25.459  1.00  0.00     0.124 S 
ATOM     72  O   UNL A   1      43.414  26.458  26.294  1.00  0.00    -0.237 OA
ATOM     73  O   UNL A   1      41.506  25.721  24.913  1.00  0.00    -0.237 OA
ATOM     74  O   UNL A   1      42.518  27.933  24.526  1.00  0.00    -0.744 OA
ENDBRANCH  70  71
ENDBRANCH  51  65
BRANCH  52  75
ATOM     75  C   UNL A   1      41.209  32.763  38.361  1.00  0.00    -0.014 A 
ATOM     76  C   UNL A   1      40.370  32.986  39.457  1.00  0.00     0.010 A 
ATOM     77  C   UNL A   1      42.575  32.499  38.689  1.00  0.00     0.010 A 
ATOM     78  C   UNL A   1      40.830  32.781  40.785  1.00  0.00     0.020 A 
ATOM     79  C   UNL A   1      43.029  32.234  39.982  1.00  0.00     0.020 A 
ATOM     80  C   UNL A   1      42.138  32.344  41.033  1.00  0.00     0.054 A 
BRANCH  80  81
ATOM     81  S   UNL A   1      42.646  31.765  42.680  1.00  0.00     0.124 S 
ATOM     82  O   UNL A   1      42.413  30.327  42.596  1.00  0.00    -0.237 OA
ATOM     83  O   UNL A   1      44.046  32.177  42.748  1.00  0.00    -0.237 OA
ATOM     84  O   UNL A   1      41.755  32.489  43.587  1.00  0.00    -0.744 OA
ENDBRANCH  80  81
ENDBRANCH  52  75
BRANCH  64  85
ATOM     85  C   UNL A   1      42.529  31.854  32.410  1.00  0.00    -0.014 A 
ATOM     86  C   UNL A   1      43.878  32.159  32.153  1.00  0.00     0.010 A 
ATOM     87  C   UNL A   1      41.559  32.775  31.959  1.00  0.00     0.010 A 
ATOM     88  C   UNL A   1      44.251  33.320  31.461  1.00  0.00     0.020 A 
ATOM     89  C   UNL A   1      41.924  33.946  31.264  1.00  0.00     0.020 A 
ATOM     90  C   UNL A   1      43.273  34.206  31.012  1.00  0.00     0.054 A 
BRANCH  90  91
ATOM     91  S   UNL A   1      43.800  35.681  30.088  1.00  0.00     0.124 S 
ATOM     92  O   UNL A   1      42.744  35.833  29.090  1.00  0.00    -0.237 OA
ATOM     93  O   UNL A   1      43.828  36.709  31.126  1.00  0.00    -0.237 OA
ATOM     94  O   UNL A   1      45.108  35.310  29.549  1.00  0.00    -0.744 OA
ENDBRANCH  90  91
ENDBRANCH  64  85
ENDBRANCH  38  39
ENDBRANCH  30  33
ENDBRANCH  28  29
ENDBRANCH  27  28
ENDBRANCH  26  27
ENDBRANCH   1  26
TORSDOF 19
ENDMDL
MODEL 2
REMARK VINA RESULT:     -11.1      4.507      9.824
REMARK SMILES O=C(Cn1cccc1C(=O)N1CC[N@H+]2CCC[C@@H]2C1)NCCCCCCNC(=O)c1ccc(-c2c3nc(c(-c4ccc(S(=O)(=O)[O-])cc4)c4ccc([nH]4)c(-c4ccc(S(=O)(=O)[O-])cc4)c4nc(c(-c5ccc(S(=O)(=O)[O-])cc5)c5ccc2[nH]5)C=C4)C=C3)cc1
REMARK SMILES IDX 23 1 22 2 21 3 20 4 1 5 2 6 3 8 4 9 5 10 8 11 6 12 7 13 9 14
REMARK SMILES IDX 10 15 11 16 12 17 19 18 13 19 18 20 14 21 17 22 15 23 16 25
REMARK SMILES IDX 24 26 25 27 26 28 27 29 28 30 29 32 30 33 31 34 89 35 32 36
REMARK SMILES IDX 88 37 33 38 34 39 35 40 82 41 36 42 87 43 81 44 83 45 37 46
REMARK SMILES IDX 86 47 80 48 79 49 38 51 68 52 49 53 67 54 50 55 53 56 66 57
REMARK SMILES IDX 84 58 51 59 52 60 65 62 85 63 54 64 39 65 40 66 48 67 41 68
REMARK SMILES IDX 47 69 42 70 43 71 44 72 45 73 46 74 69 75 70 76 78 77 71 78
REMARK SMILES IDX 77 79 72 80 73 81 74 82 75 83 76 84 55 85 56 86 64 87 57 88
REMARK SMILES IDX 63 89 58 90 59 91 60 92 61 93 62 94
REMARK H PARENT 20 7 14 24 27 31 83 50 53 61
REMARK Flexibility Score: inf
ROOT
ATOM      1  C   UNL A   1      31.218  27.239  25.533  1.00  0.00     0.002 C 
ENDROOT
BRANCH   1   2
ATOM      2  C   UNL A   1      30.313  26.040  25.878  1.00  0.00     0.021 C 
BRANCH   2   3
ATOM      3  C   UNL A   1      30.940  24.653  25.639  1.00  0.00     0.116 C 
BRANCH   3   4
ATOM      4  N   UNL A   1      32.348  24.540  26.020  1.00  0.00    -0.355 N 
ATOM      5  O   UNL A   1      33.177  24.726  23.904  1.00  0.00    -0.273 OA
ATOM      6  C   UNL A   1      33.387  24.573  25.110  1.00  0.00     0.239 C 
ATOM      7  H   UNL A   1      32.566  24.434  26.974  1.00  0.00     0.163 HD
BRANCH   6   8
ATOM      8  C   UNL A   1      34.824  24.361  25.593  1.00  0.00     0.222 C 
BRANCH   8   9
ATOM      9  N   UNL A   1      35.478  23.106  25.232  1.00  0.00    -0.334 N 
ATOM     10  C   UNL A   1      36.551  23.058  24.368  1.00  0.00     0.087 A 
ATOM     11  C   UNL A   1      35.180  21.824  25.672  1.00  0.00     0.107 A 
ATOM     12  C   UNL A   1      37.083  21.793  24.413  1.00  0.00     0.020 A 
ATOM     13  C   UNL A   1      36.248  21.032  25.259  1.00  0.00     0.033 A 
BRANCH  11  14
ATOM     14  C   UNL A   1      34.076  21.382  26.518  1.00  0.00     0.270 C 
ATOM     15  O   UNL A   1      33.953  21.752  27.683  1.00  0.00    -0.267 OA
BRANCH  14  16
ATOM     16  N   UNL A   1      33.104  20.624  25.897  1.00  0.00    -0.326 N 
ATOM     17  C   UNL A   1      32.302  21.144  24.782  1.00  0.00     0.181 C 
ATOM     18  C   UNL A   1      33.227  19.179  25.963  1.00  0.00     0.185 C 
ATOM     19  C   UNL A   1      32.403  20.306  23.460  1.00  0.00     0.284 C 
ATOM     20  C   UNL A   1      33.585  18.573  24.628  1.00  0.00     0.204 C 
ATOM     21  N   UNL A   1      32.482  18.866  23.714  1.00  0.00    -0.330 N 
ATOM     22  C   UNL A   1      33.618  17.060  24.596  1.00  0.00     0.073 C 
ATOM     23  C   UNL A   1      32.649  17.976  22.567  1.00  0.00     0.262 C 
ATOM     24  H   UNL A   1      31.555  18.667  24.091  1.00  0.00     0.348 HD
ATOM     25  C   UNL A   1      33.456  16.785  23.109  1.00  0.00     0.068 C 
ENDBRANCH  14  16
ENDBRANCH  11  14
ENDBRANCH   8   9
ENDBRANCH   6   8
ENDBRANCH   3   4
ENDBRANCH   2   3
ENDBRANCH   1   2
BRANCH   1  26
ATOM     26  C   UNL A   1      31.773  28.039  26.709  1.00  0.00     0.002 C 
BRANCH  26  27
ATOM     27  C   UNL A   1      32.818  29.111  26.367  1.00  0.00     0.021 C 
BRANCH  27  28
ATOM     28  C   UNL A   1      34.015  29.213  27.321  1.00  0.00     0.116 C 
BRANCH  28  29
ATOM     29  N   UNL A   1      34.076  30.504  27.986  1.00  0.00    -0.352 N 
ATOM     30  C   UNL A   1      35.027  30.976  28.862  1.00  0.00     0.251 C 
ATOM     31  H   UNL A   1      33.339  31.124  27.782  1.00  0.00     0.163 HD
ATOM     32  O   UNL A   1      34.775  31.937  29.572  1.00  0.00    -0.269 OA
BRANCH  30  33
ATOM     33  C   UNL A   1      36.356  30.330  28.947  1.00  0.00     0.039 A 
ATOM     34  C   UNL A   1      37.198  30.372  27.828  1.00  0.00     0.014 A 
ATOM     35  C   UNL A   1      36.730  29.603  30.084  1.00  0.00     0.014 A 
ATOM     36  C   UNL A   1      38.436  29.734  27.871  1.00  0.00     0.010 A 
ATOM     37  C   UNL A   1      37.966  28.963  30.128  1.00  0.00     0.010 A 
ATOM     38  C   UNL A   1      38.827  29.045  29.029  1.00  0.00    -0.014 A 
BRANCH  38  39
ATOM     39  C   UNL A   1      40.228  28.568  29.139  1.00  0.00     0.031 A 
ATOM     40  C   UNL A   1      41.166  29.702  29.621  1.00  0.00     0.074 A 
ATOM     41  C   UNL A   1      40.479  27.273  28.764  1.00  0.00     0.049 A 
ATOM     42  N   UNL A   1      42.427  29.890  29.387  1.00  0.00    -0.248 NA
ATOM     43  C   UNL A   1      40.607  30.842  30.406  1.00  0.00     0.031 C 
ATOM     44  C   UNL A   1      39.440  26.294  28.356  1.00  0.00     0.029 A 
ATOM     45  N   UNL A   1      41.621  26.506  28.637  1.00  0.00    -0.354 N 
ATOM     46  C   UNL A   1      42.844  31.048  30.091  1.00  0.00     0.074 A 
ATOM     47  C   UNL A   1      41.658  31.635  30.634  1.00  0.00     0.031 C 
ATOM     48  C   UNL A   1      39.995  25.127  27.955  1.00  0.00     0.029 A 
ATOM     49  C   UNL A   1      41.438  25.214  28.064  1.00  0.00     0.049 A 
ATOM     50  H   UNL A   1      42.505  26.831  28.925  1.00  0.00     0.167 HD
ATOM     51  C   UNL A   1      44.159  31.386  30.262  1.00  0.00     0.031 A 
ATOM     52  C   UNL A   1      42.381  24.304  27.656  1.00  0.00     0.031 A 
ATOM     53  C   UNL A   1      44.981  30.452  29.575  1.00  0.00     0.049 A 
ATOM     54  C   UNL A   1      43.673  24.881  28.056  1.00  0.00     0.074 A 
ATOM     55  C   UNL A   1      45.219  30.233  28.243  1.00  0.00     0.029 A 
ATOM     56  N   UNL A   1      45.370  29.351  30.299  1.00  0.00    -0.354 N 
ATOM     57  N   UNL A   1      44.122  24.948  29.271  1.00  0.00    -0.248 NA
ATOM     58  C   UNL A   1      44.512  25.492  27.016  1.00  0.00     0.031 C 
ATOM     59  C   UNL A   1      45.233  28.826  28.161  1.00  0.00     0.029 A 
ATOM     60  C   UNL A   1      45.267  28.281  29.451  1.00  0.00     0.049 A 
ATOM     61  H   UNL A   1      45.664  29.335  31.238  1.00  0.00     0.167 HD
ATOM     62  C   UNL A   1      45.071  25.933  29.170  1.00  0.00     0.074 A 
ATOM     63  C   UNL A   1      45.484  25.976  27.783  1.00  0.00     0.031 C 
ATOM     64  C   UNL A   1      45.036  26.982  30.028  1.00  0.00     0.031 A 
BRANCH  51  65
ATOM     65  C   UNL A   1      44.872  32.350  31.177  1.00  0.00    -0.014 A 
ATOM     66  C   UNL A   1      44.561  32.264  32.563  1.00  0.00     0.010 A 
ATOM     67  C   UNL A   1      45.519  33.511  30.736  1.00  0.00     0.010 A 
ATOM     68  C   UNL A   1      44.742  33.339  33.434  1.00  0.00     0.020 A 
ATOM     69  C   UNL A   1      45.743  34.587  31.620  1.00  0.00     0.020 A 
ATOM     70  C   UNL A   1      45.303  34.512  32.946  1.00  0.00     0.054 A 
BRANCH  70  71
ATOM     71  S   UNL A   1      45.375  35.946  34.057  1.00  0.00     0.124 S 
ATOM     72  O   UNL A   1      46.813  36.155  34.200  1.00  0.00    -0.237 OA
ATOM     73  O   UNL A   1      44.669  36.973  33.293  1.00  0.00    -0.237 OA
ATOM     74  O   UNL A   1      44.682  35.486  35.257  1.00  0.00    -0.744 OA
ENDBRANCH  70  71
ENDBRANCH  51  65
BRANCH  52  75
ATOM     75  C   UNL A   1      42.482  23.031  26.832  1.00  0.00    -0.014 A 
ATOM     76  C   UNL A   1      43.206  22.850  25.650  1.00  0.00     0.010 A 
ATOM     77  C   UNL A   1      41.904  21.843  27.376  1.00  0.00     0.010 A 
ATOM     78  C   UNL A   1      43.479  21.547  25.151  1.00  0.00     0.020 A 
ATOM     79  C   UNL A   1      42.212  20.554  26.935  1.00  0.00     0.020 A 
ATOM     80  C   UNL A   1      43.034  20.408  25.835  1.00  0.00     0.054 A 
BRANCH  80  81
ATOM     81  S   UNL A   1      43.641  18.749  25.405  1.00  0.00     0.124 S 
ATOM     82  O   UNL A   1      42.626  17.880  25.988  1.00  0.00    -0.237 OA
ATOM     83  O   UNL A   1      43.677  18.789  23.945  1.00  0.00    -0.237 OA
ATOM     84  O   UNL A   1      44.956  18.690  26.043  1.00  0.00    -0.744 OA
ENDBRANCH  80  81
ENDBRANCH  52  75
BRANCH  64  85
ATOM     85  C   UNL A   1      44.407  26.712  31.385  1.00  0.00    -0.014 A 
ATOM     86  C   UNL A   1      43.342  27.527  31.809  1.00  0.00     0.010 A 
ATOM     87  C   UNL A   1      44.860  25.720  32.282  1.00  0.00     0.010 A 
ATOM     88  C   UNL A   1      42.737  27.355  33.061  1.00  0.00     0.020 A 
ATOM     89  C   UNL A   1      44.260  25.540  33.544  1.00  0.00     0.020 A 
ATOM     90  C   UNL A   1      43.193  26.357  33.923  1.00  0.00     0.054 A 
BRANCH  90  91
ATOM     91  S   UNL A   1      42.356  26.147  35.523  1.00  0.00     0.124 S 
ATOM     92  O   UNL A   1      42.959  24.924  36.046  1.00  0.00    -0.237 OA
ATOM     93  O   UNL A   1      42.721  27.372  36.231  1.00  0.00    -0.237 OA
ATOM     94  O   UNL A   1      40.942  26.034  35.169  1.00  0.00    -0.744 OA
ENDBRANCH  90  91
ENDBRANCH  64  85
ENDBRANCH  38  39
ENDBRANCH  30  33
ENDBRANCH  28  29
ENDBRANCH  27  28
ENDBRANCH  26  27
ENDBRANCH   1  26
TORSDOF 19
ENDMDL
MODEL 3
REMARK VINA RESULT:     -11.0      4.066      8.978
REMARK SMILES O=C(Cn1cccc1C(=O)N1CC[N@H+]2CCC[C@@H]2C1)NCCCCCCNC(=O)c1ccc(-c2c3nc(c(-c4ccc(S(=O)(=O)[O-])cc4)c4ccc([nH]4)c(-c4ccc(S(=O)(=O)[O-])cc4)c4nc(c(-c5ccc(S(=O)(=O)[O-])cc5)c5ccc2[nH]5)C=C4)C=C3)cc1
REMARK SMILES IDX 23 1 22 2 21 3 20 4 1 5 2 6 3 8 4 9 5 10 8 11 6 12 7 13 9 14
REMARK SMILES IDX 10 15 11 16 12 17 19 18 13 19 18 20 14 21 17 22 15 23 16 25
REMARK SMILES IDX 24 26 25 27 26 28 27 29 28 30 29 32 30 33 31 34 89 35 32 36
REMARK SMILES IDX 88 37 33 38 34 39 35 40 82 41 36 42 87 43 81 44 83 45 37 46
REMARK SMILES IDX 86 47 80 48 79 49 38 51 68 52 49 53 67 54 50 55 53 56 66 57
REMARK SMILES IDX 84 58 51 59 52 60 65 62 85 63 54 64 39 65 40 66 48 67 41 68
REMARK SMILES IDX 47 69 42 70 43 71 44 72 45 73 46 74 69 75 70 76 78 77 71 78
REMARK SMILES IDX 77 79 72 80 73 81 74 82 75 83 76 84 55 85 56 86 64 87 57 88
REMARK SMILES IDX 63 89 58 90 59 91 60 92 61 93 62 94
REMARK H PARENT 20 7 14 24 27 31 83 50 53 61
REMARK Flexibility Score: inf
ROOT
ATOM      1  C   UNL A   1      34.323  21.247  25.890  1.00  0.00     0.002 C 
ENDROOT
BRANCH   1   2
ATOM      2  C   UNL A   1      33.783  21.470  27.316  1.00  0.00     0.021 C 
BRANCH   2   3
ATOM      3  C   UNL A   1      32.816  22.660  27.474  1.00  0.00     0.116 C 
BRANCH   3   4
ATOM      4  N   UNL A   1      32.362  23.255  26.216  1.00  0.00    -0.355 N 
ATOM      5  O   UNL A   1      30.492  24.229  27.083  1.00  0.00    -0.273 OA
ATOM      6  C   UNL A   1      31.205  24.001  26.103  1.00  0.00     0.239 C 
ATOM      7  H   UNL A   1      32.909  23.115  25.410  1.00  0.00     0.163 HD
BRANCH   6   8
ATOM      8  C   UNL A   1      30.764  24.511  24.729  1.00  0.00     0.222 C 
BRANCH   8   9
ATOM      9  N   UNL A   1      31.797  24.690  23.713  1.00  0.00    -0.334 N 
ATOM     10  C   UNL A   1      32.411  23.623  23.092  1.00  0.00     0.087 A 
ATOM     11  C   UNL A   1      32.305  25.877  23.203  1.00  0.00     0.107 A 
ATOM     12  C   UNL A   1      33.149  24.105  22.039  1.00  0.00     0.020 A 
ATOM     13  C   UNL A   1      33.051  25.512  22.086  1.00  0.00     0.033 A 
BRANCH  11  14
ATOM     14  C   UNL A   1      32.022  27.246  23.622  1.00  0.00     0.270 C 
ATOM     15  O   UNL A   1      31.548  28.083  22.856  1.00  0.00    -0.267 OA
BRANCH  14  16
ATOM     16  N   UNL A   1      32.197  27.517  24.964  1.00  0.00    -0.326 N 
ATOM     17  C   UNL A   1      33.400  27.100  25.694  1.00  0.00     0.181 C 
ATOM     18  C   UNL A   1      31.481  28.650  25.524  1.00  0.00     0.185 C 
ATOM     19  C   UNL A   1      34.195  28.273  26.366  1.00  0.00     0.284 C 
ATOM     20  C   UNL A   1      32.402  29.793  25.875  1.00  0.00     0.204 C 
ATOM     21  N   UNL A   1      33.314  29.309  26.910  1.00  0.00    -0.330 N 
ATOM     22  C   UNL A   1      31.739  30.963  26.570  1.00  0.00     0.073 C 
ATOM     23  C   UNL A   1      33.931  30.492  27.503  1.00  0.00     0.262 C 
ATOM     24  H   UNL A   1      32.858  28.814  27.678  1.00  0.00     0.348 HD
ATOM     25  C   UNL A   1      32.930  31.630  27.242  1.00  0.00     0.068 C 
ENDBRANCH  14  16
ENDBRANCH  11  14
ENDBRANCH   8   9
ENDBRANCH   6   8
ENDBRANCH   3   4
ENDBRANCH   2   3
ENDBRANCH   1   2
BRANCH   1  26
ATOM     26  C   UNL A   1      35.806  21.540  25.667  1.00  0.00     0.002 C 
BRANCH  26  27
ATOM     27  C   UNL A   1      36.271  22.968  25.989  1.00  0.00     0.021 C 
BRANCH  27  28
ATOM     28  C   UNL A   1      37.571  23.420  25.313  1.00  0.00     0.116 C 
BRANCH  28  29
ATOM     29  N   UNL A   1      38.704  22.597  25.700  1.00  0.00    -0.352 N 
ATOM     30  C   UNL A   1      39.893  22.987  26.274  1.00  0.00     0.251 C 
ATOM     31  H   UNL A   1      38.609  21.632  25.529  1.00  0.00     0.163 HD
ATOM     32  O   UNL A   1      40.858  22.237  26.243  1.00  0.00    -0.269 OA
BRANCH  30  33
ATOM     33  C   UNL A   1      40.013  24.307  26.933  1.00  0.00     0.039 A 
ATOM     34  C   UNL A   1      39.344  24.516  28.145  1.00  0.00     0.014 A 
ATOM     35  C   UNL A   1      40.694  25.360  26.312  1.00  0.00     0.014 A 
ATOM     36  C   UNL A   1      39.407  25.764  28.762  1.00  0.00     0.010 A 
ATOM     37  C   UNL A   1      40.757  26.609  26.925  1.00  0.00     0.010 A 
ATOM     38  C   UNL A   1      40.129  26.805  28.160  1.00  0.00    -0.014 A 
BRANCH  38  39
ATOM     39  C   UNL A   1      40.372  28.049  28.933  1.00  0.00     0.031 A 
ATOM     40  C   UNL A   1      41.613  27.901  29.848  1.00  0.00     0.074 A 
ATOM     41  C   UNL A   1      39.474  29.072  28.771  1.00  0.00     0.049 A 
ATOM     42  N   UNL A   1      41.880  28.473  30.981  1.00  0.00    -0.248 NA
ATOM     43  C   UNL A   1      42.675  26.911  29.503  1.00  0.00     0.031 C 
ATOM     44  C   UNL A   1      38.344  29.061  27.807  1.00  0.00     0.029 A 
ATOM     45  N   UNL A   1      39.303  30.312  29.356  1.00  0.00    -0.354 N 
ATOM     46  C   UNL A   1      43.164  28.046  31.405  1.00  0.00     0.074 A 
ATOM     47  C   UNL A   1      43.567  27.022  30.492  1.00  0.00     0.031 C 
ATOM     48  C   UNL A   1      37.578  30.168  27.937  1.00  0.00     0.029 A 
ATOM     49  C   UNL A   1      38.122  31.016  28.979  1.00  0.00     0.049 A 
ATOM     50  H   UNL A   1      39.955  30.685  29.993  1.00  0.00     0.167 HD
ATOM     51  C   UNL A   1      43.851  28.644  32.427  1.00  0.00     0.031 A 
ATOM     52  C   UNL A   1      37.593  32.167  29.506  1.00  0.00     0.031 A 
ATOM     53  C   UNL A   1      43.049  29.667  33.001  1.00  0.00     0.049 A 
ATOM     54  C   UNL A   1      38.581  32.632  30.490  1.00  0.00     0.074 A 
ATOM     55  C   UNL A   1      41.927  29.631  33.787  1.00  0.00     0.029 A 
ATOM     56  N   UNL A   1      43.179  30.915  32.442  1.00  0.00    -0.354 N 
ATOM     57  N   UNL A   1      39.726  33.171  30.208  1.00  0.00    -0.248 NA
ATOM     58  C   UNL A   1      38.294  32.420  31.915  1.00  0.00     0.031 C 
ATOM     59  C   UNL A   1      41.142  30.669  33.248  1.00  0.00     0.029 A 
ATOM     60  C   UNL A   1      41.913  31.431  32.362  1.00  0.00     0.049 A 
ATOM     61  H   UNL A   1      44.014  31.350  32.156  1.00  0.00     0.167 HD
ATOM     62  C   UNL A   1      40.422  32.992  31.376  1.00  0.00     0.074 A 
ATOM     63  C   UNL A   1      39.441  32.853  32.430  1.00  0.00     0.031 C 
ATOM     64  C   UNL A   1      41.646  32.409  31.339  1.00  0.00     0.031 A 
BRANCH  51  65
ATOM     65  C   UNL A   1      45.290  28.598  32.875  1.00  0.00    -0.014 A 
ATOM     66  C   UNL A   1      46.264  29.062  31.947  1.00  0.00     0.010 A 
ATOM     67  C   UNL A   1      45.748  27.831  33.954  1.00  0.00     0.010 A 
ATOM     68  C   UNL A   1      47.598  28.655  32.002  1.00  0.00     0.020 A 
ATOM     69  C   UNL A   1      47.102  27.449  34.038  1.00  0.00     0.020 A 
ATOM     70  C   UNL A   1      48.002  27.818  33.033  1.00  0.00     0.054 A 
BRANCH  70  71
ATOM     71  S   UNL A   1      49.699  27.172  32.988  1.00  0.00     0.124 S 
ATOM     72  O   UNL A   1      50.287  27.924  31.883  1.00  0.00    -0.237 OA
ATOM     73  O   UNL A   1      50.203  27.518  34.316  1.00  0.00    -0.237 OA
ATOM     74  O   UNL A   1      49.516  25.743  32.752  1.00  0.00    -0.744 OA
ENDBRANCH  70  71
ENDBRANCH  51  65
BRANCH  52  75
ATOM     75  C   UNL A   1      36.301  32.966  29.479  1.00  0.00    -0.014 A 
ATOM     76  C   UNL A   1      35.489  33.290  30.571  1.00  0.00     0.010 A 
ATOM     77  C   UNL A   1      35.929  33.583  28.244  1.00  0.00     0.010 A 
ATOM     78  C   UNL A   1      34.491  34.297  30.467  1.00  0.00     0.020 A 
ATOM     79  C   UNL A   1      34.996  34.616  28.139  1.00  0.00     0.020 A 
ATOM     80  C   UNL A   1      34.298  34.997  29.269  1.00  0.00     0.054 A 
BRANCH  80  81
ATOM     81  S   UNL A   1      33.270  36.495  29.204  1.00  0.00     0.124 S 
ATOM     82  O   UNL A   1      32.018  35.995  28.646  1.00  0.00    -0.237 OA
ATOM     83  O   UNL A   1      33.217  36.910  30.604  1.00  0.00    -0.237 OA
ATOM     84  O   UNL A   1      34.028  37.393  28.333  1.00  0.00    -0.744 OA
ENDBRANCH  80  81
ENDBRANCH  52  75
BRANCH  64  85
ATOM     85  C   UNL A   1      42.425  32.577  30.045  1.00  0.00    -0.014 A 
ATOM     86  C   UNL A   1      42.804  31.425  29.332  1.00  0.00     0.010 A 
ATOM     87  C   UNL A   1      42.844  33.824  29.532  1.00  0.00     0.010 A 
ATOM     88  C   UNL A   1      43.552  31.505  28.149  1.00  0.00     0.020 A 
ATOM     89  C   UNL A   1      43.597  33.915  28.344  1.00  0.00     0.020 A 
ATOM     90  C   UNL A   1      43.940  32.750  27.654  1.00  0.00     0.054 A 
BRANCH  90  91
ATOM     91  S   UNL A   1      44.879  32.808  26.098  1.00  0.00     0.124 S 
ATOM     92  O   UNL A   1      43.906  33.351  25.153  1.00  0.00    -0.237 OA
ATOM     93  O   UNL A   1      45.986  33.700  26.432  1.00  0.00    -0.237 OA
ATOM     94  O   UNL A   1      45.254  31.415  25.862  1.00  0.00    -0.744 OA
ENDBRANCH  90  91
ENDBRANCH  64  85
ENDBRANCH  38  39
ENDBRANCH  30  33
ENDBRANCH  28  29
ENDBRANCH  27  28
ENDBRANCH  26  27
ENDBRANCH   1  26
TORSDOF 19
ENDMDL
