MODEL 1
REMARK VINA RESULT:     -11.0      0.000      0.000
REMARK SMILES CC[C@@]1(C)NC(=O)N(/N=C/c2ccccc2C(=O)NCCCCCCNC(=O)c2ccc(-c3c4nc(c(-c5ccc(S(=O)(=O)[O-])cc5)c5ccc([nH]5)c(-c5ccc(S(=O)(=O)[O-])cc5)c5nc(c(-c6ccc(S(=O)(=O)[O-])cc6)c6ccc3[nH]6)C=C5)C=C4)cc2)C1=O
REMARK SMILES IDX 22 1 21 2 20 3 19 4 17 5 18 6 16 8 11 9 12 10 13 11 15 12
REMARK SMILES IDX 14 13 10 14 9 15 8 16 3 17 4 18 5 19 89 20 6 21 90 23 7 24
REMARK SMILES IDX 2 25 1 26 23 27 24 28 25 29 26 30 27 31 28 33 29 34 30 35
REMARK SMILES IDX 88 36 31 37 87 38 32 39 33 40 34 41 81 42 35 43 86 44 80 45
REMARK SMILES IDX 82 46 36 47 85 48 79 49 78 50 37 52 67 53 48 54 66 55 49 56
REMARK SMILES IDX 52 57 65 58 83 59 50 60 51 61 64 63 84 64 53 65 38 66 39 67
REMARK SMILES IDX 47 68 40 69 46 70 41 71 42 72 43 73 44 74 45 75 68 76 69 77
REMARK SMILES IDX 77 78 70 79 76 80 71 81 72 82 73 83 74 84 75 85 54 86 55 87
REMARK SMILES IDX 63 88 56 89 62 90 57 91 58 92 59 93 60 94 61 95
REMARK H PARENT 19 7 5 22 26 32 82 51 52 62
REMARK Flexibility Score: inf
ROOT
ATOM      1  C   UNL A   1      34.425  26.242  25.738  1.00  0.00     0.002 C 
ENDROOT
BRANCH   1   2
ATOM      2  C   UNL A   1      33.455  27.194  25.020  1.00  0.00     0.021 C 
BRANCH   2   3
ATOM      3  C   UNL A   1      33.841  27.706  23.634  1.00  0.00     0.116 C 
BRANCH   3   4
ATOM      4  N   UNL A   1      33.507  26.855  22.513  1.00  0.00    -0.352 N 
ATOM      5  C   UNL A   1      32.285  26.575  21.935  1.00  0.00     0.251 C 
ATOM      6  O   UNL A   1      32.288  25.948  20.872  1.00  0.00    -0.269 OA
ATOM      7  H   UNL A   1      34.274  26.403  22.094  1.00  0.00     0.163 HD
BRANCH   5   8
ATOM      8  C   UNL A   1      30.965  26.824  22.589  1.00  0.00     0.048 A 
ATOM      9  C   UNL A   1      30.234  25.981  23.436  1.00  0.00     0.007 A 
ATOM     10  C   UNL A   1      28.960  26.368  23.901  1.00  0.00     0.010 A 
ATOM     11  C   UNL A   1      28.427  27.614  23.579  1.00  0.00     0.001 A 
ATOM     12  C   UNL A   1      30.418  28.098  22.307  1.00  0.00     0.014 A 
ATOM     13  C   UNL A   1      29.166  28.488  22.794  1.00  0.00     0.001 A 
BRANCH   9  14
ATOM     14  C   UNL A   1      30.655  24.659  23.924  1.00  0.00     0.143 C 
ATOM     15  N   UNL A   1      31.296  24.497  25.028  1.00  0.00    -0.169 NA
BRANCH  15  16
ATOM     16  N   UNL A   1      31.751  23.243  25.365  1.00  0.00    -0.146 N 
ATOM     17  C   UNL A   1      32.868  21.160  25.555  1.00  0.00     0.120 C 
ATOM     18  C   UNL A   1      32.261  19.891  24.980  1.00  0.00     0.045 C 
ATOM     19  N   UNL A   1      32.182  21.563  26.762  1.00  0.00    -0.322 N 
ATOM     20  C   UNL A   1      32.589  22.389  24.664  1.00  0.00     0.276 C 
ATOM     21  C   UNL A   1      31.532  22.765  26.636  1.00  0.00     0.346 C 
ATOM     22  H   UNL A   1      32.180  21.029  27.589  1.00  0.00     0.166 HD
ATOM     23  O   UNL A   1      33.089  22.539  23.555  1.00  0.00    -0.270 OA
ATOM     24  O   UNL A   1      30.935  23.285  27.573  1.00  0.00    -0.246 OA
BRANCH  17  25
ATOM     25  C   UNL A   1      34.371  20.997  25.760  1.00  0.00     0.035 C 
ATOM     26  C   UNL A   1      34.995  20.114  24.702  1.00  0.00     0.007 C 
ENDBRANCH  17  25
ENDBRANCH  15  16
ENDBRANCH   9  14
ENDBRANCH   5   8
ENDBRANCH   3   4
ENDBRANCH   2   3
ENDBRANCH   1   2
BRANCH   1  27
ATOM     27  C   UNL A   1      34.804  24.910  25.065  1.00  0.00     0.002 C 
BRANCH  27  28
ATOM     28  C   UNL A   1      36.020  24.146  25.609  1.00  0.00     0.021 C 
BRANCH  28  29
ATOM     29  C   UNL A   1      36.940  23.408  24.617  1.00  0.00     0.116 C 
BRANCH  29  30
ATOM     30  N   UNL A   1      38.005  22.626  25.253  1.00  0.00    -0.352 N 
ATOM     31  C   UNL A   1      39.012  22.886  26.166  1.00  0.00     0.251 C 
ATOM     32  H   UNL A   1      38.002  21.686  24.958  1.00  0.00     0.163 HD
ATOM     33  O   UNL A   1      39.732  21.932  26.473  1.00  0.00    -0.269 OA
BRANCH  31  34
ATOM     34  C   UNL A   1      39.358  24.233  26.738  1.00  0.00     0.039 A 
ATOM     35  C   UNL A   1      38.940  24.504  28.060  1.00  0.00     0.014 A 
ATOM     36  C   UNL A   1      40.122  25.206  26.095  1.00  0.00     0.014 A 
ATOM     37  C   UNL A   1      39.333  25.676  28.743  1.00  0.00     0.010 A 
ATOM     38  C   UNL A   1      40.550  26.360  26.793  1.00  0.00     0.010 A 
ATOM     39  C   UNL A   1      40.165  26.619  28.127  1.00  0.00    -0.014 A 
BRANCH  39  40
ATOM     40  C   UNL A   1      40.527  27.923  28.794  1.00  0.00     0.031 A 
ATOM     41  C   UNL A   1      41.913  28.083  29.381  1.00  0.00     0.074 A 
ATOM     42  C   UNL A   1      39.674  28.967  28.916  1.00  0.00     0.049 A 
ATOM     43  N   UNL A   1      42.415  29.069  30.084  1.00  0.00    -0.248 NA
ATOM     44  C   UNL A   1      42.850  26.971  29.156  1.00  0.00     0.031 C 
ATOM     45  C   UNL A   1      38.311  29.031  28.392  1.00  0.00     0.029 A 
ATOM     46  N   UNL A   1      39.834  30.190  29.543  1.00  0.00    -0.354 N 
ATOM     47  C   UNL A   1      43.715  28.688  30.402  1.00  0.00     0.074 A 
ATOM     48  C   UNL A   1      43.900  27.356  29.863  1.00  0.00     0.031 C 
ATOM     49  C   UNL A   1      37.764  30.219  28.717  1.00  0.00     0.029 A 
ATOM     50  C   UNL A   1      38.719  31.003  29.501  1.00  0.00     0.049 A 
ATOM     51  H   UNL A   1      40.673  30.459  29.984  1.00  0.00     0.167 HD
ATOM     52  C   UNL A   1      44.685  29.373  31.054  1.00  0.00     0.031 A 
ATOM     53  C   UNL A   1      38.480  32.227  30.028  1.00  0.00     0.031 A 
ATOM     54  C   UNL A   1      44.546  30.702  31.586  1.00  0.00     0.049 A 
ATOM     55  C   UNL A   1      39.552  32.947  30.822  1.00  0.00     0.074 A 
ATOM     56  C   UNL A   1      45.501  31.468  32.237  1.00  0.00     0.029 A 
ATOM     57  N   UNL A   1      43.394  31.467  31.533  1.00  0.00    -0.354 N 
ATOM     58  N   UNL A   1      40.783  32.575  31.077  1.00  0.00    -0.248 NA
ATOM     59  C   UNL A   1      39.202  34.263  31.389  1.00  0.00     0.031 C 
ATOM     60  C   UNL A   1      44.910  32.672  32.627  1.00  0.00     0.029 A 
ATOM     61  C   UNL A   1      43.608  32.686  32.156  1.00  0.00     0.049 A 
ATOM     62  H   UNL A   1      42.549  31.187  31.114  1.00  0.00     0.167 HD
ATOM     63  C   UNL A   1      41.361  33.629  31.786  1.00  0.00     0.074 A 
ATOM     64  C   UNL A   1      40.353  34.653  31.921  1.00  0.00     0.031 C 
ATOM     65  C   UNL A   1      42.623  33.732  32.271  1.00  0.00     0.031 A 
BRANCH  52  66
ATOM     66  C   UNL A   1      46.011  28.680  31.237  1.00  0.00    -0.014 A 
ATOM     67  C   UNL A   1      47.030  28.804  30.277  1.00  0.00     0.010 A 
ATOM     68  C   UNL A   1      46.247  27.922  32.398  1.00  0.00     0.010 A 
ATOM     69  C   UNL A   1      48.243  28.135  30.446  1.00  0.00     0.020 A 
ATOM     70  C   UNL A   1      47.474  27.282  32.589  1.00  0.00     0.020 A 
ATOM     71  C   UNL A   1      48.456  27.375  31.600  1.00  0.00     0.054 A 
BRANCH  71  72
ATOM     72  S   UNL A   1      50.044  26.524  31.794  1.00  0.00     0.124 S 
ATOM     73  O   UNL A   1      50.951  27.415  31.075  1.00  0.00    -0.237 OA
ATOM     74  O   UNL A   1      50.213  26.492  33.244  1.00  0.00    -0.237 OA
ATOM     75  O   UNL A   1      49.821  25.224  31.165  1.00  0.00    -0.744 OA
ENDBRANCH  71  72
ENDBRANCH  52  66
BRANCH  53  76
ATOM     76  C   UNL A   1      37.154  32.895  29.841  1.00  0.00    -0.014 A 
ATOM     77  C   UNL A   1      36.876  33.618  28.665  1.00  0.00     0.010 A 
ATOM     78  C   UNL A   1      36.190  32.875  30.866  1.00  0.00     0.010 A 
ATOM     79  C   UNL A   1      35.678  34.330  28.529  1.00  0.00     0.020 A 
ATOM     80  C   UNL A   1      34.977  33.561  30.721  1.00  0.00     0.020 A 
ATOM     81  C   UNL A   1      34.734  34.296  29.559  1.00  0.00     0.054 A 
BRANCH  81  82
ATOM     82  S   UNL A   1      33.173  35.198  29.348  1.00  0.00     0.124 S 
ATOM     83  O   UNL A   1      33.637  36.523  28.950  1.00  0.00    -0.237 OA
ATOM     84  O   UNL A   1      32.502  34.423  28.308  1.00  0.00    -0.237 OA
ATOM     85  O   UNL A   1      32.554  35.122  30.669  1.00  0.00    -0.744 OA
ENDBRANCH  81  82
ENDBRANCH  53  76
BRANCH  65  86
ATOM     86  C   UNL A   1      43.045  35.020  32.939  1.00  0.00    -0.014 A 
ATOM     87  C   UNL A   1      42.845  35.245  34.312  1.00  0.00     0.010 A 
ATOM     88  C   UNL A   1      43.753  35.981  32.191  1.00  0.00     0.010 A 
ATOM     89  C   UNL A   1      43.332  36.409  34.919  1.00  0.00     0.020 A 
ATOM     90  C   UNL A   1      44.266  37.133  32.798  1.00  0.00     0.020 A 
ATOM     91  C   UNL A   1      44.046  37.342  34.160  1.00  0.00     0.054 A 
BRANCH  91  92
ATOM     92  S   UNL A   1      44.735  38.805  34.988  1.00  0.00     0.124 S 
ATOM     93  O   UNL A   1      44.704  38.404  36.392  1.00  0.00    -0.237 OA
ATOM     94  O   UNL A   1      46.066  38.909  34.394  1.00  0.00    -0.237 OA
ATOM     95  O   UNL A   1      43.812  39.877  34.626  1.00  0.00    -0.744 OA
ENDBRANCH  91  92
ENDBRANCH  65  86
ENDBRANCH  39  40
ENDBRANCH  31  34
ENDBRANCH  29  30
ENDBRANCH  28  29
ENDBRANCH  27  28
ENDBRANCH   1  27
TORSDOF 19
ENDMDL
MODEL 2
REMARK VINA RESULT:     -11.0      4.201      9.196
REMARK SMILES CC[C@@]1(C)NC(=O)N(/N=C/c2ccccc2C(=O)NCCCCCCNC(=O)c2ccc(-c3c4nc(c(-c5ccc(S(=O)(=O)[O-])cc5)c5ccc([nH]5)c(-c5ccc(S(=O)(=O)[O-])cc5)c5nc(c(-c6ccc(S(=O)(=O)[O-])cc6)c6ccc3[nH]6)C=C5)C=C4)cc2)C1=O
REMARK SMILES IDX 22 1 21 2 20 3 19 4 17 5 18 6 16 8 11 9 12 10 13 11 15 12
REMARK SMILES IDX 14 13 10 14 9 15 8 16 3 17 4 18 5 19 89 20 6 21 90 23 7 24
REMARK SMILES IDX 2 25 1 26 23 27 24 28 25 29 26 30 27 31 28 33 29 34 30 35
REMARK SMILES IDX 88 36 31 37 87 38 32 39 33 40 34 41 81 42 35 43 86 44 80 45
REMARK SMILES IDX 82 46 36 47 85 48 79 49 78 50 37 52 67 53 48 54 66 55 49 56
REMARK SMILES IDX 52 57 65 58 83 59 50 60 51 61 64 63 84 64 53 65 38 66 39 67
REMARK SMILES IDX 47 68 40 69 46 70 41 71 42 72 43 73 44 74 45 75 68 76 69 77
REMARK SMILES IDX 77 78 70 79 76 80 71 81 72 82 73 83 74 84 75 85 54 86 55 87
REMARK SMILES IDX 63 88 56 89 62 90 57 91 58 92 59 93 60 94 61 95
REMARK H PARENT 19 7 5 22 26 32 82 51 52 62
REMARK Flexibility Score: inf
ROOT
ATOM      1  C   UNL A   1      33.668  29.356  27.558  1.00  0.00     0.002 C 
ENDROOT
BRANCH   1   2
ATOM      2  C   UNL A   1      33.399  28.449  26.348  1.00  0.00     0.021 C 
BRANCH   2   3
ATOM      3  C   UNL A   1      33.316  29.094  24.967  1.00  0.00     0.116 C 
BRANCH   3   4
ATOM      4  N   UNL A   1      33.488  28.217  23.830  1.00  0.00    -0.352 N 
ATOM      5  C   UNL A   1      32.580  27.789  22.883  1.00  0.00     0.251 C 
ATOM      6  O   UNL A   1      33.020  27.174  21.908  1.00  0.00    -0.269 OA
ATOM      7  H   UNL A   1      34.401  27.867  23.712  1.00  0.00     0.163 HD
BRANCH   5   8
ATOM      8  C   UNL A   1      31.096  27.865  23.042  1.00  0.00     0.048 A 
ATOM      9  C   UNL A   1      30.207  26.866  23.463  1.00  0.00     0.007 A 
ATOM     10  C   UNL A   1      28.819  27.110  23.480  1.00  0.00     0.010 A 
ATOM     11  C   UNL A   1      28.305  28.358  23.138  1.00  0.00     0.001 A 
ATOM     12  C   UNL A   1      30.552  29.134  22.735  1.00  0.00     0.014 A 
ATOM     13  C   UNL A   1      29.175  29.378  22.781  1.00  0.00     0.001 A 
BRANCH   9  14
ATOM     14  C   UNL A   1      30.568  25.513  23.910  1.00  0.00     0.143 C 
ATOM     15  N   UNL A   1      30.790  25.223  25.144  1.00  0.00    -0.169 NA
BRANCH  15  16
ATOM     16  N   UNL A   1      31.228  23.961  25.471  1.00  0.00    -0.146 N 
ATOM     17  C   UNL A   1      32.413  21.932  25.787  1.00  0.00     0.120 C 
ATOM     18  C   UNL A   1      32.141  20.722  24.909  1.00  0.00     0.045 C 
ATOM     19  N   UNL A   1      31.343  22.133  26.739  1.00  0.00    -0.322 N 
ATOM     20  C   UNL A   1      32.321  23.253  24.995  1.00  0.00     0.276 C 
ATOM     21  C   UNL A   1      30.659  23.306  26.538  1.00  0.00     0.346 C 
ATOM     22  H   UNL A   1      31.127  21.493  27.455  1.00  0.00     0.166 HD
ATOM     23  O   UNL A   1      33.133  23.576  24.135  1.00  0.00    -0.270 OA
ATOM     24  O   UNL A   1      29.749  23.664  27.279  1.00  0.00    -0.246 OA
BRANCH  17  25
ATOM     25  C   UNL A   1      33.780  21.820  26.455  1.00  0.00     0.035 C 
ATOM     26  C   UNL A   1      33.744  22.272  27.900  1.00  0.00     0.007 C 
ENDBRANCH  17  25
ENDBRANCH  15  16
ENDBRANCH   9  14
ENDBRANCH   5   8
ENDBRANCH   3   4
ENDBRANCH   2   3
ENDBRANCH   1   2
BRANCH   1  27
ATOM     27  C   UNL A   1      34.737  30.459  27.446  1.00  0.00     0.002 C 
BRANCH  27  28
ATOM     28  C   UNL A   1      34.474  31.794  28.158  1.00  0.00     0.021 C 
BRANCH  28  29
ATOM     29  C   UNL A   1      35.403  32.216  29.314  1.00  0.00     0.116 C 
BRANCH  29  30
ATOM     30  N   UNL A   1      35.504  31.229  30.394  1.00  0.00    -0.352 N 
ATOM     31  C   UNL A   1      36.494  30.395  30.881  1.00  0.00     0.251 C 
ATOM     32  H   UNL A   1      34.661  31.139  30.895  1.00  0.00     0.163 HD
ATOM     33  O   UNL A   1      36.189  29.687  31.846  1.00  0.00    -0.269 OA
BRANCH  31  34
ATOM     34  C   UNL A   1      37.864  30.210  30.288  1.00  0.00     0.039 A 
ATOM     35  C   UNL A   1      38.940  30.020  31.184  1.00  0.00     0.014 A 
ATOM     36  C   UNL A   1      38.145  30.139  28.924  1.00  0.00     0.014 A 
ATOM     37  C   UNL A   1      40.239  29.696  30.734  1.00  0.00     0.010 A 
ATOM     38  C   UNL A   1      39.436  29.774  28.475  1.00  0.00     0.010 A 
ATOM     39  C   UNL A   1      40.507  29.547  29.368  1.00  0.00    -0.014 A 
BRANCH  39  40
ATOM     40  C   UNL A   1      41.901  29.292  28.849  1.00  0.00     0.031 A 
ATOM     41  C   UNL A   1      42.263  27.900  28.378  1.00  0.00     0.074 A 
ATOM     42  C   UNL A   1      42.867  30.240  28.794  1.00  0.00     0.049 A 
ATOM     43  N   UNL A   1      43.420  27.423  27.987  1.00  0.00    -0.248 NA
ATOM     44  C   UNL A   1      41.173  26.912  28.362  1.00  0.00     0.031 C 
ATOM     45  C   UNL A   1      42.716  31.646  29.166  1.00  0.00     0.029 A 
ATOM     46  N   UNL A   1      44.192  30.151  28.405  1.00  0.00    -0.354 N 
ATOM     47  C   UNL A   1      43.202  26.080  27.701  1.00  0.00     0.074 A 
ATOM     48  C   UNL A   1      41.816  25.807  28.019  1.00  0.00     0.031 C 
ATOM     49  C   UNL A   1      43.890  32.281  28.990  1.00  0.00     0.029 A 
ATOM     50  C   UNL A   1      44.899  31.332  28.519  1.00  0.00     0.049 A 
ATOM     51  H   UNL A   1      44.598  29.317  28.076  1.00  0.00     0.167 HD
ATOM     52  C   UNL A   1      44.051  25.151  27.196  1.00  0.00     0.031 A 
ATOM     53  C   UNL A   1      46.200  31.624  28.284  1.00  0.00     0.031 A 
ATOM     54  C   UNL A   1      45.427  25.387  26.850  1.00  0.00     0.049 A 
ATOM     55  C   UNL A   1      47.154  30.553  27.793  1.00  0.00     0.074 A 
ATOM     56  C   UNL A   1      46.338  24.496  26.307  1.00  0.00     0.029 A 
ATOM     57  N   UNL A   1      46.093  26.590  27.004  1.00  0.00    -0.354 N 
ATOM     58  N   UNL A   1      46.911  29.300  27.499  1.00  0.00    -0.248 NA
ATOM     59  C   UNL A   1      48.561  30.947  27.590  1.00  0.00     0.031 C 
ATOM     60  C   UNL A   1      47.571  25.142  26.186  1.00  0.00     0.029 A 
ATOM     61  C   UNL A   1      47.408  26.457  26.586  1.00  0.00     0.049 A 
ATOM     62  H   UNL A   1      45.693  27.417  27.357  1.00  0.00     0.167 HD
ATOM     63  C   UNL A   1      48.117  28.775  27.032  1.00  0.00     0.074 A 
ATOM     64  C   UNL A   1      49.089  29.842  27.080  1.00  0.00     0.031 C 
ATOM     65  C   UNL A   1      48.382  27.519  26.596  1.00  0.00     0.031 A 
BRANCH  52  66
ATOM     66  C   UNL A   1      43.504  23.763  26.988  1.00  0.00    -0.014 A 
ATOM     67  C   UNL A   1      43.227  23.280  25.698  1.00  0.00     0.010 A 
ATOM     68  C   UNL A   1      43.295  22.922  28.097  1.00  0.00     0.010 A 
ATOM     69  C   UNL A   1      42.696  22.001  25.522  1.00  0.00     0.020 A 
ATOM     70  C   UNL A   1      42.800  21.628  27.922  1.00  0.00     0.020 A 
ATOM     71  C   UNL A   1      42.482  21.185  26.636  1.00  0.00     0.054 A 
BRANCH  71  72
ATOM     72  S   UNL A   1      41.798  19.527  26.374  1.00  0.00     0.124 S 
ATOM     73  O   UNL A   1      42.427  19.139  25.114  1.00  0.00    -0.237 OA
ATOM     74  O   UNL A   1      42.259  18.802  27.555  1.00  0.00    -0.237 OA
ATOM     75  O   UNL A   1      40.356  19.752  26.306  1.00  0.00    -0.744 OA
ENDBRANCH  71  72
ENDBRANCH  52  66
BRANCH  53  76
ATOM     76  C   UNL A   1      46.724  33.008  28.504  1.00  0.00    -0.014 A 
ATOM     77  C   UNL A   1      46.715  33.952  27.458  1.00  0.00     0.010 A 
ATOM     78  C   UNL A   1      47.303  33.370  29.734  1.00  0.00     0.010 A 
ATOM     79  C   UNL A   1      47.299  35.214  27.627  1.00  0.00     0.020 A 
ATOM     80  C   UNL A   1      47.859  34.642  29.917  1.00  0.00     0.020 A 
ATOM     81  C   UNL A   1      47.866  35.552  28.858  1.00  0.00     0.054 A 
BRANCH  81  82
ATOM     82  S   UNL A   1      48.587  37.205  29.067  1.00  0.00     0.124 S 
ATOM     83  O   UNL A   1      48.004  37.937  27.947  1.00  0.00    -0.237 OA
ATOM     84  O   UNL A   1      48.110  37.588  30.393  1.00  0.00    -0.237 OA
ATOM     85  O   UNL A   1      50.025  36.964  28.978  1.00  0.00    -0.744 OA
ENDBRANCH  81  82
ENDBRANCH  53  76
BRANCH  65  86
ATOM     86  C   UNL A   1      49.760  27.211  26.056  1.00  0.00    -0.014 A 
ATOM     87  C   UNL A   1      50.798  26.754  26.885  1.00  0.00     0.010 A 
ATOM     88  C   UNL A   1      49.983  27.281  24.666  1.00  0.00     0.010 A 
ATOM     89  C   UNL A   1      52.034  26.386  26.338  1.00  0.00     0.020 A 
ATOM     90  C   UNL A   1      51.206  26.889  24.112  1.00  0.00     0.020 A 
ATOM     91  C   UNL A   1      52.228  26.449  24.955  1.00  0.00     0.054 A 
BRANCH  91  92
ATOM     92  S   UNL A   1      53.813  25.892  24.264  1.00  0.00     0.124 S 
ATOM     93  O   UNL A   1      53.849  24.491  24.674  1.00  0.00    -0.237 OA
ATOM     94  O   UNL A   1      53.635  26.123  22.832  1.00  0.00    -0.237 OA
ATOM     95  O   UNL A   1      54.797  26.756  24.911  1.00  0.00    -0.744 OA
ENDBRANCH  91  92
ENDBRANCH  65  86
ENDBRANCH  39  40
ENDBRANCH  31  34
ENDBRANCH  29  30
ENDBRANCH  28  29
ENDBRANCH  27  28
ENDBRANCH   1  27
TORSDOF 19
ENDMDL
MODEL 3
REMARK VINA RESULT:     -10.8      1.661      3.803
REMARK SMILES CC[C@@]1(C)NC(=O)N(/N=C/c2ccccc2C(=O)NCCCCCCNC(=O)c2ccc(-c3c4nc(c(-c5ccc(S(=O)(=O)[O-])cc5)c5ccc([nH]5)c(-c5ccc(S(=O)(=O)[O-])cc5)c5nc(c(-c6ccc(S(=O)(=O)[O-])cc6)c6ccc3[nH]6)C=C5)C=C4)cc2)C1=O
REMARK SMILES IDX 22 1 21 2 20 3 19 4 17 5 18 6 16 8 11 9 12 10 13 11 15 12
REMARK SMILES IDX 14 13 10 14 9 15 8 16 3 17 4 18 5 19 89 20 6 21 90 23 7 24
REMARK SMILES IDX 2 25 1 26 23 27 24 28 25 29 26 30 27 31 28 33 29 34 30 35
REMARK SMILES IDX 88 36 31 37 87 38 32 39 33 40 34 41 81 42 35 43 86 44 80 45
REMARK SMILES IDX 82 46 36 47 85 48 79 49 78 50 37 52 67 53 48 54 66 55 49 56
REMARK SMILES IDX 52 57 65 58 83 59 50 60 51 61 64 63 84 64 53 65 38 66 39 67
REMARK SMILES IDX 47 68 40 69 46 70 41 71 42 72 43 73 44 74 45 75 68 76 69 77
REMARK SMILES IDX 77 78 70 79 76 80 71 81 72 82 73 83 74 84 75 85 54 86 55 87
REMARK SMILES IDX 63 88 56 89 62 90 57 91 58 92 59 93 60 94 61 95
REMARK H PARENT 19 7 5 22 26 32 82 51 52 62
REMARK Flexibility Score: inf
ROOT
ATOM      1  C   UNL A   1      34.513  26.075  25.716  1.00  0.00     0.002 C 
ENDROOT
BRANCH   1   2
ATOM      2  C   UNL A   1      33.472  27.020  25.095  1.00  0.00     0.021 C 
BRANCH   2   3
ATOM      3  C   UNL A   1      33.674  27.465  23.649  1.00  0.00     0.116 C 
BRANCH   3   4
ATOM      4  N   UNL A   1      33.179  26.575  22.622  1.00  0.00    -0.352 N 
ATOM      5  C   UNL A   1      32.092  25.724  22.623  1.00  0.00     0.251 C 
ATOM      6  O   UNL A   1      31.782  25.195  21.552  1.00  0.00    -0.269 OA
ATOM      7  H   UNL A   1      33.700  26.575  21.788  1.00  0.00     0.163 HD
BRANCH   5   8
ATOM      8  C   UNL A   1      31.380  25.266  23.854  1.00  0.00     0.048 A 
ATOM      9  C   UNL A   1      30.393  25.931  24.594  1.00  0.00     0.007 A 
ATOM     10  C   UNL A   1      29.887  25.361  25.780  1.00  0.00     0.010 A 
ATOM     11  C   UNL A   1      30.311  24.107  26.212  1.00  0.00     0.001 A 
ATOM     12  C   UNL A   1      31.767  23.978  24.294  1.00  0.00     0.014 A 
ATOM     13  C   UNL A   1      31.242  23.406  25.457  1.00  0.00     0.001 A 
BRANCH   9  14
ATOM     14  C   UNL A   1      29.787  27.230  24.266  1.00  0.00     0.143 C 
ATOM     15  N   UNL A   1      29.091  27.425  23.202  1.00  0.00    -0.169 NA
BRANCH  15  16
ATOM     16  N   UNL A   1      28.648  28.694  22.910  1.00  0.00    -0.146 N 
ATOM     17  C   UNL A   1      28.282  30.883  22.074  1.00  0.00     0.120 C 
ATOM     18  C   UNL A   1      28.738  32.105  22.854  1.00  0.00     0.045 C 
ATOM     19  N   UNL A   1      27.111  30.290  22.678  1.00  0.00    -0.322 N 
ATOM     20  C   UNL A   1      29.276  29.710  22.205  1.00  0.00     0.276 C 
ATOM     21  C   UNL A   1      27.338  29.027  23.166  1.00  0.00     0.346 C 
ATOM     22  H   UNL A   1      26.240  30.745  22.734  1.00  0.00     0.166 HD
ATOM     23  O   UNL A   1      30.398  29.725  21.711  1.00  0.00    -0.270 OA
ATOM     24  O   UNL A   1      26.447  28.352  23.671  1.00  0.00    -0.246 OA
BRANCH  17  25
ATOM     25  C   UNL A   1      28.074  31.226  20.602  1.00  0.00     0.035 C 
ATOM     26  C   UNL A   1      27.874  32.711  20.389  1.00  0.00     0.007 C 
ENDBRANCH  17  25
ENDBRANCH  15  16
ENDBRANCH   9  14
ENDBRANCH   5   8
ENDBRANCH   3   4
ENDBRANCH   2   3
ENDBRANCH   1   2
BRANCH   1  27
ATOM     27  C   UNL A   1      34.839  24.749  25.004  1.00  0.00     0.002 C 
BRANCH  27  28
ATOM     28  C   UNL A   1      35.980  23.889  25.570  1.00  0.00     0.021 C 
BRANCH  28  29
ATOM     29  C   UNL A   1      37.034  23.320  24.598  1.00  0.00     0.116 C 
BRANCH  29  30
ATOM     30  N   UNL A   1      38.090  22.539  25.249  1.00  0.00    -0.352 N 
ATOM     31  C   UNL A   1      39.089  22.802  26.170  1.00  0.00     0.251 C 
ATOM     32  H   UNL A   1      38.088  21.597  24.960  1.00  0.00     0.163 HD
ATOM     33  O   UNL A   1      39.804  21.848  26.490  1.00  0.00    -0.269 OA
BRANCH  31  34
ATOM     34  C   UNL A   1      39.433  24.151  26.738  1.00  0.00     0.039 A 
ATOM     35  C   UNL A   1      38.996  24.434  28.050  1.00  0.00     0.014 A 
ATOM     36  C   UNL A   1      40.212  25.115  26.099  1.00  0.00     0.014 A 
ATOM     37  C   UNL A   1      39.385  25.610  28.731  1.00  0.00     0.010 A 
ATOM     38  C   UNL A   1      40.635  26.272  26.794  1.00  0.00     0.010 A 
ATOM     39  C   UNL A   1      40.231  26.544  28.120  1.00  0.00    -0.014 A 
BRANCH  39  40
ATOM     40  C   UNL A   1      40.590  27.850  28.783  1.00  0.00     0.031 A 
ATOM     41  C   UNL A   1      41.977  28.018  29.365  1.00  0.00     0.074 A 
ATOM     42  C   UNL A   1      39.732  28.891  28.907  1.00  0.00     0.049 A 
ATOM     43  N   UNL A   1      42.478  29.008  30.064  1.00  0.00    -0.248 NA
ATOM     44  C   UNL A   1      42.918  26.911  29.139  1.00  0.00     0.031 C 
ATOM     45  C   UNL A   1      38.367  28.948  28.387  1.00  0.00     0.029 A 
ATOM     46  N   UNL A   1      39.889  30.117  29.530  1.00  0.00    -0.354 N 
ATOM     47  C   UNL A   1      43.780  28.634  30.377  1.00  0.00     0.074 A 
ATOM     48  C   UNL A   1      43.969  27.302  29.841  1.00  0.00     0.031 C 
ATOM     49  C   UNL A   1      37.816  30.133  28.711  1.00  0.00     0.029 A 
ATOM     50  C   UNL A   1      38.770  30.924  29.490  1.00  0.00     0.049 A 
ATOM     51  H   UNL A   1      40.728  30.390  29.967  1.00  0.00     0.167 HD
ATOM     52  C   UNL A   1      44.750  29.325  31.025  1.00  0.00     0.031 A 
ATOM     53  C   UNL A   1      38.528  32.148  30.016  1.00  0.00     0.031 A 
ATOM     54  C   UNL A   1      44.607  30.655  31.555  1.00  0.00     0.049 A 
ATOM     55  C   UNL A   1      39.599  32.874  30.804  1.00  0.00     0.074 A 
ATOM     56  C   UNL A   1      45.560  31.426  32.200  1.00  0.00     0.029 A 
ATOM     57  N   UNL A   1      43.451  31.414  31.503  1.00  0.00    -0.354 N 
ATOM     58  N   UNL A   1      40.833  32.509  31.055  1.00  0.00    -0.248 NA
ATOM     59  C   UNL A   1      39.245  34.190  31.369  1.00  0.00     0.031 C 
ATOM     60  C   UNL A   1      44.965  32.629  32.589  1.00  0.00     0.029 A 
ATOM     61  C   UNL A   1      43.662  32.636  32.123  1.00  0.00     0.049 A 
ATOM     62  H   UNL A   1      42.605  31.129  31.088  1.00  0.00     0.167 HD
ATOM     63  C   UNL A   1      41.409  33.567  31.759  1.00  0.00     0.074 A 
ATOM     64  C   UNL A   1      40.396  34.587  31.895  1.00  0.00     0.031 C 
ATOM     65  C   UNL A   1      42.672  33.677  32.240  1.00  0.00     0.031 A 
BRANCH  52  66
ATOM     66  C   UNL A   1      46.079  28.639  31.204  1.00  0.00    -0.014 A 
ATOM     67  C   UNL A   1      47.102  28.783  30.251  1.00  0.00     0.010 A 
ATOM     68  C   UNL A   1      46.315  27.865  32.355  1.00  0.00     0.010 A 
ATOM     69  C   UNL A   1      48.319  28.120  30.417  1.00  0.00     0.020 A 
ATOM     70  C   UNL A   1      47.545  27.231  32.544  1.00  0.00     0.020 A 
ATOM     71  C   UNL A   1      48.531  27.345  31.561  1.00  0.00     0.054 A 
BRANCH  71  72
ATOM     72  S   UNL A   1      50.124  26.502  31.750  1.00  0.00     0.124 S 
ATOM     73  O   UNL A   1      49.810  25.157  31.275  1.00  0.00    -0.237 OA
ATOM     74  O   UNL A   1      51.004  27.284  30.886  1.00  0.00    -0.237 OA
ATOM     75  O   UNL A   1      50.405  26.607  33.181  1.00  0.00    -0.744 OA
ENDBRANCH  71  72
ENDBRANCH  52  66
BRANCH  53  76
ATOM     76  C   UNL A   1      37.198  32.809  29.832  1.00  0.00    -0.014 A 
ATOM     77  C   UNL A   1      36.909  33.521  28.651  1.00  0.00     0.010 A 
ATOM     78  C   UNL A   1      36.241  32.796  30.863  1.00  0.00     0.010 A 
ATOM     79  C   UNL A   1      35.707  34.228  28.517  1.00  0.00     0.020 A 
ATOM     80  C   UNL A   1      35.025  33.475  30.721  1.00  0.00     0.020 A 
ATOM     81  C   UNL A   1      34.771  34.199  29.554  1.00  0.00     0.054 A 
BRANCH  81  82
ATOM     82  S   UNL A   1      33.205  35.094  29.346  1.00  0.00     0.124 S 
ATOM     83  O   UNL A   1      32.535  34.303  28.319  1.00  0.00    -0.237 OA
ATOM     84  O   UNL A   1      32.624  35.021  30.683  1.00  0.00    -0.237 OA
ATOM     85  O   UNL A   1      33.628  36.430  28.931  1.00  0.00    -0.744 OA
ENDBRANCH  81  82
ENDBRANCH  53  76
BRANCH  65  86
ATOM     86  C   UNL A   1      43.090  34.969  32.903  1.00  0.00    -0.014 A 
ATOM     87  C   UNL A   1      43.066  35.129  34.299  1.00  0.00     0.010 A 
ATOM     88  C   UNL A   1      43.620  36.007  32.111  1.00  0.00     0.010 A 
ATOM     89  C   UNL A   1      43.549  36.304  34.888  1.00  0.00     0.020 A 
ATOM     90  C   UNL A   1      44.129  37.171  32.696  1.00  0.00     0.020 A 
ATOM     91  C   UNL A   1      44.085  37.315  34.083  1.00  0.00     0.054 A 
BRANCH  91  92
ATOM     92  S   UNL A   1      44.777  38.795  34.877  1.00  0.00     0.124 S 
ATOM     93  O   UNL A   1      44.374  39.853  33.955  1.00  0.00    -0.237 OA
ATOM     94  O   UNL A   1      44.106  38.804  36.175  1.00  0.00    -0.237 OA
ATOM     95  O   UNL A   1      46.212  38.525  34.926  1.00  0.00    -0.744 OA
ENDBRANCH  91  92
ENDBRANCH  65  86
ENDBRANCH  39  40
ENDBRANCH  31  34
ENDBRANCH  29  30
ENDBRANCH  28  29
ENDBRANCH  27  28
ENDBRANCH   1  27
TORSDOF 19
ENDMDL
