MODEL 1
REMARK VINA RESULT:     -12.7      0.000      0.000
REMARK SMILES Cc1cccc([C@@H](CCC[C@@H]2CCCO2)C(=O)NCCCCCCNC(=O)c2ccc(-c3c4nc(c(-c5ccc(S(=O)(=O)[O-])cc5)c5ccc([nH]5)c(-c5ccc(S(=O)(=O)[O-])cc5)c5nc(c(-c6ccc(S(=O)(=O)[O-])cc6)c6ccc3[nH]6)C=C5)C=C4)cc2)c1
REMARK SMILES IDX 21 1 20 2 19 3 18 4 16 5 17 6 7 8 6 9 1 10 2 11 3 12 88 13
REMARK SMILES IDX 4 14 5 15 8 16 9 17 10 18 11 19 12 20 15 21 13 22 14 23
REMARK SMILES IDX 22 24 23 25 24 26 25 27 26 28 27 30 28 31 29 32 87 33 30 34
REMARK SMILES IDX 86 35 31 36 32 37 33 38 80 39 34 40 85 41 79 42 81 43 35 44
REMARK SMILES IDX 84 45 78 46 77 47 36 49 66 50 47 51 65 52 48 53 51 54 64 55
REMARK SMILES IDX 82 56 49 57 50 58 63 60 83 61 52 62 37 63 38 64 46 65 39 66
REMARK SMILES IDX 45 67 40 68 41 69 42 70 43 71 44 72 67 73 68 74 76 75 69 76
REMARK SMILES IDX 75 77 70 78 71 79 72 80 73 81 74 82 53 83 54 84 62 85 55 86
REMARK SMILES IDX 61 87 56 88 57 89 58 90 59 91 60 92
REMARK H PARENT 18 7 25 29 81 48 51 59
REMARK Flexibility Score: inf
ROOT
ATOM      1  C   UNL A   1      32.495  27.135  26.574  1.00  0.00     0.002 C 
ENDROOT
BRANCH   1   2
ATOM      2  C   UNL A   1      31.132  26.554  26.153  1.00  0.00     0.021 C 
BRANCH   2   3
ATOM      3  C   UNL A   1      31.179  25.089  25.744  1.00  0.00     0.116 C 
BRANCH   3   4
ATOM      4  N   UNL A   1      31.326  24.124  26.807  1.00  0.00    -0.356 N 
ATOM      5  C   UNL A   1      32.245  23.122  26.931  1.00  0.00     0.227 C 
ATOM      6  O   UNL A   1      32.492  22.741  28.084  1.00  0.00    -0.274 OA
ATOM      7  H   UNL A   1      30.675  24.198  27.541  1.00  0.00     0.163 HD
BRANCH   5   8
ATOM      8  C   UNL A   1      32.905  22.405  25.733  1.00  0.00     0.108 C 
BRANCH   8   9
ATOM      9  C   UNL A   1      34.426  22.576  25.688  1.00  0.00    -0.035 A 
ATOM     10  C   UNL A   1      37.427  20.304  24.937  1.00  0.00     0.044 C 
ATOM     11  C   UNL A   1      36.607  21.524  25.238  1.00  0.00    -0.051 A 
ATOM     12  C   UNL A   1      37.223  22.772  25.340  1.00  0.00     0.003 A 
ATOM     13  C   UNL A   1      35.216  21.443  25.387  1.00  0.00     0.008 A 
ATOM     14  C   UNL A   1      36.467  23.899  25.652  1.00  0.00     0.001 A 
ATOM     15  C   UNL A   1      35.086  23.796  25.852  1.00  0.00     0.004 A 
ENDBRANCH   8   9
BRANCH   8  16
ATOM     16  C   UNL A   1      32.247  21.130  25.137  1.00  0.00     0.018 C 
BRANCH  16  17
ATOM     17  C   UNL A   1      32.190  20.842  23.635  1.00  0.00     0.004 C 
BRANCH  17  18
ATOM     18  C   UNL A   1      32.370  19.388  23.197  1.00  0.00     0.032 C 
BRANCH  18  19
ATOM     19  C   UNL A   1      33.074  18.393  24.104  1.00  0.00     0.118 C 
ATOM     20  C   UNL A   1      33.871  17.288  23.447  1.00  0.00     0.034 C 
ATOM     21  O   UNL A   1      32.148  17.740  24.982  1.00  0.00    -0.378 OA
ATOM     22  C   UNL A   1      34.028  16.341  24.613  1.00  0.00     0.031 C 
ATOM     23  C   UNL A   1      32.680  16.448  25.302  1.00  0.00     0.160 C 
ENDBRANCH  18  19
ENDBRANCH  17  18
ENDBRANCH  16  17
ENDBRANCH   8  16
ENDBRANCH   5   8
ENDBRANCH   3   4
ENDBRANCH   2   3
ENDBRANCH   1   2
BRANCH   1  24
ATOM     24  C   UNL A   1      32.537  28.572  27.141  1.00  0.00     0.002 C 
BRANCH  24  25
ATOM     25  C   UNL A   1      33.849  29.034  27.778  1.00  0.00     0.021 C 
BRANCH  25  26
ATOM     26  C   UNL A   1      34.803  29.694  26.796  1.00  0.00     0.116 C 
BRANCH  26  27
ATOM     27  N   UNL A   1      35.499  30.852  27.344  1.00  0.00    -0.352 N 
ATOM     28  C   UNL A   1      36.589  30.822  28.195  1.00  0.00     0.251 C 
ATOM     29  H   UNL A   1      35.160  31.740  27.085  1.00  0.00     0.163 HD
ATOM     30  O   UNL A   1      36.930  31.761  28.907  1.00  0.00    -0.269 OA
BRANCH  28  31
ATOM     31  C   UNL A   1      37.439  29.623  28.089  1.00  0.00     0.039 A 
ATOM     32  C   UNL A   1      37.470  28.781  29.209  1.00  0.00     0.014 A 
ATOM     33  C   UNL A   1      38.435  29.588  27.117  1.00  0.00     0.014 A 
ATOM     34  C   UNL A   1      38.611  28.033  29.461  1.00  0.00     0.010 A 
ATOM     35  C   UNL A   1      39.600  28.917  27.416  1.00  0.00     0.010 A 
ATOM     36  C   UNL A   1      39.703  28.191  28.612  1.00  0.00    -0.014 A 
BRANCH  36  37
ATOM     37  C   UNL A   1      41.025  27.661  28.896  1.00  0.00     0.031 A 
ATOM     38  C   UNL A   1      41.303  26.250  28.564  1.00  0.00     0.074 A 
ATOM     39  C   UNL A   1      41.992  28.474  29.371  1.00  0.00     0.049 A 
ATOM     40  N   UNL A   1      42.303  25.572  29.008  1.00  0.00    -0.248 NA
ATOM     41  C   UNL A   1      40.402  25.463  27.727  1.00  0.00     0.031 C 
ATOM     42  C   UNL A   1      43.430  28.221  29.419  1.00  0.00     0.029 A 
ATOM     43  N   UNL A   1      41.866  29.657  30.069  1.00  0.00    -0.354 N 
ATOM     44  C   UNL A   1      42.354  24.398  28.291  1.00  0.00     0.074 A 
ATOM     45  C   UNL A   1      41.097  24.333  27.587  1.00  0.00     0.031 C 
ATOM     46  C   UNL A   1      43.987  29.053  30.317  1.00  0.00     0.029 A 
ATOM     47  C   UNL A   1      42.902  29.742  30.996  1.00  0.00     0.049 A 
ATOM     48  H   UNL A   1      41.161  30.331  29.933  1.00  0.00     0.167 HD
ATOM     49  C   UNL A   1      43.523  23.698  28.254  1.00  0.00     0.031 A 
ATOM     50  C   UNL A   1      42.669  29.647  32.342  1.00  0.00     0.031 A 
ATOM     51  C   UNL A   1      44.481  24.233  29.227  1.00  0.00     0.049 A 
ATOM     52  C   UNL A   1      43.301  28.414  32.974  1.00  0.00     0.074 A 
ATOM     53  C   UNL A   1      45.585  25.062  29.117  1.00  0.00     0.029 A 
ATOM     54  N   UNL A   1      44.148  24.204  30.580  1.00  0.00    -0.354 N 
ATOM     55  N   UNL A   1      43.687  27.355  32.311  1.00  0.00    -0.248 NA
ATOM     56  C   UNL A   1      43.563  28.293  34.404  1.00  0.00     0.031 C 
ATOM     57  C   UNL A   1      45.845  25.617  30.403  1.00  0.00     0.029 A 
ATOM     58  C   UNL A   1      44.928  25.091  31.299  1.00  0.00     0.049 A 
ATOM     59  H   UNL A   1      43.451  23.630  30.972  1.00  0.00     0.167 HD
ATOM     60  C   UNL A   1      44.247  26.441  33.168  1.00  0.00     0.074 A 
ATOM     61  C   UNL A   1      44.156  27.086  34.468  1.00  0.00     0.031 C 
ATOM     62  C   UNL A   1      44.742  25.237  32.743  1.00  0.00     0.031 A 
BRANCH  49  63
ATOM     63  C   UNL A   1      43.878  22.747  27.127  1.00  0.00    -0.014 A 
ATOM     64  C   UNL A   1      42.955  21.757  26.729  1.00  0.00     0.010 A 
ATOM     65  C   UNL A   1      45.129  22.707  26.481  1.00  0.00     0.010 A 
ATOM     66  C   UNL A   1      43.296  20.740  25.817  1.00  0.00     0.020 A 
ATOM     67  C   UNL A   1      45.497  21.684  25.595  1.00  0.00     0.020 A 
ATOM     68  C   UNL A   1      44.578  20.696  25.275  1.00  0.00     0.054 A 
BRANCH  68  69
ATOM     69  S   UNL A   1      45.034  19.345  24.155  1.00  0.00     0.124 S 
ATOM     70  O   UNL A   1      46.493  19.374  24.206  1.00  0.00    -0.237 OA
ATOM     71  O   UNL A   1      44.402  18.189  24.784  1.00  0.00    -0.237 OA
ATOM     72  O   UNL A   1      44.456  19.746  22.874  1.00  0.00    -0.744 OA
ENDBRANCH  68  69
ENDBRANCH  49  63
BRANCH  50  73
ATOM     73  C   UNL A   1      41.394  30.293  32.782  1.00  0.00    -0.014 A 
ATOM     74  C   UNL A   1      40.322  29.440  33.129  1.00  0.00     0.010 A 
ATOM     75  C   UNL A   1      41.374  31.619  33.247  1.00  0.00     0.010 A 
ATOM     76  C   UNL A   1      39.361  29.839  34.065  1.00  0.00     0.020 A 
ATOM     77  C   UNL A   1      40.399  32.027  34.176  1.00  0.00     0.020 A 
ATOM     78  C   UNL A   1      39.445  31.111  34.628  1.00  0.00     0.054 A 
BRANCH  78  79
ATOM     79  S   UNL A   1      38.412  31.472  36.084  1.00  0.00     0.124 S 
ATOM     80  O   UNL A   1      37.260  32.144  35.490  1.00  0.00    -0.237 OA
ATOM     81  O   UNL A   1      38.151  30.136  36.622  1.00  0.00    -0.237 OA
ATOM     82  O   UNL A   1      39.274  32.312  36.910  1.00  0.00    -0.744 OA
ENDBRANCH  78  79
ENDBRANCH  50  73
BRANCH  62  83
ATOM     83  C   UNL A   1      45.177  24.080  33.627  1.00  0.00    -0.014 A 
ATOM     84  C   UNL A   1      44.434  22.908  33.837  1.00  0.00     0.010 A 
ATOM     85  C   UNL A   1      46.472  24.112  34.207  1.00  0.00     0.010 A 
ATOM     86  C   UNL A   1      44.925  21.856  34.626  1.00  0.00     0.020 A 
ATOM     87  C   UNL A   1      46.994  23.048  34.950  1.00  0.00     0.020 A 
ATOM     88  C   UNL A   1      46.203  21.933  35.178  1.00  0.00     0.054 A 
BRANCH  88  89
ATOM     89  S   UNL A   1      46.843  20.534  36.131  1.00  0.00     0.124 S 
ATOM     90  O   UNL A   1      46.321  20.815  37.466  1.00  0.00    -0.237 OA
ATOM     91  O   UNL A   1      46.248  19.382  35.456  1.00  0.00    -0.237 OA
ATOM     92  O   UNL A   1      48.291  20.652  35.986  1.00  0.00    -0.744 OA
ENDBRANCH  88  89
ENDBRANCH  62  83
ENDBRANCH  36  37
ENDBRANCH  28  31
ENDBRANCH  26  27
ENDBRANCH  25  26
ENDBRANCH  24  25
ENDBRANCH   1  24
TORSDOF 21
ENDMDL
MODEL 2
REMARK VINA RESULT:     -11.7      3.165      5.301
REMARK SMILES Cc1cccc([C@@H](CCC[C@@H]2CCCO2)C(=O)NCCCCCCNC(=O)c2ccc(-c3c4nc(c(-c5ccc(S(=O)(=O)[O-])cc5)c5ccc([nH]5)c(-c5ccc(S(=O)(=O)[O-])cc5)c5nc(c(-c6ccc(S(=O)(=O)[O-])cc6)c6ccc3[nH]6)C=C5)C=C4)cc2)c1
REMARK SMILES IDX 21 1 20 2 19 3 18 4 16 5 17 6 7 8 6 9 1 10 2 11 3 12 88 13
REMARK SMILES IDX 4 14 5 15 8 16 9 17 10 18 11 19 12 20 15 21 13 22 14 23
REMARK SMILES IDX 22 24 23 25 24 26 25 27 26 28 27 30 28 31 29 32 87 33 30 34
REMARK SMILES IDX 86 35 31 36 32 37 33 38 80 39 34 40 85 41 79 42 81 43 35 44
REMARK SMILES IDX 84 45 78 46 77 47 36 49 66 50 47 51 65 52 48 53 51 54 64 55
REMARK SMILES IDX 82 56 49 57 50 58 63 60 83 61 52 62 37 63 38 64 46 65 39 66
REMARK SMILES IDX 45 67 40 68 41 69 42 70 43 71 44 72 67 73 68 74 76 75 69 76
REMARK SMILES IDX 75 77 70 78 71 79 72 80 73 81 74 82 53 83 54 84 62 85 55 86
REMARK SMILES IDX 61 87 56 88 57 89 58 90 59 91 60 92
REMARK H PARENT 18 7 25 29 81 48 51 59
REMARK Flexibility Score: inf
ROOT
ATOM      1  C   UNL A   1      33.920  29.209  24.329  1.00  0.00     0.002 C 
ENDROOT
BRANCH   1   2
ATOM      2  C   UNL A   1      33.773  28.583  22.929  1.00  0.00     0.021 C 
BRANCH   2   3
ATOM      3  C   UNL A   1      33.764  27.062  22.924  1.00  0.00     0.116 C 
BRANCH   3   4
ATOM      4  N   UNL A   1      33.166  26.420  21.778  1.00  0.00    -0.356 N 
ATOM      5  C   UNL A   1      31.861  26.077  21.574  1.00  0.00     0.227 C 
ATOM      6  O   UNL A   1      31.492  25.989  20.395  1.00  0.00    -0.274 OA
ATOM      7  H   UNL A   1      33.784  26.200  21.044  1.00  0.00     0.163 HD
BRANCH   5   8
ATOM      8  C   UNL A   1      30.877  25.720  22.711  1.00  0.00     0.108 C 
BRANCH   8   9
ATOM      9  C   UNL A   1      31.266  24.450  23.473  1.00  0.00    -0.035 A 
ATOM     10  C   UNL A   1      30.366  22.892  26.862  1.00  0.00     0.044 C 
ATOM     11  C   UNL A   1      30.946  23.076  25.491  1.00  0.00    -0.051 A 
ATOM     12  C   UNL A   1      31.700  22.056  24.908  1.00  0.00     0.003 A 
ATOM     13  C   UNL A   1      30.716  24.248  24.759  1.00  0.00     0.008 A 
ATOM     14  C   UNL A   1      32.265  22.240  23.649  1.00  0.00     0.001 A 
ATOM     15  C   UNL A   1      32.073  23.436  22.950  1.00  0.00     0.004 A 
ENDBRANCH   8   9
BRANCH   8  16
ATOM     16  C   UNL A   1      30.085  26.847  23.430  1.00  0.00     0.018 C 
BRANCH  16  17
ATOM     17  C   UNL A   1      29.714  28.170  22.755  1.00  0.00     0.004 C 
BRANCH  17  18
ATOM     18  C   UNL A   1      28.331  28.746  23.065  1.00  0.00     0.032 C 
BRANCH  18  19
ATOM     19  C   UNL A   1      27.960  30.145  22.606  1.00  0.00     0.118 C 
ATOM     20  C   UNL A   1      28.405  30.571  21.224  1.00  0.00     0.034 C 
ATOM     21  O   UNL A   1      28.464  31.142  23.504  1.00  0.00    -0.378 OA
ATOM     22  C   UNL A   1      28.225  32.067  21.332  1.00  0.00     0.031 C 
ATOM     23  C   UNL A   1      28.675  32.345  22.754  1.00  0.00     0.160 C 
ENDBRANCH  18  19
ENDBRANCH  17  18
ENDBRANCH  16  17
ENDBRANCH   8  16
ENDBRANCH   5   8
ENDBRANCH   3   4
ENDBRANCH   2   3
ENDBRANCH   1   2
BRANCH   1  24
ATOM     24  C   UNL A   1      32.639  29.637  25.079  1.00  0.00     0.002 C 
BRANCH  24  25
ATOM     25  C   UNL A   1      32.229  28.803  26.294  1.00  0.00     0.021 C 
BRANCH  25  26
ATOM     26  C   UNL A   1      32.678  29.398  27.620  1.00  0.00     0.116 C 
BRANCH  26  27
ATOM     27  N   UNL A   1      33.204  30.752  27.505  1.00  0.00    -0.352 N 
ATOM     28  C   UNL A   1      34.401  31.211  28.028  1.00  0.00     0.251 C 
ATOM     29  H   UNL A   1      32.657  31.403  27.009  1.00  0.00     0.163 HD
ATOM     30  O   UNL A   1      34.655  32.395  28.224  1.00  0.00    -0.269 OA
BRANCH  28  31
ATOM     31  C   UNL A   1      35.447  30.188  28.201  1.00  0.00     0.039 A 
ATOM     32  C   UNL A   1      35.667  29.738  29.509  1.00  0.00     0.014 A 
ATOM     33  C   UNL A   1      36.397  30.021  27.197  1.00  0.00     0.014 A 
ATOM     34  C   UNL A   1      36.932  29.293  29.867  1.00  0.00     0.010 A 
ATOM     35  C   UNL A   1      37.673  29.666  27.575  1.00  0.00     0.010 A 
ATOM     36  C   UNL A   1      37.947  29.360  28.917  1.00  0.00    -0.014 A 
BRANCH  36  37
ATOM     37  C   UNL A   1      39.352  29.159  29.226  1.00  0.00     0.031 A 
ATOM     38  C   UNL A   1      39.956  27.846  28.927  1.00  0.00     0.074 A 
ATOM     39  C   UNL A   1      40.096  30.183  29.693  1.00  0.00     0.049 A 
ATOM     40  N   UNL A   1      41.079  27.428  29.395  1.00  0.00    -0.248 NA
ATOM     41  C   UNL A   1      39.276  26.856  28.097  1.00  0.00     0.031 C 
ATOM     42  C   UNL A   1      41.552  30.274  29.762  1.00  0.00     0.029 A 
ATOM     43  N   UNL A   1      39.687  31.317  30.364  1.00  0.00    -0.354 N 
ATOM     44  C   UNL A   1      41.413  26.285  28.703  1.00  0.00     0.074 A 
ATOM     45  C   UNL A   1      40.217  25.916  27.988  1.00  0.00     0.031 C 
ATOM     46  C   UNL A   1      41.886  31.230  30.647  1.00  0.00     0.029 A 
ATOM     47  C   UNL A   1      40.660  31.659  31.300  1.00  0.00     0.049 A 
ATOM     48  H   UNL A   1      38.847  31.806  30.207  1.00  0.00     0.167 HD
ATOM     49  C   UNL A   1      42.714  25.877  28.694  1.00  0.00     0.031 A 
ATOM     50  C   UNL A   1      40.436  31.536  32.646  1.00  0.00     0.031 A 
ATOM     51  C   UNL A   1      43.506  26.638  29.664  1.00  0.00     0.049 A 
ATOM     52  C   UNL A   1      41.329  30.497  33.310  1.00  0.00     0.074 A 
ATOM     53  C   UNL A   1      44.389  27.700  29.549  1.00  0.00     0.029 A 
ATOM     54  N   UNL A   1      43.169  26.557  31.015  1.00  0.00    -0.354 N 
ATOM     55  N   UNL A   1      41.960  29.545  32.674  1.00  0.00    -0.248 NA
ATOM     56  C   UNL A   1      41.590  30.466  34.745  1.00  0.00     0.031 C 
ATOM     57  C   UNL A   1      44.492  28.324  30.825  1.00  0.00     0.029 A 
ATOM     58  C   UNL A   1      43.710  27.615  31.722  1.00  0.00     0.049 A 
ATOM     59  H   UNL A   1      42.619  25.844  31.411  1.00  0.00     0.167 HD
ATOM     60  C   UNL A   1      42.705  28.803  33.556  1.00  0.00     0.074 A 
ATOM     61  C   UNL A   1      42.447  29.433  34.841  1.00  0.00     0.031 C 
ATOM     62  C   UNL A   1      43.474  27.740  33.161  1.00  0.00     0.031 A 
BRANCH  49  63
ATOM     63  C   UNL A   1      43.297  25.015  27.590  1.00  0.00    -0.014 A 
ATOM     64  C   UNL A   1      43.946  23.805  27.916  1.00  0.00     0.010 A 
ATOM     65  C   UNL A   1      43.330  25.375  26.229  1.00  0.00     0.010 A 
ATOM     66  C   UNL A   1      44.658  23.057  26.959  1.00  0.00     0.020 A 
ATOM     67  C   UNL A   1      44.060  24.660  25.269  1.00  0.00     0.020 A 
ATOM     68  C   UNL A   1      44.732  23.506  25.643  1.00  0.00     0.054 A 
BRANCH  68  69
ATOM     69  S   UNL A   1      45.708  22.578  24.430  1.00  0.00     0.124 S 
ATOM     70  O   UNL A   1      46.419  21.616  25.268  1.00  0.00    -0.237 OA
ATOM     71  O   UNL A   1      44.676  22.019  23.560  1.00  0.00    -0.237 OA
ATOM     72  O   UNL A   1      46.554  23.597  23.811  1.00  0.00    -0.744 OA
ENDBRANCH  68  69
ENDBRANCH  49  63
BRANCH  50  73
ATOM     73  C   UNL A   1      39.039  31.875  33.058  1.00  0.00    -0.014 A 
ATOM     74  C   UNL A   1      38.720  33.245  33.198  1.00  0.00     0.010 A 
ATOM     75  C   UNL A   1      37.990  30.955  32.895  1.00  0.00     0.010 A 
ATOM     76  C   UNL A   1      37.414  33.703  32.992  1.00  0.00     0.020 A 
ATOM     77  C   UNL A   1      36.673  31.413  32.703  1.00  0.00     0.020 A 
ATOM     78  C   UNL A   1      36.411  32.786  32.683  1.00  0.00     0.054 A 
BRANCH  78  79
ATOM     79  S   UNL A   1      34.820  33.429  32.075  1.00  0.00     0.124 S 
ATOM     80  O   UNL A   1      35.241  34.483  31.156  1.00  0.00    -0.237 OA
ATOM     81  O   UNL A   1      34.225  32.249  31.446  1.00  0.00    -0.237 OA
ATOM     82  O   UNL A   1      34.152  33.883  33.290  1.00  0.00    -0.744 OA
ENDBRANCH  78  79
ENDBRANCH  50  73
BRANCH  62  83
ATOM     83  C   UNL A   1      44.153  26.732  34.074  1.00  0.00    -0.014 A 
ATOM     84  C   UNL A   1      45.395  26.924  34.696  1.00  0.00     0.010 A 
ATOM     85  C   UNL A   1      43.450  25.550  34.429  1.00  0.00     0.010 A 
ATOM     86  C   UNL A   1      45.936  25.968  35.571  1.00  0.00     0.020 A 
ATOM     87  C   UNL A   1      43.954  24.617  35.341  1.00  0.00     0.020 A 
ATOM     88  C   UNL A   1      45.212  24.821  35.888  1.00  0.00     0.054 A 
BRANCH  88  89
ATOM     89  S   UNL A   1      45.896  23.639  37.076  1.00  0.00     0.124 S 
ATOM     90  O   UNL A   1      45.232  24.038  38.314  1.00  0.00    -0.237 OA
ATOM     91  O   UNL A   1      45.478  22.350  36.528  1.00  0.00    -0.237 OA
ATOM     92  O   UNL A   1      47.333  23.892  37.025  1.00  0.00    -0.744 OA
ENDBRANCH  88  89
ENDBRANCH  62  83
ENDBRANCH  36  37
ENDBRANCH  28  31
ENDBRANCH  26  27
ENDBRANCH  25  26
ENDBRANCH  24  25
ENDBRANCH   1  24
TORSDOF 21
ENDMDL
MODEL 3
REMARK VINA RESULT:     -11.7      2.650      4.214
REMARK SMILES Cc1cccc([C@@H](CCC[C@@H]2CCCO2)C(=O)NCCCCCCNC(=O)c2ccc(-c3c4nc(c(-c5ccc(S(=O)(=O)[O-])cc5)c5ccc([nH]5)c(-c5ccc(S(=O)(=O)[O-])cc5)c5nc(c(-c6ccc(S(=O)(=O)[O-])cc6)c6ccc3[nH]6)C=C5)C=C4)cc2)c1
REMARK SMILES IDX 21 1 20 2 19 3 18 4 16 5 17 6 7 8 6 9 1 10 2 11 3 12 88 13
REMARK SMILES IDX 4 14 5 15 8 16 9 17 10 18 11 19 12 20 15 21 13 22 14 23
REMARK SMILES IDX 22 24 23 25 24 26 25 27 26 28 27 30 28 31 29 32 87 33 30 34
REMARK SMILES IDX 86 35 31 36 32 37 33 38 80 39 34 40 85 41 79 42 81 43 35 44
REMARK SMILES IDX 84 45 78 46 77 47 36 49 66 50 47 51 65 52 48 53 51 54 64 55
REMARK SMILES IDX 82 56 49 57 50 58 63 60 83 61 52 62 37 63 38 64 46 65 39 66
REMARK SMILES IDX 45 67 40 68 41 69 42 70 43 71 44 72 67 73 68 74 76 75 69 76
REMARK SMILES IDX 75 77 70 78 71 79 72 80 73 81 74 82 53 83 54 84 62 85 55 86
REMARK SMILES IDX 61 87 56 88 57 89 58 90 59 91 60 92
REMARK H PARENT 18 7 25 29 81 48 51 59
REMARK Flexibility Score: inf
ROOT
ATOM      1  C   UNL A   1      34.040  28.524  23.188  1.00  0.00     0.002 C 
ENDROOT
BRANCH   1   2
ATOM      2  C   UNL A   1      33.283  27.346  22.546  1.00  0.00     0.021 C 
BRANCH   2   3
ATOM      3  C   UNL A   1      34.037  26.025  22.588  1.00  0.00     0.116 C 
BRANCH   3   4
ATOM      4  N   UNL A   1      33.243  24.822  22.511  1.00  0.00    -0.356 N 
ATOM      5  C   UNL A   1      32.718  24.077  23.527  1.00  0.00     0.227 C 
ATOM      6  O   UNL A   1      31.716  23.402  23.255  1.00  0.00    -0.274 OA
ATOM      7  H   UNL A   1      33.055  24.495  21.602  1.00  0.00     0.163 HD
BRANCH   5   8
ATOM      8  C   UNL A   1      33.349  23.974  24.934  1.00  0.00     0.108 C 
BRANCH   8   9
ATOM      9  C   UNL A   1      34.705  23.261  24.939  1.00  0.00    -0.035 A 
ATOM     10  C   UNL A   1      38.257  24.117  26.109  1.00  0.00     0.044 C 
ATOM     11  C   UNL A   1      37.081  23.353  25.578  1.00  0.00    -0.051 A 
ATOM     12  C   UNL A   1      37.219  22.008  25.230  1.00  0.00     0.003 A 
ATOM     13  C   UNL A   1      35.823  23.957  25.452  1.00  0.00     0.008 A 
ATOM     14  C   UNL A   1      36.136  21.308  24.707  1.00  0.00     0.001 A 
ATOM     15  C   UNL A   1      34.898  21.937  24.536  1.00  0.00     0.004 A 
ENDBRANCH   8   9
BRANCH   8  16
ATOM     16  C   UNL A   1      33.036  25.057  26.002  1.00  0.00     0.018 C 
BRANCH  16  17
ATOM     17  C   UNL A   1      31.626  25.319  26.539  1.00  0.00     0.004 C 
BRANCH  17  18
ATOM     18  C   UNL A   1      30.971  26.647  26.156  1.00  0.00     0.032 C 
BRANCH  18  19
ATOM     19  C   UNL A   1      30.428  26.862  24.754  1.00  0.00     0.118 C 
ATOM     20  C   UNL A   1      30.237  28.287  24.286  1.00  0.00     0.034 C 
ATOM     21  O   UNL A   1      29.158  26.219  24.581  1.00  0.00    -0.378 OA
ATOM     22  C   UNL A   1      29.334  28.061  23.096  1.00  0.00     0.031 C 
ATOM     23  C   UNL A   1      28.428  26.946  23.584  1.00  0.00     0.160 C 
ENDBRANCH  18  19
ENDBRANCH  17  18
ENDBRANCH  16  17
ENDBRANCH   8  16
ENDBRANCH   5   8
ENDBRANCH   3   4
ENDBRANCH   2   3
ENDBRANCH   1   2
BRANCH   1  24
ATOM     24  C   UNL A   1      33.453  29.164  24.466  1.00  0.00     0.002 C 
BRANCH  24  25
ATOM     25  C   UNL A   1      34.005  28.678  25.807  1.00  0.00     0.021 C 
BRANCH  25  26
ATOM     26  C   UNL A   1      33.469  29.451  27.002  1.00  0.00     0.116 C 
BRANCH  26  27
ATOM     27  N   UNL A   1      33.971  30.816  27.089  1.00  0.00    -0.352 N 
ATOM     28  C   UNL A   1      35.050  31.243  27.843  1.00  0.00     0.251 C 
ATOM     29  H   UNL A   1      33.498  31.500  26.561  1.00  0.00     0.163 HD
ATOM     30  O   UNL A   1      35.236  32.410  28.175  1.00  0.00    -0.269 OA
BRANCH  28  31
ATOM     31  C   UNL A   1      36.078  30.223  28.108  1.00  0.00     0.039 A 
ATOM     32  C   UNL A   1      36.112  29.694  29.405  1.00  0.00     0.014 A 
ATOM     33  C   UNL A   1      37.169  30.128  27.249  1.00  0.00     0.014 A 
ATOM     34  C   UNL A   1      37.318  29.241  29.920  1.00  0.00     0.010 A 
ATOM     35  C   UNL A   1      38.382  29.764  27.790  1.00  0.00     0.010 A 
ATOM     36  C   UNL A   1      38.461  29.378  29.137  1.00  0.00    -0.014 A 
BRANCH  36  37
ATOM     37  C   UNL A   1      39.809  29.172  29.638  1.00  0.00     0.031 A 
ATOM     38  C   UNL A   1      40.498  27.910  29.304  1.00  0.00     0.074 A 
ATOM     39  C   UNL A   1      40.436  30.155  30.317  1.00  0.00     0.049 A 
ATOM     40  N   UNL A   1      41.550  27.467  29.896  1.00  0.00    -0.248 NA
ATOM     41  C   UNL A   1      39.987  27.001  28.283  1.00  0.00     0.031 C 
ATOM     42  C   UNL A   1      41.860  30.266  30.621  1.00  0.00     0.029 A 
ATOM     43  N   UNL A   1      39.889  31.203  31.029  1.00  0.00    -0.354 N 
ATOM     44  C   UNL A   1      42.026  26.411  29.152  1.00  0.00     0.074 A 
ATOM     45  C   UNL A   1      40.967  26.097  28.226  1.00  0.00     0.031 C 
ATOM     46  C   UNL A   1      42.021  31.129  31.640  1.00  0.00     0.029 A 
ATOM     47  C   UNL A   1      40.695  31.462  32.135  1.00  0.00     0.049 A 
ATOM     48  H   UNL A   1      39.066  31.689  30.794  1.00  0.00     0.167 HD
ATOM     49  C   UNL A   1      43.327  26.031  29.303  1.00  0.00     0.031 A 
ATOM     50  C   UNL A   1      40.273  31.193  33.410  1.00  0.00     0.031 A 
ATOM     51  C   UNL A   1      43.934  26.700  30.458  1.00  0.00     0.049 A 
ATOM     52  C   UNL A   1      41.090  30.106  34.095  1.00  0.00     0.074 A 
ATOM     53  C   UNL A   1      44.785  27.785  30.590  1.00  0.00     0.029 A 
ATOM     54  N   UNL A   1      43.398  26.469  31.724  1.00  0.00    -0.354 N 
ATOM     55  N   UNL A   1      41.844  29.239  33.471  1.00  0.00    -0.248 NA
ATOM     56  C   UNL A   1      41.130  29.928  35.543  1.00  0.00     0.031 C 
ATOM     57  C   UNL A   1      44.671  28.271  31.924  1.00  0.00     0.029 A 
ATOM     58  C   UNL A   1      43.786  27.456  32.612  1.00  0.00     0.049 A 
ATOM     59  H   UNL A   1      42.820  25.707  31.955  1.00  0.00     0.167 HD
ATOM     60  C   UNL A   1      42.472  28.422  34.378  1.00  0.00     0.074 A 
ATOM     61  C   UNL A   1      41.998  28.907  35.664  1.00  0.00     0.031 C 
ATOM     62  C   UNL A   1      43.329  27.422  34.001  1.00  0.00     0.031 A 
BRANCH  49  63
ATOM     63  C   UNL A   1      44.102  25.303  28.222  1.00  0.00    -0.014 A 
ATOM     64  C   UNL A   1      44.728  26.037  27.193  1.00  0.00     0.010 A 
ATOM     65  C   UNL A   1      44.178  23.901  28.100  1.00  0.00     0.010 A 
ATOM     66  C   UNL A   1      45.306  25.412  26.073  1.00  0.00     0.020 A 
ATOM     67  C   UNL A   1      44.721  23.262  26.977  1.00  0.00     0.020 A 
ATOM     68  C   UNL A   1      45.274  24.024  25.959  1.00  0.00     0.054 A 
BRANCH  68  69
ATOM     69  S   UNL A   1      45.958  23.227  24.482  1.00  0.00     0.124 S 
ATOM     70  O   UNL A   1      46.895  24.232  23.987  1.00  0.00    -0.237 OA
ATOM     71  O   UNL A   1      46.561  22.015  25.031  1.00  0.00    -0.237 OA
ATOM     72  O   UNL A   1      44.788  23.007  23.633  1.00  0.00    -0.744 OA
ENDBRANCH  68  69
ENDBRANCH  49  63
BRANCH  50  73
ATOM     73  C   UNL A   1      38.818  31.459  33.632  1.00  0.00    -0.014 A 
ATOM     74  C   UNL A   1      38.443  32.785  33.944  1.00  0.00     0.010 A 
ATOM     75  C   UNL A   1      37.836  30.581  33.144  1.00  0.00     0.010 A 
ATOM     76  C   UNL A   1      37.177  33.273  33.600  1.00  0.00     0.020 A 
ATOM     77  C   UNL A   1      36.557  31.066  32.812  1.00  0.00     0.020 A 
ATOM     78  C   UNL A   1      36.264  32.423  32.978  1.00  0.00     0.054 A 
BRANCH  78  79
ATOM     79  S   UNL A   1      34.779  33.162  32.228  1.00  0.00     0.124 S 
ATOM     80  O   UNL A   1      35.271  34.461  31.778  1.00  0.00    -0.237 OA
ATOM     81  O   UNL A   1      34.460  32.210  31.163  1.00  0.00    -0.237 OA
ATOM     82  O   UNL A   1      33.824  33.198  33.330  1.00  0.00    -0.744 OA
ENDBRANCH  78  79
ENDBRANCH  50  73
BRANCH  62  83
ATOM     83  C   UNL A   1      43.896  26.337  34.901  1.00  0.00    -0.014 A 
ATOM     84  C   UNL A   1      43.577  24.974  34.812  1.00  0.00     0.010 A 
ATOM     85  C   UNL A   1      44.908  26.683  35.835  1.00  0.00     0.010 A 
ATOM     86  C   UNL A   1      44.182  24.020  35.644  1.00  0.00     0.020 A 
ATOM     87  C   UNL A   1      45.557  25.735  36.631  1.00  0.00     0.020 A 
ATOM     88  C   UNL A   1      45.169  24.406  36.549  1.00  0.00     0.054 A 
BRANCH  88  89
ATOM     89  S   UNL A   1      45.989  23.148  37.560  1.00  0.00     0.124 S 
ATOM     90  O   UNL A   1      45.548  21.912  36.917  1.00  0.00    -0.237 OA
ATOM     91  O   UNL A   1      47.404  23.470  37.393  1.00  0.00    -0.237 OA
ATOM     92  O   UNL A   1      45.458  23.382  38.900  1.00  0.00    -0.744 OA
ENDBRANCH  88  89
ENDBRANCH  62  83
ENDBRANCH  36  37
ENDBRANCH  28  31
ENDBRANCH  26  27
ENDBRANCH  25  26
ENDBRANCH  24  25
ENDBRANCH   1  24
TORSDOF 21
ENDMDL
