MODEL 1
REMARK VINA RESULT:     -11.6      0.000      0.000
REMARK SMILES CC1([C@](C)(Nc2cccc(Cl)c2)C(=O)NCCCCCCNC(=O)c2ccc(-c3c4nc(c(-c5ccc(S(=O)(=O)[O-])cc5)c5ccc([nH]5)c(-c5ccc(S(=O)(=O)[O-])cc5)c5nc(c(-c6ccc(S(=O)(=O)[O-])cc6)c6ccc3[nH]6)C=C5)C=C4)cc2)CC1
REMARK SMILES IDX 19 1 18 2 17 3 16 4 15 5 13 6 14 7 3 9 4 10 2 11 1 12 85 13
REMARK SMILES IDX 86 14 5 15 6 17 7 18 12 19 8 20 10 21 9 22 11 23 20 24 21 25
REMARK SMILES IDX 22 26 23 27 24 29 25 30 26 31 84 32 27 33 83 34 28 35 29 36
REMARK SMILES IDX 30 37 77 38 31 39 82 40 76 41 78 42 32 43 81 44 75 45 74 46
REMARK SMILES IDX 33 48 63 49 44 50 62 51 45 52 48 53 61 54 79 55 46 56 47 57
REMARK SMILES IDX 60 59 80 60 49 61 34 62 35 63 43 64 36 65 42 66 37 67 38 68
REMARK SMILES IDX 39 69 40 70 41 71 64 72 65 73 73 74 66 75 72 76 67 77 68 78
REMARK SMILES IDX 69 79 70 80 71 81 50 82 51 83 59 84 52 85 58 86 53 87 54 88
REMARK SMILES IDX 55 89 56 90 57 91
REMARK H PARENT 15 8 5 16 22 28 78 47 48 58
REMARK Flexibility Score: inf
ROOT
ATOM      1  C   UNL A   1      39.276  21.545  26.166  1.00  0.00     0.002 C 
ENDROOT
BRANCH   1   2
ATOM      2  C   UNL A   1      38.201  21.094  25.179  1.00  0.00     0.002 C 
BRANCH   2   3
ATOM      3  C   UNL A   1      37.411  22.255  24.593  1.00  0.00     0.021 C 
BRANCH   3   4
ATOM      4  C   UNL A   1      35.898  22.086  24.683  1.00  0.00     0.116 C 
BRANCH   4   5
ATOM      5  N   UNL A   1      35.395  21.705  25.995  1.00  0.00    -0.354 N 
ATOM      6  C   UNL A   1      34.093  21.554  26.425  1.00  0.00     0.245 C 
ATOM      7  O   UNL A   1      33.911  21.285  27.617  1.00  0.00    -0.272 OA
ATOM      8  H   UNL A   1      36.086  21.531  26.675  1.00  0.00     0.163 HD
BRANCH   6   9
ATOM      9  C   UNL A   1      32.907  21.656  25.394  1.00  0.00     0.119 C 
ATOM     10  C   UNL A   1      33.393  21.895  23.935  1.00  0.00     0.046 C 
BRANCH   9  11
ATOM     11  C   UNL A   1      32.093  22.956  25.826  1.00  0.00    -0.001 C 
ATOM     12  C   UNL A   1      33.010  24.156  26.104  1.00  0.00     0.014 C 
ATOM     13  C   UNL A   1      30.847  22.918  26.707  1.00  0.00     0.010 C 
ATOM     14  C   UNL A   1      30.720  23.290  25.265  1.00  0.00     0.010 C 
ENDBRANCH   9  11
BRANCH   9  15
ATOM     15  N   UNL A   1      32.136  20.375  25.317  1.00  0.00    -0.371 N 
ATOM     16  H   UNL A   1      31.287  20.319  25.813  1.00  0.00     0.161 HD
BRANCH  15  17
ATOM     17  C   UNL A   1      32.543  19.244  24.583  1.00  0.00     0.036 A 
ATOM     18  C   UNL A   1      32.176  18.980  23.250  1.00  0.00     0.026 A 
ATOM     19  C   UNL A   1      33.422  18.316  25.157  1.00  0.00     0.046 A 
ATOM     20  C   UNL A   1      32.752  17.960  22.480  1.00  0.00     0.004 A 
ATOM     21  C   UNL A   1      33.948  17.244  24.411  1.00  0.00     0.043 A 
ATOM     22  C   UNL A   1      33.650  17.086  23.063  1.00  0.00     0.020 A 
ATOM     23  Cl  UNL A   1      34.987  16.096  25.168  1.00  0.00    -0.084 Cl
ENDBRANCH  15  17
ENDBRANCH   9  15
ENDBRANCH   6   9
ENDBRANCH   4   5
ENDBRANCH   3   4
ENDBRANCH   2   3
ENDBRANCH   1   2
BRANCH   1  24
ATOM     24  C   UNL A   1      39.211  23.033  26.526  1.00  0.00     0.021 C 
BRANCH  24  25
ATOM     25  C   UNL A   1      40.537  23.619  27.000  1.00  0.00     0.116 C 
BRANCH  25  26
ATOM     26  N   UNL A   1      41.202  24.354  25.937  1.00  0.00    -0.352 N 
ATOM     27  C   UNL A   1      41.491  25.692  25.892  1.00  0.00     0.251 C 
ATOM     28  H   UNL A   1      41.478  23.825  25.152  1.00  0.00     0.163 HD
ATOM     29  O   UNL A   1      41.816  26.230  24.833  1.00  0.00    -0.269 OA
BRANCH  27  30
ATOM     30  C   UNL A   1      41.389  26.479  27.134  1.00  0.00     0.039 A 
ATOM     31  C   UNL A   1      42.312  27.496  27.378  1.00  0.00     0.014 A 
ATOM     32  C   UNL A   1      40.344  26.233  28.030  1.00  0.00     0.014 A 
ATOM     33  C   UNL A   1      42.159  28.301  28.507  1.00  0.00     0.010 A 
ATOM     34  C   UNL A   1      40.150  27.085  29.112  1.00  0.00     0.010 A 
ATOM     35  C   UNL A   1      41.061  28.122  29.367  1.00  0.00    -0.014 A 
BRANCH  35  36
ATOM     36  C   UNL A   1      40.853  29.006  30.541  1.00  0.00     0.031 A 
ATOM     37  C   UNL A   1      41.698  28.831  31.774  1.00  0.00     0.074 A 
ATOM     38  C   UNL A   1      39.871  29.928  30.517  1.00  0.00     0.049 A 
ATOM     39  N   UNL A   1      41.643  29.480  32.909  1.00  0.00    -0.248 NA
ATOM     40  C   UNL A   1      42.723  27.774  31.738  1.00  0.00     0.031 C 
ATOM     41  C   UNL A   1      38.958  30.165  29.396  1.00  0.00     0.029 A 
ATOM     42  N   UNL A   1      39.473  30.838  31.465  1.00  0.00    -0.354 N 
ATOM     43  C   UNL A   1      42.611  28.902  33.722  1.00  0.00     0.074 A 
ATOM     44  C   UNL A   1      43.200  27.816  32.973  1.00  0.00     0.031 C 
ATOM     45  C   UNL A   1      38.130  31.174  29.709  1.00  0.00     0.029 A 
ATOM     46  C   UNL A   1      38.419  31.627  31.066  1.00  0.00     0.049 A 
ATOM     47  H   UNL A   1      39.901  30.918  32.348  1.00  0.00     0.167 HD
ATOM     48  C   UNL A   1      42.991  29.259  34.973  1.00  0.00     0.031 A 
ATOM     49  C   UNL A   1      37.757  32.600  31.720  1.00  0.00     0.031 A 
ATOM     50  C   UNL A   1      42.404  30.344  35.711  1.00  0.00     0.049 A 
ATOM     51  C   UNL A   1      38.184  32.965  33.116  1.00  0.00     0.074 A 
ATOM     52  C   UNL A   1      42.754  30.819  36.963  1.00  0.00     0.029 A 
ATOM     53  N   UNL A   1      41.341  31.120  35.272  1.00  0.00    -0.354 N 
ATOM     54  N   UNL A   1      39.151  32.455  33.841  1.00  0.00    -0.248 NA
ATOM     55  C   UNL A   1      37.440  34.046  33.777  1.00  0.00     0.031 C 
ATOM     56  C   UNL A   1      41.862  31.841  37.307  1.00  0.00     0.029 A 
ATOM     57  C   UNL A   1      41.003  32.051  36.239  1.00  0.00     0.049 A 
ATOM     58  H   UNL A   1      40.893  31.022  34.400  1.00  0.00     0.167 HD
ATOM     59  C   UNL A   1      39.150  33.174  35.032  1.00  0.00     0.074 A 
ATOM     60  C   UNL A   1      38.097  34.163  34.922  1.00  0.00     0.031 C 
ATOM     61  C   UNL A   1      39.951  33.029  36.117  1.00  0.00     0.031 A 
BRANCH  48  62
ATOM     62  C   UNL A   1      44.089  28.457  35.624  1.00  0.00    -0.014 A 
ATOM     63  C   UNL A   1      43.795  27.361  36.459  1.00  0.00     0.010 A 
ATOM     64  C   UNL A   1      45.434  28.775  35.366  1.00  0.00     0.010 A 
ATOM     65  C   UNL A   1      44.824  26.629  37.055  1.00  0.00     0.020 A 
ATOM     66  C   UNL A   1      46.467  28.023  35.934  1.00  0.00     0.020 A 
ATOM     67  C   UNL A   1      46.154  26.965  36.788  1.00  0.00     0.054 A 
BRANCH  67  68
ATOM     68  S   UNL A   1      47.468  25.978  37.556  1.00  0.00     0.124 S 
ATOM     69  O   UNL A   1      46.840  25.560  38.807  1.00  0.00    -0.237 OA
ATOM     70  O   UNL A   1      47.684  24.916  36.577  1.00  0.00    -0.237 OA
ATOM     71  O   UNL A   1      48.573  26.923  37.701  1.00  0.00    -0.744 OA
ENDBRANCH  67  68
ENDBRANCH  48  62
BRANCH  49  72
ATOM     72  C   UNL A   1      36.625  33.305  31.055  1.00  0.00    -0.014 A 
ATOM     73  C   UNL A   1      35.475  33.661  31.783  1.00  0.00     0.010 A 
ATOM     74  C   UNL A   1      36.697  33.636  29.690  1.00  0.00     0.010 A 
ATOM     75  C   UNL A   1      34.412  34.316  31.153  1.00  0.00     0.020 A 
ATOM     76  C   UNL A   1      35.651  34.318  29.064  1.00  0.00     0.020 A 
ATOM     77  C   UNL A   1      34.508  34.643  29.798  1.00  0.00     0.054 A 
BRANCH  77  78
ATOM     78  S   UNL A   1      33.137  35.538  29.014  1.00  0.00     0.124 S 
ATOM     79  O   UNL A   1      32.350  35.959  30.169  1.00  0.00    -0.237 OA
ATOM     80  O   UNL A   1      33.828  36.603  28.295  1.00  0.00    -0.237 OA
ATOM     81  O   UNL A   1      32.511  34.526  28.164  1.00  0.00    -0.744 OA
ENDBRANCH  77  78
ENDBRANCH  49  72
BRANCH  61  82
ATOM     82  C   UNL A   1      39.751  33.987  37.262  1.00  0.00    -0.014 A 
ATOM     83  C   UNL A   1      40.171  35.326  37.181  1.00  0.00     0.010 A 
ATOM     84  C   UNL A   1      39.075  33.551  38.416  1.00  0.00     0.010 A 
ATOM     85  C   UNL A   1      39.946  36.202  38.247  1.00  0.00     0.020 A 
ATOM     86  C   UNL A   1      38.819  34.431  39.470  1.00  0.00     0.020 A 
ATOM     87  C   UNL A   1      39.270  35.750  39.384  1.00  0.00     0.054 A 
BRANCH  87  88
ATOM     88  S   UNL A   1      38.949  36.920  40.732  1.00  0.00     0.124 S 
ATOM     89  O   UNL A   1      40.298  37.204  41.215  1.00  0.00    -0.237 OA
ATOM     90  O   UNL A   1      38.281  38.022  40.045  1.00  0.00    -0.237 OA
ATOM     91  O   UNL A   1      38.105  36.164  41.655  1.00  0.00    -0.744 OA
ENDBRANCH  87  88
ENDBRANCH  61  82
ENDBRANCH  35  36
ENDBRANCH  27  30
ENDBRANCH  25  26
ENDBRANCH  24  25
ENDBRANCH   1  24
TORSDOF 19
ENDMDL
MODEL 2
REMARK VINA RESULT:     -11.5      4.380     10.054
REMARK SMILES CC1([C@](C)(Nc2cccc(Cl)c2)C(=O)NCCCCCCNC(=O)c2ccc(-c3c4nc(c(-c5ccc(S(=O)(=O)[O-])cc5)c5ccc([nH]5)c(-c5ccc(S(=O)(=O)[O-])cc5)c5nc(c(-c6ccc(S(=O)(=O)[O-])cc6)c6ccc3[nH]6)C=C5)C=C4)cc2)CC1
REMARK SMILES IDX 19 1 18 2 17 3 16 4 15 5 13 6 14 7 3 9 4 10 2 11 1 12 85 13
REMARK SMILES IDX 86 14 5 15 6 17 7 18 12 19 8 20 10 21 9 22 11 23 20 24 21 25
REMARK SMILES IDX 22 26 23 27 24 29 25 30 26 31 84 32 27 33 83 34 28 35 29 36
REMARK SMILES IDX 30 37 77 38 31 39 82 40 76 41 78 42 32 43 81 44 75 45 74 46
REMARK SMILES IDX 33 48 63 49 44 50 62 51 45 52 48 53 61 54 79 55 46 56 47 57
REMARK SMILES IDX 60 59 80 60 49 61 34 62 35 63 43 64 36 65 42 66 37 67 38 68
REMARK SMILES IDX 39 69 40 70 41 71 64 72 65 73 73 74 66 75 72 76 67 77 68 78
REMARK SMILES IDX 69 79 70 80 71 81 50 82 51 83 59 84 52 85 58 86 53 87 54 88
REMARK SMILES IDX 55 89 56 90 57 91
REMARK H PARENT 15 8 5 16 22 28 78 47 48 58
REMARK Flexibility Score: inf
ROOT
ATOM      1  C   UNL A   1      31.984  27.973  26.725  1.00  0.00     0.002 C 
ENDROOT
BRANCH   1   2
ATOM      2  C   UNL A   1      31.203  27.626  25.459  1.00  0.00     0.002 C 
BRANCH   2   3
ATOM      3  C   UNL A   1      30.419  26.328  25.585  1.00  0.00     0.021 C 
BRANCH   3   4
ATOM      4  C   UNL A   1      30.951  25.192  24.716  1.00  0.00     0.116 C 
BRANCH   4   5
ATOM      5  N   UNL A   1      30.576  23.855  25.149  1.00  0.00    -0.354 N 
ATOM      6  C   UNL A   1      31.369  22.744  25.355  1.00  0.00     0.245 C 
ATOM      7  O   UNL A   1      30.808  21.688  25.662  1.00  0.00    -0.272 OA
ATOM      8  H   UNL A   1      29.615  23.722  25.319  1.00  0.00     0.163 HD
BRANCH   6   9
ATOM      9  C   UNL A   1      32.937  22.870  25.263  1.00  0.00     0.119 C 
ATOM     10  C   UNL A   1      33.478  24.174  25.918  1.00  0.00     0.046 C 
BRANCH   9  11
ATOM     11  C   UNL A   1      33.255  22.972  23.706  1.00  0.00    -0.001 C 
ATOM     12  C   UNL A   1      32.371  22.037  22.865  1.00  0.00     0.014 C 
ATOM     13  C   UNL A   1      34.660  23.159  23.141  1.00  0.00     0.010 C 
ATOM     14  C   UNL A   1      33.668  24.271  23.034  1.00  0.00     0.010 C 
ENDBRANCH   9  11
BRANCH   9  15
ATOM     15  N   UNL A   1      33.619  21.772  26.019  1.00  0.00    -0.371 N 
ATOM     16  H   UNL A   1      33.738  21.888  26.990  1.00  0.00     0.161 HD
BRANCH  15  17
ATOM     17  C   UNL A   1      34.102  20.585  25.436  1.00  0.00     0.036 A 
ATOM     18  C   UNL A   1      35.432  20.380  25.023  1.00  0.00     0.026 A 
ATOM     19  C   UNL A   1      33.252  19.480  25.289  1.00  0.00     0.046 A 
ATOM     20  C   UNL A   1      35.933  19.130  24.634  1.00  0.00     0.004 A 
ATOM     21  C   UNL A   1      33.732  18.240  24.829  1.00  0.00     0.043 A 
ATOM     22  C   UNL A   1      35.079  18.048  24.541  1.00  0.00     0.020 A 
ATOM     23  Cl  UNL A   1      32.644  16.921  24.615  1.00  0.00    -0.084 Cl
ENDBRANCH  15  17
ENDBRANCH   9  15
ENDBRANCH   6   9
ENDBRANCH   4   5
ENDBRANCH   3   4
ENDBRANCH   2   3
ENDBRANCH   1   2
BRANCH   1  24
ATOM     24  C   UNL A   1      33.489  27.706  26.627  1.00  0.00     0.021 C 
BRANCH  24  25
ATOM     25  C   UNL A   1      34.294  28.872  26.062  1.00  0.00     0.116 C 
BRANCH  25  26
ATOM     26  N   UNL A   1      34.019  30.104  26.783  1.00  0.00    -0.352 N 
ATOM     27  C   UNL A   1      34.711  30.633  27.840  1.00  0.00     0.251 C 
ATOM     28  H   UNL A   1      33.239  30.621  26.473  1.00  0.00     0.163 HD
ATOM     29  O   UNL A   1      34.224  31.537  28.521  1.00  0.00    -0.269 OA
BRANCH  27  30
ATOM     30  C   UNL A   1      36.043  30.088  28.157  1.00  0.00     0.039 A 
ATOM     31  C   UNL A   1      37.080  30.237  27.237  1.00  0.00     0.014 A 
ATOM     32  C   UNL A   1      36.267  29.470  29.392  1.00  0.00     0.014 A 
ATOM     33  C   UNL A   1      38.363  29.805  27.577  1.00  0.00     0.010 A 
ATOM     34  C   UNL A   1      37.560  29.112  29.757  1.00  0.00     0.010 A 
ATOM     35  C   UNL A   1      38.619  29.266  28.850  1.00  0.00    -0.014 A 
BRANCH  35  36
ATOM     36  C   UNL A   1      39.989  28.853  29.246  1.00  0.00     0.031 A 
ATOM     37  C   UNL A   1      40.882  29.816  29.982  1.00  0.00     0.074 A 
ATOM     38  C   UNL A   1      40.445  27.634  28.899  1.00  0.00     0.049 A 
ATOM     39  N   UNL A   1      42.118  29.651  30.380  1.00  0.00    -0.248 NA
ATOM     40  C   UNL A   1      40.325  31.143  30.289  1.00  0.00     0.031 C 
ATOM     41  C   UNL A   1      39.689  26.628  28.148  1.00  0.00     0.029 A 
ATOM     42  N   UNL A   1      41.658  27.033  29.126  1.00  0.00    -0.354 N 
ATOM     43  C   UNL A   1      42.488  30.854  30.969  1.00  0.00     0.074 A 
ATOM     44  C   UNL A   1      41.368  31.757  30.828  1.00  0.00     0.031 C 
ATOM     45  C   UNL A   1      40.443  25.526  28.007  1.00  0.00     0.029 A 
ATOM     46  C   UNL A   1      41.750  25.760  28.614  1.00  0.00     0.049 A 
ATOM     47  H   UNL A   1      42.394  27.472  29.611  1.00  0.00     0.167 HD
ATOM     48  C   UNL A   1      43.648  31.172  31.592  1.00  0.00     0.031 A 
ATOM     49  C   UNL A   1      42.771  24.882  28.625  1.00  0.00     0.031 A 
ATOM     50  C   UNL A   1      44.757  30.268  31.734  1.00  0.00     0.049 A 
ATOM     51  C   UNL A   1      44.057  25.265  29.306  1.00  0.00     0.074 A 
ATOM     52  C   UNL A   1      45.955  30.475  32.394  1.00  0.00     0.029 A 
ATOM     53  N   UNL A   1      44.810  28.988  31.203  1.00  0.00    -0.354 N 
ATOM     54  N   UNL A   1      44.362  26.383  29.922  1.00  0.00    -0.248 NA
ATOM     55  C   UNL A   1      45.133  24.264  29.305  1.00  0.00     0.031 C 
ATOM     56  C   UNL A   1      46.757  29.345  32.208  1.00  0.00     0.029 A 
ATOM     57  C   UNL A   1      46.031  28.404  31.495  1.00  0.00     0.049 A 
ATOM     58  H   UNL A   1      44.085  28.558  30.693  1.00  0.00     0.167 HD
ATOM     59  C   UNL A   1      45.653  26.207  30.407  1.00  0.00     0.074 A 
ATOM     60  C   UNL A   1      46.065  24.871  30.027  1.00  0.00     0.031 C 
ATOM     61  C   UNL A   1      46.427  27.072  31.108  1.00  0.00     0.031 A 
BRANCH  48  62
ATOM     62  C   UNL A   1      43.778  32.564  32.158  1.00  0.00    -0.014 A 
ATOM     63  C   UNL A   1      43.416  32.847  33.489  1.00  0.00     0.010 A 
ATOM     64  C   UNL A   1      44.311  33.594  31.363  1.00  0.00     0.010 A 
ATOM     65  C   UNL A   1      43.543  34.142  33.997  1.00  0.00     0.020 A 
ATOM     66  C   UNL A   1      44.471  34.884  31.878  1.00  0.00     0.020 A 
ATOM     67  C   UNL A   1      44.070  35.152  33.188  1.00  0.00     0.054 A 
BRANCH  67  68
ATOM     68  S   UNL A   1      44.248  36.817  33.885  1.00  0.00     0.124 S 
ATOM     69  O   UNL A   1      43.081  37.501  33.333  1.00  0.00    -0.237 OA
ATOM     70  O   UNL A   1      44.207  36.568  35.323  1.00  0.00    -0.237 OA
ATOM     71  O   UNL A   1      45.537  37.274  33.371  1.00  0.00    -0.744 OA
ENDBRANCH  67  68
ENDBRANCH  48  62
BRANCH  49  72
ATOM     72  C   UNL A   1      42.613  23.549  27.978  1.00  0.00    -0.014 A 
ATOM     73  C   UNL A   1      42.049  22.472  28.684  1.00  0.00     0.010 A 
ATOM     74  C   UNL A   1      43.017  23.354  26.645  1.00  0.00     0.010 A 
ATOM     75  C   UNL A   1      41.910  21.220  28.074  1.00  0.00     0.020 A 
ATOM     76  C   UNL A   1      42.852  22.114  26.022  1.00  0.00     0.020 A 
ATOM     77  C   UNL A   1      42.309  21.051  26.746  1.00  0.00     0.054 A 
BRANCH  77  78
ATOM     78  S   UNL A   1      42.072  19.432  25.961  1.00  0.00     0.124 S 
ATOM     79  O   UNL A   1      40.631  19.413  25.732  1.00  0.00    -0.237 OA
ATOM     80  O   UNL A   1      42.903  19.538  24.765  1.00  0.00    -0.237 OA
ATOM     81  O   UNL A   1      42.560  18.490  26.968  1.00  0.00    -0.744 OA
ENDBRANCH  77  78
ENDBRANCH  49  72
BRANCH  61  82
ATOM     82  C   UNL A   1      47.786  26.593  31.547  1.00  0.00    -0.014 A 
ATOM     83  C   UNL A   1      47.977  25.968  32.792  1.00  0.00     0.010 A 
ATOM     84  C   UNL A   1      48.878  26.717  30.668  1.00  0.00     0.010 A 
ATOM     85  C   UNL A   1      49.243  25.506  33.162  1.00  0.00     0.020 A 
ATOM     86  C   UNL A   1      50.138  26.226  31.021  1.00  0.00     0.020 A 
ATOM     87  C   UNL A   1      50.315  25.636  32.274  1.00  0.00     0.054 A 
BRANCH  87  88
ATOM     88  S   UNL A   1      51.936  24.984  32.760  1.00  0.00     0.124 S 
ATOM     89  O   UNL A   1      52.847  25.842  32.009  1.00  0.00    -0.237 OA
ATOM     90  O   UNL A   1      51.937  25.179  34.208  1.00  0.00    -0.237 OA
ATOM     91  O   UNL A   1      51.894  23.589  32.326  1.00  0.00    -0.744 OA
ENDBRANCH  87  88
ENDBRANCH  61  82
ENDBRANCH  35  36
ENDBRANCH  27  30
ENDBRANCH  25  26
ENDBRANCH  24  25
ENDBRANCH   1  24
TORSDOF 19
ENDMDL
MODEL 3
REMARK VINA RESULT:     -11.2      4.486      9.182
REMARK SMILES CC1([C@](C)(Nc2cccc(Cl)c2)C(=O)NCCCCCCNC(=O)c2ccc(-c3c4nc(c(-c5ccc(S(=O)(=O)[O-])cc5)c5ccc([nH]5)c(-c5ccc(S(=O)(=O)[O-])cc5)c5nc(c(-c6ccc(S(=O)(=O)[O-])cc6)c6ccc3[nH]6)C=C5)C=C4)cc2)CC1
REMARK SMILES IDX 19 1 18 2 17 3 16 4 15 5 13 6 14 7 3 9 4 10 2 11 1 12 85 13
REMARK SMILES IDX 86 14 5 15 6 17 7 18 12 19 8 20 10 21 9 22 11 23 20 24 21 25
REMARK SMILES IDX 22 26 23 27 24 29 25 30 26 31 84 32 27 33 83 34 28 35 29 36
REMARK SMILES IDX 30 37 77 38 31 39 82 40 76 41 78 42 32 43 81 44 75 45 74 46
REMARK SMILES IDX 33 48 63 49 44 50 62 51 45 52 48 53 61 54 79 55 46 56 47 57
REMARK SMILES IDX 60 59 80 60 49 61 34 62 35 63 43 64 36 65 42 66 37 67 38 68
REMARK SMILES IDX 39 69 40 70 41 71 64 72 65 73 73 74 66 75 72 76 67 77 68 78
REMARK SMILES IDX 69 79 70 80 71 81 50 82 51 83 59 84 52 85 58 86 53 87 54 88
REMARK SMILES IDX 55 89 56 90 57 91
REMARK H PARENT 15 8 5 16 22 28 78 47 48 58
REMARK Flexibility Score: inf
ROOT
ATOM      1  C   UNL A   1      33.313  28.535  24.501  1.00  0.00     0.002 C 
ENDROOT
BRANCH   1   2
ATOM      2  C   UNL A   1      33.945  27.693  23.395  1.00  0.00     0.002 C 
BRANCH   2   3
ATOM      3  C   UNL A   1      33.097  26.489  23.011  1.00  0.00     0.021 C 
BRANCH   3   4
ATOM      4  C   UNL A   1      33.844  25.160  23.065  1.00  0.00     0.116 C 
BRANCH   4   5
ATOM      5  N   UNL A   1      34.335  24.780  24.381  1.00  0.00    -0.354 N 
ATOM      6  C   UNL A   1      33.888  23.790  25.233  1.00  0.00     0.245 C 
ATOM      7  O   UNL A   1      34.429  23.699  26.340  1.00  0.00    -0.272 OA
ATOM      8  H   UNL A   1      35.098  25.306  24.713  1.00  0.00     0.163 HD
BRANCH   6   9
ATOM      9  C   UNL A   1      32.775  22.784  24.754  1.00  0.00     0.119 C 
ATOM     10  C   UNL A   1      32.887  22.435  23.241  1.00  0.00     0.046 C 
BRANCH   9  11
ATOM     11  C   UNL A   1      31.400  23.563  24.945  1.00  0.00    -0.001 C 
ATOM     12  C   UNL A   1      30.672  23.803  23.614  1.00  0.00     0.014 C 
ATOM     13  C   UNL A   1      31.197  24.681  25.965  1.00  0.00     0.010 C 
ATOM     14  C   UNL A   1      30.507  23.370  26.161  1.00  0.00     0.010 C 
ENDBRANCH   9  11
BRANCH   9  15
ATOM     15  N   UNL A   1      32.900  21.460  25.443  1.00  0.00    -0.371 N 
ATOM     16  H   UNL A   1      32.346  21.305  26.243  1.00  0.00     0.161 HD
BRANCH  15  17
ATOM     17  C   UNL A   1      33.755  20.423  25.026  1.00  0.00     0.036 A 
ATOM     18  C   UNL A   1      35.161  20.483  25.053  1.00  0.00     0.026 A 
ATOM     19  C   UNL A   1      33.216  19.200  24.600  1.00  0.00     0.046 A 
ATOM     20  C   UNL A   1      35.984  19.372  24.825  1.00  0.00     0.004 A 
ATOM     21  C   UNL A   1      34.041  18.100  24.297  1.00  0.00     0.043 A 
ATOM     22  C   UNL A   1      35.421  18.168  24.449  1.00  0.00     0.020 A 
ATOM     23  Cl  UNL A   1      33.342  16.631  23.729  1.00  0.00    -0.084 Cl
ENDBRANCH  15  17
ENDBRANCH   9  15
ENDBRANCH   6   9
ENDBRANCH   4   5
ENDBRANCH   3   4
ENDBRANCH   2   3
ENDBRANCH   1   2
BRANCH   1  24
ATOM     24  C   UNL A   1      32.957  27.745  25.764  1.00  0.00     0.021 C 
BRANCH  24  25
ATOM     25  C   UNL A   1      33.694  28.206  27.018  1.00  0.00     0.116 C 
BRANCH  25  26
ATOM     26  N   UNL A   1      33.447  29.612  27.291  1.00  0.00    -0.352 N 
ATOM     27  C   UNL A   1      34.251  30.492  27.967  1.00  0.00     0.251 C 
ATOM     28  H   UNL A   1      32.598  29.976  26.949  1.00  0.00     0.163 HD
ATOM     29  O   UNL A   1      33.811  31.575  28.353  1.00  0.00    -0.269 OA
BRANCH  27  30
ATOM     30  C   UNL A   1      35.649  30.109  28.236  1.00  0.00     0.039 A 
ATOM     31  C   UNL A   1      36.596  30.217  27.218  1.00  0.00     0.014 A 
ATOM     32  C   UNL A   1      36.021  29.688  29.517  1.00  0.00     0.014 A 
ATOM     33  C   UNL A   1      37.935  29.944  27.499  1.00  0.00     0.010 A 
ATOM     34  C   UNL A   1      37.365  29.492  29.812  1.00  0.00     0.010 A 
ATOM     35  C   UNL A   1      38.335  29.609  28.805  1.00  0.00    -0.014 A 
BRANCH  35  36
ATOM     36  C   UNL A   1      39.763  29.371  29.132  1.00  0.00     0.031 A 
ATOM     37  C   UNL A   1      40.397  28.043  28.815  1.00  0.00     0.074 A 
ATOM     38  C   UNL A   1      40.472  30.329  29.762  1.00  0.00     0.049 A 
ATOM     39  N   UNL A   1      41.617  27.635  29.056  1.00  0.00    -0.248 NA
ATOM     40  C   UNL A   1      39.545  27.034  28.164  1.00  0.00     0.031 C 
ATOM     41  C   UNL A   1      39.958  31.641  30.160  1.00  0.00     0.029 A 
ATOM     42  N   UNL A   1      41.779  30.345  30.182  1.00  0.00    -0.354 N 
ATOM     43  C   UNL A   1      41.673  26.322  28.602  1.00  0.00     0.074 A 
ATOM     44  C   UNL A   1      40.352  25.984  28.122  1.00  0.00     0.031 C 
ATOM     45  C   UNL A   1      40.946  32.344  30.736  1.00  0.00     0.029 A 
ATOM     46  C   UNL A   1      42.150  31.522  30.790  1.00  0.00     0.049 A 
ATOM     47  H   UNL A   1      42.394  29.586  30.059  1.00  0.00     0.167 HD
ATOM     48  C   UNL A   1      42.734  25.482  28.566  1.00  0.00     0.031 A 
ATOM     49  C   UNL A   1      43.323  31.894  31.337  1.00  0.00     0.031 A 
ATOM     50  C   UNL A   1      44.047  25.826  29.041  1.00  0.00     0.049 A 
ATOM     51  C   UNL A   1      44.482  30.935  31.303  1.00  0.00     0.074 A 
ATOM     52  C   UNL A   1      45.202  25.064  29.000  1.00  0.00     0.029 A 
ATOM     53  N   UNL A   1      44.381  27.027  29.649  1.00  0.00    -0.354 N 
ATOM     54  N   UNL A   1      44.536  29.723  30.802  1.00  0.00    -0.248 NA
ATOM     55  C   UNL A   1      45.745  31.398  31.896  1.00  0.00     0.031 C 
ATOM     56  C   UNL A   1      46.219  25.780  29.640  1.00  0.00     0.029 A 
ATOM     57  C   UNL A   1      45.717  27.017  30.014  1.00  0.00     0.049 A 
ATOM     58  H   UNL A   1      43.760  27.776  29.798  1.00  0.00     0.167 HD
ATOM     59  C   UNL A   1      45.843  29.292  30.994  1.00  0.00     0.074 A 
ATOM     60  C   UNL A   1      46.552  30.378  31.641  1.00  0.00     0.031 C 
ATOM     61  C   UNL A   1      46.408  28.105  30.660  1.00  0.00     0.031 A 
BRANCH  48  62
ATOM     62  C   UNL A   1      42.513  24.101  28.003  1.00  0.00    -0.014 A 
ATOM     63  C   UNL A   1      42.664  23.840  26.628  1.00  0.00     0.010 A 
ATOM     64  C   UNL A   1      42.191  23.038  28.867  1.00  0.00     0.010 A 
ATOM     65  C   UNL A   1      42.455  22.555  26.123  1.00  0.00     0.020 A 
ATOM     66  C   UNL A   1      42.013  21.743  28.370  1.00  0.00     0.020 A 
ATOM     67  C   UNL A   1      42.131  21.514  26.998  1.00  0.00     0.054 A 
BRANCH  67  68
ATOM     68  S   UNL A   1      41.891  19.851  26.315  1.00  0.00     0.124 S 
ATOM     69  O   UNL A   1      42.308  19.005  27.431  1.00  0.00    -0.237 OA
ATOM     70  O   UNL A   1      40.463  19.831  26.013  1.00  0.00    -0.237 OA
ATOM     71  O   UNL A   1      42.773  19.822  25.151  1.00  0.00    -0.744 OA
ENDBRANCH  67  68
ENDBRANCH  48  62
BRANCH  49  72
ATOM     72  C   UNL A   1      43.461  33.243  31.953  1.00  0.00    -0.014 A 
ATOM     73  C   UNL A   1      43.703  34.375  31.154  1.00  0.00     0.010 A 
ATOM     74  C   UNL A   1      43.341  33.405  33.345  1.00  0.00     0.010 A 
ATOM     75  C   UNL A   1      43.839  35.639  31.738  1.00  0.00     0.020 A 
ATOM     76  C   UNL A   1      43.445  34.669  33.930  1.00  0.00     0.020 A 
ATOM     77  C   UNL A   1      43.706  35.778  33.122  1.00  0.00     0.054 A 
BRANCH  77  78
ATOM     78  S   UNL A   1      43.837  37.435  33.851  1.00  0.00     0.124 S 
ATOM     79  O   UNL A   1      43.845  38.288  32.667  1.00  0.00    -0.237 OA
ATOM     80  O   UNL A   1      42.637  37.509  34.680  1.00  0.00    -0.237 OA
ATOM     81  O   UNL A   1      45.095  37.382  34.595  1.00  0.00    -0.744 OA
ENDBRANCH  77  78
ENDBRANCH  49  72
BRANCH  61  82
ATOM     82  C   UNL A   1      47.876  27.926  30.951  1.00  0.00    -0.014 A 
ATOM     83  C   UNL A   1      48.320  27.354  32.156  1.00  0.00     0.010 A 
ATOM     84  C   UNL A   1      48.822  28.282  29.972  1.00  0.00     0.010 A 
ATOM     85  C   UNL A   1      49.686  27.172  32.388  1.00  0.00     0.020 A 
ATOM     86  C   UNL A   1      50.185  28.072  30.187  1.00  0.00     0.020 A 
ATOM     87  C   UNL A   1      50.610  27.530  31.402  1.00  0.00     0.054 A 
BRANCH  87  88
ATOM     88  S   UNL A   1      52.373  27.238  31.711  1.00  0.00     0.124 S 
ATOM     89  O   UNL A   1      52.568  25.911  31.132  1.00  0.00    -0.237 OA
ATOM     90  O   UNL A   1      53.010  28.338  30.992  1.00  0.00    -0.237 OA
ATOM     91  O   UNL A   1      52.486  27.303  33.166  1.00  0.00    -0.744 OA
ENDBRANCH  87  88
ENDBRANCH  61  82
ENDBRANCH  35  36
ENDBRANCH  27  30
ENDBRANCH  25  26
ENDBRANCH  24  25
ENDBRANCH   1  24
TORSDOF 19
ENDMDL
