MODEL 1
REMARK VINA RESULT:     -12.2      0.000      0.000
REMARK SMILES CC1=Nc2c(c(C)nn2-c2ccc(F)cc2)[C@H](c2ccc(C(=O)NCCCCCCNC(=O)c3ccc(-c4c5nc(c(-c6ccc(S(=O)(=O)[O-])cc6)c6ccc([nH]6)c(-c6ccc(S(=O)(=O)[O-])cc6)c6nc(c(-c7ccc(S(=O)(=O)[O-])cc7)c7ccc4[nH]7)C=C6)C=C5)cc3)cc2)S1
REMARK SMILES IDX 28 1 27 2 26 3 25 4 24 5 22 6 23 7 21 9 18 10 19 11 95 12
REMARK SMILES IDX 20 13 94 14 17 15 1 16 2 17 3 18 96 19 4 20 5 21 9 22 6 23
REMARK SMILES IDX 8 24 7 25 10 26 11 27 16 28 12 29 15 30 13 31 14 32 29 33
REMARK SMILES IDX 30 34 31 35 32 36 33 38 34 39 35 40 93 41 36 42 92 43 37 44
REMARK SMILES IDX 38 45 39 46 86 47 40 48 91 49 85 50 87 51 41 52 90 53 84 54
REMARK SMILES IDX 83 55 42 57 72 58 53 59 71 60 54 61 57 62 70 63 88 64 55 65
REMARK SMILES IDX 56 66 69 68 89 69 58 70 43 71 44 72 52 73 45 74 51 75 46 76
REMARK SMILES IDX 47 77 48 78 49 79 50 80 73 81 74 82 82 83 75 84 81 85 76 86
REMARK SMILES IDX 77 87 78 88 79 89 80 90 59 91 60 92 68 93 61 94 67 95 62 96
REMARK SMILES IDX 63 97 64 98 65 99 66 100
REMARK H PARENT 24 8 31 37 87 56 57 67
REMARK Flexibility Score: inf
ROOT
ATOM      1  C   UNL A   1      41.641  24.207  28.380  1.00  0.00     0.002 C 
ENDROOT
BRANCH   1   2
ATOM      2  C   UNL A   1      40.647  25.121  27.642  1.00  0.00     0.002 C 
BRANCH   2   3
ATOM      3  C   UNL A   1      39.164  24.826  27.900  1.00  0.00     0.021 C 
BRANCH   3   4
ATOM      4  C   UNL A   1      38.413  24.367  26.651  1.00  0.00     0.116 C 
BRANCH   4   5
ATOM      5  N   UNL A   1      38.895  23.065  26.233  1.00  0.00    -0.352 N 
ATOM      6  C   UNL A   1      38.264  21.996  25.655  1.00  0.00     0.251 C 
ATOM      7  O   UNL A   1      38.940  21.007  25.377  1.00  0.00    -0.269 OA
ATOM      8  H   UNL A   1      39.856  22.923  26.393  1.00  0.00     0.163 HD
BRANCH   6   9
ATOM      9  C   UNL A   1      36.831  22.031  25.268  1.00  0.00     0.039 A 
ATOM     10  C   UNL A   1      34.127  22.325  24.484  1.00  0.00    -0.030 A 
ATOM     11  C   UNL A   1      35.142  23.086  23.879  1.00  0.00     0.006 A 
ATOM     12  C   UNL A   1      34.504  21.380  25.456  1.00  0.00     0.006 A 
ATOM     13  C   UNL A   1      36.476  22.933  24.259  1.00  0.00     0.014 A 
ATOM     14  C   UNL A   1      35.843  21.218  25.824  1.00  0.00     0.014 A 
BRANCH  10  15
ATOM     15  C   UNL A   1      32.693  22.489  24.004  1.00  0.00     0.119 C 
ATOM     16  C   UNL A   1      32.999  24.585  20.451  1.00  0.00     0.075 C 
ATOM     17  C   UNL A   1      32.560  24.227  21.848  1.00  0.00     0.074 C 
ATOM     18  N   UNL A   1      32.285  25.194  22.661  1.00  0.00    -0.227 NA
ATOM     19  S   UNL A   1      32.521  22.502  22.192  1.00  0.00    -0.098 SA
ATOM     20  C   UNL A   1      32.015  24.904  23.957  1.00  0.00     0.161 A 
ATOM     21  C   UNL A   1      32.200  23.728  24.642  1.00  0.00     0.038 A 
ATOM     22  N   UNL A   1      31.625  25.847  24.897  1.00  0.00    -0.215 N 
ATOM     23  C   UNL A   1      31.877  24.029  25.989  1.00  0.00     0.067 A 
ATOM     24  N   UNL A   1      31.588  25.324  26.152  1.00  0.00    -0.171 NA
ATOM     25  C   UNL A   1      31.873  23.126  27.167  1.00  0.00     0.069 C 
BRANCH  22  26
ATOM     26  C   UNL A   1      31.235  27.181  24.645  1.00  0.00     0.067 A 
ATOM     27  C   UNL A   1      31.811  28.219  25.393  1.00  0.00     0.031 A 
ATOM     28  C   UNL A   1      30.251  27.450  23.686  1.00  0.00     0.031 A 
ATOM     29  C   UNL A   1      31.403  29.531  25.176  1.00  0.00     0.041 A 
ATOM     30  C   UNL A   1      29.809  28.765  23.517  1.00  0.00     0.041 A 
ATOM     31  C   UNL A   1      30.397  29.792  24.251  1.00  0.00     0.123 A 
ATOM     32  F   UNL A   1      29.998  31.058  24.070  1.00  0.00    -0.207 F 
ENDBRANCH  22  26
ENDBRANCH  10  15
ENDBRANCH   6   9
ENDBRANCH   4   5
ENDBRANCH   3   4
ENDBRANCH   2   3
ENDBRANCH   1   2
BRANCH   1  33
ATOM     33  C   UNL A   1      42.349  23.142  27.527  1.00  0.00     0.021 C 
BRANCH  33  34
ATOM     34  C   UNL A   1      42.264  23.407  26.034  1.00  0.00     0.116 C 
BRANCH  34  35
ATOM     35  N   UNL A   1      43.587  23.615  25.431  1.00  0.00    -0.352 N 
ATOM     36  C   UNL A   1      44.203  24.801  25.084  1.00  0.00     0.251 C 
ATOM     37  H   UNL A   1      44.104  22.798  25.248  1.00  0.00     0.163 HD
ATOM     38  O   UNL A   1      45.113  24.817  24.251  1.00  0.00    -0.269 OA
BRANCH  36  39
ATOM     39  C   UNL A   1      43.767  26.042  25.740  1.00  0.00     0.039 A 
ATOM     40  C   UNL A   1      42.762  26.870  25.231  1.00  0.00     0.014 A 
ATOM     41  C   UNL A   1      44.391  26.350  26.942  1.00  0.00     0.014 A 
ATOM     42  C   UNL A   1      42.370  27.977  25.982  1.00  0.00     0.010 A 
ATOM     43  C   UNL A   1      43.818  27.249  27.786  1.00  0.00     0.010 A 
ATOM     44  C   UNL A   1      42.908  28.151  27.266  1.00  0.00    -0.014 A 
BRANCH  44  45
ATOM     45  C   UNL A   1      42.509  29.226  28.159  1.00  0.00     0.031 A 
ATOM     46  C   UNL A   1      43.453  30.367  28.174  1.00  0.00     0.074 A 
ATOM     47  C   UNL A   1      41.267  29.297  28.692  1.00  0.00     0.049 A 
ATOM     48  N   UNL A   1      44.292  30.672  29.104  1.00  0.00    -0.248 NA
ATOM     49  C   UNL A   1      43.621  31.147  26.936  1.00  0.00     0.031 C 
ATOM     50  C   UNL A   1      40.117  28.407  28.464  1.00  0.00     0.029 A 
ATOM     51  N   UNL A   1      40.724  30.273  29.462  1.00  0.00    -0.354 N 
ATOM     52  C   UNL A   1      44.900  31.846  28.680  1.00  0.00     0.074 A 
ATOM     53  C   UNL A   1      44.641  31.941  27.266  1.00  0.00     0.031 C 
ATOM     54  C   UNL A   1      38.979  29.017  28.870  1.00  0.00     0.029 A 
ATOM     55  C   UNL A   1      39.334  30.250  29.545  1.00  0.00     0.049 A 
ATOM     56  H   UNL A   1      41.271  30.946  29.926  1.00  0.00     0.167 HD
ATOM     57  C   UNL A   1      45.296  32.796  29.573  1.00  0.00     0.031 A 
ATOM     58  C   UNL A   1      38.538  31.198  30.105  1.00  0.00     0.031 A 
ATOM     59  C   UNL A   1      45.254  32.296  30.927  1.00  0.00     0.049 A 
ATOM     60  C   UNL A   1      39.401  31.991  31.017  1.00  0.00     0.074 A 
ATOM     61  C   UNL A   1      45.839  31.237  31.592  1.00  0.00     0.029 A 
ATOM     62  N   UNL A   1      44.166  32.667  31.687  1.00  0.00    -0.354 N 
ATOM     63  N   UNL A   1      39.964  31.488  32.081  1.00  0.00    -0.248 NA
ATOM     64  C   UNL A   1      40.037  33.184  30.481  1.00  0.00     0.031 C 
ATOM     65  C   UNL A   1      44.811  30.721  32.435  1.00  0.00     0.029 A 
ATOM     66  C   UNL A   1      43.689  31.543  32.311  1.00  0.00     0.049 A 
ATOM     67  H   UNL A   1      43.799  33.576  31.769  1.00  0.00     0.167 HD
ATOM     68  C   UNL A   1      41.248  32.014  32.085  1.00  0.00     0.074 A 
ATOM     69  C   UNL A   1      41.205  33.122  31.130  1.00  0.00     0.031 C 
ATOM     70  C   UNL A   1      42.293  31.324  32.635  1.00  0.00     0.031 A 
BRANCH  57  71
ATOM     71  C   UNL A   1      45.289  34.275  29.277  1.00  0.00    -0.014 A 
ATOM     72  C   UNL A   1      44.057  34.958  29.287  1.00  0.00     0.010 A 
ATOM     73  C   UNL A   1      46.393  34.957  28.725  1.00  0.00     0.010 A 
ATOM     74  C   UNL A   1      43.926  36.229  28.713  1.00  0.00     0.020 A 
ATOM     75  C   UNL A   1      46.284  36.241  28.191  1.00  0.00     0.020 A 
ATOM     76  C   UNL A   1      45.042  36.854  28.158  1.00  0.00     0.054 A 
BRANCH  76  77
ATOM     77  S   UNL A   1      44.844  38.453  27.336  1.00  0.00     0.124 S 
ATOM     78  O   UNL A   1      44.977  39.382  28.454  1.00  0.00    -0.237 OA
ATOM     79  O   UNL A   1      45.949  38.445  26.382  1.00  0.00    -0.237 OA
ATOM     80  O   UNL A   1      43.512  38.368  26.743  1.00  0.00    -0.744 OA
ENDBRANCH  76  77
ENDBRANCH  57  71
BRANCH  58  81
ATOM     81  C   UNL A   1      37.198  31.665  29.662  1.00  0.00    -0.014 A 
ATOM     82  C   UNL A   1      36.156  31.886  30.584  1.00  0.00     0.010 A 
ATOM     83  C   UNL A   1      37.030  32.179  28.358  1.00  0.00     0.010 A 
ATOM     84  C   UNL A   1      35.022  32.646  30.236  1.00  0.00     0.020 A 
ATOM     85  C   UNL A   1      35.903  32.935  28.004  1.00  0.00     0.020 A 
ATOM     86  C   UNL A   1      34.915  33.187  28.952  1.00  0.00     0.054 A 
BRANCH  86  87
ATOM     87  S   UNL A   1      33.536  34.306  28.560  1.00  0.00     0.124 S 
ATOM     88  O   UNL A   1      32.965  34.577  29.876  1.00  0.00    -0.237 OA
ATOM     89  O   UNL A   1      34.210  35.431  27.920  1.00  0.00    -0.237 OA
ATOM     90  O   UNL A   1      32.687  33.513  27.672  1.00  0.00    -0.744 OA
ENDBRANCH  86  87
ENDBRANCH  58  81
BRANCH  70  91
ATOM     91  C   UNL A   1      41.987  30.110  33.486  1.00  0.00    -0.014 A 
ATOM     92  C   UNL A   1      41.833  28.802  32.980  1.00  0.00     0.010 A 
ATOM     93  C   UNL A   1      42.008  30.285  34.880  1.00  0.00     0.010 A 
ATOM     94  C   UNL A   1      41.678  27.709  33.849  1.00  0.00     0.020 A 
ATOM     95  C   UNL A   1      41.872  29.202  35.749  1.00  0.00     0.020 A 
ATOM     96  C   UNL A   1      41.697  27.918  35.232  1.00  0.00     0.054 A 
BRANCH  96  97
ATOM     97  S   UNL A   1      41.527  26.505  36.359  1.00  0.00     0.124 S 
ATOM     98  O   UNL A   1      40.778  27.076  37.474  1.00  0.00    -0.237 OA
ATOM     99  O   UNL A   1      40.804  25.528  35.549  1.00  0.00    -0.237 OA
ATOM    100  O   UNL A   1      42.909  26.138  36.668  1.00  0.00    -0.744 OA
ENDBRANCH  96  97
ENDBRANCH  70  91
ENDBRANCH  44  45
ENDBRANCH  36  39
ENDBRANCH  34  35
ENDBRANCH  33  34
ENDBRANCH   1  33
TORSDOF 18
ENDMDL
MODEL 2
REMARK VINA RESULT:     -12.1      2.531      3.507
REMARK SMILES CC1=Nc2c(c(C)nn2-c2ccc(F)cc2)[C@H](c2ccc(C(=O)NCCCCCCNC(=O)c3ccc(-c4c5nc(c(-c6ccc(S(=O)(=O)[O-])cc6)c6ccc([nH]6)c(-c6ccc(S(=O)(=O)[O-])cc6)c6nc(c(-c7ccc(S(=O)(=O)[O-])cc7)c7ccc4[nH]7)C=C6)C=C5)cc3)cc2)S1
REMARK SMILES IDX 28 1 27 2 26 3 25 4 24 5 22 6 23 7 21 9 18 10 19 11 95 12
REMARK SMILES IDX 20 13 94 14 17 15 1 16 2 17 3 18 96 19 4 20 5 21 9 22 6 23
REMARK SMILES IDX 8 24 7 25 10 26 11 27 16 28 12 29 15 30 13 31 14 32 29 33
REMARK SMILES IDX 30 34 31 35 32 36 33 38 34 39 35 40 93 41 36 42 92 43 37 44
REMARK SMILES IDX 38 45 39 46 86 47 40 48 91 49 85 50 87 51 41 52 90 53 84 54
REMARK SMILES IDX 83 55 42 57 72 58 53 59 71 60 54 61 57 62 70 63 88 64 55 65
REMARK SMILES IDX 56 66 69 68 89 69 58 70 43 71 44 72 52 73 45 74 51 75 46 76
REMARK SMILES IDX 47 77 48 78 49 79 50 80 73 81 74 82 82 83 75 84 81 85 76 86
REMARK SMILES IDX 77 87 78 88 79 89 80 90 59 91 60 92 68 93 61 94 67 95 62 96
REMARK SMILES IDX 63 97 64 98 65 99 66 100
REMARK H PARENT 24 8 31 37 87 56 57 67
REMARK Flexibility Score: inf
ROOT
ATOM      1  C   UNL A   1      41.144  21.379  27.689  1.00  0.00     0.002 C 
ENDROOT
BRANCH   1   2
ATOM      2  C   UNL A   1      40.603  22.247  26.538  1.00  0.00     0.002 C 
BRANCH   2   3
ATOM      3  C   UNL A   1      39.405  23.138  26.892  1.00  0.00     0.021 C 
BRANCH   3   4
ATOM      4  C   UNL A   1      38.169  22.854  26.038  1.00  0.00     0.116 C 
BRANCH   4   5
ATOM      5  N   UNL A   1      38.216  21.497  25.532  1.00  0.00    -0.352 N 
ATOM      6  C   UNL A   1      37.257  20.694  24.973  1.00  0.00     0.251 C 
ATOM      7  O   UNL A   1      37.591  19.570  24.600  1.00  0.00    -0.269 OA
ATOM      8  H   UNL A   1      39.102  21.074  25.601  1.00  0.00     0.163 HD
BRANCH   6   9
ATOM      9  C   UNL A   1      35.873  21.166  24.716  1.00  0.00     0.039 A 
ATOM     10  C   UNL A   1      33.315  22.283  24.250  1.00  0.00    -0.030 A 
ATOM     11  C   UNL A   1      34.481  22.952  23.839  1.00  0.00     0.006 A 
ATOM     12  C   UNL A   1      33.458  21.021  24.855  1.00  0.00     0.006 A 
ATOM     13  C   UNL A   1      35.742  22.395  24.061  1.00  0.00     0.014 A 
ATOM     14  C   UNL A   1      34.722  20.459  25.062  1.00  0.00     0.014 A 
BRANCH  10  15
ATOM     15  C   UNL A   1      31.961  22.904  23.944  1.00  0.00     0.119 C 
ATOM     16  C   UNL A   1      32.742  25.804  21.100  1.00  0.00     0.075 C 
ATOM     17  C   UNL A   1      32.239  25.170  22.371  1.00  0.00     0.074 C 
ATOM     18  N   UNL A   1      32.211  25.899  23.439  1.00  0.00    -0.227 NA
ATOM     19  S   UNL A   1      31.785  23.476  22.225  1.00  0.00    -0.098 SA
ATOM     20  C   UNL A   1      31.887  25.318  24.620  1.00  0.00     0.161 A 
ATOM     21  C   UNL A   1      31.787  23.985  24.936  1.00  0.00     0.038 A 
ATOM     22  N   UNL A   1      31.743  26.015  25.812  1.00  0.00    -0.215 N 
ATOM     23  C   UNL A   1      31.554  23.952  26.334  1.00  0.00     0.067 A 
ATOM     24  N   UNL A   1      31.589  25.176  26.871  1.00  0.00    -0.171 NA
ATOM     25  C   UNL A   1      31.340  22.774  27.212  1.00  0.00     0.069 C 
BRANCH  22  26
ATOM     26  C   UNL A   1      31.686  27.417  25.971  1.00  0.00     0.067 A 
ATOM     27  C   UNL A   1      31.502  28.230  24.842  1.00  0.00     0.031 A 
ATOM     28  C   UNL A   1      31.853  27.982  27.240  1.00  0.00     0.031 A 
ATOM     29  C   UNL A   1      31.483  29.613  24.987  1.00  0.00     0.041 A 
ATOM     30  C   UNL A   1      31.889  29.374  27.365  1.00  0.00     0.041 A 
ATOM     31  C   UNL A   1      31.690  30.174  26.242  1.00  0.00     0.123 A 
ATOM     32  F   UNL A   1      31.691  31.508  26.362  1.00  0.00    -0.207 F 
ENDBRANCH  22  26
ENDBRANCH  10  15
ENDBRANCH   6   9
ENDBRANCH   4   5
ENDBRANCH   3   4
ENDBRANCH   2   3
ENDBRANCH   1   2
BRANCH   1  33
ATOM     33  C   UNL A   1      42.012  20.177  27.285  1.00  0.00     0.021 C 
BRANCH  33  34
ATOM     34  C   UNL A   1      42.050  19.932  25.787  1.00  0.00     0.116 C 
BRANCH  34  35
ATOM     35  N   UNL A   1      43.414  19.687  25.299  1.00  0.00    -0.352 N 
ATOM     36  C   UNL A   1      44.369  20.603  24.903  1.00  0.00     0.251 C 
ATOM     37  H   UNL A   1      43.682  18.742  25.245  1.00  0.00     0.163 HD
ATOM     38  O   UNL A   1      45.297  20.263  24.166  1.00  0.00    -0.269 OA
BRANCH  36  39
ATOM     39  C   UNL A   1      44.270  21.984  25.394  1.00  0.00     0.039 A 
ATOM     40  C   UNL A   1      43.534  22.981  24.745  1.00  0.00     0.014 A 
ATOM     41  C   UNL A   1      44.929  22.260  26.585  1.00  0.00     0.014 A 
ATOM     42  C   UNL A   1      43.439  24.235  25.347  1.00  0.00     0.010 A 
ATOM     43  C   UNL A   1      44.602  23.373  27.294  1.00  0.00     0.010 A 
ATOM     44  C   UNL A   1      43.979  24.414  26.630  1.00  0.00    -0.014 A 
BRANCH  44  45
ATOM     45  C   UNL A   1      43.865  25.656  27.376  1.00  0.00     0.031 A 
ATOM     46  C   UNL A   1      44.897  26.657  27.023  1.00  0.00     0.074 A 
ATOM     47  C   UNL A   1      42.764  25.965  28.100  1.00  0.00     0.049 A 
ATOM     48  N   UNL A   1      45.927  26.995  27.721  1.00  0.00    -0.248 NA
ATOM     49  C   UNL A   1      44.893  27.209  25.657  1.00  0.00     0.031 C 
ATOM     50  C   UNL A   1      41.513  25.202  28.239  1.00  0.00     0.029 A 
ATOM     51  N   UNL A   1      42.477  27.108  28.770  1.00  0.00    -0.354 N 
ATOM     52  C   UNL A   1      46.548  28.003  26.996  1.00  0.00     0.074 A 
ATOM     53  C   UNL A   1      46.028  27.909  25.656  1.00  0.00     0.031 C 
ATOM     54  C   UNL A   1      40.540  26.005  28.727  1.00  0.00     0.029 A 
ATOM     55  C   UNL A   1      41.134  27.273  29.100  1.00  0.00     0.049 A 
ATOM     56  H   UNL A   1      43.165  27.771  29.004  1.00  0.00     0.167 HD
ATOM     57  C   UNL A   1      47.199  29.023  27.623  1.00  0.00     0.031 A 
ATOM     58  C   UNL A   1      40.556  28.390  29.617  1.00  0.00     0.031 A 
ATOM     59  C   UNL A   1      47.376  28.748  29.030  1.00  0.00     0.049 A 
ATOM     60  C   UNL A   1      41.652  29.199  30.208  1.00  0.00     0.074 A 
ATOM     61  C   UNL A   1      47.977  27.741  29.756  1.00  0.00     0.029 A 
ATOM     62  N   UNL A   1      46.498  29.367  29.893  1.00  0.00    -0.354 N 
ATOM     63  N   UNL A   1      42.362  28.801  31.227  1.00  0.00    -0.248 NA
ATOM     64  C   UNL A   1      42.281  30.205  29.366  1.00  0.00     0.031 C 
ATOM     65  C   UNL A   1      47.090  27.494  30.846  1.00  0.00     0.029 A 
ATOM     66  C   UNL A   1      46.048  28.422  30.779  1.00  0.00     0.049 A 
ATOM     67  H   UNL A   1      46.241  30.316  29.878  1.00  0.00     0.167 HD
ATOM     68  C   UNL A   1      43.666  29.155  30.911  1.00  0.00     0.074 A 
ATOM     69  C   UNL A   1      43.541  30.098  29.798  1.00  0.00     0.031 C 
ATOM     70  C   UNL A   1      44.728  28.433  31.379  1.00  0.00     0.031 A 
BRANCH  57  71
ATOM     71  C   UNL A   1      47.274  30.427  27.077  1.00  0.00    -0.014 A 
ATOM     72  C   UNL A   1      48.506  31.107  27.135  1.00  0.00     0.010 A 
ATOM     73  C   UNL A   1      46.133  31.196  26.768  1.00  0.00     0.010 A 
ATOM     74  C   UNL A   1      48.579  32.494  26.958  1.00  0.00     0.020 A 
ATOM     75  C   UNL A   1      46.200  32.571  26.545  1.00  0.00     0.020 A 
ATOM     76  C   UNL A   1      47.420  33.217  26.675  1.00  0.00     0.054 A 
BRANCH  76  77
ATOM     77  S   UNL A   1      47.509  35.018  26.542  1.00  0.00     0.124 S 
ATOM     78  O   UNL A   1      48.403  35.355  27.645  1.00  0.00    -0.237 OA
ATOM     79  O   UNL A   1      48.058  35.199  25.201  1.00  0.00    -0.237 OA
ATOM     80  O   UNL A   1      46.120  35.441  26.705  1.00  0.00    -0.744 OA
ENDBRANCH  76  77
ENDBRANCH  57  71
BRANCH  58  81
ATOM     81  C   UNL A   1      39.205  28.947  29.343  1.00  0.00    -0.014 A 
ATOM     82  C   UNL A   1      38.389  29.435  30.382  1.00  0.00     0.010 A 
ATOM     83  C   UNL A   1      38.836  29.273  28.021  1.00  0.00     0.010 A 
ATOM     84  C   UNL A   1      37.285  30.268  30.113  1.00  0.00     0.020 A 
ATOM     85  C   UNL A   1      37.737  30.100  27.745  1.00  0.00     0.020 A 
ATOM     86  C   UNL A   1      36.981  30.615  28.794  1.00  0.00     0.054 A 
BRANCH  86  87
ATOM     87  S   UNL A   1      35.663  31.824  28.463  1.00  0.00     0.124 S 
ATOM     88  O   UNL A   1      34.862  31.148  27.447  1.00  0.00    -0.237 OA
ATOM     89  O   UNL A   1      35.031  31.972  29.770  1.00  0.00    -0.237 OA
ATOM     90  O   UNL A   1      36.385  33.006  27.993  1.00  0.00    -0.744 OA
ENDBRANCH  86  87
ENDBRANCH  58  81
BRANCH  70  91
ATOM     91  C   UNL A   1      44.482  27.414  32.471  1.00  0.00    -0.014 A 
ATOM     92  C   UNL A   1      44.189  27.739  33.812  1.00  0.00     0.010 A 
ATOM     93  C   UNL A   1      44.397  26.067  32.080  1.00  0.00     0.010 A 
ATOM     94  C   UNL A   1      43.847  26.738  34.736  1.00  0.00     0.020 A 
ATOM     95  C   UNL A   1      44.041  25.069  32.988  1.00  0.00     0.020 A 
ATOM     96  C   UNL A   1      43.778  25.405  34.316  1.00  0.00     0.054 A 
BRANCH  96  97
ATOM     97  S   UNL A   1      43.307  24.111  35.500  1.00  0.00     0.124 S 
ATOM     98  O   UNL A   1      41.853  24.237  35.546  1.00  0.00    -0.237 OA
ATOM     99  O   UNL A   1      43.814  22.894  34.871  1.00  0.00    -0.237 OA
ATOM    100  O   UNL A   1      43.998  24.496  36.730  1.00  0.00    -0.744 OA
ENDBRANCH  96  97
ENDBRANCH  70  91
ENDBRANCH  44  45
ENDBRANCH  36  39
ENDBRANCH  34  35
ENDBRANCH  33  34
ENDBRANCH   1  33
TORSDOF 18
ENDMDL
MODEL 3
REMARK VINA RESULT:     -11.9      3.169      9.664
REMARK SMILES CC1=Nc2c(c(C)nn2-c2ccc(F)cc2)[C@H](c2ccc(C(=O)NCCCCCCNC(=O)c3ccc(-c4c5nc(c(-c6ccc(S(=O)(=O)[O-])cc6)c6ccc([nH]6)c(-c6ccc(S(=O)(=O)[O-])cc6)c6nc(c(-c7ccc(S(=O)(=O)[O-])cc7)c7ccc4[nH]7)C=C6)C=C5)cc3)cc2)S1
REMARK SMILES IDX 28 1 27 2 26 3 25 4 24 5 22 6 23 7 21 9 18 10 19 11 95 12
REMARK SMILES IDX 20 13 94 14 17 15 1 16 2 17 3 18 96 19 4 20 5 21 9 22 6 23
REMARK SMILES IDX 8 24 7 25 10 26 11 27 16 28 12 29 15 30 13 31 14 32 29 33
REMARK SMILES IDX 30 34 31 35 32 36 33 38 34 39 35 40 93 41 36 42 92 43 37 44
REMARK SMILES IDX 38 45 39 46 86 47 40 48 91 49 85 50 87 51 41 52 90 53 84 54
REMARK SMILES IDX 83 55 42 57 72 58 53 59 71 60 54 61 57 62 70 63 88 64 55 65
REMARK SMILES IDX 56 66 69 68 89 69 58 70 43 71 44 72 52 73 45 74 51 75 46 76
REMARK SMILES IDX 47 77 48 78 49 79 50 80 73 81 74 82 82 83 75 84 81 85 76 86
REMARK SMILES IDX 77 87 78 88 79 89 80 90 59 91 60 92 68 93 61 94 67 95 62 96
REMARK SMILES IDX 63 97 64 98 65 99 66 100
REMARK H PARENT 24 8 31 37 87 56 57 67
REMARK Flexibility Score: inf
ROOT
ATOM      1  C   UNL A   1      37.541  32.703  28.916  1.00  0.00     0.002 C 
ENDROOT
BRANCH   1   2
ATOM      2  C   UNL A   1      37.326  31.179  28.901  1.00  0.00     0.002 C 
BRANCH   2   3
ATOM      3  C   UNL A   1      36.584  30.630  27.676  1.00  0.00     0.021 C 
BRANCH   3   4
ATOM      4  C   UNL A   1      35.258  29.956  28.025  1.00  0.00     0.116 C 
BRANCH   4   5
ATOM      5  N   UNL A   1      34.158  30.870  27.783  1.00  0.00    -0.352 N 
ATOM      6  C   UNL A   1      32.995  30.737  27.073  1.00  0.00     0.251 C 
ATOM      7  O   UNL A   1      32.214  31.687  27.060  1.00  0.00    -0.269 OA
ATOM      8  H   UNL A   1      34.268  31.750  28.210  1.00  0.00     0.163 HD
BRANCH   6   9
ATOM      9  C   UNL A   1      32.607  29.466  26.410  1.00  0.00     0.039 A 
ATOM     10  C   UNL A   1      31.680  27.156  25.064  1.00  0.00    -0.030 A 
ATOM     11  C   UNL A   1      31.454  28.439  24.536  1.00  0.00     0.006 A 
ATOM     12  C   UNL A   1      32.421  27.054  26.255  1.00  0.00     0.006 A 
ATOM     13  C   UNL A   1      31.920  29.577  25.196  1.00  0.00     0.014 A 
ATOM     14  C   UNL A   1      32.901  28.196  26.906  1.00  0.00     0.014 A 
BRANCH  10  15
ATOM     15  C   UNL A   1      31.196  25.941  24.286  1.00  0.00     0.119 C 
ATOM     16  C   UNL A   1      30.304  23.120  27.177  1.00  0.00     0.075 C 
ATOM     17  C   UNL A   1      30.923  23.740  25.951  1.00  0.00     0.074 C 
ATOM     18  N   UNL A   1      32.109  23.352  25.611  1.00  0.00    -0.227 NA
ATOM     19  S   UNL A   1      29.934  24.963  25.160  1.00  0.00    -0.098 SA
ATOM     20  C   UNL A   1      32.739  23.986  24.593  1.00  0.00     0.161 A 
ATOM     21  C   UNL A   1      32.413  25.165  23.966  1.00  0.00     0.038 A 
ATOM     22  N   UNL A   1      33.973  23.602  24.086  1.00  0.00    -0.215 N 
ATOM     23  C   UNL A   1      33.485  25.419  23.074  1.00  0.00     0.067 A 
ATOM     24  N   UNL A   1      34.454  24.506  23.192  1.00  0.00    -0.171 NA
ATOM     25  C   UNL A   1      33.652  26.545  22.122  1.00  0.00     0.069 C 
BRANCH  22  26
ATOM     26  C   UNL A   1      34.667  22.405  24.367  1.00  0.00     0.067 A 
ATOM     27  C   UNL A   1      36.068  22.425  24.445  1.00  0.00     0.031 A 
ATOM     28  C   UNL A   1      33.958  21.208  24.524  1.00  0.00     0.031 A 
ATOM     29  C   UNL A   1      36.760  21.242  24.685  1.00  0.00     0.041 A 
ATOM     30  C   UNL A   1      34.667  20.018  24.707  1.00  0.00     0.041 A 
ATOM     31  C   UNL A   1      36.056  20.047  24.800  1.00  0.00     0.123 A 
ATOM     32  F   UNL A   1      36.738  18.913  25.007  1.00  0.00    -0.207 F 
ENDBRANCH  22  26
ENDBRANCH  10  15
ENDBRANCH   6   9
ENDBRANCH   4   5
ENDBRANCH   3   4
ENDBRANCH   2   3
ENDBRANCH   1   2
BRANCH   1  33
ATOM     33  C   UNL A   1      36.459  33.537  29.618  1.00  0.00     0.021 C 
BRANCH  33  34
ATOM     34  C   UNL A   1      35.486  32.704  30.434  1.00  0.00     0.116 C 
BRANCH  34  35
ATOM     35  N   UNL A   1      35.488  33.078  31.854  1.00  0.00    -0.352 N 
ATOM     36  C   UNL A   1      36.061  32.416  32.922  1.00  0.00     0.251 C 
ATOM     37  H   UNL A   1      35.016  33.913  32.074  1.00  0.00     0.163 HD
ATOM     38  O   UNL A   1      35.665  32.619  34.072  1.00  0.00    -0.269 OA
BRANCH  36  39
ATOM     39  C   UNL A   1      37.164  31.480  32.664  1.00  0.00     0.039 A 
ATOM     40  C   UNL A   1      36.974  30.116  32.418  1.00  0.00     0.014 A 
ATOM     41  C   UNL A   1      38.439  32.028  32.641  1.00  0.00     0.014 A 
ATOM     42  C   UNL A   1      38.087  29.338  32.100  1.00  0.00     0.010 A 
ATOM     43  C   UNL A   1      39.458  31.338  32.062  1.00  0.00     0.010 A 
ATOM     44  C   UNL A   1      39.327  29.969  31.922  1.00  0.00    -0.014 A 
BRANCH  44  45
ATOM     45  C   UNL A   1      40.530  29.262  31.514  1.00  0.00     0.031 A 
ATOM     46  C   UNL A   1      41.454  28.968  32.633  1.00  0.00     0.074 A 
ATOM     47  C   UNL A   1      40.649  28.684  30.296  1.00  0.00     0.049 A 
ATOM     48  N   UNL A   1      42.572  29.555  32.895  1.00  0.00    -0.248 NA
ATOM     49  C   UNL A   1      40.996  28.052  33.691  1.00  0.00     0.031 C 
ATOM     50  C   UNL A   1      39.650  28.599  29.218  1.00  0.00     0.029 A 
ATOM     51  N   UNL A   1      41.661  27.924  29.808  1.00  0.00    -0.354 N 
ATOM     52  C   UNL A   1      43.087  28.888  33.999  1.00  0.00     0.074 A 
ATOM     53  C   UNL A   1      41.983  28.169  34.582  1.00  0.00     0.031 C 
ATOM     54  C   UNL A   1      40.011  27.638  28.336  1.00  0.00     0.029 A 
ATOM     55  C   UNL A   1      41.339  27.171  28.682  1.00  0.00     0.049 A 
ATOM     56  H   UNL A   1      42.555  27.906  30.220  1.00  0.00     0.167 HD
ATOM     57  C   UNL A   1      44.430  28.730  34.162  1.00  0.00     0.031 A 
ATOM     58  C   UNL A   1      42.105  26.212  28.099  1.00  0.00     0.031 A 
ATOM     59  C   UNL A   1      45.174  29.553  33.238  1.00  0.00     0.049 A 
ATOM     60  C   UNL A   1      43.498  26.445  28.559  1.00  0.00     0.074 A 
ATOM     61  C   UNL A   1      45.231  30.906  32.969  1.00  0.00     0.029 A 
ATOM     62  N   UNL A   1      45.683  28.923  32.123  1.00  0.00    -0.354 N 
ATOM     63  N   UNL A   1      44.178  27.516  28.255  1.00  0.00    -0.248 NA
ATOM     64  C   UNL A   1      43.945  25.742  29.751  1.00  0.00     0.031 C 
ATOM     65  C   UNL A   1      45.306  30.994  31.547  1.00  0.00     0.029 A 
ATOM     66  C   UNL A   1      45.385  29.698  31.032  1.00  0.00     0.049 A 
ATOM     67  H   UNL A   1      46.173  28.070  32.112  1.00  0.00     0.167 HD
ATOM     68  C   UNL A   1      44.830  27.868  29.429  1.00  0.00     0.074 A 
ATOM     69  C   UNL A   1      44.722  26.688  30.288  1.00  0.00     0.031 C 
ATOM     70  C   UNL A   1      45.134  29.172  29.705  1.00  0.00     0.031 A 
BRANCH  57  71
ATOM     71  C   UNL A   1      45.056  27.530  34.829  1.00  0.00    -0.014 A 
ATOM     72  C   UNL A   1      45.064  26.303  34.136  1.00  0.00     0.010 A 
ATOM     73  C   UNL A   1      45.383  27.493  36.200  1.00  0.00     0.010 A 
ATOM     74  C   UNL A   1      45.320  25.097  34.800  1.00  0.00     0.020 A 
ATOM     75  C   UNL A   1      45.684  26.302  36.861  1.00  0.00     0.020 A 
ATOM     76  C   UNL A   1      45.617  25.107  36.162  1.00  0.00     0.054 A 
BRANCH  76  77
ATOM     77  S   UNL A   1      45.853  23.538  37.030  1.00  0.00     0.124 S 
ATOM     78  O   UNL A   1      45.000  22.639  36.258  1.00  0.00    -0.237 OA
ATOM     79  O   UNL A   1      47.291  23.324  36.890  1.00  0.00    -0.237 OA
ATOM     80  O   UNL A   1      45.399  23.827  38.387  1.00  0.00    -0.744 OA
ENDBRANCH  76  77
ENDBRANCH  57  71
BRANCH  58  81
ATOM     81  C   UNL A   1      41.674  24.940  27.461  1.00  0.00    -0.014 A 
ATOM     82  C   UNL A   1      42.450  24.321  26.461  1.00  0.00     0.010 A 
ATOM     83  C   UNL A   1      40.643  24.175  28.047  1.00  0.00     0.010 A 
ATOM     84  C   UNL A   1      42.245  22.973  26.107  1.00  0.00     0.020 A 
ATOM     85  C   UNL A   1      40.431  22.834  27.698  1.00  0.00     0.020 A 
ATOM     86  C   UNL A   1      41.250  22.230  26.748  1.00  0.00     0.054 A 
BRANCH  86  87
ATOM     87  S   UNL A   1      41.100  20.449  26.410  1.00  0.00     0.124 S 
ATOM     88  O   UNL A   1      41.244  19.863  27.740  1.00  0.00    -0.237 OA
ATOM     89  O   UNL A   1      39.770  20.348  25.817  1.00  0.00    -0.237 OA
ATOM     90  O   UNL A   1      42.204  20.175  25.492  1.00  0.00    -0.744 OA
ENDBRANCH  86  87
ENDBRANCH  58  81
BRANCH  70  91
ATOM     91  C   UNL A   1      45.006  30.193  28.594  1.00  0.00    -0.014 A 
ATOM     92  C   UNL A   1      43.779  30.699  28.117  1.00  0.00     0.010 A 
ATOM     93  C   UNL A   1      46.195  30.774  28.120  1.00  0.00     0.010 A 
ATOM     94  C   UNL A   1      43.750  31.739  27.173  1.00  0.00     0.020 A 
ATOM     95  C   UNL A   1      46.173  31.819  27.195  1.00  0.00     0.020 A 
ATOM     96  C   UNL A   1      44.951  32.292  26.716  1.00  0.00     0.054 A 
BRANCH  96  97
ATOM     97  S   UNL A   1      44.918  33.656  25.518  1.00  0.00     0.124 S 
ATOM     98  O   UNL A   1      44.300  33.038  24.350  1.00  0.00    -0.237 OA
ATOM     99  O   UNL A   1      44.111  34.666  26.198  1.00  0.00    -0.237 OA
ATOM    100  O   UNL A   1      46.328  34.011  25.355  1.00  0.00    -0.744 OA
ENDBRANCH  96  97
ENDBRANCH  70  91
ENDBRANCH  44  45
ENDBRANCH  36  39
ENDBRANCH  34  35
ENDBRANCH  33  34
ENDBRANCH   1  33
TORSDOF 18
ENDMDL
