MODEL 1
REMARK VINA RESULT:     -10.2      0.000      0.000
REMARK SMILES CNc1nccc(-c2cc(C(=O)NCCCCCCNC(=O)c3ccc(-c4c5nc(c(-c6ccc(S(=O)(=O)[O-])cc6)c6ccc([nH]6)c(-c6ccc(S(=O)(=O)[O-])cc6)c6nc(c(-c7ccc(S(=O)(=O)[O-])cc7)c7ccc4[nH]7)C=C6)C=C5)cc3)ccn2)n1
REMARK SMILES IDX 17 1 16 2 15 3 14 4 13 5 11 6 12 7 10 9 8 10 9 11 85 12
REMARK SMILES IDX 84 13 83 14 7 15 3 16 4 17 86 18 5 19 6 20 2 21 1 22 18 24
REMARK SMILES IDX 19 25 20 26 21 27 22 29 23 30 24 31 82 32 25 33 81 34 26 35
REMARK SMILES IDX 27 36 28 37 75 38 29 39 80 40 74 41 76 42 30 43 79 44 73 45
REMARK SMILES IDX 72 46 31 48 61 49 42 50 60 51 43 52 46 53 59 54 77 55 44 56
REMARK SMILES IDX 45 57 58 59 78 60 47 61 32 62 33 63 41 64 34 65 40 66 35 67
REMARK SMILES IDX 36 68 37 69 38 70 39 71 62 72 63 73 71 74 64 75 70 76 65 77
REMARK SMILES IDX 66 78 67 79 68 80 69 81 48 82 49 83 57 84 50 85 56 86 51 87
REMARK SMILES IDX 52 88 53 89 54 90 55 91
REMARK H PARENT 13 8 2 23 20 28 76 47 46 58
REMARK Flexibility Score: inf
ROOT
ATOM      1  C   UNL A   1      32.812  29.132  24.706  1.00  0.00     0.002 C 
ENDROOT
BRANCH   1   2
ATOM      2  C   UNL A   1      32.417  28.691  23.290  1.00  0.00     0.002 C 
BRANCH   2   3
ATOM      3  C   UNL A   1      30.914  28.767  22.987  1.00  0.00     0.021 C 
BRANCH   3   4
ATOM      4  C   UNL A   1      30.207  27.417  23.132  1.00  0.00     0.116 C 
BRANCH   4   5
ATOM      5  N   UNL A   1      30.226  26.995  24.520  1.00  0.00    -0.352 N 
ATOM      6  C   UNL A   1      30.702  25.879  25.158  1.00  0.00     0.251 C 
ATOM      7  O   UNL A   1      30.541  25.811  26.378  1.00  0.00    -0.269 OA
ATOM      8  H   UNL A   1      29.810  27.645  25.132  1.00  0.00     0.163 HD
BRANCH   6   9
ATOM      9  C   UNL A   1      31.472  24.802  24.478  1.00  0.00     0.043 A 
ATOM     10  C   UNL A   1      33.385  23.408  24.106  1.00  0.00     0.090 A 
ATOM     11  C   UNL A   1      32.833  24.568  24.644  1.00  0.00     0.044 A 
ATOM     12  N   UNL A   1      32.674  22.556  23.326  1.00  0.00    -0.255 NA
ATOM     13  C   UNL A   1      31.389  22.871  23.071  1.00  0.00     0.112 A 
ATOM     14  C   UNL A   1      30.746  23.954  23.637  1.00  0.00     0.034 A 
BRANCH  10  15
ATOM     15  C   UNL A   1      34.715  22.953  24.528  1.00  0.00     0.094 A 
ATOM     16  C   UNL A   1      36.122  21.220  25.050  1.00  0.00     0.222 A 
ATOM     17  N   UNL A   1      37.157  22.046  25.253  1.00  0.00    -0.222 NA
ATOM     18  N   UNL A   1      34.900  21.624  24.675  1.00  0.00    -0.211 NA
ATOM     19  C   UNL A   1      36.947  23.357  25.065  1.00  0.00     0.117 A 
ATOM     20  C   UNL A   1      35.733  23.872  24.700  1.00  0.00     0.051 A 
BRANCH  16  21
ATOM     21  N   UNL A   1      36.405  19.892  25.195  1.00  0.00    -0.357 N 
ATOM     22  C   UNL A   1      35.550  18.879  24.655  1.00  0.00     0.143 C 
ATOM     23  H   UNL A   1      37.218  19.625  25.683  1.00  0.00     0.163 HD
ENDBRANCH  16  21
ENDBRANCH  10  15
ENDBRANCH   6   9
ENDBRANCH   4   5
ENDBRANCH   3   4
ENDBRANCH   2   3
ENDBRANCH   1   2
BRANCH   1  24
ATOM     24  C   UNL A   1      33.650  28.120  25.493  1.00  0.00     0.021 C 
BRANCH  24  25
ATOM     25  C   UNL A   1      33.669  28.348  27.002  1.00  0.00     0.116 C 
BRANCH  25  26
ATOM     26  N   UNL A   1      33.535  29.757  27.333  1.00  0.00    -0.352 N 
ATOM     27  C   UNL A   1      34.389  30.576  28.031  1.00  0.00     0.251 C 
ATOM     28  H   UNL A   1      32.711  30.188  27.011  1.00  0.00     0.163 HD
ATOM     29  O   UNL A   1      33.999  31.675  28.413  1.00  0.00    -0.269 OA
BRANCH  27  30
ATOM     30  C   UNL A   1      35.768  30.133  28.328  1.00  0.00     0.039 A 
ATOM     31  C   UNL A   1      36.724  30.177  27.310  1.00  0.00     0.014 A 
ATOM     32  C   UNL A   1      36.112  29.642  29.592  1.00  0.00     0.014 A 
ATOM     33  C   UNL A   1      38.036  29.777  27.574  1.00  0.00     0.010 A 
ATOM     34  C   UNL A   1      37.436  29.304  29.871  1.00  0.00     0.010 A 
ATOM     35  C   UNL A   1      38.410  29.363  28.864  1.00  0.00    -0.014 A 
BRANCH  35  36
ATOM     36  C   UNL A   1      39.817  29.000  29.170  1.00  0.00     0.031 A 
ATOM     37  C   UNL A   1      40.739  29.995  29.820  1.00  0.00     0.074 A 
ATOM     38  C   UNL A   1      40.276  27.782  28.819  1.00  0.00     0.049 A 
ATOM     39  N   UNL A   1      41.998  29.857  30.149  1.00  0.00    -0.248 NA
ATOM     40  C   UNL A   1      40.182  31.324  30.121  1.00  0.00     0.031 C 
ATOM     41  C   UNL A   1      39.493  26.746  28.141  1.00  0.00     0.029 A 
ATOM     42  N   UNL A   1      41.513  27.210  28.983  1.00  0.00    -0.354 N 
ATOM     43  C   UNL A   1      42.387  31.081  30.683  1.00  0.00     0.074 A 
ATOM     44  C   UNL A   1      41.245  31.963  30.590  1.00  0.00     0.031 C 
ATOM     45  C   UNL A   1      40.260  25.656  27.973  1.00  0.00     0.029 A 
ATOM     46  C   UNL A   1      41.594  25.925  28.500  1.00  0.00     0.049 A 
ATOM     47  H   UNL A   1      42.270  27.676  29.405  1.00  0.00     0.167 HD
ATOM     48  C   UNL A   1      43.581  31.432  31.218  1.00  0.00     0.031 A 
ATOM     49  C   UNL A   1      42.626  25.061  28.482  1.00  0.00     0.031 A 
ATOM     50  C   UNL A   1      44.715  30.549  31.317  1.00  0.00     0.049 A 
ATOM     51  C   UNL A   1      43.939  25.472  29.086  1.00  0.00     0.074 A 
ATOM     52  C   UNL A   1      45.948  30.794  31.895  1.00  0.00     0.029 A 
ATOM     53  N   UNL A   1      44.754  29.255  30.824  1.00  0.00    -0.354 N 
ATOM     54  N   UNL A   1      44.266  26.611  29.649  1.00  0.00    -0.248 NA
ATOM     55  C   UNL A   1      45.019  24.476  29.064  1.00  0.00     0.031 C 
ATOM     56  C   UNL A   1      46.751  29.663  31.708  1.00  0.00     0.029 A 
ATOM     57  C   UNL A   1      45.998  28.695  31.062  1.00  0.00     0.049 A 
ATOM     58  H   UNL A   1      44.008  28.799  30.370  1.00  0.00     0.167 HD
ATOM     59  C   UNL A   1      45.582  26.462  30.066  1.00  0.00     0.074 A 
ATOM     60  C   UNL A   1      45.985  25.116  29.710  1.00  0.00     0.031 C 
ATOM     61  C   UNL A   1      46.388  27.358  30.690  1.00  0.00     0.031 A 
BRANCH  48  62
ATOM     62  C   UNL A   1      43.723  32.840  31.738  1.00  0.00    -0.014 A 
ATOM     63  C   UNL A   1      44.017  33.907  30.869  1.00  0.00     0.010 A 
ATOM     64  C   UNL A   1      43.524  33.106  33.104  1.00  0.00     0.010 A 
ATOM     65  C   UNL A   1      44.151  35.208  31.365  1.00  0.00     0.020 A 
ATOM     66  C   UNL A   1      43.630  34.409  33.600  1.00  0.00     0.020 A 
ATOM     67  C   UNL A   1      43.962  35.449  32.729  1.00  0.00     0.054 A 
BRANCH  67  68
ATOM     68  S   UNL A   1      44.125  37.148  33.342  1.00  0.00     0.124 S 
ATOM     69  O   UNL A   1      45.279  37.037  34.231  1.00  0.00    -0.237 OA
ATOM     70  O   UNL A   1      44.349  37.912  32.117  1.00  0.00    -0.237 OA
ATOM     71  O   UNL A   1      42.849  37.401  34.006  1.00  0.00    -0.744 OA
ENDBRANCH  67  68
ENDBRANCH  48  62
BRANCH  49  72
ATOM     72  C   UNL A   1      42.447  23.708  27.888  1.00  0.00    -0.014 A 
ATOM     73  C   UNL A   1      42.616  23.506  26.508  1.00  0.00     0.010 A 
ATOM     74  C   UNL A   1      42.127  22.609  28.706  1.00  0.00     0.010 A 
ATOM     75  C   UNL A   1      42.453  22.233  25.952  1.00  0.00     0.020 A 
ATOM     76  C   UNL A   1      41.989  21.330  28.158  1.00  0.00     0.020 A 
ATOM     77  C   UNL A   1      42.142  21.153  26.782  1.00  0.00     0.054 A 
BRANCH  77  78
ATOM     78  S   UNL A   1      41.994  19.499  26.051  1.00  0.00     0.124 S 
ATOM     79  O   UNL A   1      42.520  18.648  27.113  1.00  0.00    -0.237 OA
ATOM     80  O   UNL A   1      40.559  19.389  25.803  1.00  0.00    -0.237 OA
ATOM     81  O   UNL A   1      42.819  19.585  24.848  1.00  0.00    -0.744 OA
ENDBRANCH  77  78
ENDBRANCH  49  72
BRANCH  61  82
ATOM     82  C   UNL A   1      47.778  26.902  31.043  1.00  0.00    -0.014 A 
ATOM     83  C   UNL A   1      48.054  26.305  32.286  1.00  0.00     0.010 A 
ATOM     84  C   UNL A   1      48.816  27.042  30.104  1.00  0.00     0.010 A 
ATOM     85  C   UNL A   1      49.352  25.895  32.600  1.00  0.00     0.020 A 
ATOM     86  C   UNL A   1      50.109  26.609  30.404  1.00  0.00     0.020 A 
ATOM     87  C   UNL A   1      50.373  26.054  31.659  1.00  0.00     0.054 A 
BRANCH  87  88
ATOM     88  S   UNL A   1      52.046  25.492  32.078  1.00  0.00     0.124 S 
ATOM     89  O   UNL A   1      51.843  24.059  32.275  1.00  0.00    -0.237 OA
ATOM     90  O   UNL A   1      52.816  25.861  30.893  1.00  0.00    -0.237 OA
ATOM     91  O   UNL A   1      52.373  26.248  33.286  1.00  0.00    -0.744 OA
ENDBRANCH  87  88
ENDBRANCH  61  82
ENDBRANCH  35  36
ENDBRANCH  27  30
ENDBRANCH  25  26
ENDBRANCH  24  25
ENDBRANCH   1  24
TORSDOF 18
ENDMDL
MODEL 2
REMARK VINA RESULT:     -10.2      2.727      8.882
REMARK SMILES CNc1nccc(-c2cc(C(=O)NCCCCCCNC(=O)c3ccc(-c4c5nc(c(-c6ccc(S(=O)(=O)[O-])cc6)c6ccc([nH]6)c(-c6ccc(S(=O)(=O)[O-])cc6)c6nc(c(-c7ccc(S(=O)(=O)[O-])cc7)c7ccc4[nH]7)C=C6)C=C5)cc3)ccn2)n1
REMARK SMILES IDX 17 1 16 2 15 3 14 4 13 5 11 6 12 7 10 9 8 10 9 11 85 12
REMARK SMILES IDX 84 13 83 14 7 15 3 16 4 17 86 18 5 19 6 20 2 21 1 22 18 24
REMARK SMILES IDX 19 25 20 26 21 27 22 29 23 30 24 31 82 32 25 33 81 34 26 35
REMARK SMILES IDX 27 36 28 37 75 38 29 39 80 40 74 41 76 42 30 43 79 44 73 45
REMARK SMILES IDX 72 46 31 48 61 49 42 50 60 51 43 52 46 53 59 54 77 55 44 56
REMARK SMILES IDX 45 57 58 59 78 60 47 61 32 62 33 63 41 64 34 65 40 66 35 67
REMARK SMILES IDX 36 68 37 69 38 70 39 71 62 72 63 73 71 74 64 75 70 76 65 77
REMARK SMILES IDX 66 78 67 79 68 80 69 81 48 82 49 83 57 84 50 85 56 86 51 87
REMARK SMILES IDX 52 88 53 89 54 90 55 91
REMARK H PARENT 13 8 2 23 20 28 76 47 46 58
REMARK Flexibility Score: inf
ROOT
ATOM      1  C   UNL A   1      34.484  24.627  23.575  1.00  0.00     0.002 C 
ENDROOT
BRANCH   1   2
ATOM      2  C   UNL A   1      32.971  24.879  23.553  1.00  0.00     0.002 C 
BRANCH   2   3
ATOM      3  C   UNL A   1      32.135  23.731  22.970  1.00  0.00     0.021 C 
BRANCH   3   4
ATOM      4  C   UNL A   1      30.689  23.730  23.473  1.00  0.00     0.116 C 
BRANCH   4   5
ATOM      5  N   UNL A   1      30.637  24.241  24.830  1.00  0.00    -0.352 N 
ATOM      6  C   UNL A   1      31.082  23.763  26.035  1.00  0.00     0.251 C 
ATOM      7  O   UNL A   1      30.857  24.446  27.035  1.00  0.00    -0.269 OA
ATOM      8  H   UNL A   1      30.187  25.115  24.901  1.00  0.00     0.163 HD
BRANCH   6   9
ATOM      9  C   UNL A   1      31.889  22.522  26.184  1.00  0.00     0.043 A 
ATOM     10  C   UNL A   1      32.725  20.383  25.500  1.00  0.00     0.090 A 
ATOM     11  C   UNL A   1      31.774  21.393  25.379  1.00  0.00     0.044 A 
ATOM     12  N   UNL A   1      33.690  20.399  26.454  1.00  0.00    -0.255 NA
ATOM     13  C   UNL A   1      33.701  21.441  27.308  1.00  0.00     0.112 A 
ATOM     14  C   UNL A   1      32.850  22.523  27.199  1.00  0.00     0.034 A 
BRANCH  10  15
ATOM     15  C   UNL A   1      32.845  19.347  24.467  1.00  0.00     0.094 A 
ATOM     16  C   UNL A   1      33.625  17.286  23.835  1.00  0.00     0.222 A 
ATOM     17  N   UNL A   1      33.059  17.379  22.625  1.00  0.00    -0.222 NA
ATOM     18  N   UNL A   1      33.532  18.229  24.783  1.00  0.00    -0.211 NA
ATOM     19  C   UNL A   1      32.355  18.489  22.355  1.00  0.00     0.117 A 
ATOM     20  C   UNL A   1      32.215  19.517  23.248  1.00  0.00     0.051 A 
BRANCH  16  21
ATOM     21  N   UNL A   1      34.277  16.112  24.079  1.00  0.00    -0.357 N 
ATOM     22  C   UNL A   1      35.124  15.947  25.222  1.00  0.00     0.143 C 
ATOM     23  H   UNL A   1      34.163  15.360  23.454  1.00  0.00     0.163 HD
ENDBRANCH  16  21
ENDBRANCH  10  15
ENDBRANCH   6   9
ENDBRANCH   4   5
ENDBRANCH   3   4
ENDBRANCH   2   3
ENDBRANCH   1   2
BRANCH   1  24
ATOM     24  C   UNL A   1      34.974  23.707  24.698  1.00  0.00     0.021 C 
BRANCH  24  25
ATOM     25  C   UNL A   1      36.301  24.123  25.325  1.00  0.00     0.116 C 
BRANCH  25  26
ATOM     26  N   UNL A   1      37.204  22.992  25.471  1.00  0.00    -0.352 N 
ATOM     27  C   UNL A   1      38.482  22.952  25.969  1.00  0.00     0.251 C 
ATOM     28  H   UNL A   1      36.845  22.127  25.167  1.00  0.00     0.163 HD
ATOM     29  O   UNL A   1      39.171  21.951  25.795  1.00  0.00    -0.269 OA
BRANCH  27  30
ATOM     30  C   UNL A   1      39.032  24.112  26.703  1.00  0.00     0.039 A 
ATOM     31  C   UNL A   1      39.894  24.986  26.034  1.00  0.00     0.014 A 
ATOM     32  C   UNL A   1      38.731  24.323  28.052  1.00  0.00     0.014 A 
ATOM     33  C   UNL A   1      40.412  26.096  26.703  1.00  0.00     0.010 A 
ATOM     34  C   UNL A   1      39.196  25.466  28.700  1.00  0.00     0.010 A 
ATOM     35  C   UNL A   1      40.047  26.361  28.035  1.00  0.00    -0.014 A 
BRANCH  35  36
ATOM     36  C   UNL A   1      40.540  27.575  28.733  1.00  0.00     0.031 A 
ATOM     37  C   UNL A   1      41.928  27.612  29.314  1.00  0.00     0.074 A 
ATOM     38  C   UNL A   1      39.716  28.631  28.884  1.00  0.00     0.049 A 
ATOM     39  N   UNL A   1      42.520  28.580  29.966  1.00  0.00    -0.248 NA
ATOM     40  C   UNL A   1      42.748  26.400  29.161  1.00  0.00     0.031 C 
ATOM     41  C   UNL A   1      38.332  28.699  28.408  1.00  0.00     0.029 A 
ATOM     42  N   UNL A   1      39.921  29.849  29.482  1.00  0.00    -0.354 N 
ATOM     43  C   UNL A   1      43.776  28.091  30.311  1.00  0.00     0.074 A 
ATOM     44  C   UNL A   1      43.841  26.725  29.838  1.00  0.00     0.031 C 
ATOM     45  C   UNL A   1      37.824  29.905  28.706  1.00  0.00     0.029 A 
ATOM     46  C   UNL A   1      38.830  30.683  29.422  1.00  0.00     0.049 A 
ATOM     47  H   UNL A   1      40.769  30.101  29.913  1.00  0.00     0.167 HD
ATOM     48  C   UNL A   1      44.789  28.727  30.948  1.00  0.00     0.031 A 
ATOM     49  C   UNL A   1      38.657  31.934  29.890  1.00  0.00     0.031 A 
ATOM     50  C   UNL A   1      44.725  30.089  31.411  1.00  0.00     0.049 A 
ATOM     51  C   UNL A   1      39.797  32.620  30.589  1.00  0.00     0.074 A 
ATOM     52  C   UNL A   1      45.718  30.840  32.014  1.00  0.00     0.029 A 
ATOM     53  N   UNL A   1      43.606  30.902  31.324  1.00  0.00    -0.354 N 
ATOM     54  N   UNL A   1      41.001  32.164  30.844  1.00  0.00    -0.248 NA
ATOM     55  C   UNL A   1      39.560  33.993  31.052  1.00  0.00     0.031 C 
ATOM     56  C   UNL A   1      45.183  32.093  32.337  1.00  0.00     0.029 A 
ATOM     57  C   UNL A   1      43.875  32.139  31.885  1.00  0.00     0.049 A 
ATOM     58  H   UNL A   1      42.745  30.639  30.923  1.00  0.00     0.167 HD
ATOM     59  C   UNL A   1      41.671  33.202  31.479  1.00  0.00     0.074 A 
ATOM     60  C   UNL A   1      40.746  34.316  31.550  1.00  0.00     0.031 C 
ATOM     61  C   UNL A   1      42.939  33.234  31.959  1.00  0.00     0.031 A 
BRANCH  48  62
ATOM     62  C   UNL A   1      46.058  27.949  31.184  1.00  0.00    -0.014 A 
ATOM     63  C   UNL A   1      47.095  27.947  30.234  1.00  0.00     0.010 A 
ATOM     64  C   UNL A   1      46.233  27.242  32.387  1.00  0.00     0.010 A 
ATOM     65  C   UNL A   1      48.265  27.217  30.463  1.00  0.00     0.020 A 
ATOM     66  C   UNL A   1      47.412  26.532  32.633  1.00  0.00     0.020 A 
ATOM     67  C   UNL A   1      48.414  26.510  31.660  1.00  0.00     0.054 A 
BRANCH  67  68
ATOM     68  S   UNL A   1      49.949  25.585  31.938  1.00  0.00     0.124 S 
ATOM     69  O   UNL A   1      50.233  25.066  30.603  1.00  0.00    -0.237 OA
ATOM     70  O   UNL A   1      50.864  26.617  32.418  1.00  0.00    -0.237 OA
ATOM     71  O   UNL A   1      49.573  24.580  32.930  1.00  0.00    -0.744 OA
ENDBRANCH  67  68
ENDBRANCH  48  62
BRANCH  49  72
ATOM     72  C   UNL A   1      37.355  32.625  29.691  1.00  0.00    -0.014 A 
ATOM     73  C   UNL A   1      36.334  32.516  30.651  1.00  0.00     0.010 A 
ATOM     74  C   UNL A   1      37.136  33.414  28.547  1.00  0.00     0.010 A 
ATOM     75  C   UNL A   1      35.113  33.171  30.465  1.00  0.00     0.020 A 
ATOM     76  C   UNL A   1      35.926  34.091  28.369  1.00  0.00     0.020 A 
ATOM     77  C   UNL A   1      34.918  33.957  29.325  1.00  0.00     0.054 A 
BRANCH  77  78
ATOM     78  S   UNL A   1      33.349  34.846  29.132  1.00  0.00     0.124 S 
ATOM     79  O   UNL A   1      33.793  36.142  28.630  1.00  0.00    -0.237 OA
ATOM     80  O   UNL A   1      32.626  34.010  28.176  1.00  0.00    -0.237 OA
ATOM     81  O   UNL A   1      32.793  34.852  30.483  1.00  0.00    -0.744 OA
ENDBRANCH  77  78
ENDBRANCH  49  72
BRANCH  61  82
ATOM     82  C   UNL A   1      43.404  34.520  32.587  1.00  0.00    -0.014 A 
ATOM     83  C   UNL A   1      44.001  35.532  31.815  1.00  0.00     0.010 A 
ATOM     84  C   UNL A   1      43.210  34.733  33.964  1.00  0.00     0.010 A 
ATOM     85  C   UNL A   1      44.434  36.717  32.416  1.00  0.00     0.020 A 
ATOM     86  C   UNL A   1      43.616  35.926  34.564  1.00  0.00     0.020 A 
ATOM     87  C   UNL A   1      44.244  36.904  33.788  1.00  0.00     0.054 A 
BRANCH  87  88
ATOM     88  S   UNL A   1      44.791  38.460  34.543  1.00  0.00     0.124 S 
ATOM     89  O   UNL A   1      45.905  38.840  33.679  1.00  0.00    -0.237 OA
ATOM     90  O   UNL A   1      43.602  39.303  34.442  1.00  0.00    -0.237 OA
ATOM     91  O   UNL A   1      45.159  38.074  35.903  1.00  0.00    -0.744 OA
ENDBRANCH  87  88
ENDBRANCH  61  82
ENDBRANCH  35  36
ENDBRANCH  27  30
ENDBRANCH  25  26
ENDBRANCH  24  25
ENDBRANCH   1  24
TORSDOF 18
ENDMDL
MODEL 3
REMARK VINA RESULT:     -10.2      2.741      3.522
REMARK SMILES CNc1nccc(-c2cc(C(=O)NCCCCCCNC(=O)c3ccc(-c4c5nc(c(-c6ccc(S(=O)(=O)[O-])cc6)c6ccc([nH]6)c(-c6ccc(S(=O)(=O)[O-])cc6)c6nc(c(-c7ccc(S(=O)(=O)[O-])cc7)c7ccc4[nH]7)C=C6)C=C5)cc3)ccn2)n1
REMARK SMILES IDX 17 1 16 2 15 3 14 4 13 5 11 6 12 7 10 9 8 10 9 11 85 12
REMARK SMILES IDX 84 13 83 14 7 15 3 16 4 17 86 18 5 19 6 20 2 21 1 22 18 24
REMARK SMILES IDX 19 25 20 26 21 27 22 29 23 30 24 31 82 32 25 33 81 34 26 35
REMARK SMILES IDX 27 36 28 37 75 38 29 39 80 40 74 41 76 42 30 43 79 44 73 45
REMARK SMILES IDX 72 46 31 48 61 49 42 50 60 51 43 52 46 53 59 54 77 55 44 56
REMARK SMILES IDX 45 57 58 59 78 60 47 61 32 62 33 63 41 64 34 65 40 66 35 67
REMARK SMILES IDX 36 68 37 69 38 70 39 71 62 72 63 73 71 74 64 75 70 76 65 77
REMARK SMILES IDX 66 78 67 79 68 80 69 81 48 82 49 83 57 84 50 85 56 86 51 87
REMARK SMILES IDX 52 88 53 89 54 90 55 91
REMARK H PARENT 13 8 2 23 20 28 76 47 46 58
REMARK Flexibility Score: inf
ROOT
ATOM      1  C   UNL A   1      33.333  26.348  26.190  1.00  0.00     0.002 C 
ENDROOT
BRANCH   1   2
ATOM      2  C   UNL A   1      33.541  26.228  24.675  1.00  0.00     0.002 C 
BRANCH   2   3
ATOM      3  C   UNL A   1      32.260  26.346  23.837  1.00  0.00     0.021 C 
BRANCH   3   4
ATOM      4  C   UNL A   1      31.639  24.987  23.501  1.00  0.00     0.116 C 
BRANCH   4   5
ATOM      5  N   UNL A   1      32.248  24.449  22.299  1.00  0.00    -0.352 N 
ATOM      6  C   UNL A   1      33.240  23.530  22.076  1.00  0.00     0.251 C 
ATOM      7  O   UNL A   1      33.549  23.301  20.906  1.00  0.00    -0.269 OA
ATOM      8  H   UNL A   1      31.870  24.822  21.469  1.00  0.00     0.163 HD
BRANCH   6   9
ATOM      9  C   UNL A   1      33.893  22.740  23.154  1.00  0.00     0.043 A 
ATOM     10  C   UNL A   1      35.632  22.238  24.725  1.00  0.00     0.090 A 
ATOM     11  C   UNL A   1      35.210  22.900  23.575  1.00  0.00     0.044 A 
ATOM     12  N   UNL A   1      34.848  21.349  25.384  1.00  0.00    -0.255 NA
ATOM     13  C   UNL A   1      33.620  21.111  24.883  1.00  0.00     0.112 A 
ATOM     14  C   UNL A   1      33.097  21.791  23.801  1.00  0.00     0.034 A 
BRANCH  10  15
ATOM     15  C   UNL A   1      36.883  22.625  25.389  1.00  0.00     0.094 A 
ATOM     16  C   UNL A   1      39.051  22.122  25.938  1.00  0.00     0.222 A 
ATOM     17  N   UNL A   1      39.230  23.301  26.549  1.00  0.00    -0.222 NA
ATOM     18  N   UNL A   1      37.910  21.752  25.338  1.00  0.00    -0.211 NA
ATOM     19  C   UNL A   1      38.198  24.158  26.552  1.00  0.00     0.117 A 
ATOM     20  C   UNL A   1      36.989  23.870  25.983  1.00  0.00     0.051 A 
BRANCH  16  21
ATOM     21  N   UNL A   1      40.149  21.312  25.910  1.00  0.00    -0.357 N 
ATOM     22  C   UNL A   1      40.388  20.334  26.928  1.00  0.00     0.143 C 
ATOM     23  H   UNL A   1      40.795  21.404  25.172  1.00  0.00     0.163 HD
ENDBRANCH  16  21
ENDBRANCH  10  15
ENDBRANCH   6   9
ENDBRANCH   4   5
ENDBRANCH   3   4
ENDBRANCH   2   3
ENDBRANCH   1   2
BRANCH   1  24
ATOM     24  C   UNL A   1      33.161  27.779  26.711  1.00  0.00     0.021 C 
BRANCH  24  25
ATOM     25  C   UNL A   1      34.247  28.752  26.262  1.00  0.00     0.116 C 
BRANCH  25  26
ATOM     26  N   UNL A   1      33.882  30.131  26.544  1.00  0.00    -0.352 N 
ATOM     27  C   UNL A   1      34.389  30.995  27.483  1.00  0.00     0.251 C 
ATOM     28  H   UNL A   1      33.166  30.499  25.978  1.00  0.00     0.163 HD
ATOM     29  O   UNL A   1      33.796  32.041  27.729  1.00  0.00    -0.269 OA
BRANCH  27  30
ATOM     30  C   UNL A   1      35.638  30.664  28.202  1.00  0.00     0.039 A 
ATOM     31  C   UNL A   1      35.605  29.676  29.191  1.00  0.00     0.014 A 
ATOM     32  C   UNL A   1      36.829  31.345  27.933  1.00  0.00     0.014 A 
ATOM     33  C   UNL A   1      36.776  29.337  29.871  1.00  0.00     0.010 A 
ATOM     34  C   UNL A   1      38.010  30.962  28.567  1.00  0.00     0.010 A 
ATOM     35  C   UNL A   1      37.994  29.958  29.548  1.00  0.00    -0.014 A 
BRANCH  35  36
ATOM     36  C   UNL A   1      39.256  29.558  30.220  1.00  0.00     0.031 A 
ATOM     37  C   UNL A   1      39.708  30.254  31.475  1.00  0.00     0.074 A 
ATOM     38  C   UNL A   1      40.019  28.592  29.670  1.00  0.00     0.049 A 
ATOM     39  N   UNL A   1      40.786  30.045  32.188  1.00  0.00    -0.248 NA
ATOM     40  C   UNL A   1      38.852  31.338  31.983  1.00  0.00     0.031 C 
ATOM     41  C   UNL A   1      39.713  27.875  28.430  1.00  0.00     0.029 A 
ATOM     42  N   UNL A   1      41.210  28.049  30.082  1.00  0.00    -0.354 N 
ATOM     43  C   UNL A   1      40.743  30.977  33.220  1.00  0.00     0.074 A 
ATOM     44  C   UNL A   1      39.560  31.783  33.012  1.00  0.00     0.031 C 
ATOM     45  C   UNL A   1      40.675  26.967  28.199  1.00  0.00     0.029 A 
ATOM     46  C   UNL A   1      41.681  27.059  29.252  1.00  0.00     0.049 A 
ATOM     47  H   UNL A   1      41.683  28.341  30.895  1.00  0.00     0.167 HD
ATOM     48  C   UNL A   1      41.602  31.136  34.256  1.00  0.00     0.031 A 
ATOM     49  C   UNL A   1      42.797  26.309  29.329  1.00  0.00     0.031 A 
ATOM     50  C   UNL A   1      42.776  30.328  34.465  1.00  0.00     0.049 A 
ATOM     51  C   UNL A   1      43.732  26.501  30.490  1.00  0.00     0.074 A 
ATOM     52  C   UNL A   1      43.676  30.374  35.515  1.00  0.00     0.029 A 
ATOM     53  N   UNL A   1      43.213  29.332  33.606  1.00  0.00    -0.354 N 
ATOM     54  N   UNL A   1      43.637  27.341  31.493  1.00  0.00    -0.248 NA
ATOM     55  C   UNL A   1      44.917  25.635  30.536  1.00  0.00     0.031 C 
ATOM     56  C   UNL A   1      44.685  29.437  35.267  1.00  0.00     0.029 A 
ATOM     57  C   UNL A   1      44.383  28.771  34.090  1.00  0.00     0.049 A 
ATOM     58  H   UNL A   1      42.759  29.062  32.775  1.00  0.00     0.167 HD
ATOM     59  C   UNL A   1      44.740  27.090  32.301  1.00  0.00     0.074 A 
ATOM     60  C   UNL A   1      45.475  26.006  31.680  1.00  0.00     0.031 C 
ATOM     61  C   UNL A   1      45.111  27.701  33.454  1.00  0.00     0.031 A 
BRANCH  48  62
ATOM     62  C   UNL A   1      41.303  32.234  35.245  1.00  0.00    -0.014 A 
ATOM     63  C   UNL A   1      40.429  32.016  36.326  1.00  0.00     0.010 A 
ATOM     64  C   UNL A   1      41.930  33.485  35.114  1.00  0.00     0.010 A 
ATOM     65  C   UNL A   1      40.155  33.045  37.233  1.00  0.00     0.020 A 
ATOM     66  C   UNL A   1      41.680  34.508  36.034  1.00  0.00     0.020 A 
ATOM     67  C   UNL A   1      40.779  34.286  37.078  1.00  0.00     0.054 A 
BRANCH  67  68
ATOM     68  S   UNL A   1      40.419  35.596  38.279  1.00  0.00     0.124 S 
ATOM     69  O   UNL A   1      39.581  34.894  39.247  1.00  0.00    -0.237 OA
ATOM     70  O   UNL A   1      41.748  35.971  38.754  1.00  0.00    -0.237 OA
ATOM     71  O   UNL A   1      39.735  36.615  37.486  1.00  0.00    -0.744 OA
ENDBRANCH  67  68
ENDBRANCH  48  62
BRANCH  49  72
ATOM     72  C   UNL A   1      43.077  25.290  28.281  1.00  0.00    -0.014 A 
ATOM     73  C   UNL A   1      43.863  25.614  27.163  1.00  0.00     0.010 A 
ATOM     74  C   UNL A   1      42.574  23.983  28.409  1.00  0.00     0.010 A 
ATOM     75  C   UNL A   1      44.130  24.654  26.182  1.00  0.00     0.020 A 
ATOM     76  C   UNL A   1      42.861  23.013  27.444  1.00  0.00     0.020 A 
ATOM     77  C   UNL A   1      43.628  23.358  26.330  1.00  0.00     0.054 A 
BRANCH  77  78
ATOM     78  S   UNL A   1      44.036  22.111  25.077  1.00  0.00     0.124 S 
ATOM     79  O   UNL A   1      45.487  22.017  25.202  1.00  0.00    -0.237 OA
ATOM     80  O   UNL A   1      43.284  20.945  25.533  1.00  0.00    -0.237 OA
ATOM     81  O   UNL A   1      43.550  22.707  23.835  1.00  0.00    -0.744 OA
ENDBRANCH  77  78
ENDBRANCH  49  72
BRANCH  61  82
ATOM     82  C   UNL A   1      46.358  27.196  34.127  1.00  0.00    -0.014 A 
ATOM     83  C   UNL A   1      46.310  26.130  35.043  1.00  0.00     0.010 A 
ATOM     84  C   UNL A   1      47.602  27.774  33.813  1.00  0.00     0.010 A 
ATOM     85  C   UNL A   1      47.478  25.680  35.665  1.00  0.00     0.020 A 
ATOM     86  C   UNL A   1      48.774  27.309  34.412  1.00  0.00     0.020 A 
ATOM     87  C   UNL A   1      48.702  26.275  35.349  1.00  0.00     0.054 A 
BRANCH  87  88
ATOM     88  S   UNL A   1      50.208  25.658  36.150  1.00  0.00     0.124 S 
ATOM     89  O   UNL A   1      50.758  24.779  35.122  1.00  0.00    -0.237 OA
ATOM     90  O   UNL A   1      50.964  26.882  36.401  1.00  0.00    -0.237 OA
ATOM     91  O   UNL A   1      49.712  24.983  37.347  1.00  0.00    -0.744 OA
ENDBRANCH  87  88
ENDBRANCH  61  82
ENDBRANCH  35  36
ENDBRANCH  27  30
ENDBRANCH  25  26
ENDBRANCH  24  25
ENDBRANCH   1  24
TORSDOF 18
ENDMDL
