MODEL 1
REMARK VINA RESULT:      -9.4      0.000      0.000
REMARK SMILES C[C@H](O)C[C@@]1(C(=O)NCCCCCCNC(=O)c2ccc(-c3c4nc(c(-c5ccc(S(=O)(=O)[O-])cc5)c5ccc([nH]5)c(-c5ccc(S(=O)(=O)[O-])cc5)c5nc(c(-c6ccc(S(=O)(=O)[O-])cc6)c6ccc3[nH]6)C=C5)C=C4)cc2)CCN(C(=O)OC(C)(C)C)C1
REMARK SMILES IDX 11 1 10 2 9 3 8 4 6 5 7 6 5 8 78 9 88 10 79 11 80 12 4 13
REMARK SMILES IDX 2 14 1 15 3 16 81 18 82 19 83 20 84 21 85 22 86 23 87 24
REMARK SMILES IDX 12 25 13 26 14 27 15 28 16 29 17 31 18 32 19 33 77 34 20 35
REMARK SMILES IDX 76 36 21 37 22 38 23 39 70 40 24 41 75 42 69 43 71 44 25 45
REMARK SMILES IDX 74 46 68 47 67 48 26 50 56 51 37 52 55 53 38 54 41 55 54 56
REMARK SMILES IDX 72 57 39 58 40 59 53 61 73 62 42 63 27 64 28 65 36 66 29 67
REMARK SMILES IDX 35 68 30 69 31 70 32 71 33 72 34 73 57 74 58 75 66 76 59 77
REMARK SMILES IDX 65 78 60 79 61 80 62 81 63 82 64 83 43 84 44 85 52 86 45 87
REMARK SMILES IDX 51 88 46 89 47 90 48 91 49 92 50 93
REMARK H PARENT 8 7 3 17 15 30 71 49 41 60
REMARK Flexibility Score: inf
ROOT
ATOM      1  C   UNL A   1      37.571  33.397  28.743  1.00  0.00     0.002 C 
ENDROOT
BRANCH   1   2
ATOM      2  C   UNL A   1      38.470  33.682  29.947  1.00  0.00     0.021 C 
BRANCH   2   3
ATOM      3  C   UNL A   1      37.723  34.324  31.114  1.00  0.00     0.116 C 
BRANCH   3   4
ATOM      4  N   UNL A   1      38.615  34.543  32.221  1.00  0.00    -0.356 N 
ATOM      5  C   UNL A   1      38.546  34.243  33.533  1.00  0.00     0.228 C 
ATOM      6  O   UNL A   1      39.335  34.889  34.235  1.00  0.00    -0.274 OA
ATOM      7  H   UNL A   1      39.445  35.008  31.969  1.00  0.00     0.163 HD
BRANCH   5   8
ATOM      8  C   UNL A   1      37.697  33.120  34.164  1.00  0.00     0.071 C 
ATOM      9  C   UNL A   1      37.236  31.899  33.340  1.00  0.00     0.040 C 
ATOM     10  C   UNL A   1      36.332  33.749  34.531  1.00  0.00     0.140 C 
ATOM     11  C   UNL A   1      36.023  32.373  32.570  1.00  0.00     0.124 C 
ATOM     12  N   UNL A   1      35.422  33.334  33.460  1.00  0.00    -0.307 N 
BRANCH   8  13
ATOM     13  C   UNL A   1      38.556  32.534  35.322  1.00  0.00     0.050 C 
BRANCH  13  14
ATOM     14  C   UNL A   1      37.958  31.437  36.208  1.00  0.00     0.112 C 
ATOM     15  C   UNL A   1      37.871  31.934  37.650  1.00  0.00     0.038 C 
BRANCH  14  16
ATOM     16  O   UNL A   1      38.783  30.279  36.178  1.00  0.00    -0.393 OA
ATOM     17  H   UNL A   1      39.486  30.401  35.522  1.00  0.00     0.210 HD
ENDBRANCH  14  16
ENDBRANCH  13  14
ENDBRANCH   8  13
BRANCH  12  18
ATOM     18  C   UNL A   1      34.115  33.749  33.367  1.00  0.00     0.410 C 
ATOM     19  O   UNL A   1      33.174  32.995  33.190  1.00  0.00    -0.224 OA
BRANCH  18  20
ATOM     20  O   UNL A   1      34.032  35.104  33.458  1.00  0.00    -0.444 OA
BRANCH  20  21
ATOM     21  C   UNL A   1      33.384  35.896  32.433  1.00  0.00     0.106 C 
ATOM     22  C   UNL A   1      33.759  35.377  31.040  1.00  0.00     0.056 C 
ATOM     23  C   UNL A   1      31.870  35.966  32.641  1.00  0.00     0.056 C 
ATOM     24  C   UNL A   1      33.965  37.311  32.596  1.00  0.00     0.056 C 
ENDBRANCH  20  21
ENDBRANCH  18  20
ENDBRANCH  12  18
ENDBRANCH   5   8
ENDBRANCH   3   4
ENDBRANCH   2   3
ENDBRANCH   1   2
BRANCH   1  25
ATOM     25  C   UNL A   1      36.209  34.100  28.789  1.00  0.00     0.002 C 
BRANCH  25  26
ATOM     26  C   UNL A   1      35.067  33.320  28.131  1.00  0.00     0.021 C 
BRANCH  26  27
ATOM     27  C   UNL A   1      34.430  32.287  29.050  1.00  0.00     0.116 C 
BRANCH  27  28
ATOM     28  N   UNL A   1      33.905  31.165  28.287  1.00  0.00    -0.352 N 
ATOM     29  C   UNL A   1      34.594  30.102  27.764  1.00  0.00     0.251 C 
ATOM     30  H   UNL A   1      32.934  31.171  28.125  1.00  0.00     0.163 HD
ATOM     31  O   UNL A   1      34.092  29.388  26.904  1.00  0.00    -0.269 OA
BRANCH  29  32
ATOM     32  C   UNL A   1      35.957  29.845  28.261  1.00  0.00     0.039 A 
ATOM     33  C   UNL A   1      36.144  29.403  29.572  1.00  0.00     0.014 A 
ATOM     34  C   UNL A   1      37.043  30.004  27.394  1.00  0.00     0.014 A 
ATOM     35  C   UNL A   1      37.428  29.067  30.000  1.00  0.00     0.010 A 
ATOM     36  C   UNL A   1      38.303  29.592  27.797  1.00  0.00     0.010 A 
ATOM     37  C   UNL A   1      38.510  29.130  29.107  1.00  0.00    -0.014 A 
BRANCH  37  38
ATOM     38  C   UNL A   1      39.886  28.750  29.505  1.00  0.00     0.031 A 
ATOM     39  C   UNL A   1      40.741  29.749  30.233  1.00  0.00     0.074 A 
ATOM     40  C   UNL A   1      40.393  27.562  29.124  1.00  0.00     0.049 A 
ATOM     41  N   UNL A   1      42.013  29.689  30.526  1.00  0.00    -0.248 NA
ATOM     42  C   UNL A   1      40.083  30.997  30.659  1.00  0.00     0.031 C 
ATOM     43  C   UNL A   1      39.665  26.518  28.400  1.00  0.00     0.029 A 
ATOM     44  N   UNL A   1      41.654  27.041  29.276  1.00  0.00    -0.354 N 
ATOM     45  C   UNL A   1      42.313  30.897  31.144  1.00  0.00     0.074 A 
ATOM     46  C   UNL A   1      41.104  31.691  31.137  1.00  0.00     0.031 C 
ATOM     47  C   UNL A   1      40.486  25.477  28.187  1.00  0.00     0.029 A 
ATOM     48  C   UNL A   1      41.811  25.800  28.706  1.00  0.00     0.049 A 
ATOM     49  H   UNL A   1      42.378  27.512  29.750  1.00  0.00     0.167 HD
ATOM     50  C   UNL A   1      43.486  31.302  31.686  1.00  0.00     0.031 A 
ATOM     51  C   UNL A   1      42.904  25.021  28.595  1.00  0.00     0.031 A 
ATOM     52  C   UNL A   1      44.681  30.501  31.691  1.00  0.00     0.049 A 
ATOM     53  C   UNL A   1      44.209  25.508  29.166  1.00  0.00     0.074 A 
ATOM     54  C   UNL A   1      45.911  30.799  32.247  1.00  0.00     0.029 A 
ATOM     55  N   UNL A   1      44.794  29.246  31.111  1.00  0.00    -0.354 N 
ATOM     56  N   UNL A   1      44.467  26.637  29.784  1.00  0.00    -0.248 NA
ATOM     57  C   UNL A   1      45.369  24.616  29.031  1.00  0.00     0.031 C 
ATOM     58  C   UNL A   1      46.786  29.749  31.951  1.00  0.00     0.029 A 
ATOM     59  C   UNL A   1      46.080  28.765  31.277  1.00  0.00     0.049 A 
ATOM     60  H   UNL A   1      44.066  28.768  30.651  1.00  0.00     0.167 HD
ATOM     61  C   UNL A   1      45.806  26.570  30.150  1.00  0.00     0.074 A 
ATOM     62  C   UNL A   1      46.304  25.292  29.685  1.00  0.00     0.031 C 
ATOM     63  C   UNL A   1      46.553  27.481  30.820  1.00  0.00     0.031 A 
BRANCH  50  64
ATOM     64  C   UNL A   1      43.533  32.676  32.301  1.00  0.00    -0.014 A 
ATOM     65  C   UNL A   1      43.859  33.809  31.533  1.00  0.00     0.010 A 
ATOM     66  C   UNL A   1      43.217  32.842  33.662  1.00  0.00     0.010 A 
ATOM     67  C   UNL A   1      43.917  35.073  32.124  1.00  0.00     0.020 A 
ATOM     68  C   UNL A   1      43.239  34.110  34.249  1.00  0.00     0.020 A 
ATOM     69  C   UNL A   1      43.608  35.215  33.480  1.00  0.00     0.054 A 
BRANCH  69  70
ATOM     70  S   UNL A   1      43.675  36.871  34.216  1.00  0.00     0.124 S 
ATOM     71  O   UNL A   1      42.360  36.972  34.844  1.00  0.00    -0.237 OA
ATOM     72  O   UNL A   1      44.804  36.765  35.136  1.00  0.00    -0.237 OA
ATOM     73  O   UNL A   1      43.886  37.753  33.070  1.00  0.00    -0.744 OA
ENDBRANCH  69  70
ENDBRANCH  50  64
BRANCH  51  74
ATOM     74  C   UNL A   1      42.809  23.696  27.921  1.00  0.00    -0.014 A 
ATOM     75  C   UNL A   1      42.426  22.554  28.647  1.00  0.00     0.010 A 
ATOM     76  C   UNL A   1      43.086  23.569  26.547  1.00  0.00     0.010 A 
ATOM     77  C   UNL A   1      42.341  21.309  28.018  1.00  0.00     0.020 A 
ATOM     78  C   UNL A   1      42.971  22.332  25.907  1.00  0.00     0.020 A 
ATOM     79  C   UNL A   1      42.610  21.206  26.650  1.00  0.00     0.054 A 
BRANCH  79  80
ATOM     80  S   UNL A   1      42.444  19.589  25.846  1.00  0.00     0.124 S 
ATOM     81  O   UNL A   1      42.780  18.674  26.933  1.00  0.00    -0.237 OA
ATOM     82  O   UNL A   1      41.045  19.590  25.427  1.00  0.00    -0.237 OA
ATOM     83  O   UNL A   1      43.415  19.648  24.755  1.00  0.00    -0.744 OA
ENDBRANCH  79  80
ENDBRANCH  51  74
BRANCH  63  84
ATOM     84  C   UNL A   1      47.975  27.115  31.157  1.00  0.00    -0.014 A 
ATOM     85  C   UNL A   1      48.289  26.360  32.300  1.00  0.00     0.010 A 
ATOM     86  C   UNL A   1      49.000  27.455  30.255  1.00  0.00     0.010 A 
ATOM     87  C   UNL A   1      49.608  25.963  32.541  1.00  0.00     0.020 A 
ATOM     88  C   UNL A   1      50.313  27.033  30.476  1.00  0.00     0.020 A 
ATOM     89  C   UNL A   1      50.610  26.294  31.622  1.00  0.00     0.054 A 
BRANCH  89  90
ATOM     90  S   UNL A   1      52.296  25.696  31.915  1.00  0.00     0.124 S 
ATOM     91  O   UNL A   1      52.076  24.273  32.162  1.00  0.00    -0.237 OA
ATOM     92  O   UNL A   1      52.971  26.019  30.660  1.00  0.00    -0.237 OA
ATOM     93  O   UNL A   1      52.743  26.467  33.073  1.00  0.00    -0.744 OA
ENDBRANCH  89  90
ENDBRANCH  63  84
ENDBRANCH  37  38
ENDBRANCH  29  32
ENDBRANCH  27  28
ENDBRANCH  26  27
ENDBRANCH  25  26
ENDBRANCH   1  25
TORSDOF 22
ENDMDL
MODEL 2
REMARK VINA RESULT:      -8.8      4.298      8.270
REMARK SMILES C[C@H](O)C[C@@]1(C(=O)NCCCCCCNC(=O)c2ccc(-c3c4nc(c(-c5ccc(S(=O)(=O)[O-])cc5)c5ccc([nH]5)c(-c5ccc(S(=O)(=O)[O-])cc5)c5nc(c(-c6ccc(S(=O)(=O)[O-])cc6)c6ccc3[nH]6)C=C5)C=C4)cc2)CCN(C(=O)OC(C)(C)C)C1
REMARK SMILES IDX 11 1 10 2 9 3 8 4 6 5 7 6 5 8 78 9 88 10 79 11 80 12 4 13
REMARK SMILES IDX 2 14 1 15 3 16 81 18 82 19 83 20 84 21 85 22 86 23 87 24
REMARK SMILES IDX 12 25 13 26 14 27 15 28 16 29 17 31 18 32 19 33 77 34 20 35
REMARK SMILES IDX 76 36 21 37 22 38 23 39 70 40 24 41 75 42 69 43 71 44 25 45
REMARK SMILES IDX 74 46 68 47 67 48 26 50 56 51 37 52 55 53 38 54 41 55 54 56
REMARK SMILES IDX 72 57 39 58 40 59 53 61 73 62 42 63 27 64 28 65 36 66 29 67
REMARK SMILES IDX 35 68 30 69 31 70 32 71 33 72 34 73 57 74 58 75 66 76 59 77
REMARK SMILES IDX 65 78 60 79 61 80 62 81 63 82 64 83 43 84 44 85 52 86 45 87
REMARK SMILES IDX 51 88 46 89 47 90 48 91 49 92 50 93
REMARK H PARENT 8 7 3 17 15 30 71 49 41 60
REMARK Flexibility Score: inf
ROOT
ATOM      1  C   UNL A   1      31.182  26.580  26.307  1.00  0.00     0.002 C 
ENDROOT
BRANCH   1   2
ATOM      2  C   UNL A   1      30.546  26.792  24.933  1.00  0.00     0.021 C 
BRANCH   2   3
ATOM      3  C   UNL A   1      30.153  25.485  24.246  1.00  0.00     0.116 C 
BRANCH   3   4
ATOM      4  N   UNL A   1      30.391  24.368  25.119  1.00  0.00    -0.356 N 
ATOM      5  C   UNL A   1      31.105  23.232  24.990  1.00  0.00     0.228 C 
ATOM      6  O   UNL A   1      30.798  22.353  25.807  1.00  0.00    -0.274 OA
ATOM      7  H   UNL A   1      29.940  24.449  25.991  1.00  0.00     0.163 HD
BRANCH   5   8
ATOM      8  C   UNL A   1      32.298  23.014  24.036  1.00  0.00     0.071 C 
ATOM      9  C   UNL A   1      32.822  21.598  23.711  1.00  0.00     0.040 C 
ATOM     10  C   UNL A   1      33.538  23.625  24.729  1.00  0.00     0.140 C 
ATOM     11  C   UNL A   1      33.700  21.220  24.883  1.00  0.00     0.124 C 
ATOM     12  N   UNL A   1      34.257  22.482  25.300  1.00  0.00    -0.307 N 
BRANCH   8  13
ATOM     13  C   UNL A   1      31.866  23.616  22.667  1.00  0.00     0.050 C 
BRANCH  13  14
ATOM     14  C   UNL A   1      32.904  24.364  21.825  1.00  0.00     0.112 C 
ATOM     15  C   UNL A   1      32.335  25.715  21.393  1.00  0.00     0.038 C 
BRANCH  14  16
ATOM     16  O   UNL A   1      33.221  23.615  20.660  1.00  0.00    -0.393 OA
ATOM     17  H   UNL A   1      32.493  23.684  20.023  1.00  0.00     0.210 HD
ENDBRANCH  14  16
ENDBRANCH  13  14
ENDBRANCH   8  13
BRANCH  12  18
ATOM     18  C   UNL A   1      35.387  22.601  26.072  1.00  0.00     0.410 C 
ATOM     19  O   UNL A   1      35.688  23.611  26.684  1.00  0.00    -0.224 OA
BRANCH  18  20
ATOM     20  O   UNL A   1      36.127  21.461  26.022  1.00  0.00    -0.444 OA
BRANCH  20  21
ATOM     21  C   UNL A   1      37.316  21.363  25.200  1.00  0.00     0.106 C 
ATOM     22  C   UNL A   1      38.523  21.962  25.932  1.00  0.00     0.056 C 
ATOM     23  C   UNL A   1      37.570  19.927  24.737  1.00  0.00     0.056 C 
ATOM     24  C   UNL A   1      37.019  22.229  23.964  1.00  0.00     0.056 C 
ENDBRANCH  20  21
ENDBRANCH  18  20
ENDBRANCH  12  18
ENDBRANCH   5   8
ENDBRANCH   3   4
ENDBRANCH   2   3
ENDBRANCH   1   2
BRANCH   1  25
ATOM     25  C   UNL A   1      32.080  27.731  26.774  1.00  0.00     0.002 C 
BRANCH  25  26
ATOM     26  C   UNL A   1      32.879  28.410  25.657  1.00  0.00     0.021 C 
BRANCH  26  27
ATOM     27  C   UNL A   1      34.148  29.093  26.146  1.00  0.00     0.116 C 
BRANCH  27  28
ATOM     28  N   UNL A   1      33.871  30.449  26.593  1.00  0.00    -0.352 N 
ATOM     29  C   UNL A   1      34.433  31.124  27.644  1.00  0.00     0.251 C 
ATOM     30  H   UNL A   1      33.195  30.942  26.075  1.00  0.00     0.163 HD
ATOM     31  O   UNL A   1      33.912  32.139  28.091  1.00  0.00    -0.269 OA
BRANCH  29  32
ATOM     32  C   UNL A   1      35.679  30.593  28.225  1.00  0.00     0.039 A 
ATOM     33  C   UNL A   1      36.911  31.082  27.787  1.00  0.00     0.014 A 
ATOM     34  C   UNL A   1      35.605  29.637  29.243  1.00  0.00     0.014 A 
ATOM     35  C   UNL A   1      38.078  30.646  28.414  1.00  0.00     0.010 A 
ATOM     36  C   UNL A   1      36.759  29.269  29.917  1.00  0.00     0.010 A 
ATOM     37  C   UNL A   1      38.007  29.760  29.502  1.00  0.00    -0.014 A 
BRANCH  37  38
ATOM     38  C   UNL A   1      39.216  29.296  30.222  1.00  0.00     0.031 A 
ATOM     39  C   UNL A   1      39.651  30.018  31.467  1.00  0.00     0.074 A 
ATOM     40  C   UNL A   1      39.970  28.307  29.704  1.00  0.00     0.049 A 
ATOM     41  N   UNL A   1      40.755  29.889  32.152  1.00  0.00    -0.248 NA
ATOM     42  C   UNL A   1      38.733  31.046  31.989  1.00  0.00     0.031 C 
ATOM     43  C   UNL A   1      39.658  27.543  28.494  1.00  0.00     0.029 A 
ATOM     44  N   UNL A   1      41.170  27.788  30.123  1.00  0.00    -0.354 N 
ATOM     45  C   UNL A   1      40.679  30.834  33.168  1.00  0.00     0.074 A 
ATOM     46  C   UNL A   1      39.445  31.565  32.978  1.00  0.00     0.031 C 
ATOM     47  C   UNL A   1      40.632  26.644  28.279  1.00  0.00     0.029 A 
ATOM     48  C   UNL A   1      41.664  26.805  29.300  1.00  0.00     0.049 A 
ATOM     49  H   UNL A   1      41.633  28.092  30.938  1.00  0.00     0.167 HD
ATOM     50  C   UNL A   1      41.549  31.062  34.180  1.00  0.00     0.031 A 
ATOM     51  C   UNL A   1      42.826  26.125  29.349  1.00  0.00     0.031 A 
ATOM     52  C   UNL A   1      42.771  30.325  34.362  1.00  0.00     0.049 A 
ATOM     53  C   UNL A   1      43.799  26.423  30.458  1.00  0.00     0.074 A 
ATOM     54  C   UNL A   1      43.704  30.447  35.374  1.00  0.00     0.029 A 
ATOM     55  N   UNL A   1      43.228  29.330  33.510  1.00  0.00    -0.354 N 
ATOM     56  N   UNL A   1      43.693  27.292  31.435  1.00  0.00    -0.248 NA
ATOM     57  C   UNL A   1      45.046  25.645  30.476  1.00  0.00     0.031 C 
ATOM     58  C   UNL A   1      44.757  29.569  35.102  1.00  0.00     0.029 A 
ATOM     59  C   UNL A   1      44.442  28.846  33.962  1.00  0.00     0.049 A 
ATOM     60  H   UNL A   1      42.758  29.016  32.704  1.00  0.00     0.167 HD
ATOM     61  C   UNL A   1      44.837  27.134  32.208  1.00  0.00     0.074 A 
ATOM     62  C   UNL A   1      45.622  26.087  31.586  1.00  0.00     0.031 C 
ATOM     63  C   UNL A   1      45.201  27.790  33.337  1.00  0.00     0.031 A 
BRANCH  50  64
ATOM     64  C   UNL A   1      41.213  32.160  35.155  1.00  0.00    -0.014 A 
ATOM     65  C   UNL A   1      40.508  31.891  36.343  1.00  0.00     0.010 A 
ATOM     66  C   UNL A   1      41.635  33.476  34.895  1.00  0.00     0.010 A 
ATOM     67  C   UNL A   1      40.188  32.925  37.226  1.00  0.00     0.020 A 
ATOM     68  C   UNL A   1      41.349  34.508  35.794  1.00  0.00     0.020 A 
ATOM     69  C   UNL A   1      40.609  34.227  36.945  1.00  0.00     0.054 A 
BRANCH  69  70
ATOM     70  S   UNL A   1      40.195  35.546  38.119  1.00  0.00     0.124 S 
ATOM     71  O   UNL A   1      38.974  35.028  38.732  1.00  0.00    -0.237 OA
ATOM     72  O   UNL A   1      41.368  35.579  38.987  1.00  0.00    -0.237 OA
ATOM     73  O   UNL A   1      40.015  36.722  37.272  1.00  0.00    -0.744 OA
ENDBRANCH  69  70
ENDBRANCH  50  64
BRANCH  51  74
ATOM     74  C   UNL A   1      43.128  25.091  28.320  1.00  0.00    -0.014 A 
ATOM     75  C   UNL A   1      43.864  25.425  27.170  1.00  0.00     0.010 A 
ATOM     76  C   UNL A   1      42.696  23.763  28.491  1.00  0.00     0.010 A 
ATOM     77  C   UNL A   1      44.145  24.457  26.202  1.00  0.00     0.020 A 
ATOM     78  C   UNL A   1      43.001  22.785  27.541  1.00  0.00     0.020 A 
ATOM     79  C   UNL A   1      43.715  23.142  26.395  1.00  0.00     0.054 A 
BRANCH  79  80
ATOM     80  S   UNL A   1      44.135  21.893  25.148  1.00  0.00     0.124 S 
ATOM     81  O   UNL A   1      45.512  21.564  25.500  1.00  0.00    -0.237 OA
ATOM     82  O   UNL A   1      43.147  20.849  25.405  1.00  0.00    -0.237 OA
ATOM     83  O   UNL A   1      43.965  22.605  23.882  1.00  0.00    -0.744 OA
ENDBRANCH  79  80
ENDBRANCH  51  74
BRANCH  63  84
ATOM     84  C   UNL A   1      46.471  27.360  34.023  1.00  0.00    -0.014 A 
ATOM     85  C   UNL A   1      47.701  27.984  33.754  1.00  0.00     0.010 A 
ATOM     86  C   UNL A   1      46.405  26.376  35.027  1.00  0.00     0.010 A 
ATOM     87  C   UNL A   1      48.847  27.621  34.469  1.00  0.00     0.020 A 
ATOM     88  C   UNL A   1      47.540  26.033  35.765  1.00  0.00     0.020 A 
ATOM     89  C   UNL A   1      48.757  26.655  35.477  1.00  0.00     0.054 A 
BRANCH  89  90
ATOM     90  S   UNL A   1      50.239  26.262  36.445  1.00  0.00     0.124 S 
ATOM     91  O   UNL A   1      50.359  27.434  37.307  1.00  0.00    -0.237 OA
ATOM     92  O   UNL A   1      49.860  25.022  37.117  1.00  0.00    -0.237 OA
ATOM     93  O   UNL A   1      51.287  26.122  35.436  1.00  0.00    -0.744 OA
ENDBRANCH  89  90
ENDBRANCH  63  84
ENDBRANCH  37  38
ENDBRANCH  29  32
ENDBRANCH  27  28
ENDBRANCH  26  27
ENDBRANCH  25  26
ENDBRANCH   1  25
TORSDOF 22
ENDMDL
MODEL 3
REMARK VINA RESULT:      -8.8      0.680      8.151
REMARK SMILES C[C@H](O)C[C@@]1(C(=O)NCCCCCCNC(=O)c2ccc(-c3c4nc(c(-c5ccc(S(=O)(=O)[O-])cc5)c5ccc([nH]5)c(-c5ccc(S(=O)(=O)[O-])cc5)c5nc(c(-c6ccc(S(=O)(=O)[O-])cc6)c6ccc3[nH]6)C=C5)C=C4)cc2)CCN(C(=O)OC(C)(C)C)C1
REMARK SMILES IDX 11 1 10 2 9 3 8 4 6 5 7 6 5 8 78 9 88 10 79 11 80 12 4 13
REMARK SMILES IDX 2 14 1 15 3 16 81 18 82 19 83 20 84 21 85 22 86 23 87 24
REMARK SMILES IDX 12 25 13 26 14 27 15 28 16 29 17 31 18 32 19 33 77 34 20 35
REMARK SMILES IDX 76 36 21 37 22 38 23 39 70 40 24 41 75 42 69 43 71 44 25 45
REMARK SMILES IDX 74 46 68 47 67 48 26 50 56 51 37 52 55 53 38 54 41 55 54 56
REMARK SMILES IDX 72 57 39 58 40 59 53 61 73 62 42 63 27 64 28 65 36 66 29 67
REMARK SMILES IDX 35 68 30 69 31 70 32 71 33 72 34 73 57 74 58 75 66 76 59 77
REMARK SMILES IDX 65 78 60 79 61 80 62 81 63 82 64 83 43 84 44 85 52 86 45 87
REMARK SMILES IDX 51 88 46 89 47 90 48 91 49 92 50 93
REMARK H PARENT 8 7 3 17 15 30 71 49 41 60
REMARK Flexibility Score: inf
ROOT
ATOM      1  C   UNL A   1      37.559  33.192  29.044  1.00  0.00     0.002 C 
ENDROOT
BRANCH   1   2
ATOM      2  C   UNL A   1      38.361  33.995  30.068  1.00  0.00     0.021 C 
BRANCH   2   3
ATOM      3  C   UNL A   1      37.598  34.238  31.369  1.00  0.00     0.116 C 
BRANCH   3   4
ATOM      4  N   UNL A   1      38.508  34.584  32.427  1.00  0.00    -0.356 N 
ATOM      5  C   UNL A   1      38.444  34.479  33.769  1.00  0.00     0.228 C 
ATOM      6  O   UNL A   1      39.261  35.193  34.366  1.00  0.00    -0.274 OA
ATOM      7  H   UNL A   1      39.350  34.980  32.106  1.00  0.00     0.163 HD
BRANCH   5   8
ATOM      8  C   UNL A   1      37.564  33.488  34.560  1.00  0.00     0.071 C 
ATOM      9  C   UNL A   1      37.179  32.111  33.979  1.00  0.00     0.040 C 
ATOM     10  C   UNL A   1      36.170  34.142  34.695  1.00  0.00     0.140 C 
ATOM     11  C   UNL A   1      36.019  32.383  33.046  1.00  0.00     0.124 C 
ATOM     12  N   UNL A   1      35.344  33.491  33.674  1.00  0.00    -0.307 N 
BRANCH   8  13
ATOM     13  C   UNL A   1      38.345  33.177  35.871  1.00  0.00     0.050 C 
BRANCH  13  14
ATOM     14  C   UNL A   1      38.042  31.878  36.624  1.00  0.00     0.112 C 
ATOM     15  C   UNL A   1      37.668  32.200  38.070  1.00  0.00     0.038 C 
BRANCH  14  16
ATOM     16  O   UNL A   1      39.188  31.036  36.631  1.00  0.00    -0.393 OA
ATOM     17  H   UNL A   1      39.944  31.519  36.262  1.00  0.00     0.210 HD
ENDBRANCH  14  16
ENDBRANCH  13  14
ENDBRANCH   8  13
BRANCH  12  18
ATOM     18  C   UNL A   1      34.042  33.843  33.408  1.00  0.00     0.410 C 
ATOM     19  O   UNL A   1      33.151  33.038  33.197  1.00  0.00    -0.224 OA
BRANCH  18  20
ATOM     20  O   UNL A   1      33.905  35.196  33.376  1.00  0.00    -0.444 OA
BRANCH  20  21
ATOM     21  C   UNL A   1      33.335  35.874  32.230  1.00  0.00     0.106 C 
ATOM     22  C   UNL A   1      33.713  37.360  32.245  1.00  0.00     0.056 C 
ATOM     23  C   UNL A   1      33.717  35.189  30.916  1.00  0.00     0.056 C 
ATOM     24  C   UNL A   1      31.812  35.758  32.415  1.00  0.00     0.056 C 
ENDBRANCH  20  21
ENDBRANCH  18  20
ENDBRANCH  12  18
ENDBRANCH   5   8
ENDBRANCH   3   4
ENDBRANCH   2   3
ENDBRANCH   1   2
BRANCH   1  25
ATOM     25  C   UNL A   1      36.317  33.912  28.505  1.00  0.00     0.002 C 
BRANCH  25  26
ATOM     26  C   UNL A   1      35.208  32.981  28.003  1.00  0.00     0.021 C 
BRANCH  26  27
ATOM     27  C   UNL A   1      34.635  32.079  29.087  1.00  0.00     0.116 C 
BRANCH  27  28
ATOM     28  N   UNL A   1      34.107  30.850  28.516  1.00  0.00    -0.352 N 
ATOM     29  C   UNL A   1      34.805  29.792  27.992  1.00  0.00     0.251 C 
ATOM     30  H   UNL A   1      33.126  30.769  28.502  1.00  0.00     0.163 HD
ATOM     31  O   UNL A   1      34.249  28.960  27.285  1.00  0.00    -0.269 OA
BRANCH  29  32
ATOM     32  C   UNL A   1      36.241  29.688  28.300  1.00  0.00     0.039 A 
ATOM     33  C   UNL A   1      36.650  29.279  29.570  1.00  0.00     0.014 A 
ATOM     34  C   UNL A   1      37.177  29.955  27.296  1.00  0.00     0.014 A 
ATOM     35  C   UNL A   1      38.009  29.086  29.820  1.00  0.00     0.010 A 
ATOM     36  C   UNL A   1      38.517  29.685  27.523  1.00  0.00     0.010 A 
ATOM     37  C   UNL A   1      38.947  29.259  28.789  1.00  0.00    -0.014 A 
BRANCH  37  38
ATOM     38  C   UNL A   1      40.397  29.032  28.996  1.00  0.00     0.031 A 
ATOM     39  C   UNL A   1      40.988  27.694  28.644  1.00  0.00     0.074 A 
ATOM     40  C   UNL A   1      41.149  29.979  29.589  1.00  0.00     0.049 A 
ATOM     41  N   UNL A   1      42.182  27.228  28.895  1.00  0.00    -0.248 NA
ATOM     42  C   UNL A   1      40.104  26.744  27.947  1.00  0.00     0.031 C 
ATOM     43  C   UNL A   1      40.684  31.308  29.989  1.00  0.00     0.029 A 
ATOM     44  N   UNL A   1      42.465  29.958  29.979  1.00  0.00    -0.354 N 
ATOM     45  C   UNL A   1      42.185  25.925  28.412  1.00  0.00     0.074 A 
ATOM     46  C   UNL A   1      40.858  25.657  27.902  1.00  0.00     0.031 C 
ATOM     47  C   UNL A   1      41.702  31.980  30.551  1.00  0.00     0.029 A 
ATOM     48  C   UNL A   1      42.874  31.111  30.604  1.00  0.00     0.049 A 
ATOM     49  H   UNL A   1      43.060  29.188  29.824  1.00  0.00     0.167 HD
ATOM     50  C   UNL A   1      43.206  25.037  28.380  1.00  0.00     0.031 A 
ATOM     51  C   UNL A   1      44.053  31.425  31.175  1.00  0.00     0.031 A 
ATOM     52  C   UNL A   1      44.523  25.317  28.886  1.00  0.00     0.049 A 
ATOM     53  C   UNL A   1      45.162  30.408  31.167  1.00  0.00     0.074 A 
ATOM     54  C   UNL A   1      45.640  24.503  28.867  1.00  0.00     0.029 A 
ATOM     55  N   UNL A   1      44.897  26.502  29.503  1.00  0.00    -0.354 N 
ATOM     56  N   UNL A   1      45.162  29.193  30.669  1.00  0.00    -0.248 NA
ATOM     57  C   UNL A   1      46.433  30.803  31.789  1.00  0.00     0.031 C 
ATOM     58  C   UNL A   1      46.675  25.172  29.528  1.00  0.00     0.029 A 
ATOM     59  C   UNL A   1      46.224  26.432  29.890  1.00  0.00     0.049 A 
ATOM     60  H   UNL A   1      44.307  27.277  29.644  1.00  0.00     0.167 HD
ATOM     61  C   UNL A   1      46.443  28.698  30.880  1.00  0.00     0.074 A 
ATOM     62  C   UNL A   1      47.191  29.742  31.549  1.00  0.00     0.031 C 
ATOM     63  C   UNL A   1      46.957  27.490  30.541  1.00  0.00     0.031 A 
BRANCH  50  64
ATOM     64  C   UNL A   1      42.930  23.678  27.791  1.00  0.00    -0.014 A 
ATOM     65  C   UNL A   1      43.221  23.394  26.444  1.00  0.00     0.010 A 
ATOM     66  C   UNL A   1      42.400  22.660  28.604  1.00  0.00     0.010 A 
ATOM     67  C   UNL A   1      42.940  22.135  25.909  1.00  0.00     0.020 A 
ATOM     68  C   UNL A   1      42.151  21.387  28.082  1.00  0.00     0.020 A 
ATOM     69  C   UNL A   1      42.405  21.140  26.731  1.00  0.00     0.054 A 
BRANCH  69  70
ATOM     70  S   UNL A   1      42.068  19.509  26.013  1.00  0.00     0.124 S 
ATOM     71  O   UNL A   1      42.437  18.617  27.110  1.00  0.00    -0.237 OA
ATOM     72  O   UNL A   1      40.641  19.581  25.716  1.00  0.00    -0.237 OA
ATOM     73  O   UNL A   1      42.945  19.455  24.846  1.00  0.00    -0.744 OA
ENDBRANCH  69  70
ENDBRANCH  50  64
BRANCH  51  74
ATOM     74  C   UNL A   1      44.247  32.765  31.796  1.00  0.00    -0.014 A 
ATOM     75  C   UNL A   1      44.688  33.852  31.020  1.00  0.00     0.010 A 
ATOM     76  C   UNL A   1      43.977  32.968  33.162  1.00  0.00     0.010 A 
ATOM     77  C   UNL A   1      44.875  35.109  31.601  1.00  0.00     0.020 A 
ATOM     78  C   UNL A   1      44.132  34.231  33.740  1.00  0.00     0.020 A 
ATOM     79  C   UNL A   1      44.592  35.292  32.958  1.00  0.00     0.054 A 
BRANCH  79  80
ATOM     80  S   UNL A   1      44.794  36.945  33.677  1.00  0.00     0.124 S 
ATOM     81  O   UNL A   1      44.260  36.757  35.023  1.00  0.00    -0.237 OA
ATOM     82  O   UNL A   1      46.237  37.149  33.590  1.00  0.00    -0.237 OA
ATOM     83  O   UNL A   1      43.996  37.799  32.800  1.00  0.00    -0.744 OA
ENDBRANCH  79  80
ENDBRANCH  51  74
BRANCH  63  84
ATOM     84  C   UNL A   1      48.415  27.241  30.822  1.00  0.00    -0.014 A 
ATOM     85  C   UNL A   1      49.419  27.676  29.941  1.00  0.00     0.010 A 
ATOM     86  C   UNL A   1      48.784  26.643  32.042  1.00  0.00     0.010 A 
ATOM     87  C   UNL A   1      50.768  27.507  30.270  1.00  0.00     0.020 A 
ATOM     88  C   UNL A   1      50.129  26.501  32.388  1.00  0.00     0.020 A 
ATOM     89  C   UNL A   1      51.114  26.929  31.496  1.00  0.00     0.054 A 
BRANCH  89  90
ATOM     90  S   UNL A   1      52.868  26.796  31.935  1.00  0.00     0.124 S 
ATOM     91  O   UNL A   1      53.503  27.607  30.899  1.00  0.00    -0.237 OA
ATOM     92  O   UNL A   1      52.902  27.359  33.283  1.00  0.00    -0.237 OA
ATOM     93  O   UNL A   1      53.139  25.363  31.857  1.00  0.00    -0.744 OA
ENDBRANCH  89  90
ENDBRANCH  63  84
ENDBRANCH  37  38
ENDBRANCH  29  32
ENDBRANCH  27  28
ENDBRANCH  26  27
ENDBRANCH  25  26
ENDBRANCH   1  25
TORSDOF 22
ENDMDL
