MODEL 1
REMARK VINA RESULT:     -12.2      0.000      0.000
REMARK SMILES O=C(NCCCCCCNC(=O)c1c(C(=O)N2CCc3ccccc32)cccc1[N+](=O)[O-])c1ccc(-c2c3nc(c(-c4ccc(S(=O)(=O)[O-])cc4)c4ccc([nH]4)c(-c4ccc(S(=O)(=O)[O-])cc4)c4nc(c(-c5ccc(S(=O)(=O)[O-])cc5)c5ccc2[nH]5)C=C4)C=C3)cc1
REMARK SMILES IDX 6 1 5 2 4 3 3 4 1 5 2 6 33 8 34 9 92 10 35 11 91 12 36 13
REMARK SMILES IDX 37 14 38 15 85 16 39 17 90 18 84 19 86 20 40 21 89 22 83 23
REMARK SMILES IDX 82 24 41 26 71 27 52 28 70 29 53 30 56 31 69 32 87 33 54 34
REMARK SMILES IDX 55 35 68 37 88 38 57 39 42 40 43 41 51 42 44 43 50 44 45 45
REMARK SMILES IDX 46 46 47 47 48 48 49 49 72 50 73 51 81 52 74 53 80 54 75 55
REMARK SMILES IDX 76 56 77 57 78 58 79 59 58 60 59 61 67 62 60 63 66 64 61 65
REMARK SMILES IDX 62 66 63 67 64 68 65 69 7 70 8 71 9 72 10 73 11 74 12 76
REMARK SMILES IDX 13 77 14 78 29 79 26 80 28 81 27 82 15 83 16 84 17 85 18 86
REMARK SMILES IDX 25 87 19 88 20 89 24 90 21 91 23 92 22 93 30 94 31 95 32 96
REMARK H PARENT 3 7 86 25 56 36 10 75
REMARK Flexibility Score: inf
ROOT
ATOM      1  C   UNL A   1      35.031  29.493  27.343  1.00  0.00     0.002 C 
ENDROOT
BRANCH   1   2
ATOM      2  C   UNL A   1      34.736  30.932  27.767  1.00  0.00     0.021 C 
BRANCH   2   3
ATOM      3  C   UNL A   1      35.744  31.556  28.723  1.00  0.00     0.116 C 
BRANCH   3   4
ATOM      4  N   UNL A   1      35.587  31.106  30.095  1.00  0.00    -0.352 N 
ATOM      5  O   UNL A   1      36.145  30.040  32.001  1.00  0.00    -0.269 OA
ATOM      6  C   UNL A   1      36.486  30.441  30.898  1.00  0.00     0.251 C 
ATOM      7  H   UNL A   1      34.715  31.304  30.509  1.00  0.00     0.163 HD
BRANCH   6   8
ATOM      8  C   UNL A   1      37.858  30.183  30.400  1.00  0.00     0.039 A 
ATOM      9  C   UNL A   1      38.155  30.254  29.037  1.00  0.00     0.014 A 
ATOM     10  C   UNL A   1      38.858  29.853  31.319  1.00  0.00     0.014 A 
ATOM     11  C   UNL A   1      39.408  29.857  28.581  1.00  0.00     0.010 A 
ATOM     12  C   UNL A   1      40.140  29.530  30.864  1.00  0.00     0.010 A 
ATOM     13  C   UNL A   1      40.416  29.491  29.488  1.00  0.00    -0.014 A 
BRANCH  13  14
ATOM     14  C   UNL A   1      41.757  29.108  28.978  1.00  0.00     0.031 A 
ATOM     15  C   UNL A   1      42.906  30.079  29.004  1.00  0.00     0.074 A 
ATOM     16  C   UNL A   1      41.943  27.858  28.511  1.00  0.00     0.049 A 
ATOM     17  N   UNL A   1      44.150  29.892  28.637  1.00  0.00    -0.248 NA
ATOM     18  C   UNL A   1      42.626  31.436  29.497  1.00  0.00     0.031 C 
ATOM     19  C   UNL A   1      40.906  26.825  28.431  1.00  0.00     0.029 A 
ATOM     20  N   UNL A   1      43.069  27.234  28.039  1.00  0.00    -0.354 N 
ATOM     21  C   UNL A   1      44.793  31.109  28.829  1.00  0.00     0.074 A 
ATOM     22  C   UNL A   1      43.797  32.034  29.327  1.00  0.00     0.031 C 
ATOM     23  C   UNL A   1      41.456  25.684  27.993  1.00  0.00     0.029 A 
ATOM     24  C   UNL A   1      42.868  25.915  27.708  1.00  0.00     0.049 A 
ATOM     25  H   UNL A   1      43.938  27.687  27.946  1.00  0.00     0.167 HD
ATOM     26  C   UNL A   1      46.093  31.427  28.611  1.00  0.00     0.031 A 
ATOM     27  C   UNL A   1      43.719  24.993  27.223  1.00  0.00     0.031 A 
ATOM     28  C   UNL A   1      47.082  30.503  28.118  1.00  0.00     0.049 A 
ATOM     29  C   UNL A   1      45.150  25.372  26.980  1.00  0.00     0.074 A 
ATOM     30  C   UNL A   1      48.431  30.722  27.899  1.00  0.00     0.029 A 
ATOM     31  N   UNL A   1      46.829  29.187  27.761  1.00  0.00    -0.354 N 
ATOM     32  N   UNL A   1      45.744  26.520  27.198  1.00  0.00    -0.248 NA
ATOM     33  C   UNL A   1      46.025  24.330  26.429  1.00  0.00     0.031 C 
ATOM     34  C   UNL A   1      48.985  29.551  27.368  1.00  0.00     0.029 A 
ATOM     35  C   UNL A   1      47.991  28.587  27.305  1.00  0.00     0.049 A 
ATOM     36  H   UNL A   1      45.952  28.744  27.824  1.00  0.00     0.167 HD
ATOM     37  C   UNL A   1      47.072  26.333  26.830  1.00  0.00     0.074 A 
ATOM     38  C   UNL A   1      47.192  24.957  26.387  1.00  0.00     0.031 C 
ATOM     39  C   UNL A   1      48.097  27.219  26.861  1.00  0.00     0.031 A 
BRANCH  26  40
ATOM     40  C   UNL A   1      46.510  32.852  28.871  1.00  0.00    -0.014 A 
ATOM     41  C   UNL A   1      46.996  33.256  30.127  1.00  0.00     0.010 A 
ATOM     42  C   UNL A   1      46.429  33.798  27.833  1.00  0.00     0.010 A 
ATOM     43  C   UNL A   1      47.343  34.591  30.356  1.00  0.00     0.020 A 
ATOM     44  C   UNL A   1      46.799  35.129  28.051  1.00  0.00     0.020 A 
ATOM     45  C   UNL A   1      47.231  35.522  29.319  1.00  0.00     0.054 A 
BRANCH  45  46
ATOM     46  S   UNL A   1      47.678  37.251  29.641  1.00  0.00     0.124 S 
ATOM     47  O   UNL A   1      49.134  37.171  29.732  1.00  0.00    -0.237 OA
ATOM     48  O   UNL A   1      47.160  37.943  28.465  1.00  0.00    -0.237 OA
ATOM     49  O   UNL A   1      46.992  37.558  30.894  1.00  0.00    -0.744 OA
ENDBRANCH  45  46
ENDBRANCH  26  40
BRANCH  27  50
ATOM     50  C   UNL A   1      43.230  23.614  26.961  1.00  0.00    -0.014 A 
ATOM     51  C   UNL A   1      43.163  23.122  25.647  1.00  0.00     0.010 A 
ATOM     52  C   UNL A   1      42.882  22.767  28.030  1.00  0.00     0.010 A 
ATOM     53  C   UNL A   1      42.757  21.807  25.405  1.00  0.00     0.020 A 
ATOM     54  C   UNL A   1      42.499  21.444  27.794  1.00  0.00     0.020 A 
ATOM     55  C   UNL A   1      42.434  20.974  26.480  1.00  0.00     0.054 A 
BRANCH  55  56
ATOM     56  S   UNL A   1      41.991  19.247  26.148  1.00  0.00     0.124 S 
ATOM     57  O   UNL A   1      42.784  18.954  24.958  1.00  0.00    -0.237 OA
ATOM     58  O   UNL A   1      42.414  18.570  27.373  1.00  0.00    -0.237 OA
ATOM     59  O   UNL A   1      40.545  19.300  25.944  1.00  0.00    -0.744 OA
ENDBRANCH  55  56
ENDBRANCH  27  50
BRANCH  39  60
ATOM     60  C   UNL A   1      49.449  26.717  26.435  1.00  0.00    -0.014 A 
ATOM     61  C   UNL A   1      49.922  26.916  25.126  1.00  0.00     0.010 A 
ATOM     62  C   UNL A   1      50.270  26.063  27.371  1.00  0.00     0.010 A 
ATOM     63  C   UNL A   1      51.179  26.436  24.750  1.00  0.00     0.020 A 
ATOM     64  C   UNL A   1      51.537  25.603  27.005  1.00  0.00     0.020 A 
ATOM     65  C   UNL A   1      51.977  25.779  25.691  1.00  0.00     0.054 A 
BRANCH  65  66
ATOM     66  S   UNL A   1      53.618  25.188  25.192  1.00  0.00     0.124 S 
ATOM     67  O   UNL A   1      53.699  25.650  23.809  1.00  0.00    -0.237 OA
ATOM     68  O   UNL A   1      54.506  25.865  26.134  1.00  0.00    -0.237 OA
ATOM     69  O   UNL A   1      53.529  23.739  25.361  1.00  0.00    -0.744 OA
ENDBRANCH  65  66
ENDBRANCH  39  60
ENDBRANCH  13  14
ENDBRANCH   6   8
ENDBRANCH   3   4
ENDBRANCH   2   3
ENDBRANCH   1   2
BRANCH   1  70
ATOM     70  C   UNL A   1      33.845  28.697  26.792  1.00  0.00     0.002 C 
BRANCH  70  71
ATOM     71  C   UNL A   1      32.448  29.226  27.140  1.00  0.00     0.021 C 
BRANCH  71  72
ATOM     72  C   UNL A   1      31.711  29.935  26.008  1.00  0.00     0.116 C 
BRANCH  72  73
ATOM     73  N   UNL A   1      32.339  29.722  24.716  1.00  0.00    -0.352 N 
ATOM     74  C   UNL A   1      31.941  28.950  23.659  1.00  0.00     0.259 C 
ATOM     75  H   UNL A   1      33.183  30.209  24.580  1.00  0.00     0.163 HD
ATOM     76  O   UNL A   1      32.651  28.858  22.667  1.00  0.00    -0.269 OA
BRANCH  74  77
ATOM     77  C   UNL A   1      30.669  28.210  23.728  1.00  0.00     0.130 A 
ATOM     78  C   UNL A   1      30.644  26.920  24.266  1.00  0.00     0.060 A 
ATOM     79  C   UNL A   1      29.478  28.722  23.204  1.00  0.00     0.282 A 
ATOM     80  C   UNL A   1      29.447  26.184  24.296  1.00  0.00     0.015 A 
ATOM     81  C   UNL A   1      28.263  28.020  23.291  1.00  0.00     0.086 A 
ATOM     82  C   UNL A   1      28.252  26.748  23.851  1.00  0.00     0.008 A 
BRANCH  78  83
ATOM     83  C   UNL A   1      31.883  26.216  24.629  1.00  0.00     0.259 C 
ATOM     84  O   UNL A   1      32.093  25.997  25.820  1.00  0.00    -0.269 OA
BRANCH  83  85
ATOM     85  N   UNL A   1      32.778  25.909  23.602  1.00  0.00    -0.308 N 
ATOM     86  C   UNL A   1      32.198  25.287  22.387  1.00  0.00     0.131 C 
ATOM     87  C   UNL A   1      33.871  25.084  23.980  1.00  0.00     0.047 A 
ATOM     88  C   UNL A   1      32.983  24.008  22.062  1.00  0.00     0.059 C 
ATOM     89  C   UNL A   1      33.907  23.916  23.225  1.00  0.00    -0.022 A 
ATOM     90  C   UNL A   1      34.705  25.255  25.072  1.00  0.00     0.026 A 
ATOM     91  C   UNL A   1      34.677  22.836  23.631  1.00  0.00     0.006 A 
ATOM     92  C   UNL A   1      35.494  24.181  25.484  1.00  0.00     0.002 A 
ATOM     93  C   UNL A   1      35.449  22.966  24.788  1.00  0.00     0.000 A 
ENDBRANCH  83  85
ENDBRANCH  78  83
BRANCH  79  94
ATOM     94  N   UNL A   1      29.467  29.973  22.472  1.00  0.00     0.063 N 
ATOM     95  O   UNL A   1      29.688  29.906  21.257  1.00  0.00    -0.258 OA
ATOM     96  O   UNL A   1      29.272  31.010  23.115  1.00  0.00    -0.258 OA
ENDBRANCH  79  94
ENDBRANCH  74  77
ENDBRANCH  72  73
ENDBRANCH  71  72
ENDBRANCH  70  71
ENDBRANCH   1  70
TORSDOF 19
ENDMDL
MODEL 2
REMARK VINA RESULT:     -12.1      4.147     11.435
REMARK SMILES O=C(NCCCCCCNC(=O)c1c(C(=O)N2CCc3ccccc32)cccc1[N+](=O)[O-])c1ccc(-c2c3nc(c(-c4ccc(S(=O)(=O)[O-])cc4)c4ccc([nH]4)c(-c4ccc(S(=O)(=O)[O-])cc4)c4nc(c(-c5ccc(S(=O)(=O)[O-])cc5)c5ccc2[nH]5)C=C4)C=C3)cc1
REMARK SMILES IDX 6 1 5 2 4 3 3 4 1 5 2 6 33 8 34 9 92 10 35 11 91 12 36 13
REMARK SMILES IDX 37 14 38 15 85 16 39 17 90 18 84 19 86 20 40 21 89 22 83 23
REMARK SMILES IDX 82 24 41 26 71 27 52 28 70 29 53 30 56 31 69 32 87 33 54 34
REMARK SMILES IDX 55 35 68 37 88 38 57 39 42 40 43 41 51 42 44 43 50 44 45 45
REMARK SMILES IDX 46 46 47 47 48 48 49 49 72 50 73 51 81 52 74 53 80 54 75 55
REMARK SMILES IDX 76 56 77 57 78 58 79 59 58 60 59 61 67 62 60 63 66 64 61 65
REMARK SMILES IDX 62 66 63 67 64 68 65 69 7 70 8 71 9 72 10 73 11 74 12 76
REMARK SMILES IDX 13 77 14 78 29 79 26 80 28 81 27 82 15 83 16 84 17 85 18 86
REMARK SMILES IDX 25 87 19 88 20 89 24 90 21 91 23 92 22 93 30 94 31 95 32 96
REMARK H PARENT 3 7 86 25 56 36 10 75
REMARK Flexibility Score: inf
ROOT
ATOM      1  C   UNL A   1      36.009  32.823  30.526  1.00  0.00     0.002 C 
ENDROOT
BRANCH   1   2
ATOM      2  C   UNL A   1      34.599  32.724  29.942  1.00  0.00     0.021 C 
BRANCH   2   3
ATOM      3  C   UNL A   1      34.525  32.485  28.440  1.00  0.00     0.116 C 
BRANCH   3   4
ATOM      4  N   UNL A   1      33.907  31.217  28.092  1.00  0.00    -0.352 N 
ATOM      5  O   UNL A   1      33.831  29.029  27.555  1.00  0.00    -0.269 OA
ATOM      6  C   UNL A   1      34.488  29.976  27.962  1.00  0.00     0.251 C 
ATOM      7  H   UNL A   1      32.937  31.250  27.927  1.00  0.00     0.163 HD
BRANCH   6   8
ATOM      8  C   UNL A   1      35.925  29.804  28.286  1.00  0.00     0.039 A 
ATOM      9  C   UNL A   1      36.913  30.061  27.333  1.00  0.00     0.014 A 
ATOM     10  C   UNL A   1      36.280  29.366  29.564  1.00  0.00     0.014 A 
ATOM     11  C   UNL A   1      38.239  29.744  27.610  1.00  0.00     0.010 A 
ATOM     12  C   UNL A   1      37.623  29.123  29.867  1.00  0.00     0.010 A 
ATOM     13  C   UNL A   1      38.611  29.272  28.880  1.00  0.00    -0.014 A 
BRANCH  13  14
ATOM     14  C   UNL A   1      40.039  28.977  29.163  1.00  0.00     0.031 A 
ATOM     15  C   UNL A   1      40.653  27.659  28.773  1.00  0.00     0.074 A 
ATOM     16  C   UNL A   1      40.794  29.923  29.754  1.00  0.00     0.049 A 
ATOM     17  N   UNL A   1      41.892  27.258  28.908  1.00  0.00    -0.248 NA
ATOM     18  C   UNL A   1      39.764  26.661  28.160  1.00  0.00     0.031 C 
ATOM     19  C   UNL A   1      40.314  31.239  30.182  1.00  0.00     0.029 A 
ATOM     20  N   UNL A   1      42.127  29.935  30.077  1.00  0.00    -0.354 N 
ATOM     21  C   UNL A   1      41.928  25.955  28.424  1.00  0.00     0.074 A 
ATOM     22  C   UNL A   1      40.580  25.627  28.008  1.00  0.00     0.031 C 
ATOM     23  C   UNL A   1      41.345  31.950  30.658  1.00  0.00     0.029 A 
ATOM     24  C   UNL A   1      42.548  31.124  30.623  1.00  0.00     0.049 A 
ATOM     25  H   UNL A   1      42.725  29.167  29.930  1.00  0.00     0.167 HD
ATOM     26  C   UNL A   1      42.984  25.110  28.333  1.00  0.00     0.031 A 
ATOM     27  C   UNL A   1      43.763  31.510  31.053  1.00  0.00     0.031 A 
ATOM     28  C   UNL A   1      44.325  25.441  28.745  1.00  0.00     0.049 A 
ATOM     29  C   UNL A   1      44.914  30.553  30.952  1.00  0.00     0.074 A 
ATOM     30  C   UNL A   1      45.468  24.666  28.659  1.00  0.00     0.029 A 
ATOM     31  N   UNL A   1      44.701  26.643  29.326  1.00  0.00    -0.354 N 
ATOM     32  N   UNL A   1      44.932  29.338  30.462  1.00  0.00    -0.248 NA
ATOM     33  C   UNL A   1      46.210  31.023  31.460  1.00  0.00     0.031 C 
ATOM     34  C   UNL A   1      46.527  25.382  29.229  1.00  0.00     0.029 A 
ATOM     35  C   UNL A   1      46.054  26.624  29.622  1.00  0.00     0.049 A 
ATOM     36  H   UNL A   1      44.096  27.399  29.501  1.00  0.00     0.167 HD
ATOM     37  C   UNL A   1      46.247  28.902  30.582  1.00  0.00     0.074 A 
ATOM     38  C   UNL A   1      46.994  29.992  31.181  1.00  0.00     0.031 C 
ATOM     39  C   UNL A   1      46.785  27.711  30.224  1.00  0.00     0.031 A 
BRANCH  26  40
ATOM     40  C   UNL A   1      42.720  23.726  27.798  1.00  0.00    -0.014 A 
ATOM     41  C   UNL A   1      42.315  22.679  28.644  1.00  0.00     0.010 A 
ATOM     42  C   UNL A   1      42.865  23.477  26.421  1.00  0.00     0.010 A 
ATOM     43  C   UNL A   1      42.110  21.394  28.131  1.00  0.00     0.020 A 
ATOM     44  C   UNL A   1      42.637  22.199  25.900  1.00  0.00     0.020 A 
ATOM     45  C   UNL A   1      42.284  21.160  26.764  1.00  0.00     0.054 A 
BRANCH  45  46
ATOM     46  S   UNL A   1      42.023  19.482  26.122  1.00  0.00     0.124 S 
ATOM     47  O   UNL A   1      42.853  19.491  24.919  1.00  0.00    -0.237 OA
ATOM     48  O   UNL A   1      42.507  18.641  27.213  1.00  0.00    -0.237 OA
ATOM     49  O   UNL A   1      40.583  19.422  25.885  1.00  0.00    -0.744 OA
ENDBRANCH  45  46
ENDBRANCH  26  40
BRANCH  27  50
ATOM     50  C   UNL A   1      43.943  32.881  31.598  1.00  0.00    -0.014 A 
ATOM     51  C   UNL A   1      44.489  33.898  30.797  1.00  0.00     0.010 A 
ATOM     52  C   UNL A   1      43.517  33.191  32.903  1.00  0.00     0.010 A 
ATOM     53  C   UNL A   1      44.606  35.200  31.290  1.00  0.00     0.020 A 
ATOM     54  C   UNL A   1      43.609  34.496  33.391  1.00  0.00     0.020 A 
ATOM     55  C   UNL A   1      44.159  35.493  32.582  1.00  0.00     0.054 A 
BRANCH  55  56
ATOM     56  S   UNL A   1      44.243  37.206  33.170  1.00  0.00     0.124 S 
ATOM     57  O   UNL A   1      45.641  37.321  33.572  1.00  0.00    -0.237 OA
ATOM     58  O   UNL A   1      43.861  37.968  31.982  1.00  0.00    -0.237 OA
ATOM     59  O   UNL A   1      43.270  37.239  34.260  1.00  0.00    -0.744 OA
ENDBRANCH  55  56
ENDBRANCH  27  50
BRANCH  39  60
ATOM     60  C   UNL A   1      48.263  27.535  30.440  1.00  0.00    -0.014 A 
ATOM     61  C   UNL A   1      49.192  27.891  29.446  1.00  0.00     0.010 A 
ATOM     62  C   UNL A   1      48.728  27.032  31.668  1.00  0.00     0.010 A 
ATOM     63  C   UNL A   1      50.561  27.712  29.665  1.00  0.00     0.020 A 
ATOM     64  C   UNL A   1      50.096  26.875  31.899  1.00  0.00     0.020 A 
ATOM     65  C   UNL A   1      51.004  27.202  30.889  1.00  0.00     0.054 A 
BRANCH  65  66
ATOM     66  S   UNL A   1      52.786  27.005  31.164  1.00  0.00     0.124 S 
ATOM     67  O   UNL A   1      53.243  26.525  29.863  1.00  0.00    -0.237 OA
ATOM     68  O   UNL A   1      53.210  28.357  31.520  1.00  0.00    -0.237 OA
ATOM     69  O   UNL A   1      52.861  26.030  32.250  1.00  0.00    -0.744 OA
ENDBRANCH  65  66
ENDBRANCH  39  60
ENDBRANCH  13  14
ENDBRANCH   6   8
ENDBRANCH   3   4
ENDBRANCH   2   3
ENDBRANCH   1   2
BRANCH   1  70
ATOM     70  C   UNL A   1      36.114  32.729  32.051  1.00  0.00     0.002 C 
BRANCH  70  71
ATOM     71  C   UNL A   1      36.439  31.346  32.628  1.00  0.00     0.021 C 
BRANCH  71  72
ATOM     72  C   UNL A   1      37.803  31.215  33.299  1.00  0.00     0.116 C 
BRANCH  72  73
ATOM     73  N   UNL A   1      37.741  30.465  34.541  1.00  0.00    -0.352 N 
ATOM     74  C   UNL A   1      38.351  30.699  35.743  1.00  0.00     0.259 C 
ATOM     75  H   UNL A   1      37.171  29.663  34.514  1.00  0.00     0.163 HD
ATOM     76  O   UNL A   1      38.215  29.903  36.663  1.00  0.00    -0.269 OA
BRANCH  74  77
ATOM     77  C   UNL A   1      39.193  31.894  35.919  1.00  0.00     0.130 A 
ATOM     78  C   UNL A   1      40.576  31.803  35.738  1.00  0.00     0.060 A 
ATOM     79  C   UNL A   1      38.668  33.122  36.337  1.00  0.00     0.282 A 
ATOM     80  C   UNL A   1      41.397  32.925  35.947  1.00  0.00     0.015 A 
ATOM     81  C   UNL A   1      39.473  34.265  36.483  1.00  0.00     0.086 A 
ATOM     82  C   UNL A   1      40.844  34.162  36.276  1.00  0.00     0.008 A 
BRANCH  78  83
ATOM     83  C   UNL A   1      41.239  30.508  35.523  1.00  0.00     0.259 C 
ATOM     84  O   UNL A   1      41.455  29.801  36.505  1.00  0.00    -0.269 OA
BRANCH  83  85
ATOM     85  N   UNL A   1      41.650  30.200  34.224  1.00  0.00    -0.308 N 
ATOM     86  C   UNL A   1      40.836  29.195  33.498  1.00  0.00     0.131 C 
ATOM     87  C   UNL A   1      43.000  29.772  34.104  1.00  0.00     0.047 A 
ATOM     88  C   UNL A   1      41.770  28.103  32.952  1.00  0.00     0.059 C 
ATOM     89  C   UNL A   1      43.080  28.506  33.533  1.00  0.00    -0.022 A 
ATOM     90  C   UNL A   1      44.118  30.385  34.642  1.00  0.00     0.026 A 
ATOM     91  C   UNL A   1      44.250  27.767  33.614  1.00  0.00     0.006 A 
ATOM     92  C   UNL A   1      45.305  29.658  34.720  1.00  0.00     0.002 A 
ATOM     93  C   UNL A   1      45.358  28.341  34.242  1.00  0.00     0.000 A 
ENDBRANCH  83  85
ENDBRANCH  78  83
BRANCH  79  94
ATOM     94  N   UNL A   1      37.275  33.242  36.717  1.00  0.00     0.063 N 
ATOM     95  O   UNL A   1      36.996  32.974  37.892  1.00  0.00    -0.258 OA
ATOM     96  O   UNL A   1      36.470  33.569  35.839  1.00  0.00    -0.258 OA
ENDBRANCH  79  94
ENDBRANCH  74  77
ENDBRANCH  72  73
ENDBRANCH  71  72
ENDBRANCH  70  71
ENDBRANCH   1  70
TORSDOF 19
ENDMDL
MODEL 3
REMARK VINA RESULT:     -11.9      6.105     11.678
REMARK SMILES O=C(NCCCCCCNC(=O)c1c(C(=O)N2CCc3ccccc32)cccc1[N+](=O)[O-])c1ccc(-c2c3nc(c(-c4ccc(S(=O)(=O)[O-])cc4)c4ccc([nH]4)c(-c4ccc(S(=O)(=O)[O-])cc4)c4nc(c(-c5ccc(S(=O)(=O)[O-])cc5)c5ccc2[nH]5)C=C4)C=C3)cc1
REMARK SMILES IDX 6 1 5 2 4 3 3 4 1 5 2 6 33 8 34 9 92 10 35 11 91 12 36 13
REMARK SMILES IDX 37 14 38 15 85 16 39 17 90 18 84 19 86 20 40 21 89 22 83 23
REMARK SMILES IDX 82 24 41 26 71 27 52 28 70 29 53 30 56 31 69 32 87 33 54 34
REMARK SMILES IDX 55 35 68 37 88 38 57 39 42 40 43 41 51 42 44 43 50 44 45 45
REMARK SMILES IDX 46 46 47 47 48 48 49 49 72 50 73 51 81 52 74 53 80 54 75 55
REMARK SMILES IDX 76 56 77 57 78 58 79 59 58 60 59 61 67 62 60 63 66 64 61 65
REMARK SMILES IDX 62 66 63 67 64 68 65 69 7 70 8 71 9 72 10 73 11 74 12 76
REMARK SMILES IDX 13 77 14 78 29 79 26 80 28 81 27 82 15 83 16 84 17 85 18 86
REMARK SMILES IDX 25 87 19 88 20 89 24 90 21 91 23 92 22 93 30 94 31 95 32 96
REMARK H PARENT 3 7 86 25 56 36 10 75
REMARK Flexibility Score: inf
ROOT
ATOM      1  C   UNL A   1      38.677  22.424  25.851  1.00  0.00     0.002 C 
ENDROOT
BRANCH   1   2
ATOM      2  C   UNL A   1      39.867  22.018  26.721  1.00  0.00     0.021 C 
BRANCH   2   3
ATOM      3  C   UNL A   1      40.761  23.159  27.186  1.00  0.00     0.116 C 
BRANCH   3   4
ATOM      4  N   UNL A   1      41.298  23.949  26.092  1.00  0.00    -0.352 N 
ATOM      5  O   UNL A   1      41.935  25.818  25.004  1.00  0.00    -0.269 OA
ATOM      6  C   UNL A   1      41.586  25.295  26.052  1.00  0.00     0.251 C 
ATOM      7  H   UNL A   1      41.483  23.451  25.262  1.00  0.00     0.163 HD
BRANCH   6   8
ATOM      8  C   UNL A   1      41.435  26.111  27.281  1.00  0.00     0.039 A 
ATOM      9  C   UNL A   1      40.360  25.910  28.150  1.00  0.00     0.014 A 
ATOM     10  C   UNL A   1      42.382  27.100  27.554  1.00  0.00     0.014 A 
ATOM     11  C   UNL A   1      40.155  26.788  29.210  1.00  0.00     0.010 A 
ATOM     12  C   UNL A   1      42.216  27.933  28.665  1.00  0.00     0.010 A 
ATOM     13  C   UNL A   1      41.080  27.809  29.481  1.00  0.00    -0.014 A 
BRANCH  13  14
ATOM     14  C   UNL A   1      40.858  28.710  30.641  1.00  0.00     0.031 A 
ATOM     15  C   UNL A   1      41.753  28.657  31.849  1.00  0.00     0.074 A 
ATOM     16  C   UNL A   1      39.852  29.604  30.587  1.00  0.00     0.049 A 
ATOM     17  N   UNL A   1      41.724  29.401  32.927  1.00  0.00    -0.248 NA
ATOM     18  C   UNL A   1      42.812  27.637  31.855  1.00  0.00     0.031 C 
ATOM     19  C   UNL A   1      38.914  29.751  29.471  1.00  0.00     0.029 A 
ATOM     20  N   UNL A   1      39.463  30.572  31.476  1.00  0.00    -0.354 N 
ATOM     21  C   UNL A   1      42.738  28.923  33.749  1.00  0.00     0.074 A 
ATOM     22  C   UNL A   1      43.353  27.813  33.053  1.00  0.00     0.031 C 
ATOM     23  C   UNL A   1      38.096  30.784  29.717  1.00  0.00     0.029 A 
ATOM     24  C   UNL A   1      38.412  31.337  31.030  1.00  0.00     0.049 A 
ATOM     25  H   UNL A   1      39.896  30.708  32.350  1.00  0.00     0.167 HD
ATOM     26  C   UNL A   1      43.123  29.368  34.971  1.00  0.00     0.031 A 
ATOM     27  C   UNL A   1      37.768  32.367  31.610  1.00  0.00     0.031 A 
ATOM     28  C   UNL A   1      42.511  30.476  35.660  1.00  0.00     0.049 A 
ATOM     29  C   UNL A   1      38.205  32.834  32.967  1.00  0.00     0.074 A 
ATOM     30  C   UNL A   1      42.854  31.024  36.884  1.00  0.00     0.029 A 
ATOM     31  N   UNL A   1      41.426  31.200  35.189  1.00  0.00    -0.354 N 
ATOM     32  N   UNL A   1      39.187  32.388  33.712  1.00  0.00    -0.248 NA
ATOM     33  C   UNL A   1      37.448  33.945  33.558  1.00  0.00     0.031 C 
ATOM     34  C   UNL A   1      41.949  32.052  37.173  1.00  0.00     0.029 A 
ATOM     35  C   UNL A   1      41.074  32.177  36.105  1.00  0.00     0.049 A 
ATOM     36  H   UNL A   1      40.974  31.044  34.328  1.00  0.00     0.167 HD
ATOM     37  C   UNL A   1      39.181  33.180  34.855  1.00  0.00     0.074 A 
ATOM     38  C   UNL A   1      38.104  34.138  34.694  1.00  0.00     0.031 C 
ATOM     39  C   UNL A   1      39.996  33.120  35.936  1.00  0.00     0.031 A 
BRANCH  26  40
ATOM     40  C   UNL A   1      44.241  28.626  35.658  1.00  0.00    -0.014 A 
ATOM     41  C   UNL A   1      43.984  27.532  36.501  1.00  0.00     0.010 A 
ATOM     42  C   UNL A   1      45.573  29.024  35.440  1.00  0.00     0.010 A 
ATOM     43  C   UNL A   1      45.034  26.881  37.157  1.00  0.00     0.020 A 
ATOM     44  C   UNL A   1      46.628  28.359  36.074  1.00  0.00     0.020 A 
ATOM     45  C   UNL A   1      46.349  27.307  36.947  1.00  0.00     0.054 A 
BRANCH  45  46
ATOM     46  S   UNL A   1      47.695  26.454  37.816  1.00  0.00     0.124 S 
ATOM     47  O   UNL A   1      47.145  26.326  39.164  1.00  0.00    -0.237 OA
ATOM     48  O   UNL A   1      47.821  25.206  37.069  1.00  0.00    -0.237 OA
ATOM     49  O   UNL A   1      48.825  27.370  37.687  1.00  0.00    -0.744 OA
ENDBRANCH  45  46
ENDBRANCH  26  40
BRANCH  27  50
ATOM     50  C   UNL A   1      36.653  33.032  30.885  1.00  0.00    -0.014 A 
ATOM     51  C   UNL A   1      35.330  32.889  31.333  1.00  0.00     0.010 A 
ATOM     52  C   UNL A   1      36.917  33.858  29.777  1.00  0.00     0.010 A 
ATOM     53  C   UNL A   1      34.288  33.559  30.686  1.00  0.00     0.020 A 
ATOM     54  C   UNL A   1      35.883  34.549  29.143  1.00  0.00     0.020 A 
ATOM     55  C   UNL A   1      34.572  34.391  29.599  1.00  0.00     0.054 A 
BRANCH  55  56
ATOM     56  S   UNL A   1      33.217  35.317  28.828  1.00  0.00     0.124 S 
ATOM     57  O   UNL A   1      32.507  35.840  29.991  1.00  0.00    -0.237 OA
ATOM     58  O   UNL A   1      33.928  36.307  28.022  1.00  0.00    -0.237 OA
ATOM     59  O   UNL A   1      32.502  34.299  28.061  1.00  0.00    -0.744 OA
ENDBRANCH  55  56
ENDBRANCH  27  50
BRANCH  39  60
ATOM     60  C   UNL A   1      39.777  34.143  37.017  1.00  0.00    -0.014 A 
ATOM     61  C   UNL A   1      39.052  33.832  38.180  1.00  0.00     0.010 A 
ATOM     62  C   UNL A   1      40.332  35.428  36.876  1.00  0.00     0.010 A 
ATOM     63  C   UNL A   1      38.856  34.800  39.169  1.00  0.00     0.020 A 
ATOM     64  C   UNL A   1      40.159  36.390  37.873  1.00  0.00     0.020 A 
ATOM     65  C   UNL A   1      39.407  36.074  39.007  1.00  0.00     0.054 A 
BRANCH  65  66
ATOM     66  S   UNL A   1      39.165  37.308  40.314  1.00  0.00     0.124 S 
ATOM     67  O   UNL A   1      38.512  36.522  41.357  1.00  0.00    -0.237 OA
ATOM     68  O   UNL A   1      40.530  37.737  40.611  1.00  0.00    -0.237 OA
ATOM     69  O   UNL A   1      38.325  38.322  39.680  1.00  0.00    -0.744 OA
ENDBRANCH  65  66
ENDBRANCH  39  60
ENDBRANCH  13  14
ENDBRANCH   6   8
ENDBRANCH   3   4
ENDBRANCH   2   3
ENDBRANCH   1   2
BRANCH   1  70
ATOM     70  C   UNL A   1      37.841  23.602  26.360  1.00  0.00     0.002 C 
BRANCH  70  71
ATOM     71  C   UNL A   1      36.486  23.822  25.676  1.00  0.00     0.021 C 
BRANCH  71  72
ATOM     72  C   UNL A   1      35.676  22.560  25.395  1.00  0.00     0.116 C 
BRANCH  72  73
ATOM     73  N   UNL A   1      34.591  22.375  26.341  1.00  0.00    -0.352 N 
ATOM     74  C   UNL A   1      33.270  22.091  26.123  1.00  0.00     0.259 C 
ATOM     75  H   UNL A   1      34.845  22.467  27.287  1.00  0.00     0.163 HD
ATOM     76  O   UNL A   1      32.494  22.031  27.067  1.00  0.00    -0.269 OA
BRANCH  74  77
ATOM     77  C   UNL A   1      32.780  21.885  24.749  1.00  0.00     0.130 A 
ATOM     78  C   UNL A   1      32.251  22.961  24.032  1.00  0.00     0.060 A 
ATOM     79  C   UNL A   1      32.755  20.622  24.147  1.00  0.00     0.282 A 
ATOM     80  C   UNL A   1      31.737  22.769  22.737  1.00  0.00     0.015 A 
ATOM     81  C   UNL A   1      32.306  20.435  22.829  1.00  0.00     0.086 A 
ATOM     82  C   UNL A   1      31.804  21.521  22.121  1.00  0.00     0.008 A 
BRANCH  78  83
ATOM     83  C   UNL A   1      32.027  24.270  24.664  1.00  0.00     0.259 C 
ATOM     84  O   UNL A   1      30.867  24.643  24.822  1.00  0.00    -0.269 OA
BRANCH  83  85
ATOM     85  N   UNL A   1      33.152  25.039  24.973  1.00  0.00    -0.308 N 
ATOM     86  C   UNL A   1      33.146  25.710  26.296  1.00  0.00     0.131 C 
ATOM     87  C   UNL A   1      33.474  26.045  24.024  1.00  0.00     0.047 A 
ATOM     88  C   UNL A   1      33.452  27.203  26.094  1.00  0.00     0.059 C 
ATOM     89  C   UNL A   1      33.487  27.307  24.610  1.00  0.00    -0.022 A 
ATOM     90  C   UNL A   1      33.575  25.894  22.651  1.00  0.00     0.026 A 
ATOM     91  C   UNL A   1      33.457  28.450  23.826  1.00  0.00     0.006 A 
ATOM     92  C   UNL A   1      33.559  27.036  21.851  1.00  0.00     0.002 A 
ATOM     93  C   UNL A   1      33.461  28.306  22.436  1.00  0.00     0.000 A 
ENDBRANCH  83  85
ENDBRANCH  78  83
BRANCH  79  94
ATOM     94  N   UNL A   1      33.119  19.436  24.896  1.00  0.00     0.063 N 
ATOM     95  O   UNL A   1      34.307  19.094  24.849  1.00  0.00    -0.258 OA
ATOM     96  O   UNL A   1      32.218  18.841  25.497  1.00  0.00    -0.258 OA
ENDBRANCH  79  94
ENDBRANCH  74  77
ENDBRANCH  72  73
ENDBRANCH  71  72
ENDBRANCH  70  71
ENDBRANCH   1  70
TORSDOF 19
ENDMDL
