MODEL 1
REMARK VINA RESULT:     -11.5      0.000      0.000
REMARK SMILES C[C@H]1CC=C(C2=NN=C(C(=O)NCCCCCCNC(=O)c3ccc(-c4c5nc(c(-c6ccc(S(=O)(=O)[O-])cc6)c6ccc([nH]6)c(-c6ccc(S(=O)(=O)[O-])cc6)c6nc(c(-c7ccc(S(=O)(=O)[O-])cc7)c7ccc4[nH]7)C=C6)C=C5)cc3)C2)O1
REMARK SMILES IDX 16 1 15 2 14 3 13 4 12 5 10 6 11 7 9 9 6 10 7 11 82 12 8 13
REMARK SMILES IDX 5 14 1 15 2 16 3 17 83 18 4 19 17 20 18 21 19 22 20 23 21 25
REMARK SMILES IDX 22 26 23 27 81 28 24 29 80 30 25 31 26 32 27 33 74 34 28 35
REMARK SMILES IDX 79 36 73 37 75 38 29 39 78 40 72 41 71 42 30 44 60 45 41 46
REMARK SMILES IDX 59 47 42 48 45 49 58 50 76 51 43 52 44 53 57 55 77 56 46 57
REMARK SMILES IDX 31 58 32 59 40 60 33 61 39 62 34 63 35 64 36 65 37 66 38 67
REMARK SMILES IDX 61 68 62 69 70 70 63 71 69 72 64 73 65 74 66 75 67 76 68 77
REMARK SMILES IDX 47 78 48 79 56 80 49 81 55 82 50 83 51 84 52 85 53 86 54 87
REMARK H PARENT 12 8 19 24 75 43 45 54
REMARK Flexibility Score: inf
ROOT
ATOM      1  C   UNL A   1      39.142  22.024  26.372  1.00  0.00     0.002 C 
ENDROOT
BRANCH   1   2
ATOM      2  C   UNL A   1      37.732  22.196  25.790  1.00  0.00     0.002 C 
BRANCH   2   3
ATOM      3  C   UNL A   1      37.252  23.637  25.595  1.00  0.00     0.021 C 
BRANCH   3   4
ATOM      4  C   UNL A   1      35.736  23.826  25.597  1.00  0.00     0.116 C 
BRANCH   4   5
ATOM      5  N   UNL A   1      35.223  24.097  24.265  1.00  0.00    -0.351 N 
ATOM      6  C   UNL A   1      34.334  23.383  23.503  1.00  0.00     0.267 C 
ATOM      7  O   UNL A   1      34.028  23.763  22.376  1.00  0.00    -0.268 OA
ATOM      8  H   UNL A   1      35.566  24.918  23.846  1.00  0.00     0.163 HD
BRANCH   6   9
ATOM      9  C   UNL A   1      33.671  22.136  24.018  1.00  0.00     0.134 C 
ATOM     10  C   UNL A   1      33.334  20.024  24.646  1.00  0.00     0.111 C 
ATOM     11  N   UNL A   1      32.182  20.623  24.591  1.00  0.00    -0.151 NA
ATOM     12  C   UNL A   1      34.478  20.916  24.291  1.00  0.00     0.126 C 
ATOM     13  N   UNL A   1      32.395  21.965  24.176  1.00  0.00    -0.149 NA
BRANCH  10  14
ATOM     14  C   UNL A   1      33.539  18.597  24.931  1.00  0.00     0.139 C 
ATOM     15  C   UNL A   1      35.506  15.797  25.337  1.00  0.00     0.053 C 
ATOM     16  C   UNL A   1      34.308  16.516  24.737  1.00  0.00     0.174 C 
ATOM     17  C   UNL A   1      33.089  16.485  25.668  1.00  0.00     0.076 C 
ATOM     18  O   UNL A   1      34.639  17.899  24.459  1.00  0.00    -0.489 OA
ATOM     19  C   UNL A   1      32.627  17.882  25.585  1.00  0.00     0.025 C 
ENDBRANCH  10  14
ENDBRANCH   6   9
ENDBRANCH   4   5
ENDBRANCH   3   4
ENDBRANCH   2   3
ENDBRANCH   1   2
BRANCH   1  20
ATOM     20  C   UNL A   1      39.932  20.794  25.904  1.00  0.00     0.021 C 
BRANCH  20  21
ATOM     21  C   UNL A   1      41.190  20.510  26.713  1.00  0.00     0.116 C 
BRANCH  21  22
ATOM     22  N   UNL A   1      42.412  20.736  25.945  1.00  0.00    -0.352 N 
ATOM     23  C   UNL A   1      43.015  21.945  25.646  1.00  0.00     0.251 C 
ATOM     24  H   UNL A   1      42.861  19.932  25.599  1.00  0.00     0.163 HD
ATOM     25  O   UNL A   1      43.788  22.042  24.708  1.00  0.00    -0.269 OA
BRANCH  23  26
ATOM     26  C   UNL A   1      42.697  23.114  26.487  1.00  0.00     0.039 A 
ATOM     27  C   UNL A   1      43.175  23.209  27.796  1.00  0.00     0.014 A 
ATOM     28  C   UNL A   1      41.938  24.141  25.928  1.00  0.00     0.014 A 
ATOM     29  C   UNL A   1      42.962  24.389  28.506  1.00  0.00     0.010 A 
ATOM     30  C   UNL A   1      41.834  25.346  26.584  1.00  0.00     0.010 A 
ATOM     31  C   UNL A   1      42.314  25.470  27.885  1.00  0.00    -0.014 A 
BRANCH  31  32
ATOM     32  C   UNL A   1      42.267  26.780  28.534  1.00  0.00     0.031 A 
ATOM     33  C   UNL A   1      43.442  27.651  28.255  1.00  0.00     0.074 A 
ATOM     34  C   UNL A   1      41.167  27.274  29.143  1.00  0.00     0.049 A 
ATOM     35  N   UNL A   1      44.369  28.012  29.079  1.00  0.00    -0.248 NA
ATOM     36  C   UNL A   1      43.691  28.059  26.862  1.00  0.00     0.031 C 
ATOM     37  C   UNL A   1      39.839  26.654  29.229  1.00  0.00     0.029 A 
ATOM     38  N   UNL A   1      40.963  28.498  29.707  1.00  0.00    -0.354 N 
ATOM     39  C   UNL A   1      45.185  28.890  28.370  1.00  0.00     0.074 A 
ATOM     40  C   UNL A   1      44.846  28.720  26.980  1.00  0.00     0.031 C 
ATOM     41  C   UNL A   1      38.925  27.586  29.574  1.00  0.00     0.029 A 
ATOM     42  C   UNL A   1      39.623  28.810  29.917  1.00  0.00     0.049 A 
ATOM     43  H   UNL A   1      41.699  29.108  29.945  1.00  0.00     0.167 HD
ATOM     44  C   UNL A   1      45.867  29.888  29.000  1.00  0.00     0.031 A 
ATOM     45  C   UNL A   1      39.109  29.990  30.340  1.00  0.00     0.031 A 
ATOM     46  C   UNL A   1      45.850  29.714  30.431  1.00  0.00     0.049 A 
ATOM     47  C   UNL A   1      40.192  30.705  31.049  1.00  0.00     0.074 A 
ATOM     48  C   UNL A   1      46.335  28.782  31.322  1.00  0.00     0.029 A 
ATOM     49  N   UNL A   1      44.884  30.435  31.090  1.00  0.00    -0.354 N 
ATOM     50  N   UNL A   1      40.725  30.273  32.157  1.00  0.00    -0.248 NA
ATOM     51  C   UNL A   1      40.963  31.715  30.341  1.00  0.00     0.031 C 
ATOM     52  C   UNL A   1      45.378  28.739  32.380  1.00  0.00     0.029 A 
ATOM     53  C   UNL A   1      44.384  29.686  32.121  1.00  0.00     0.049 A 
ATOM     54  H   UNL A   1      44.596  31.347  30.858  1.00  0.00     0.167 HD
ATOM     55  C   UNL A   1      42.065  30.606  32.052  1.00  0.00     0.074 A 
ATOM     56  C   UNL A   1      42.117  31.624  31.010  1.00  0.00     0.031 C 
ATOM     57  C   UNL A   1      43.025  29.813  32.613  1.00  0.00     0.031 A 
BRANCH  44  58
ATOM     58  C   UNL A   1      46.128  31.250  28.391  1.00  0.00    -0.014 A 
ATOM     59  C   UNL A   1      45.037  32.123  28.187  1.00  0.00     0.010 A 
ATOM     60  C   UNL A   1      47.335  31.581  27.742  1.00  0.00     0.010 A 
ATOM     61  C   UNL A   1      45.134  33.224  27.325  1.00  0.00     0.020 A 
ATOM     62  C   UNL A   1      47.454  32.700  26.915  1.00  0.00     0.020 A 
ATOM     63  C   UNL A   1      46.341  33.497  26.685  1.00  0.00     0.054 A 
BRANCH  63  64
ATOM     64  S   UNL A   1      46.433  34.859  25.495  1.00  0.00     0.124 S 
ATOM     65  O   UNL A   1      47.815  34.763  25.036  1.00  0.00    -0.237 OA
ATOM     66  O   UNL A   1      45.411  34.485  24.520  1.00  0.00    -0.237 OA
ATOM     67  O   UNL A   1      46.118  36.036  26.300  1.00  0.00    -0.744 OA
ENDBRANCH  63  64
ENDBRANCH  44  58
BRANCH  45  68
ATOM     68  C   UNL A   1      37.820  30.625  29.980  1.00  0.00    -0.014 A 
ATOM     69  C   UNL A   1      36.817  30.838  30.943  1.00  0.00     0.010 A 
ATOM     70  C   UNL A   1      37.690  31.281  28.739  1.00  0.00     0.010 A 
ATOM     71  C   UNL A   1      35.757  31.729  30.698  1.00  0.00     0.020 A 
ATOM     72  C   UNL A   1      36.635  32.167  28.486  1.00  0.00     0.020 A 
ATOM     73  C   UNL A   1      35.686  32.406  29.477  1.00  0.00     0.054 A 
BRANCH  73  74
ATOM     74  S   UNL A   1      34.420  33.689  29.239  1.00  0.00     0.124 S 
ATOM     75  O   UNL A   1      35.200  34.803  28.712  1.00  0.00    -0.237 OA
ATOM     76  O   UNL A   1      33.501  33.057  28.295  1.00  0.00    -0.237 OA
ATOM     77  O   UNL A   1      33.879  33.892  30.583  1.00  0.00    -0.744 OA
ENDBRANCH  73  74
ENDBRANCH  45  68
BRANCH  57  78
ATOM     78  C   UNL A   1      42.603  28.854  33.701  1.00  0.00    -0.014 A 
ATOM     79  C   UNL A   1      42.160  27.537  33.475  1.00  0.00     0.010 A 
ATOM     80  C   UNL A   1      42.767  29.286  35.029  1.00  0.00     0.010 A 
ATOM     81  C   UNL A   1      41.861  26.687  34.552  1.00  0.00     0.020 A 
ATOM     82  C   UNL A   1      42.491  28.442  36.105  1.00  0.00     0.020 A 
ATOM     83  C   UNL A   1      42.028  27.148  35.861  1.00  0.00     0.054 A 
BRANCH  83  84
ATOM     84  S   UNL A   1      41.672  26.041  37.255  1.00  0.00     0.124 S 
ATOM     85  O   UNL A   1      41.645  24.727  36.618  1.00  0.00    -0.237 OA
ATOM     86  O   UNL A   1      42.796  26.281  38.157  1.00  0.00    -0.237 OA
ATOM     87  O   UNL A   1      40.379  26.511  37.754  1.00  0.00    -0.744 OA
ENDBRANCH  83  84
ENDBRANCH  57  78
ENDBRANCH  31  32
ENDBRANCH  23  26
ENDBRANCH  21  22
ENDBRANCH  20  21
ENDBRANCH   1  20
TORSDOF 17
ENDMDL
MODEL 2
REMARK VINA RESULT:     -11.4      1.608      2.231
REMARK SMILES C[C@H]1CC=C(C2=NN=C(C(=O)NCCCCCCNC(=O)c3ccc(-c4c5nc(c(-c6ccc(S(=O)(=O)[O-])cc6)c6ccc([nH]6)c(-c6ccc(S(=O)(=O)[O-])cc6)c6nc(c(-c7ccc(S(=O)(=O)[O-])cc7)c7ccc4[nH]7)C=C6)C=C5)cc3)C2)O1
REMARK SMILES IDX 16 1 15 2 14 3 13 4 12 5 10 6 11 7 9 9 6 10 7 11 82 12 8 13
REMARK SMILES IDX 5 14 1 15 2 16 3 17 83 18 4 19 17 20 18 21 19 22 20 23 21 25
REMARK SMILES IDX 22 26 23 27 81 28 24 29 80 30 25 31 26 32 27 33 74 34 28 35
REMARK SMILES IDX 79 36 73 37 75 38 29 39 78 40 72 41 71 42 30 44 60 45 41 46
REMARK SMILES IDX 59 47 42 48 45 49 58 50 76 51 43 52 44 53 57 55 77 56 46 57
REMARK SMILES IDX 31 58 32 59 40 60 33 61 39 62 34 63 35 64 36 65 37 66 38 67
REMARK SMILES IDX 61 68 62 69 70 70 63 71 69 72 64 73 65 74 66 75 67 76 68 77
REMARK SMILES IDX 47 78 48 79 56 80 49 81 55 82 50 83 51 84 52 85 53 86 54 87
REMARK H PARENT 12 8 19 24 75 43 45 54
REMARK Flexibility Score: inf
ROOT
ATOM      1  C   UNL A   1      35.680  22.075  25.811  1.00  0.00     0.002 C 
ENDROOT
BRANCH   1   2
ATOM      2  C   UNL A   1      35.082  23.349  26.426  1.00  0.00     0.002 C 
BRANCH   2   3
ATOM      3  C   UNL A   1      34.757  24.483  25.449  1.00  0.00     0.021 C 
BRANCH   3   4
ATOM      4  C   UNL A   1      33.456  25.233  25.728  1.00  0.00     0.116 C 
BRANCH   4   5
ATOM      5  N   UNL A   1      32.585  25.256  24.565  1.00  0.00    -0.351 N 
ATOM      6  C   UNL A   1      31.963  24.224  23.912  1.00  0.00     0.267 C 
ATOM      7  O   UNL A   1      31.269  24.437  22.922  1.00  0.00    -0.268 OA
ATOM      8  H   UNL A   1      32.415  26.150  24.190  1.00  0.00     0.163 HD
BRANCH   6   9
ATOM      9  C   UNL A   1      32.070  22.804  24.391  1.00  0.00     0.134 C 
ATOM     10  C   UNL A   1      32.517  20.621  24.457  1.00  0.00     0.111 C 
ATOM     11  N   UNL A   1      31.755  20.913  25.469  1.00  0.00    -0.151 NA
ATOM     12  C   UNL A   1      32.846  21.804  23.608  1.00  0.00     0.126 C 
ATOM     13  N   UNL A   1      31.457  22.301  25.418  1.00  0.00    -0.149 NA
BRANCH  10  14
ATOM     14  C   UNL A   1      32.962  19.269  24.089  1.00  0.00     0.139 C 
ATOM     15  C   UNL A   1      34.388  16.209  24.783  1.00  0.00     0.053 C 
ATOM     16  C   UNL A   1      34.259  17.466  23.935  1.00  0.00     0.174 C 
ATOM     17  C   UNL A   1      33.152  17.343  22.882  1.00  0.00     0.076 C 
ATOM     18  O   UNL A   1      33.972  18.611  24.775  1.00  0.00    -0.489 OA
ATOM     19  C   UNL A   1      32.477  18.646  23.018  1.00  0.00     0.025 C 
ENDBRANCH  10  14
ENDBRANCH   6   9
ENDBRANCH   4   5
ENDBRANCH   3   4
ENDBRANCH   2   3
ENDBRANCH   1   2
BRANCH   1  20
ATOM     20  C   UNL A   1      36.743  22.272  24.723  1.00  0.00     0.021 C 
BRANCH  20  21
ATOM     21  C   UNL A   1      38.082  22.786  25.237  1.00  0.00     0.116 C 
BRANCH  21  22
ATOM     22  N   UNL A   1      38.697  21.878  26.202  1.00  0.00    -0.352 N 
ATOM     23  C   UNL A   1      39.751  22.138  27.059  1.00  0.00     0.251 C 
ATOM     24  H   UNL A   1      38.315  20.972  26.248  1.00  0.00     0.163 HD
ATOM     25  O   UNL A   1      40.413  21.228  27.528  1.00  0.00    -0.269 OA
BRANCH  23  26
ATOM     26  C   UNL A   1      40.059  23.542  27.388  1.00  0.00     0.039 A 
ATOM     27  C   UNL A   1      39.066  24.524  27.343  1.00  0.00     0.014 A 
ATOM     28  C   UNL A   1      41.358  23.858  27.781  1.00  0.00     0.014 A 
ATOM     29  C   UNL A   1      39.371  25.809  27.790  1.00  0.00     0.010 A 
ATOM     30  C   UNL A   1      41.622  25.090  28.333  1.00  0.00     0.010 A 
ATOM     31  C   UNL A   1      40.646  26.082  28.312  1.00  0.00    -0.014 A 
BRANCH  31  32
ATOM     32  C   UNL A   1      40.919  27.357  28.976  1.00  0.00     0.031 A 
ATOM     33  C   UNL A   1      42.067  28.116  28.411  1.00  0.00     0.074 A 
ATOM     34  C   UNL A   1      40.080  27.930  29.867  1.00  0.00     0.049 A 
ATOM     35  N   UNL A   1      43.214  28.339  28.963  1.00  0.00    -0.248 NA
ATOM     36  C   UNL A   1      41.985  28.565  27.010  1.00  0.00     0.031 C 
ATOM     37  C   UNL A   1      38.761  27.446  30.293  1.00  0.00     0.029 A 
ATOM     38  N   UNL A   1      40.171  29.139  30.490  1.00  0.00    -0.354 N 
ATOM     39  C   UNL A   1      43.906  29.162  28.080  1.00  0.00     0.074 A 
ATOM     40  C   UNL A   1      43.196  29.097  26.828  1.00  0.00     0.031 C 
ATOM     41  C   UNL A   1      38.081  28.448  30.888  1.00  0.00     0.029 A 
ATOM     42  C   UNL A   1      38.977  29.576  31.057  1.00  0.00     0.049 A 
ATOM     43  H   UNL A   1      41.006  29.659  30.535  1.00  0.00     0.167 HD
ATOM     44  C   UNL A   1      44.838  30.053  28.525  1.00  0.00     0.031 A 
ATOM     45  C   UNL A   1      38.728  30.780  31.626  1.00  0.00     0.031 A 
ATOM     46  C   UNL A   1      45.180  29.812  29.904  1.00  0.00     0.049 A 
ATOM     47  C   UNL A   1      40.032  31.345  32.033  1.00  0.00     0.074 A 
ATOM     48  C   UNL A   1      45.775  28.793  30.614  1.00  0.00     0.029 A 
ATOM     49  N   UNL A   1      44.508  30.595  30.812  1.00  0.00    -0.354 N 
ATOM     50  N   UNL A   1      40.787  30.807  32.950  1.00  0.00    -0.248 NA
ATOM     51  C   UNL A   1      40.697  32.304  31.165  1.00  0.00     0.031 C 
ATOM     52  C   UNL A   1      45.133  28.795  31.888  1.00  0.00     0.029 A 
ATOM     53  C   UNL A   1      44.218  29.851  31.924  1.00  0.00     0.049 A 
ATOM     54  H   UNL A   1      44.272  31.542  30.684  1.00  0.00     0.167 HD
ATOM     55  C   UNL A   1      42.080  31.005  32.497  1.00  0.00     0.074 A 
ATOM     56  C   UNL A   1      41.969  32.063  31.499  1.00  0.00     0.031 C 
ATOM     57  C   UNL A   1      43.060  30.092  32.764  1.00  0.00     0.031 A 
BRANCH  44  58
ATOM     58  C   UNL A   1      45.079  31.410  27.895  1.00  0.00    -0.014 A 
ATOM     59  C   UNL A   1      46.404  31.791  27.591  1.00  0.00     0.010 A 
ATOM     60  C   UNL A   1      44.104  32.428  27.871  1.00  0.00     0.010 A 
ATOM     61  C   UNL A   1      46.741  33.130  27.348  1.00  0.00     0.020 A 
ATOM     62  C   UNL A   1      44.423  33.758  27.588  1.00  0.00     0.020 A 
ATOM     63  C   UNL A   1      45.747  34.107  27.361  1.00  0.00     0.054 A 
BRANCH  63  64
ATOM     64  S   UNL A   1      46.202  35.846  27.148  1.00  0.00     0.124 S 
ATOM     65  O   UNL A   1      47.535  35.882  27.739  1.00  0.00    -0.237 OA
ATOM     66  O   UNL A   1      46.145  36.004  25.696  1.00  0.00    -0.237 OA
ATOM     67  O   UNL A   1      45.166  36.563  27.888  1.00  0.00    -0.744 OA
ENDBRANCH  63  64
ENDBRANCH  44  58
BRANCH  45  68
ATOM     68  C   UNL A   1      37.469  31.560  31.637  1.00  0.00    -0.014 A 
ATOM     69  C   UNL A   1      36.639  31.592  32.772  1.00  0.00     0.010 A 
ATOM     70  C   UNL A   1      37.227  32.506  30.620  1.00  0.00     0.010 A 
ATOM     71  C   UNL A   1      35.647  32.578  32.916  1.00  0.00     0.020 A 
ATOM     72  C   UNL A   1      36.239  33.489  30.754  1.00  0.00     0.020 A 
ATOM     73  C   UNL A   1      35.469  33.536  31.914  1.00  0.00     0.054 A 
BRANCH  73  74
ATOM     74  S   UNL A   1      34.313  34.913  32.188  1.00  0.00     0.124 S 
ATOM     75  O   UNL A   1      35.122  35.852  32.957  1.00  0.00    -0.237 OA
ATOM     76  O   UNL A   1      33.984  35.328  30.826  1.00  0.00    -0.237 OA
ATOM     77  O   UNL A   1      33.212  34.295  32.926  1.00  0.00    -0.744 OA
ENDBRANCH  73  74
ENDBRANCH  45  68
BRANCH  57  78
ATOM     78  C   UNL A   1      42.835  29.129  33.906  1.00  0.00    -0.014 A 
ATOM     79  C   UNL A   1      43.061  29.433  35.262  1.00  0.00     0.010 A 
ATOM     80  C   UNL A   1      42.265  27.884  33.585  1.00  0.00     0.010 A 
ATOM     81  C   UNL A   1      42.751  28.502  36.266  1.00  0.00     0.020 A 
ATOM     82  C   UNL A   1      41.937  26.961  34.578  1.00  0.00     0.020 A 
ATOM     83  C   UNL A   1      42.192  27.269  35.915  1.00  0.00     0.054 A 
BRANCH  83  84
ATOM     84  S   UNL A   1      41.761  26.076  37.214  1.00  0.00     0.124 S 
ATOM     85  O   UNL A   1      41.739  24.810  36.486  1.00  0.00    -0.237 OA
ATOM     86  O   UNL A   1      42.852  26.231  38.173  1.00  0.00    -0.237 OA
ATOM     87  O   UNL A   1      40.458  26.536  37.692  1.00  0.00    -0.744 OA
ENDBRANCH  83  84
ENDBRANCH  57  78
ENDBRANCH  31  32
ENDBRANCH  23  26
ENDBRANCH  21  22
ENDBRANCH  20  21
ENDBRANCH   1  20
TORSDOF 17
ENDMDL
MODEL 3
REMARK VINA RESULT:     -11.3      3.002      9.376
REMARK SMILES C[C@H]1CC=C(C2=NN=C(C(=O)NCCCCCCNC(=O)c3ccc(-c4c5nc(c(-c6ccc(S(=O)(=O)[O-])cc6)c6ccc([nH]6)c(-c6ccc(S(=O)(=O)[O-])cc6)c6nc(c(-c7ccc(S(=O)(=O)[O-])cc7)c7ccc4[nH]7)C=C6)C=C5)cc3)C2)O1
REMARK SMILES IDX 16 1 15 2 14 3 13 4 12 5 10 6 11 7 9 9 6 10 7 11 82 12 8 13
REMARK SMILES IDX 5 14 1 15 2 16 3 17 83 18 4 19 17 20 18 21 19 22 20 23 21 25
REMARK SMILES IDX 22 26 23 27 81 28 24 29 80 30 25 31 26 32 27 33 74 34 28 35
REMARK SMILES IDX 79 36 73 37 75 38 29 39 78 40 72 41 71 42 30 44 60 45 41 46
REMARK SMILES IDX 59 47 42 48 45 49 58 50 76 51 43 52 44 53 57 55 77 56 46 57
REMARK SMILES IDX 31 58 32 59 40 60 33 61 39 62 34 63 35 64 36 65 37 66 38 67
REMARK SMILES IDX 61 68 62 69 70 70 63 71 69 72 64 73 65 74 66 75 67 76 68 77
REMARK SMILES IDX 47 78 48 79 56 80 49 81 55 82 50 83 51 84 52 85 53 86 54 87
REMARK H PARENT 12 8 19 24 75 43 45 54
REMARK Flexibility Score: inf
ROOT
ATOM      1  C   UNL A   1      31.803  29.095  25.705  1.00  0.00     0.002 C 
ENDROOT
BRANCH   1   2
ATOM      2  C   UNL A   1      30.892  29.270  24.483  1.00  0.00     0.002 C 
BRANCH   2   3
ATOM      3  C   UNL A   1      30.342  27.985  23.859  1.00  0.00     0.021 C 
BRANCH   3   4
ATOM      4  C   UNL A   1      30.749  27.736  22.407  1.00  0.00     0.116 C 
BRANCH   4   5
ATOM      5  N   UNL A   1      32.088  28.230  22.129  1.00  0.00    -0.351 N 
ATOM      6  C   UNL A   1      33.264  27.542  21.973  1.00  0.00     0.267 C 
ATOM      7  O   UNL A   1      34.314  28.140  21.756  1.00  0.00    -0.268 OA
ATOM      8  H   UNL A   1      32.160  29.207  22.039  1.00  0.00     0.163 HD
BRANCH   6   9
ATOM      9  C   UNL A   1      33.317  26.042  22.021  1.00  0.00     0.134 C 
ATOM     10  C   UNL A   1      33.637  23.958  22.745  1.00  0.00     0.111 C 
ATOM     11  N   UNL A   1      33.419  23.916  21.465  1.00  0.00    -0.151 NA
ATOM     12  C   UNL A   1      33.595  25.342  23.304  1.00  0.00     0.126 C 
ATOM     13  N   UNL A   1      33.229  25.245  21.000  1.00  0.00    -0.149 NA
BRANCH  10  14
ATOM     14  C   UNL A   1      33.985  22.804  23.587  1.00  0.00     0.139 C 
ATOM     15  C   UNL A   1      33.720  19.501  24.534  1.00  0.00     0.053 C 
ATOM     16  C   UNL A   1      33.733  20.989  24.852  1.00  0.00     0.174 C 
ATOM     17  C   UNL A   1      35.155  21.522  25.067  1.00  0.00     0.076 C 
ATOM     18  O   UNL A   1      33.119  21.738  23.775  1.00  0.00    -0.489 OA
ATOM     19  C   UNL A   1      35.117  22.771  24.285  1.00  0.00     0.025 C 
ENDBRANCH  10  14
ENDBRANCH   6   9
ENDBRANCH   4   5
ENDBRANCH   3   4
ENDBRANCH   2   3
ENDBRANCH   1   2
BRANCH   1  20
ATOM     20  C   UNL A   1      33.303  28.934  25.426  1.00  0.00     0.021 C 
BRANCH  20  21
ATOM     21  C   UNL A   1      34.207  29.368  26.572  1.00  0.00     0.116 C 
BRANCH  21  22
ATOM     22  N   UNL A   1      34.075  30.790  26.881  1.00  0.00    -0.352 N 
ATOM     23  C   UNL A   1      34.723  31.507  27.870  1.00  0.00     0.251 C 
ATOM     24  H   UNL A   1      33.449  31.299  26.317  1.00  0.00     0.163 HD
ATOM     25  O   UNL A   1      34.268  32.563  28.276  1.00  0.00    -0.269 OA
BRANCH  23  26
ATOM     26  C   UNL A   1      35.977  30.963  28.425  1.00  0.00     0.039 A 
ATOM     27  C   UNL A   1      36.108  29.600  28.701  1.00  0.00     0.014 A 
ATOM     28  C   UNL A   1      37.041  31.838  28.631  1.00  0.00     0.014 A 
ATOM     29  C   UNL A   1      37.351  29.110  29.098  1.00  0.00     0.010 A 
ATOM     30  C   UNL A   1      38.293  31.337  28.904  1.00  0.00     0.010 A 
ATOM     31  C   UNL A   1      38.452  29.979  29.171  1.00  0.00    -0.014 A 
BRANCH  31  32
ATOM     32  C   UNL A   1      39.801  29.453  29.378  1.00  0.00     0.031 A 
ATOM     33  C   UNL A   1      40.188  29.286  30.806  1.00  0.00     0.074 A 
ATOM     34  C   UNL A   1      40.562  28.935  28.389  1.00  0.00     0.049 A 
ATOM     35  N   UNL A   1      41.065  29.964  31.470  1.00  0.00    -0.248 NA
ATOM     36  C   UNL A   1      39.412  28.347  31.634  1.00  0.00     0.031 C 
ATOM     37  C   UNL A   1      40.190  28.749  26.980  1.00  0.00     0.029 A 
ATOM     38  N   UNL A   1      41.787  28.341  28.457  1.00  0.00    -0.354 N 
ATOM     39  C   UNL A   1      41.126  29.376  32.729  1.00  0.00     0.074 A 
ATOM     40  C   UNL A   1      39.960  28.536  32.837  1.00  0.00     0.031 C 
ATOM     41  C   UNL A   1      41.044  27.880  26.397  1.00  0.00     0.029 A 
ATOM     42  C   UNL A   1      42.121  27.601  27.326  1.00  0.00     0.049 A 
ATOM     43  H   UNL A   1      42.383  28.428  29.236  1.00  0.00     0.167 HD
ATOM     44  C   UNL A   1      42.270  29.401  33.469  1.00  0.00     0.031 A 
ATOM     45  C   UNL A   1      43.206  26.805  27.155  1.00  0.00     0.031 A 
ATOM     46  C   UNL A   1      43.234  30.319  32.915  1.00  0.00     0.049 A 
ATOM     47  C   UNL A   1      44.232  27.258  28.118  1.00  0.00     0.074 A 
ATOM     48  C   UNL A   1      43.303  31.680  32.711  1.00  0.00     0.029 A 
ATOM     49  N   UNL A   1      44.184  29.743  32.107  1.00  0.00    -0.354 N 
ATOM     50  N   UNL A   1      44.794  28.433  28.061  1.00  0.00    -0.248 NA
ATOM     51  C   UNL A   1      44.378  26.561  29.386  1.00  0.00     0.031 C 
ATOM     52  C   UNL A   1      44.051  31.843  31.507  1.00  0.00     0.029 A 
ATOM     53  C   UNL A   1      44.458  30.583  31.061  1.00  0.00     0.049 A 
ATOM     54  H   UNL A   1      44.602  28.864  32.256  1.00  0.00     0.167 HD
ATOM     55  C   UNL A   1      44.962  28.804  29.384  1.00  0.00     0.074 A 
ATOM     56  C   UNL A   1      44.848  27.561  30.138  1.00  0.00     0.031 C 
ATOM     57  C   UNL A   1      44.884  30.116  29.754  1.00  0.00     0.031 A 
BRANCH  44  58
ATOM     58  C   UNL A   1      42.712  28.277  34.383  1.00  0.00    -0.014 A 
ATOM     59  C   UNL A   1      42.795  28.523  35.771  1.00  0.00     0.010 A 
ATOM     60  C   UNL A   1      43.329  27.101  33.909  1.00  0.00     0.010 A 
ATOM     61  C   UNL A   1      43.517  27.674  36.622  1.00  0.00     0.020 A 
ATOM     62  C   UNL A   1      44.015  26.226  34.755  1.00  0.00     0.020 A 
ATOM     63  C   UNL A   1      44.133  26.536  36.102  1.00  0.00     0.054 A 
BRANCH  63  64
ATOM     64  S   UNL A   1      45.148  25.500  37.185  1.00  0.00     0.124 S 
ATOM     65  O   UNL A   1      44.626  24.167  36.900  1.00  0.00    -0.237 OA
ATOM     66  O   UNL A   1      46.498  25.772  36.695  1.00  0.00    -0.237 OA
ATOM     67  O   UNL A   1      44.859  26.016  38.521  1.00  0.00    -0.744 OA
ENDBRANCH  63  64
ENDBRANCH  44  58
BRANCH  45  68
ATOM     68  C   UNL A   1      43.324  25.553  26.374  1.00  0.00    -0.014 A 
ATOM     69  C   UNL A   1      44.297  25.408  25.368  1.00  0.00     0.010 A 
ATOM     70  C   UNL A   1      42.659  24.391  26.816  1.00  0.00     0.010 A 
ATOM     71  C   UNL A   1      44.641  24.138  24.872  1.00  0.00     0.020 A 
ATOM     72  C   UNL A   1      42.992  23.124  26.324  1.00  0.00     0.020 A 
ATOM     73  C   UNL A   1      44.000  23.000  25.371  1.00  0.00     0.054 A 
BRANCH  73  74
ATOM     74  S   UNL A   1      44.576  21.353  24.857  1.00  0.00     0.124 S 
ATOM     75  O   UNL A   1      45.868  21.251  25.529  1.00  0.00    -0.237 OA
ATOM     76  O   UNL A   1      43.526  20.475  25.369  1.00  0.00    -0.237 OA
ATOM     77  O   UNL A   1      44.641  21.451  23.400  1.00  0.00    -0.744 OA
ENDBRANCH  73  74
ENDBRANCH  45  68
BRANCH  57  78
ATOM     78  C   UNL A   1      45.064  31.165  28.683  1.00  0.00    -0.014 A 
ATOM     79  C   UNL A   1      44.008  31.781  27.984  1.00  0.00     0.010 A 
ATOM     80  C   UNL A   1      46.375  31.620  28.451  1.00  0.00     0.010 A 
ATOM     81  C   UNL A   1      44.263  32.804  27.057  1.00  0.00     0.020 A 
ATOM     82  C   UNL A   1      46.635  32.649  27.547  1.00  0.00     0.020 A 
ATOM     83  C   UNL A   1      45.578  33.230  26.844  1.00  0.00     0.054 A 
BRANCH  83  84
ATOM     84  S   UNL A   1      45.907  34.574  25.670  1.00  0.00     0.124 S 
ATOM     85  O   UNL A   1      45.062  34.217  24.533  1.00  0.00    -0.237 OA
ATOM     86  O   UNL A   1      45.495  35.763  26.412  1.00  0.00    -0.237 OA
ATOM     87  O   UNL A   1      47.346  34.478  25.423  1.00  0.00    -0.744 OA
ENDBRANCH  83  84
ENDBRANCH  57  78
ENDBRANCH  31  32
ENDBRANCH  23  26
ENDBRANCH  21  22
ENDBRANCH  20  21
ENDBRANCH   1  20
TORSDOF 17
ENDMDL
