MODEL 1
REMARK VINA RESULT:     -11.9      0.000      0.000
REMARK SMILES Cc1cc(C)c2c(CCCC(=O)NCCCCCCNC(=O)c3ccc(-c4c5nc(c(-c6ccc(S(=O)(=O)[O-])cc6)c6ccc([nH]6)c(-c6ccc(S(=O)(=O)[O-])cc6)c6nc(c(-c7ccc(S(=O)(=O)[O-])cc7)c7ccc4[nH]7)C=C6)C=C5)cc3)c(-c3ccccn3)[nH]c2c1
REMARK SMILES IDX 16 1 15 2 14 3 13 4 11 5 12 6 10 8 9 9 8 10 7 11 1 12 2 13
REMARK SMILES IDX 3 14 92 15 4 16 91 17 5 18 6 19 90 20 83 21 84 23 85 24
REMARK SMILES IDX 89 25 86 26 88 27 87 28 17 29 18 30 19 31 20 32 21 33 22 35
REMARK SMILES IDX 23 36 24 37 82 38 25 39 81 40 26 41 27 42 28 43 75 44 29 45
REMARK SMILES IDX 80 46 74 47 76 48 30 49 79 50 73 51 72 52 31 54 61 55 42 56
REMARK SMILES IDX 60 57 43 58 46 59 59 60 77 61 44 62 45 63 58 65 78 66 47 67
REMARK SMILES IDX 32 68 33 69 41 70 34 71 40 72 35 73 36 74 37 75 38 76 39 77
REMARK SMILES IDX 62 78 63 79 71 80 64 81 70 82 65 83 66 84 67 85 68 86 69 87
REMARK SMILES IDX 48 88 49 89 57 90 50 91 56 92 51 93 52 94 53 95 54 96 55 97
REMARK H PARENT 13 7 90 22 20 34 76 53 46 64
REMARK Flexibility Score: inf
ROOT
ATOM      1  C   UNL A   1      33.766  28.659  27.356  1.00  0.00     0.002 C 
ENDROOT
BRANCH   1   2
ATOM      2  C   UNL A   1      32.343  28.664  26.793  1.00  0.00     0.021 C 
BRANCH   2   3
ATOM      3  C   UNL A   1      31.450  27.619  27.451  1.00  0.00     0.116 C 
BRANCH   3   4
ATOM      4  N   UNL A   1      30.920  26.655  26.522  1.00  0.00    -0.356 N 
ATOM      5  C   UNL A   1      31.431  25.492  26.049  1.00  0.00     0.220 C 
ATOM      6  O   UNL A   1      30.639  24.763  25.438  1.00  0.00    -0.275 OA
ATOM      7  H   UNL A   1      30.031  26.880  26.167  1.00  0.00     0.163 HD
BRANCH   5   8
ATOM      8  C   UNL A   1      32.832  24.984  26.344  1.00  0.00     0.100 C 
BRANCH   8   9
ATOM      9  C   UNL A   1      34.054  25.322  25.517  1.00  0.00     0.015 C 
BRANCH   9  10
ATOM     10  C   UNL A   1      34.721  24.317  24.592  1.00  0.00     0.039 C 
BRANCH  10  11
ATOM     11  C   UNL A   1      35.096  22.880  24.939  1.00  0.00    -0.013 A 
ATOM     12  C   UNL A   1      32.328  17.933  23.885  1.00  0.00     0.044 C 
ATOM     13  C   UNL A   1      33.025  19.252  24.046  1.00  0.00    -0.049 A 
ATOM     14  C   UNL A   1      32.437  20.418  23.558  1.00  0.00     0.007 A 
ATOM     15  C   UNL A   1      34.238  19.328  24.735  1.00  0.00     0.030 A 
ATOM     16  C   UNL A   1      33.024  21.691  23.732  1.00  0.00    -0.041 A 
ATOM     17  C   UNL A   1      34.803  20.591  24.941  1.00  0.00     0.047 A 
ATOM     18  C   UNL A   1      32.315  22.858  23.089  1.00  0.00     0.045 C 
ATOM     19  C   UNL A   1      34.230  21.779  24.496  1.00  0.00     0.006 A 
ATOM     20  N   UNL A   1      35.968  20.920  25.575  1.00  0.00    -0.353 N 
ATOM     21  C   UNL A   1      36.236  22.268  25.495  1.00  0.00     0.068 A 
ATOM     22  H   UNL A   1      36.549  20.270  26.034  1.00  0.00     0.167 HD
BRANCH  21  23
ATOM     23  C   UNL A   1      37.591  22.697  25.849  1.00  0.00     0.087 A 
ATOM     24  C   UNL A   1      37.840  24.021  26.212  1.00  0.00     0.030 A 
ATOM     25  N   UNL A   1      38.555  21.757  25.832  1.00  0.00    -0.255 NA
ATOM     26  C   UNL A   1      39.077  24.350  26.761  1.00  0.00     0.004 A 
ATOM     27  C   UNL A   1      39.749  22.102  26.381  1.00  0.00     0.112 A 
ATOM     28  C   UNL A   1      40.039  23.359  26.889  1.00  0.00     0.020 A 
ENDBRANCH  21  23
ENDBRANCH  10  11
ENDBRANCH   9  10
ENDBRANCH   8   9
ENDBRANCH   5   8
ENDBRANCH   3   4
ENDBRANCH   2   3
ENDBRANCH   1   2
BRANCH   1  29
ATOM     29  C   UNL A   1      34.541  29.983  27.230  1.00  0.00     0.002 C 
BRANCH  29  30
ATOM     30  C   UNL A   1      33.758  31.283  27.469  1.00  0.00     0.021 C 
BRANCH  30  31
ATOM     31  C   UNL A   1      34.604  32.451  27.957  1.00  0.00     0.116 C 
BRANCH  31  32
ATOM     32  N   UNL A   1      34.414  32.715  29.384  1.00  0.00    -0.352 N 
ATOM     33  C   UNL A   1      35.113  32.226  30.471  1.00  0.00     0.251 C 
ATOM     34  H   UNL A   1      33.679  33.333  29.601  1.00  0.00     0.163 HD
ATOM     35  O   UNL A   1      34.622  32.261  31.587  1.00  0.00    -0.269 OA
BRANCH  33  36
ATOM     36  C   UNL A   1      36.459  31.661  30.261  1.00  0.00     0.039 A 
ATOM     37  C   UNL A   1      37.578  32.483  30.103  1.00  0.00     0.014 A 
ATOM     38  C   UNL A   1      36.593  30.276  30.232  1.00  0.00     0.014 A 
ATOM     39  C   UNL A   1      38.835  31.891  30.000  1.00  0.00     0.010 A 
ATOM     40  C   UNL A   1      37.833  29.703  30.307  1.00  0.00     0.010 A 
ATOM     41  C   UNL A   1      38.956  30.497  30.124  1.00  0.00    -0.014 A 
BRANCH  41  42
ATOM     42  C   UNL A   1      40.260  29.852  30.159  1.00  0.00     0.031 A 
ATOM     43  C   UNL A   1      40.863  29.750  31.511  1.00  0.00     0.074 A 
ATOM     44  C   UNL A   1      40.799  29.209  29.100  1.00  0.00     0.049 A 
ATOM     45  N   UNL A   1      41.847  30.440  31.981  1.00  0.00    -0.248 NA
ATOM     46  C   UNL A   1      40.199  28.896  32.509  1.00  0.00     0.031 C 
ATOM     47  C   UNL A   1      40.201  28.942  27.785  1.00  0.00     0.029 A 
ATOM     48  N   UNL A   1      41.987  28.554  29.022  1.00  0.00    -0.354 N 
ATOM     49  C   UNL A   1      42.082  29.946  33.259  1.00  0.00     0.074 A 
ATOM     50  C   UNL A   1      40.926  29.154  33.598  1.00  0.00     0.031 C 
ATOM     51  C   UNL A   1      40.919  27.995  27.142  1.00  0.00     0.029 A 
ATOM     52  C   UNL A   1      42.124  27.734  27.907  1.00  0.00     0.049 A 
ATOM     53  H   UNL A   1      42.693  28.651  29.701  1.00  0.00     0.167 HD
ATOM     54  C   UNL A   1      43.317  30.019  33.830  1.00  0.00     0.031 A 
ATOM     55  C   UNL A   1      43.156  26.896  27.643  1.00  0.00     0.031 A 
ATOM     56  C   UNL A   1      44.193  30.890  33.086  1.00  0.00     0.049 A 
ATOM     57  C   UNL A   1      44.311  27.387  28.431  1.00  0.00     0.074 A 
ATOM     58  C   UNL A   1      44.178  32.227  32.742  1.00  0.00     0.029 A 
ATOM     59  N   UNL A   1      45.075  30.283  32.222  1.00  0.00    -0.354 N 
ATOM     60  N   UNL A   1      44.885  28.538  28.220  1.00  0.00    -0.248 NA
ATOM     61  C   UNL A   1      44.552  26.802  29.740  1.00  0.00     0.031 C 
ATOM     62  C   UNL A   1      44.684  32.270  31.410  1.00  0.00     0.029 A 
ATOM     63  C   UNL A   1      45.048  30.973  31.038  1.00  0.00     0.049 A 
ATOM     64  H   UNL A   1      45.628  29.493  32.419  1.00  0.00     0.167 HD
ATOM     65  C   UNL A   1      45.185  29.023  29.485  1.00  0.00     0.074 A 
ATOM     66  C   UNL A   1      45.059  27.865  30.369  1.00  0.00     0.031 C 
ATOM     67  C   UNL A   1      45.236  30.366  29.733  1.00  0.00     0.031 A 
BRANCH  54  68
ATOM     68  C   UNL A   1      43.856  28.999  34.803  1.00  0.00    -0.014 A 
ATOM     69  C   UNL A   1      43.784  27.632  34.463  1.00  0.00     0.010 A 
ATOM     70  C   UNL A   1      44.179  29.307  36.141  1.00  0.00     0.010 A 
ATOM     71  C   UNL A   1      43.958  26.630  35.428  1.00  0.00     0.020 A 
ATOM     72  C   UNL A   1      44.398  28.316  37.101  1.00  0.00     0.020 A 
ATOM     73  C   UNL A   1      44.251  26.984  36.745  1.00  0.00     0.054 A 
BRANCH  73  74
ATOM     74  S   UNL A   1      44.368  25.690  38.005  1.00  0.00     0.124 S 
ATOM     75  O   UNL A   1      43.884  26.384  39.193  1.00  0.00    -0.237 OA
ATOM     76  O   UNL A   1      43.486  24.658  37.468  1.00  0.00    -0.237 OA
ATOM     77  O   UNL A   1      45.788  25.348  38.011  1.00  0.00    -0.744 OA
ENDBRANCH  73  74
ENDBRANCH  54  68
BRANCH  55  78
ATOM     78  C   UNL A   1      43.126  25.554  27.012  1.00  0.00    -0.014 A 
ATOM     79  C   UNL A   1      43.141  25.422  25.610  1.00  0.00     0.010 A 
ATOM     80  C   UNL A   1      43.398  24.403  27.782  1.00  0.00     0.010 A 
ATOM     81  C   UNL A   1      43.499  24.208  25.000  1.00  0.00     0.020 A 
ATOM     82  C   UNL A   1      43.750  23.188  27.179  1.00  0.00     0.020 A 
ATOM     83  C   UNL A   1      43.830  23.106  25.792  1.00  0.00     0.054 A 
BRANCH  83  84
ATOM     84  S   UNL A   1      44.493  21.609  24.999  1.00  0.00     0.124 S 
ATOM     85  O   UNL A   1      43.494  20.604  25.346  1.00  0.00    -0.237 OA
ATOM     86  O   UNL A   1      44.540  21.993  23.591  1.00  0.00    -0.237 OA
ATOM     87  O   UNL A   1      45.797  21.432  25.634  1.00  0.00    -0.744 OA
ENDBRANCH  83  84
ENDBRANCH  55  78
BRANCH  67  88
ATOM     88  C   UNL A   1      45.267  31.314  28.553  1.00  0.00    -0.014 A 
ATOM     89  C   UNL A   1      44.119  31.869  27.954  1.00  0.00     0.010 A 
ATOM     90  C   UNL A   1      46.527  31.781  28.138  1.00  0.00     0.010 A 
ATOM     91  C   UNL A   1      44.233  32.854  26.957  1.00  0.00     0.020 A 
ATOM     92  C   UNL A   1      46.647  32.772  27.161  1.00  0.00     0.020 A 
ATOM     93  C   UNL A   1      45.500  33.301  26.570  1.00  0.00     0.054 A 
BRANCH  93  94
ATOM     94  S   UNL A   1      45.646  34.611  25.322  1.00  0.00     0.124 S 
ATOM     95  O   UNL A   1      47.077  34.616  25.029  1.00  0.00    -0.237 OA
ATOM     96  O   UNL A   1      44.784  34.131  24.244  1.00  0.00    -0.237 OA
ATOM     97  O   UNL A   1      45.153  35.805  26.010  1.00  0.00    -0.744 OA
ENDBRANCH  93  94
ENDBRANCH  67  88
ENDBRANCH  41  42
ENDBRANCH  33  36
ENDBRANCH  31  32
ENDBRANCH  30  31
ENDBRANCH  29  30
ENDBRANCH   1  29
TORSDOF 20
ENDMDL
MODEL 2
REMARK VINA RESULT:     -11.8      2.693      9.679
REMARK SMILES Cc1cc(C)c2c(CCCC(=O)NCCCCCCNC(=O)c3ccc(-c4c5nc(c(-c6ccc(S(=O)(=O)[O-])cc6)c6ccc([nH]6)c(-c6ccc(S(=O)(=O)[O-])cc6)c6nc(c(-c7ccc(S(=O)(=O)[O-])cc7)c7ccc4[nH]7)C=C6)C=C5)cc3)c(-c3ccccn3)[nH]c2c1
REMARK SMILES IDX 16 1 15 2 14 3 13 4 11 5 12 6 10 8 9 9 8 10 7 11 1 12 2 13
REMARK SMILES IDX 3 14 92 15 4 16 91 17 5 18 6 19 90 20 83 21 84 23 85 24
REMARK SMILES IDX 89 25 86 26 88 27 87 28 17 29 18 30 19 31 20 32 21 33 22 35
REMARK SMILES IDX 23 36 24 37 82 38 25 39 81 40 26 41 27 42 28 43 75 44 29 45
REMARK SMILES IDX 80 46 74 47 76 48 30 49 79 50 73 51 72 52 31 54 61 55 42 56
REMARK SMILES IDX 60 57 43 58 46 59 59 60 77 61 44 62 45 63 58 65 78 66 47 67
REMARK SMILES IDX 32 68 33 69 41 70 34 71 40 72 35 73 36 74 37 75 38 76 39 77
REMARK SMILES IDX 62 78 63 79 71 80 64 81 70 82 65 83 66 84 67 85 68 86 69 87
REMARK SMILES IDX 48 88 49 89 57 90 50 91 56 92 51 93 52 94 53 95 54 96 55 97
REMARK H PARENT 13 7 90 22 20 34 76 53 46 64
REMARK Flexibility Score: inf
ROOT
ATOM      1  C   UNL A   1      36.294  23.692  25.476  1.00  0.00     0.002 C 
ENDROOT
BRANCH   1   2
ATOM      2  C   UNL A   1      35.100  23.121  26.242  1.00  0.00     0.021 C 
BRANCH   2   3
ATOM      3  C   UNL A   1      34.315  22.100  25.427  1.00  0.00     0.116 C 
BRANCH   3   4
ATOM      4  N   UNL A   1      34.373  22.339  24.008  1.00  0.00    -0.356 N 
ATOM      5  C   UNL A   1      33.806  23.298  23.237  1.00  0.00     0.220 C 
ATOM      6  O   UNL A   1      34.229  23.379  22.077  1.00  0.00    -0.275 OA
ATOM      7  H   UNL A   1      34.921  21.691  23.510  1.00  0.00     0.163 HD
BRANCH   5   8
ATOM      8  C   UNL A   1      32.819  24.337  23.742  1.00  0.00     0.100 C 
BRANCH   8   9
ATOM      9  C   UNL A   1      33.148  25.801  23.943  1.00  0.00     0.015 C 
BRANCH   9  10
ATOM     10  C   UNL A   1      32.523  26.637  25.047  1.00  0.00     0.039 C 
BRANCH  10  11
ATOM     11  C   UNL A   1      32.088  28.096  24.939  1.00  0.00    -0.013 A 
ATOM     12  C   UNL A   1      27.525  30.455  22.320  1.00  0.00     0.044 C 
ATOM     13  C   UNL A   1      28.638  29.758  23.046  1.00  0.00    -0.049 A 
ATOM     14  C   UNL A   1      28.740  28.369  23.001  1.00  0.00     0.007 A 
ATOM     15  C   UNL A   1      29.610  30.499  23.722  1.00  0.00     0.030 A 
ATOM     16  C   UNL A   1      29.798  27.668  23.620  1.00  0.00    -0.041 A 
ATOM     17  C   UNL A   1      30.680  29.810  24.304  1.00  0.00     0.047 A 
ATOM     18  C   UNL A   1      29.744  26.160  23.553  1.00  0.00     0.045 C 
ATOM     19  C   UNL A   1      30.832  28.427  24.254  1.00  0.00     0.006 A 
ATOM     20  N   UNL A   1      31.739  30.304  25.012  1.00  0.00    -0.353 N 
ATOM     21  C   UNL A   1      32.543  29.302  25.507  1.00  0.00     0.068 A 
ATOM     22  H   UNL A   1      31.908  31.264  25.153  1.00  0.00     0.167 HD
BRANCH  21  23
ATOM     23  C   UNL A   1      33.515  29.677  26.535  1.00  0.00     0.087 A 
ATOM     24  C   UNL A   1      34.576  28.826  26.848  1.00  0.00     0.030 A 
ATOM     25  N   UNL A   1      33.348  30.875  27.127  1.00  0.00    -0.255 NA
ATOM     26  C   UNL A   1      35.607  29.301  27.655  1.00  0.00     0.004 A 
ATOM     27  C   UNL A   1      34.373  31.317  27.902  1.00  0.00     0.112 A 
ATOM     28  C   UNL A   1      35.526  30.590  28.159  1.00  0.00     0.020 A 
ENDBRANCH  21  23
ENDBRANCH  10  11
ENDBRANCH   9  10
ENDBRANCH   8   9
ENDBRANCH   5   8
ENDBRANCH   3   4
ENDBRANCH   2   3
ENDBRANCH   1   2
BRANCH   1  29
ATOM     29  C   UNL A   1      37.671  23.490  26.132  1.00  0.00     0.002 C 
BRANCH  29  30
ATOM     30  C   UNL A   1      38.509  22.292  25.657  1.00  0.00     0.021 C 
BRANCH  30  31
ATOM     31  C   UNL A   1      39.654  21.912  26.587  1.00  0.00     0.116 C 
BRANCH  31  32
ATOM     32  N   UNL A   1      40.954  21.977  25.919  1.00  0.00    -0.352 N 
ATOM     33  C   UNL A   1      41.813  23.049  25.766  1.00  0.00     0.251 C 
ATOM     34  H   UNL A   1      41.263  21.131  25.522  1.00  0.00     0.163 HD
ATOM     35  O   UNL A   1      42.673  23.030  24.901  1.00  0.00    -0.269 OA
BRANCH  33  36
ATOM     36  C   UNL A   1      41.672  24.213  26.660  1.00  0.00     0.039 A 
ATOM     37  C   UNL A   1      42.289  24.247  27.913  1.00  0.00     0.014 A 
ATOM     38  C   UNL A   1      40.911  25.291  26.219  1.00  0.00     0.014 A 
ATOM     39  C   UNL A   1      42.196  25.411  28.674  1.00  0.00     0.010 A 
ATOM     40  C   UNL A   1      40.965  26.487  26.882  1.00  0.00     0.010 A 
ATOM     41  C   UNL A   1      41.547  26.537  28.140  1.00  0.00    -0.014 A 
BRANCH  41  42
ATOM     42  C   UNL A   1      41.545  27.811  28.843  1.00  0.00     0.031 A 
ATOM     43  C   UNL A   1      42.683  28.703  28.508  1.00  0.00     0.074 A 
ATOM     44  C   UNL A   1      40.502  28.252  29.579  1.00  0.00     0.049 A 
ATOM     45  N   UNL A   1      43.709  28.969  29.244  1.00  0.00    -0.248 NA
ATOM     46  C   UNL A   1      42.773  29.237  27.140  1.00  0.00     0.031 C 
ATOM     47  C   UNL A   1      39.178  27.640  29.754  1.00  0.00     0.029 A 
ATOM     48  N   UNL A   1      40.376  29.425  30.253  1.00  0.00    -0.354 N 
ATOM     49  C   UNL A   1      44.463  29.891  28.528  1.00  0.00     0.074 A 
ATOM     50  C   UNL A   1      43.953  29.860  27.180  1.00  0.00     0.031 C 
ATOM     51  C   UNL A   1      38.323  28.546  30.279  1.00  0.00     0.029 A 
ATOM     52  C   UNL A   1      39.080  29.726  30.654  1.00  0.00     0.049 A 
ATOM     53  H   UNL A   1      41.142  30.014  30.442  1.00  0.00     0.167 HD
ATOM     54  C   UNL A   1      45.273  30.787  29.159  1.00  0.00     0.031 A 
ATOM     55  C   UNL A   1      38.662  30.873  31.245  1.00  0.00     0.031 A 
ATOM     56  C   UNL A   1      45.445  30.454  30.552  1.00  0.00     0.049 A 
ATOM     57  C   UNL A   1      39.862  31.492  31.857  1.00  0.00     0.074 A 
ATOM     58  C   UNL A   1      45.958  29.373  31.242  1.00  0.00     0.029 A 
ATOM     59  N   UNL A   1      44.663  31.144  31.449  1.00  0.00    -0.354 N 
ATOM     60  N   UNL A   1      40.525  30.951  32.840  1.00  0.00    -0.248 NA
ATOM     61  C   UNL A   1      40.588  32.493  31.092  1.00  0.00     0.031 C 
ATOM     62  C   UNL A   1      45.096  29.212  32.366  1.00  0.00     0.029 A 
ATOM     63  C   UNL A   1      44.151  30.241  32.345  1.00  0.00     0.049 A 
ATOM     64  H   UNL A   1      44.500  32.115  31.449  1.00  0.00     0.167 HD
ATOM     65  C   UNL A   1      41.858  31.207  32.552  1.00  0.00     0.074 A 
ATOM     66  C   UNL A   1      41.827  32.252  31.531  1.00  0.00     0.031 C 
ATOM     67  C   UNL A   1      42.846  30.359  32.968  1.00  0.00     0.031 A 
BRANCH  54  68
ATOM     68  C   UNL A   1      45.568  32.171  28.634  1.00  0.00    -0.014 A 
ATOM     69  C   UNL A   1      46.878  32.469  28.204  1.00  0.00     0.010 A 
ATOM     70  C   UNL A   1      44.688  33.260  28.800  1.00  0.00     0.010 A 
ATOM     71  C   UNL A   1      47.301  33.792  28.018  1.00  0.00     0.020 A 
ATOM     72  C   UNL A   1      45.085  34.579  28.574  1.00  0.00     0.020 A 
ATOM     73  C   UNL A   1      46.400  34.839  28.218  1.00  0.00     0.054 A 
BRANCH  73  74
ATOM     74  S   UNL A   1      46.982  36.547  28.079  1.00  0.00     0.124 S 
ATOM     75  O   UNL A   1      46.216  37.212  29.127  1.00  0.00    -0.237 OA
ATOM     76  O   UNL A   1      48.414  36.405  28.331  1.00  0.00    -0.237 OA
ATOM     77  O   UNL A   1      46.629  36.917  26.711  1.00  0.00    -0.744 OA
ENDBRANCH  73  74
ENDBRANCH  54  68
BRANCH  55  78
ATOM     78  C   UNL A   1      37.387  31.606  31.055  1.00  0.00    -0.014 A 
ATOM     79  C   UNL A   1      36.238  31.241  31.782  1.00  0.00     0.010 A 
ATOM     80  C   UNL A   1      37.379  32.855  30.400  1.00  0.00     0.010 A 
ATOM     81  C   UNL A   1      35.156  32.127  31.920  1.00  0.00     0.020 A 
ATOM     82  C   UNL A   1      36.301  33.741  30.528  1.00  0.00     0.020 A 
ATOM     83  C   UNL A   1      35.208  33.385  31.314  1.00  0.00     0.054 A 
BRANCH  83  84
ATOM     84  S   UNL A   1      33.902  34.599  31.671  1.00  0.00     0.124 S 
ATOM     85  O   UNL A   1      33.209  34.697  30.391  1.00  0.00    -0.237 OA
ATOM     86  O   UNL A   1      33.154  33.951  32.746  1.00  0.00    -0.237 OA
ATOM     87  O   UNL A   1      34.642  35.794  32.070  1.00  0.00    -0.744 OA
ENDBRANCH  83  84
ENDBRANCH  55  78
BRANCH  67  88
ATOM     88  C   UNL A   1      42.503  29.308  34.003  1.00  0.00    -0.014 A 
ATOM     89  C   UNL A   1      41.927  28.058  33.700  1.00  0.00     0.010 A 
ATOM     90  C   UNL A   1      42.930  29.542  35.322  1.00  0.00     0.010 A 
ATOM     91  C   UNL A   1      41.771  27.078  34.695  1.00  0.00     0.020 A 
ATOM     92  C   UNL A   1      42.796  28.565  36.312  1.00  0.00     0.020 A 
ATOM     93  C   UNL A   1      42.211  27.340  35.997  1.00  0.00     0.054 A 
BRANCH  93  94
ATOM     94  S   UNL A   1      42.061  26.053  37.269  1.00  0.00     0.124 S 
ATOM     95  O   UNL A   1      42.998  26.507  38.294  1.00  0.00    -0.237 OA
ATOM     96  O   UNL A   1      40.648  26.121  37.635  1.00  0.00    -0.237 OA
ATOM     97  O   UNL A   1      42.453  24.827  36.574  1.00  0.00    -0.744 OA
ENDBRANCH  93  94
ENDBRANCH  67  88
ENDBRANCH  41  42
ENDBRANCH  33  36
ENDBRANCH  31  32
ENDBRANCH  30  31
ENDBRANCH  29  30
ENDBRANCH   1  29
TORSDOF 20
ENDMDL
MODEL 3
REMARK VINA RESULT:     -11.4      2.243      4.273
REMARK SMILES Cc1cc(C)c2c(CCCC(=O)NCCCCCCNC(=O)c3ccc(-c4c5nc(c(-c6ccc(S(=O)(=O)[O-])cc6)c6ccc([nH]6)c(-c6ccc(S(=O)(=O)[O-])cc6)c6nc(c(-c7ccc(S(=O)(=O)[O-])cc7)c7ccc4[nH]7)C=C6)C=C5)cc3)c(-c3ccccn3)[nH]c2c1
REMARK SMILES IDX 16 1 15 2 14 3 13 4 11 5 12 6 10 8 9 9 8 10 7 11 1 12 2 13
REMARK SMILES IDX 3 14 92 15 4 16 91 17 5 18 6 19 90 20 83 21 84 23 85 24
REMARK SMILES IDX 89 25 86 26 88 27 87 28 17 29 18 30 19 31 20 32 21 33 22 35
REMARK SMILES IDX 23 36 24 37 82 38 25 39 81 40 26 41 27 42 28 43 75 44 29 45
REMARK SMILES IDX 80 46 74 47 76 48 30 49 79 50 73 51 72 52 31 54 61 55 42 56
REMARK SMILES IDX 60 57 43 58 46 59 59 60 77 61 44 62 45 63 58 65 78 66 47 67
REMARK SMILES IDX 32 68 33 69 41 70 34 71 40 72 35 73 36 74 37 75 38 76 39 77
REMARK SMILES IDX 62 78 63 79 71 80 64 81 70 82 65 83 66 84 67 85 68 86 69 87
REMARK SMILES IDX 48 88 49 89 57 90 50 91 56 92 51 93 52 94 53 95 54 96 55 97
REMARK H PARENT 13 7 90 22 20 34 76 53 46 64
REMARK Flexibility Score: inf
ROOT
ATOM      1  C   UNL A   1      36.631  32.027  28.508  1.00  0.00     0.002 C 
ENDROOT
BRANCH   1   2
ATOM      2  C   UNL A   1      36.009  30.783  27.870  1.00  0.00     0.021 C 
BRANCH   2   3
ATOM      3  C   UNL A   1      34.510  30.933  27.635  1.00  0.00     0.116 C 
BRANCH   3   4
ATOM      4  N   UNL A   1      33.782  29.701  27.799  1.00  0.00    -0.356 N 
ATOM      5  C   UNL A   1      32.915  29.058  26.981  1.00  0.00     0.220 C 
ATOM      6  O   UNL A   1      32.630  27.897  27.302  1.00  0.00    -0.275 OA
ATOM      7  H   UNL A   1      33.942  29.247  28.657  1.00  0.00     0.163 HD
BRANCH   5   8
ATOM      8  C   UNL A   1      32.407  29.609  25.660  1.00  0.00     0.100 C 
BRANCH   8   9
ATOM      9  C   UNL A   1      33.054  29.343  24.317  1.00  0.00     0.015 C 
BRANCH   9  10
ATOM     10  C   UNL A   1      33.178  27.947  23.730  1.00  0.00     0.039 C 
BRANCH  10  11
ATOM     11  C   UNL A   1      32.060  26.916  23.610  1.00  0.00    -0.013 A 
ATOM     12  C   UNL A   1      31.820  21.435  25.385  1.00  0.00     0.044 C 
ATOM     13  C   UNL A   1      31.929  22.888  25.030  1.00  0.00    -0.049 A 
ATOM     14  C   UNL A   1      33.093  23.596  25.328  1.00  0.00     0.007 A 
ATOM     15  C   UNL A   1      30.890  23.527  24.348  1.00  0.00     0.030 A 
ATOM     16  C   UNL A   1      33.268  24.950  24.967  1.00  0.00    -0.041 A 
ATOM     17  C   UNL A   1      31.076  24.857  23.955  1.00  0.00     0.047 A 
ATOM     18  C   UNL A   1      34.549  25.611  25.417  1.00  0.00     0.045 C 
ATOM     19  C   UNL A   1      32.235  25.586  24.209  1.00  0.00     0.006 A 
ATOM     20  N   UNL A   1      30.218  25.687  23.290  1.00  0.00    -0.353 N 
ATOM     21  C   UNL A   1      30.725  26.960  23.164  1.00  0.00     0.068 A 
ATOM     22  H   UNL A   1      29.341  25.407  22.941  1.00  0.00     0.167 HD
BRANCH  21  23
ATOM     23  C   UNL A   1      29.787  28.010  22.761  1.00  0.00     0.087 A 
ATOM     24  C   UNL A   1      28.469  27.992  23.215  1.00  0.00     0.030 A 
ATOM     25  N   UNL A   1      30.268  28.988  21.969  1.00  0.00    -0.255 NA
ATOM     26  C   UNL A   1      27.667  29.113  23.009  1.00  0.00     0.004 A 
ATOM     27  C   UNL A   1      29.468  30.072  21.790  1.00  0.00     0.112 A 
ATOM     28  C   UNL A   1      28.191  30.195  22.318  1.00  0.00     0.020 A 
ENDBRANCH  21  23
ENDBRANCH  10  11
ENDBRANCH   9  10
ENDBRANCH   8   9
ENDBRANCH   5   8
ENDBRANCH   3   4
ENDBRANCH   2   3
ENDBRANCH   1   2
BRANCH   1  29
ATOM     29  C   UNL A   1      35.824  33.329  28.363  1.00  0.00     0.002 C 
BRANCH  29  30
ATOM     30  C   UNL A   1      35.258  33.954  29.648  1.00  0.00     0.021 C 
BRANCH  30  31
ATOM     31  C   UNL A   1      34.569  32.967  30.581  1.00  0.00     0.116 C 
BRANCH  31  32
ATOM     32  N   UNL A   1      34.842  33.253  31.990  1.00  0.00    -0.352 N 
ATOM     33  C   UNL A   1      35.763  32.677  32.844  1.00  0.00     0.251 C 
ATOM     34  H   UNL A   1      34.287  33.962  32.388  1.00  0.00     0.163 HD
ATOM     35  O   UNL A   1      35.630  32.776  34.052  1.00  0.00    -0.269 OA
BRANCH  33  36
ATOM     36  C   UNL A   1      36.906  31.940  32.272  1.00  0.00     0.039 A 
ATOM     37  C   UNL A   1      38.079  32.597  31.891  1.00  0.00     0.014 A 
ATOM     38  C   UNL A   1      36.792  30.561  32.128  1.00  0.00     0.014 A 
ATOM     39  C   UNL A   1      39.157  31.836  31.444  1.00  0.00     0.010 A 
ATOM     40  C   UNL A   1      37.899  29.804  31.858  1.00  0.00     0.010 A 
ATOM     41  C   UNL A   1      39.066  30.435  31.450  1.00  0.00    -0.014 A 
BRANCH  41  42
ATOM     42  C   UNL A   1      40.213  29.602  31.121  1.00  0.00     0.031 A 
ATOM     43  C   UNL A   1      41.122  29.324  32.260  1.00  0.00     0.074 A 
ATOM     44  C   UNL A   1      40.347  28.955  29.942  1.00  0.00     0.049 A 
ATOM     45  N   UNL A   1      42.292  29.828  32.466  1.00  0.00    -0.248 NA
ATOM     46  C   UNL A   1      40.612  28.517  33.380  1.00  0.00     0.031 C 
ATOM     47  C   UNL A   1      39.392  28.864  28.830  1.00  0.00     0.029 A 
ATOM     48  N   UNL A   1      41.352  28.136  29.536  1.00  0.00    -0.354 N 
ATOM     49  C   UNL A   1      42.769  29.223  33.623  1.00  0.00     0.074 A 
ATOM     50  C   UNL A   1      41.629  28.593  34.242  1.00  0.00     0.031 C 
ATOM     51  C   UNL A   1      39.757  27.864  27.997  1.00  0.00     0.029 A 
ATOM     52  C   UNL A   1      41.061  27.378  28.407  1.00  0.00     0.049 A 
ATOM     53  H   UNL A   1      42.216  28.083  30.003  1.00  0.00     0.167 HD
ATOM     54  C   UNL A   1      44.105  29.074  33.846  1.00  0.00     0.031 A 
ATOM     55  C   UNL A   1      41.839  26.414  27.858  1.00  0.00     0.031 A 
ATOM     56  C   UNL A   1      44.886  29.851  32.914  1.00  0.00     0.049 A 
ATOM     57  C   UNL A   1      43.223  26.675  28.320  1.00  0.00     0.074 A 
ATOM     58  C   UNL A   1      44.997  31.194  32.617  1.00  0.00     0.029 A 
ATOM     59  N   UNL A   1      45.402  29.176  31.833  1.00  0.00    -0.354 N 
ATOM     60  N   UNL A   1      43.900  27.739  27.989  1.00  0.00    -0.248 NA
ATOM     61  C   UNL A   1      43.699  25.978  29.504  1.00  0.00     0.031 C 
ATOM     62  C   UNL A   1      45.139  31.246  31.199  1.00  0.00     0.029 A 
ATOM     63  C   UNL A   1      45.180  29.937  30.715  1.00  0.00     0.049 A 
ATOM     64  H   UNL A   1      45.853  28.301  31.858  1.00  0.00     0.167 HD
ATOM     65  C   UNL A   1      44.592  28.092  29.139  1.00  0.00     0.074 A 
ATOM     66  C   UNL A   1      44.517  26.911  29.998  1.00  0.00     0.031 C 
ATOM     67  C   UNL A   1      44.922  29.393  29.394  1.00  0.00     0.031 A 
BRANCH  54  68
ATOM     68  C   UNL A   1      44.707  27.925  34.617  1.00  0.00    -0.014 A 
ATOM     69  C   UNL A   1      44.569  26.618  34.104  1.00  0.00     0.010 A 
ATOM     70  C   UNL A   1      45.161  28.043  35.946  1.00  0.00     0.010 A 
ATOM     71  C   UNL A   1      44.807  25.492  34.904  1.00  0.00     0.020 A 
ATOM     72  C   UNL A   1      45.444  26.929  36.739  1.00  0.00     0.020 A 
ATOM     73  C   UNL A   1      45.231  25.659  36.223  1.00  0.00     0.054 A 
BRANCH  73  74
ATOM     74  S   UNL A   1      45.433  24.205  37.280  1.00  0.00     0.124 S 
ATOM     75  O   UNL A   1      46.870  24.210  37.528  1.00  0.00    -0.237 OA
ATOM     76  O   UNL A   1      44.590  24.538  38.425  1.00  0.00    -0.237 OA
ATOM     77  O   UNL A   1      44.942  23.108  36.449  1.00  0.00    -0.744 OA
ENDBRANCH  73  74
ENDBRANCH  54  68
BRANCH  55  78
ATOM     78  C   UNL A   1      41.431  25.135  27.228  1.00  0.00    -0.014 A 
ATOM     79  C   UNL A   1      42.324  24.427  26.402  1.00  0.00     0.010 A 
ATOM     80  C   UNL A   1      40.283  24.455  27.687  1.00  0.00     0.010 A 
ATOM     81  C   UNL A   1      42.124  23.066  26.116  1.00  0.00     0.020 A 
ATOM     82  C   UNL A   1      40.074  23.099  27.400  1.00  0.00     0.020 A 
ATOM     83  C   UNL A   1      41.013  22.403  26.642  1.00  0.00     0.054 A 
BRANCH  83  84
ATOM     84  S   UNL A   1      40.875  20.601  26.442  1.00  0.00     0.124 S 
ATOM     85  O   UNL A   1      39.598  20.461  25.749  1.00  0.00    -0.237 OA
ATOM     86  O   UNL A   1      42.060  20.280  25.652  1.00  0.00    -0.237 OA
ATOM     87  O   UNL A   1      40.894  20.099  27.815  1.00  0.00    -0.744 OA
ENDBRANCH  83  84
ENDBRANCH  55  78
BRANCH  67  88
ATOM     88  C   UNL A   1      44.798  30.400  28.270  1.00  0.00    -0.014 A 
ATOM     89  C   UNL A   1      43.627  31.133  27.992  1.00  0.00     0.010 A 
ATOM     90  C   UNL A   1      45.971  30.726  27.567  1.00  0.00     0.010 A 
ATOM     91  C   UNL A   1      43.632  32.154  27.025  1.00  0.00     0.020 A 
ATOM     92  C   UNL A   1      45.987  31.752  26.619  1.00  0.00     0.020 A 
ATOM     93  C   UNL A   1      44.816  32.458  26.347  1.00  0.00     0.054 A 
BRANCH  93  94
ATOM     94  S   UNL A   1      44.835  33.813  25.139  1.00  0.00     0.124 S 
ATOM     95  O   UNL A   1      44.395  33.153  23.912  1.00  0.00    -0.237 OA
ATOM     96  O   UNL A   1      43.892  34.772  25.710  1.00  0.00    -0.237 OA
ATOM     97  O   UNL A   1      46.229  34.257  25.134  1.00  0.00    -0.744 OA
ENDBRANCH  93  94
ENDBRANCH  67  88
ENDBRANCH  41  42
ENDBRANCH  33  36
ENDBRANCH  31  32
ENDBRANCH  30  31
ENDBRANCH  29  30
ENDBRANCH   1  29
TORSDOF 20
ENDMDL
