MODEL 1
REMARK VINA RESULT:     -11.5      0.000      0.000
REMARK SMILES C=Cc1cc(Cl)cc2c1O[C@H](C(F)(F)F)C(C(=O)NCCCCCCNC(=O)c1ccc(-c3c4nc(c(-c5ccc(S(=O)(=O)[O-])cc5)c5ccc([nH]5)c(-c5ccc(S(=O)(=O)[O-])cc5)c5nc(c(-c6ccc(S(=O)(=O)[O-])cc6)c6ccc3[nH]6)C=C5)C=C4)cc1)=C2
REMARK SMILES IDX 23 1 22 2 21 3 20 4 19 5 17 6 18 7 16 9 3 10 4 11 9 12 5 13
REMARK SMILES IDX 8 14 10 15 6 16 7 17 89 18 11 19 2 20 1 21 12 22 13 23 14 24
REMARK SMILES IDX 15 25 24 26 25 27 26 28 27 29 28 31 29 32 30 33 88 34 31 35
REMARK SMILES IDX 87 36 32 37 33 38 34 39 81 40 35 41 86 42 80 43 82 44 36 45
REMARK SMILES IDX 85 46 79 47 78 48 37 50 67 51 48 52 66 53 49 54 52 55 65 56
REMARK SMILES IDX 83 57 50 58 51 59 64 61 84 62 53 63 38 64 39 65 47 66 40 67
REMARK SMILES IDX 46 68 41 69 42 70 43 71 44 72 45 73 68 74 69 75 77 76 70 77
REMARK SMILES IDX 76 78 71 79 72 80 73 81 74 82 75 83 54 84 55 85 63 86 56 87
REMARK SMILES IDX 62 88 57 89 58 90 59 91 60 92 61 93
REMARK H PARENT 19 8 26 30 82 49 52 60
REMARK Flexibility Score: inf
ROOT
ATOM      1  C   UNL A   1      31.583  27.509  26.929  1.00  0.00     0.002 C 
ENDROOT
BRANCH   1   2
ATOM      2  C   UNL A   1      30.779  26.632  25.960  1.00  0.00     0.002 C 
BRANCH   2   3
ATOM      3  C   UNL A   1      30.895  27.001  24.477  1.00  0.00     0.021 C 
BRANCH   3   4
ATOM      4  C   UNL A   1      30.611  25.848  23.518  1.00  0.00     0.116 C 
BRANCH   4   5
ATOM      5  N   UNL A   1      31.531  25.840  22.394  1.00  0.00    -0.352 N 
ATOM      6  C   UNL A   1      32.627  25.145  22.011  1.00  0.00     0.251 C 
ATOM      7  O   UNL A   1      33.095  25.469  20.914  1.00  0.00    -0.270 OA
ATOM      8  H   UNL A   1      31.293  26.526  21.729  1.00  0.00     0.163 HD
BRANCH   6   9
ATOM      9  C   UNL A   1      33.287  24.056  22.796  1.00  0.00     0.067 C 
ATOM     10  C   UNL A   1      35.094  20.784  24.756  1.00  0.00     0.018 A 
ATOM     11  C   UNL A   1      34.365  19.599  24.913  1.00  0.00     0.032 A 
ATOM     12  C   UNL A   1      34.497  21.864  24.082  1.00  0.00     0.135 A 
ATOM     13  C   UNL A   1      33.078  19.495  24.383  1.00  0.00     0.042 A 
ATOM     14  C   UNL A   1      33.212  21.755  23.541  1.00  0.00     0.019 A 
ATOM     15  O   UNL A   1      35.247  22.996  23.919  1.00  0.00    -0.475 OA
ATOM     16  Cl  UNL A   1      32.195  18.030  24.575  1.00  0.00    -0.084 Cl
ATOM     17  C   UNL A   1      32.501  20.562  23.695  1.00  0.00     0.032 A 
ATOM     18  C   UNL A   1      32.651  22.869  22.787  1.00  0.00     0.025 C 
ATOM     19  C   UNL A   1      34.549  24.225  23.593  1.00  0.00     0.314 C 
BRANCH  10  20
ATOM     20  C   UNL A   1      36.441  20.921  25.330  1.00  0.00     0.004 C 
ATOM     21  C   UNL A   1      37.553  20.469  24.738  1.00  0.00     0.009 C 
ENDBRANCH  10  20
BRANCH  19  22
ATOM     22  C   UNL A   1      34.333  25.037  24.881  1.00  0.00     0.429 C 
ATOM     23  F   UNL A   1      35.360  24.846  25.744  1.00  0.00    -0.167 F 
ATOM     24  F   UNL A   1      34.268  26.368  24.649  1.00  0.00    -0.167 F 
ATOM     25  F   UNL A   1      33.192  24.692  25.521  1.00  0.00    -0.167 F 
ENDBRANCH  19  22
ENDBRANCH   6   9
ENDBRANCH   4   5
ENDBRANCH   3   4
ENDBRANCH   2   3
ENDBRANCH   1   2
BRANCH   1  26
ATOM     26  C   UNL A   1      32.673  28.378  26.295  1.00  0.00     0.021 C 
BRANCH  26  27
ATOM     27  C   UNL A   1      33.849  28.708  27.207  1.00  0.00     0.116 C 
BRANCH  27  28
ATOM     28  N   UNL A   1      33.752  30.035  27.789  1.00  0.00    -0.352 N 
ATOM     29  C   UNL A   1      34.689  30.735  28.513  1.00  0.00     0.251 C 
ATOM     30  H   UNL A   1      32.895  30.499  27.646  1.00  0.00     0.163 HD
ATOM     31  O   UNL A   1      34.383  31.792  29.057  1.00  0.00    -0.269 OA
BRANCH  29  32
ATOM     32  C   UNL A   1      36.055  30.187  28.661  1.00  0.00     0.039 A 
ATOM     33  C   UNL A   1      36.489  29.676  29.886  1.00  0.00     0.014 A 
ATOM     34  C   UNL A   1      36.921  30.213  27.563  1.00  0.00     0.014 A 
ATOM     35  C   UNL A   1      37.827  29.336  30.055  1.00  0.00     0.010 A 
ATOM     36  C   UNL A   1      38.246  29.797  27.716  1.00  0.00     0.010 A 
ATOM     37  C   UNL A   1      38.723  29.398  28.974  1.00  0.00    -0.014 A 
BRANCH  37  38
ATOM     38  C   UNL A   1      40.150  29.042  29.185  1.00  0.00     0.031 A 
ATOM     39  C   UNL A   1      40.672  27.685  28.790  1.00  0.00     0.074 A 
ATOM     40  C   UNL A   1      40.993  29.970  29.679  1.00  0.00     0.049 A 
ATOM     41  N   UNL A   1      41.894  27.223  28.868  1.00  0.00    -0.248 NA
ATOM     42  C   UNL A   1      39.705  26.725  28.233  1.00  0.00     0.031 C 
ATOM     43  C   UNL A   1      40.607  31.327  30.074  1.00  0.00     0.029 A 
ATOM     44  N   UNL A   1      42.346  29.931  29.902  1.00  0.00    -0.354 N 
ATOM     45  C   UNL A   1      41.841  25.921  28.384  1.00  0.00     0.074 A 
ATOM     46  C   UNL A   1      40.463  25.652  28.041  1.00  0.00     0.031 C 
ATOM     47  C   UNL A   1      41.706  32.009  30.428  1.00  0.00     0.029 A 
ATOM     48  C   UNL A   1      42.864  31.123  30.351  1.00  0.00     0.049 A 
ATOM     49  H   UNL A   1      42.894  29.127  29.753  1.00  0.00     0.167 HD
ATOM     50  C   UNL A   1      42.854  25.036  28.229  1.00  0.00     0.031 A 
ATOM     51  C   UNL A   1      44.126  31.473  30.673  1.00  0.00     0.031 A 
ATOM     52  C   UNL A   1      44.228  25.313  28.562  1.00  0.00     0.049 A 
ATOM     53  C   UNL A   1      45.223  30.457  30.540  1.00  0.00     0.074 A 
ATOM     54  C   UNL A   1      45.325  24.479  28.427  1.00  0.00     0.029 A 
ATOM     55  N   UNL A   1      44.695  26.509  29.086  1.00  0.00    -0.354 N 
ATOM     56  N   UNL A   1      45.151  29.229  30.086  1.00  0.00    -0.248 NA
ATOM     57  C   UNL A   1      46.569  30.866  30.965  1.00  0.00     0.031 C 
ATOM     58  C   UNL A   1      46.445  25.150  28.923  1.00  0.00     0.029 A 
ATOM     59  C   UNL A   1      46.060  26.425  29.304  1.00  0.00     0.049 A 
ATOM     60  H   UNL A   1      44.139  27.299  29.274  1.00  0.00     0.167 HD
ATOM     61  C   UNL A   1      46.440  28.719  30.167  1.00  0.00     0.074 A 
ATOM     62  C   UNL A   1      47.278  29.777  30.693  1.00  0.00     0.031 C 
ATOM     63  C   UNL A   1      46.884  27.481  29.838  1.00  0.00     0.031 A 
BRANCH  50  64
ATOM     64  C   UNL A   1      42.534  23.672  27.674  1.00  0.00    -0.014 A 
ATOM     65  C   UNL A   1      42.409  22.574  28.546  1.00  0.00     0.010 A 
ATOM     66  C   UNL A   1      42.474  23.453  26.286  1.00  0.00     0.010 A 
ATOM     67  C   UNL A   1      42.256  21.280  28.042  1.00  0.00     0.020 A 
ATOM     68  C   UNL A   1      42.296  22.162  25.778  1.00  0.00     0.020 A 
ATOM     69  C   UNL A   1      42.211  21.081  26.660  1.00  0.00     0.054 A 
BRANCH  69  70
ATOM     70  S   UNL A   1      42.030  19.393  26.022  1.00  0.00     0.124 S 
ATOM     71  O   UNL A   1      42.427  18.584  27.169  1.00  0.00    -0.237 OA
ATOM     72  O   UNL A   1      40.614  19.334  25.666  1.00  0.00    -0.237 OA
ATOM     73  O   UNL A   1      42.948  19.359  24.883  1.00  0.00    -0.744 OA
ENDBRANCH  69  70
ENDBRANCH  50  64
BRANCH  51  74
ATOM     74  C   UNL A   1      44.394  32.862  31.133  1.00  0.00    -0.014 A 
ATOM     75  C   UNL A   1      44.301  33.189  32.499  1.00  0.00     0.010 A 
ATOM     76  C   UNL A   1      44.639  33.884  30.200  1.00  0.00     0.010 A 
ATOM     77  C   UNL A   1      44.378  34.519  32.918  1.00  0.00     0.020 A 
ATOM     78  C   UNL A   1      44.747  35.214  30.620  1.00  0.00     0.020 A 
ATOM     79  C   UNL A   1      44.583  35.525  31.972  1.00  0.00     0.054 A 
BRANCH  79  80
ATOM     80  S   UNL A   1      44.611  37.252  32.526  1.00  0.00     0.124 S 
ATOM     81  O   UNL A   1      44.289  37.966  31.293  1.00  0.00    -0.237 OA
ATOM     82  O   UNL A   1      43.576  37.276  33.556  1.00  0.00    -0.237 OA
ATOM     83  O   UNL A   1      45.976  37.431  33.014  1.00  0.00    -0.744 OA
ENDBRANCH  79  80
ENDBRANCH  51  74
BRANCH  63  84
ATOM     84  C   UNL A   1      48.343  27.175  30.040  1.00  0.00    -0.014 A 
ATOM     85  C   UNL A   1      48.789  26.683  31.282  1.00  0.00     0.010 A 
ATOM     86  C   UNL A   1      49.289  27.504  29.054  1.00  0.00     0.010 A 
ATOM     87  C   UNL A   1      50.154  26.561  31.547  1.00  0.00     0.020 A 
ATOM     88  C   UNL A   1      50.655  27.360  29.307  1.00  0.00     0.020 A 
ATOM     89  C   UNL A   1      51.080  26.914  30.561  1.00  0.00     0.054 A 
BRANCH  89  90
ATOM     90  S   UNL A   1      52.850  26.789  30.937  1.00  0.00     0.124 S 
ATOM     91  O   UNL A   1      53.147  28.118  31.463  1.00  0.00    -0.237 OA
ATOM     92  O   UNL A   1      52.897  25.701  31.911  1.00  0.00    -0.237 OA
ATOM     93  O   UNL A   1      53.452  26.480  29.641  1.00  0.00    -0.744 OA
ENDBRANCH  89  90
ENDBRANCH  63  84
ENDBRANCH  37  38
ENDBRANCH  29  32
ENDBRANCH  27  28
ENDBRANCH  26  27
ENDBRANCH   1  26
TORSDOF 18
ENDMDL
MODEL 2
REMARK VINA RESULT:     -11.3      3.013      8.425
REMARK SMILES C=Cc1cc(Cl)cc2c1O[C@H](C(F)(F)F)C(C(=O)NCCCCCCNC(=O)c1ccc(-c3c4nc(c(-c5ccc(S(=O)(=O)[O-])cc5)c5ccc([nH]5)c(-c5ccc(S(=O)(=O)[O-])cc5)c5nc(c(-c6ccc(S(=O)(=O)[O-])cc6)c6ccc3[nH]6)C=C5)C=C4)cc1)=C2
REMARK SMILES IDX 23 1 22 2 21 3 20 4 19 5 17 6 18 7 16 9 3 10 4 11 9 12 5 13
REMARK SMILES IDX 8 14 10 15 6 16 7 17 89 18 11 19 2 20 1 21 12 22 13 23 14 24
REMARK SMILES IDX 15 25 24 26 25 27 26 28 27 29 28 31 29 32 30 33 88 34 31 35
REMARK SMILES IDX 87 36 32 37 33 38 34 39 81 40 35 41 86 42 80 43 82 44 36 45
REMARK SMILES IDX 85 46 79 47 78 48 37 50 67 51 48 52 66 53 49 54 52 55 65 56
REMARK SMILES IDX 83 57 50 58 51 59 64 61 84 62 53 63 38 64 39 65 47 66 40 67
REMARK SMILES IDX 46 68 41 69 42 70 43 71 44 72 45 73 68 74 69 75 77 76 70 77
REMARK SMILES IDX 76 78 71 79 72 80 73 81 74 82 75 83 54 84 55 85 63 86 56 87
REMARK SMILES IDX 62 88 57 89 58 90 59 91 60 92 61 93
REMARK H PARENT 19 8 26 30 82 49 52 60
REMARK Flexibility Score: inf
ROOT
ATOM      1  C   UNL A   1      35.018  21.968  24.728  1.00  0.00     0.002 C 
ENDROOT
BRANCH   1   2
ATOM      2  C   UNL A   1      33.881  21.375  23.885  1.00  0.00     0.002 C 
BRANCH   2   3
ATOM      3  C   UNL A   1      32.576  21.088  24.635  1.00  0.00     0.021 C 
BRANCH   3   4
ATOM      4  C   UNL A   1      31.501  22.157  24.461  1.00  0.00     0.116 C 
BRANCH   4   5
ATOM      5  N   UNL A   1      30.822  22.451  25.711  1.00  0.00    -0.352 N 
ATOM      6  C   UNL A   1      30.480  23.550  26.423  1.00  0.00     0.251 C 
ATOM      7  O   UNL A   1      29.854  23.323  27.465  1.00  0.00    -0.270 OA
ATOM      8  H   UNL A   1      30.530  21.627  26.162  1.00  0.00     0.163 HD
BRANCH   6   9
ATOM      9  C   UNL A   1      30.798  24.963  26.052  1.00  0.00     0.067 C 
ATOM     10  C   UNL A   1      31.378  29.018  25.035  1.00  0.00     0.018 A 
ATOM     11  C   UNL A   1      30.651  29.562  23.969  1.00  0.00     0.032 A 
ATOM     12  C   UNL A   1      31.165  27.673  25.386  1.00  0.00     0.135 A 
ATOM     13  C   UNL A   1      29.716  28.779  23.290  1.00  0.00     0.042 A 
ATOM     14  C   UNL A   1      30.220  26.893  24.712  1.00  0.00     0.019 A 
ATOM     15  O   UNL A   1      31.869  27.181  26.451  1.00  0.00    -0.475 OA
ATOM     16  Cl  UNL A   1      28.823  29.462  21.987  1.00  0.00    -0.084 Cl
ATOM     17  C   UNL A   1      29.493  27.453  23.658  1.00  0.00     0.032 A 
ATOM     18  C   UNL A   1      29.974  25.524  25.148  1.00  0.00     0.025 C 
ATOM     19  C   UNL A   1      31.968  25.741  26.585  1.00  0.00     0.314 C 
BRANCH  10  20
ATOM     20  C   UNL A   1      32.386  29.819  25.746  1.00  0.00     0.004 C 
ATOM     21  C   UNL A   1      33.692  29.531  25.761  1.00  0.00     0.009 C 
ENDBRANCH  10  20
BRANCH  19  22
ATOM     22  C   UNL A   1      33.310  25.273  25.997  1.00  0.00     0.429 C 
ATOM     23  F   UNL A   1      33.169  24.938  24.692  1.00  0.00    -0.167 F 
ATOM     24  F   UNL A   1      34.261  26.234  26.048  1.00  0.00    -0.167 F 
ATOM     25  F   UNL A   1      33.805  24.193  26.645  1.00  0.00    -0.167 F 
ENDBRANCH  19  22
ENDBRANCH   6   9
ENDBRANCH   4   5
ENDBRANCH   3   4
ENDBRANCH   2   3
ENDBRANCH   1   2
BRANCH   1  26
ATOM     26  C   UNL A   1      35.917  22.982  24.016  1.00  0.00     0.021 C 
BRANCH  26  27
ATOM     27  C   UNL A   1      37.034  23.569  24.871  1.00  0.00     0.116 C 
BRANCH  27  28
ATOM     28  N   UNL A   1      37.999  22.571  25.297  1.00  0.00    -0.352 N 
ATOM     29  C   UNL A   1      39.124  22.727  26.073  1.00  0.00     0.251 C 
ATOM     30  H   UNL A   1      37.824  21.653  24.986  1.00  0.00     0.163 HD
ATOM     31  O   UNL A   1      39.910  21.796  26.213  1.00  0.00    -0.269 OA
BRANCH  29  32
ATOM     32  C   UNL A   1      39.397  24.036  26.707  1.00  0.00     0.039 A 
ATOM     33  C   UNL A   1      40.103  25.027  26.021  1.00  0.00     0.014 A 
ATOM     34  C   UNL A   1      38.963  24.261  28.017  1.00  0.00     0.014 A 
ATOM     35  C   UNL A   1      40.507  26.175  26.693  1.00  0.00     0.010 A 
ATOM     36  C   UNL A   1      39.305  25.451  28.665  1.00  0.00     0.010 A 
ATOM     37  C   UNL A   1      40.118  26.398  28.025  1.00  0.00    -0.014 A 
BRANCH  37  38
ATOM     38  C   UNL A   1      40.575  27.627  28.724  1.00  0.00     0.031 A 
ATOM     39  C   UNL A   1      42.006  27.774  29.170  1.00  0.00     0.074 A 
ATOM     40  C   UNL A   1      39.706  28.642  28.903  1.00  0.00     0.049 A 
ATOM     41  N   UNL A   1      42.581  28.792  29.758  1.00  0.00    -0.248 NA
ATOM     42  C   UNL A   1      42.911  26.638  28.923  1.00  0.00     0.031 C 
ATOM     43  C   UNL A   1      38.301  28.626  28.490  1.00  0.00     0.029 A 
ATOM     44  N   UNL A   1      39.880  29.892  29.442  1.00  0.00    -0.354 N 
ATOM     45  C   UNL A   1      43.904  28.418  29.961  1.00  0.00     0.074 A 
ATOM     46  C   UNL A   1      44.044  27.068  29.462  1.00  0.00     0.031 C 
ATOM     47  C   UNL A   1      37.760  29.828  28.732  1.00  0.00     0.029 A 
ATOM     48  C   UNL A   1      38.755  30.680  29.376  1.00  0.00     0.049 A 
ATOM     49  H   UNL A   1      40.729  30.196  29.837  1.00  0.00     0.167 HD
ATOM     50  C   UNL A   1      44.913  29.140  30.504  1.00  0.00     0.031 A 
ATOM     51  C   UNL A   1      38.537  31.945  29.791  1.00  0.00     0.031 A 
ATOM     52  C   UNL A   1      44.770  30.489  30.989  1.00  0.00     0.049 A 
ATOM     53  C   UNL A   1      39.657  32.707  30.435  1.00  0.00     0.074 A 
ATOM     54  C   UNL A   1      45.741  31.304  31.545  1.00  0.00     0.029 A 
ATOM     55  N   UNL A   1      43.593  31.222  30.972  1.00  0.00    -0.354 N 
ATOM     56  N   UNL A   1      40.900  32.333  30.624  1.00  0.00    -0.248 NA
ATOM     57  C   UNL A   1      39.352  34.057  30.929  1.00  0.00     0.031 C 
ATOM     58  C   UNL A   1      45.138  32.508  31.918  1.00  0.00     0.029 A 
ATOM     59  C   UNL A   1      43.808  32.470  31.533  1.00  0.00     0.049 A 
ATOM     60  H   UNL A   1      42.733  30.902  30.616  1.00  0.00     0.167 HD
ATOM     61  C   UNL A   1      41.526  33.400  31.253  1.00  0.00     0.074 A 
ATOM     62  C   UNL A   1      40.532  34.445  31.395  1.00  0.00     0.031 C 
ATOM     63  C   UNL A   1      42.809  33.499  31.679  1.00  0.00     0.031 A 
BRANCH  50  64
ATOM     64  C   UNL A   1      46.273  28.502  30.611  1.00  0.00    -0.014 A 
ATOM     65  C   UNL A   1      47.169  28.579  29.527  1.00  0.00     0.010 A 
ATOM     66  C   UNL A   1      46.621  27.727  31.732  1.00  0.00     0.010 A 
ATOM     67  C   UNL A   1      48.375  27.874  29.550  1.00  0.00     0.020 A 
ATOM     68  C   UNL A   1      47.839  27.040  31.769  1.00  0.00     0.020 A 
ATOM     69  C   UNL A   1      48.698  27.100  30.668  1.00  0.00     0.054 A 
BRANCH  69  70
ATOM     70  S   UNL A   1      50.259  26.176  30.675  1.00  0.00     0.124 S 
ATOM     71  O   UNL A   1      49.901  24.972  31.418  1.00  0.00    -0.237 OA
ATOM     72  O   UNL A   1      50.526  25.985  29.251  1.00  0.00    -0.237 OA
ATOM     73  O   UNL A   1      51.186  27.079  31.356  1.00  0.00    -0.744 OA
ENDBRANCH  69  70
ENDBRANCH  50  64
BRANCH  51  74
ATOM     74  C   UNL A   1      37.195  32.551  29.578  1.00  0.00    -0.014 A 
ATOM     75  C   UNL A   1      36.923  33.281  28.405  1.00  0.00     0.010 A 
ATOM     76  C   UNL A   1      36.220  32.492  30.588  1.00  0.00     0.010 A 
ATOM     77  C   UNL A   1      35.731  33.997  28.276  1.00  0.00     0.020 A 
ATOM     78  C   UNL A   1      35.012  33.183  30.449  1.00  0.00     0.020 A 
ATOM     79  C   UNL A   1      34.791  33.958  29.308  1.00  0.00     0.054 A 
BRANCH  79  80
ATOM     80  S   UNL A   1      33.280  34.950  29.150  1.00  0.00     0.124 S 
ATOM     81  O   UNL A   1      32.511  34.169  28.184  1.00  0.00    -0.237 OA
ATOM     82  O   UNL A   1      32.756  34.955  30.514  1.00  0.00    -0.237 OA
ATOM     83  O   UNL A   1      33.768  36.239  28.667  1.00  0.00    -0.744 OA
ENDBRANCH  79  80
ENDBRANCH  51  74
BRANCH  63  84
ATOM     84  C   UNL A   1      43.235  34.775  32.355  1.00  0.00    -0.014 A 
ATOM     85  C   UNL A   1      43.192  34.869  33.759  1.00  0.00     0.010 A 
ATOM     86  C   UNL A   1      43.542  35.919  31.599  1.00  0.00     0.010 A 
ATOM     87  C   UNL A   1      43.411  36.093  34.393  1.00  0.00     0.020 A 
ATOM     88  C   UNL A   1      43.787  37.141  32.232  1.00  0.00     0.020 A 
ATOM     89  C   UNL A   1      43.694  37.226  33.624  1.00  0.00     0.054 A 
BRANCH  89  90
ATOM     90  S   UNL A   1      43.936  38.816  34.462  1.00  0.00     0.124 S 
ATOM     91  O   UNL A   1      43.591  38.491  35.843  1.00  0.00    -0.237 OA
ATOM     92  O   UNL A   1      45.348  39.100  34.214  1.00  0.00    -0.237 OA
ATOM     93  O   UNL A   1      43.001  39.707  33.778  1.00  0.00    -0.744 OA
ENDBRANCH  89  90
ENDBRANCH  63  84
ENDBRANCH  37  38
ENDBRANCH  29  32
ENDBRANCH  27  28
ENDBRANCH  26  27
ENDBRANCH   1  26
TORSDOF 18
ENDMDL
MODEL 3
REMARK VINA RESULT:     -11.2      3.161      8.608
REMARK SMILES C=Cc1cc(Cl)cc2c1O[C@H](C(F)(F)F)C(C(=O)NCCCCCCNC(=O)c1ccc(-c3c4nc(c(-c5ccc(S(=O)(=O)[O-])cc5)c5ccc([nH]5)c(-c5ccc(S(=O)(=O)[O-])cc5)c5nc(c(-c6ccc(S(=O)(=O)[O-])cc6)c6ccc3[nH]6)C=C5)C=C4)cc1)=C2
REMARK SMILES IDX 23 1 22 2 21 3 20 4 19 5 17 6 18 7 16 9 3 10 4 11 9 12 5 13
REMARK SMILES IDX 8 14 10 15 6 16 7 17 89 18 11 19 2 20 1 21 12 22 13 23 14 24
REMARK SMILES IDX 15 25 24 26 25 27 26 28 27 29 28 31 29 32 30 33 88 34 31 35
REMARK SMILES IDX 87 36 32 37 33 38 34 39 81 40 35 41 86 42 80 43 82 44 36 45
REMARK SMILES IDX 85 46 79 47 78 48 37 50 67 51 48 52 66 53 49 54 52 55 65 56
REMARK SMILES IDX 83 57 50 58 51 59 64 61 84 62 53 63 38 64 39 65 47 66 40 67
REMARK SMILES IDX 46 68 41 69 42 70 43 71 44 72 45 73 68 74 69 75 77 76 70 77
REMARK SMILES IDX 76 78 71 79 72 80 73 81 74 82 75 83 54 84 55 85 63 86 56 87
REMARK SMILES IDX 62 88 57 89 58 90 59 91 60 92 61 93
REMARK H PARENT 19 8 26 30 82 49 52 60
REMARK Flexibility Score: inf
ROOT
ATOM      1  C   UNL A   1      35.179  21.875  24.281  1.00  0.00     0.002 C 
ENDROOT
BRANCH   1   2
ATOM      2  C   UNL A   1      33.711  21.960  23.845  1.00  0.00     0.002 C 
BRANCH   2   3
ATOM      3  C   UNL A   1      32.682  21.491  24.879  1.00  0.00     0.021 C 
BRANCH   3   4
ATOM      4  C   UNL A   1      32.809  22.163  26.244  1.00  0.00     0.116 C 
BRANCH   4   5
ATOM      5  N   UNL A   1      31.541  22.703  26.702  1.00  0.00    -0.352 N 
ATOM      6  C   UNL A   1      30.880  23.883  26.638  1.00  0.00     0.251 C 
ATOM      7  O   UNL A   1      29.762  23.884  27.164  1.00  0.00    -0.270 OA
ATOM      8  H   UNL A   1      31.019  22.027  27.192  1.00  0.00     0.163 HD
BRANCH   6   9
ATOM      9  C   UNL A   1      31.392  25.135  26.001  1.00  0.00     0.067 C 
ATOM     10  C   UNL A   1      33.093  28.654  24.409  1.00  0.00     0.018 A 
ATOM     11  C   UNL A   1      33.381  29.720  25.270  1.00  0.00     0.032 A 
ATOM     12  C   UNL A   1      32.548  27.475  24.946  1.00  0.00     0.135 A 
ATOM     13  C   UNL A   1      33.150  29.592  26.640  1.00  0.00     0.042 A 
ATOM     14  C   UNL A   1      32.328  27.344  26.321  1.00  0.00     0.019 A 
ATOM     15  O   UNL A   1      32.307  26.442  24.083  1.00  0.00    -0.475 OA
ATOM     16  Cl  UNL A   1      33.516  30.906  27.690  1.00  0.00    -0.084 Cl
ATOM     17  C   UNL A   1      32.631  28.411  27.171  1.00  0.00     0.032 A 
ATOM     18  C   UNL A   1      31.828  26.081  26.853  1.00  0.00     0.025 C 
ATOM     19  C   UNL A   1      31.406  25.394  24.521  1.00  0.00     0.314 C 
BRANCH  10  20
ATOM     20  C   UNL A   1      33.305  28.780  22.959  1.00  0.00     0.004 C 
ATOM     21  C   UNL A   1      34.367  28.281  22.315  1.00  0.00     0.009 C 
ENDBRANCH  10  20
BRANCH  19  22
ATOM     22  C   UNL A   1      30.003  25.666  23.953  1.00  0.00     0.429 C 
ATOM     23  F   UNL A   1      29.111  25.856  24.955  1.00  0.00    -0.167 F 
ATOM     24  F   UNL A   1      29.962  26.779  23.185  1.00  0.00    -0.167 F 
ATOM     25  F   UNL A   1      29.550  24.644  23.191  1.00  0.00    -0.167 F 
ENDBRANCH  19  22
ENDBRANCH   6   9
ENDBRANCH   4   5
ENDBRANCH   3   4
ENDBRANCH   2   3
ENDBRANCH   1   2
BRANCH   1  26
ATOM     26  C   UNL A   1      36.065  23.055  23.871  1.00  0.00     0.021 C 
BRANCH  26  27
ATOM     27  C   UNL A   1      36.977  23.591  24.967  1.00  0.00     0.116 C 
BRANCH  27  28
ATOM     28  N   UNL A   1      37.947  22.609  25.422  1.00  0.00    -0.352 N 
ATOM     29  C   UNL A   1      39.077  22.794  26.183  1.00  0.00     0.251 C 
ATOM     30  H   UNL A   1      37.770  21.680  25.145  1.00  0.00     0.163 HD
ATOM     31  O   UNL A   1      39.865  21.868  26.350  1.00  0.00    -0.269 OA
BRANCH  29  32
ATOM     32  C   UNL A   1      39.353  24.125  26.768  1.00  0.00     0.039 A 
ATOM     33  C   UNL A   1      40.046  25.094  26.038  1.00  0.00     0.014 A 
ATOM     34  C   UNL A   1      38.937  24.393  28.075  1.00  0.00     0.014 A 
ATOM     35  C   UNL A   1      40.454  26.266  26.664  1.00  0.00     0.010 A 
ATOM     36  C   UNL A   1      39.283  25.606  28.677  1.00  0.00     0.010 A 
ATOM     37  C   UNL A   1      40.084  26.533  27.993  1.00  0.00    -0.014 A 
BRANCH  37  38
ATOM     38  C   UNL A   1      40.545  27.788  28.643  1.00  0.00     0.031 A 
ATOM     39  C   UNL A   1      41.990  27.970  29.027  1.00  0.00     0.074 A 
ATOM     40  C   UNL A   1      39.666  28.792  28.831  1.00  0.00     0.049 A 
ATOM     41  N   UNL A   1      42.570  29.012  29.566  1.00  0.00    -0.248 NA
ATOM     42  C   UNL A   1      42.905  26.844  28.771  1.00  0.00     0.031 C 
ATOM     43  C   UNL A   1      38.246  28.740  28.476  1.00  0.00     0.029 A 
ATOM     44  N   UNL A   1      39.838  30.058  29.332  1.00  0.00    -0.354 N 
ATOM     45  C   UNL A   1      43.907  28.667  29.725  1.00  0.00     0.074 A 
ATOM     46  C   UNL A   1      44.051  27.307  29.254  1.00  0.00     0.031 C 
ATOM     47  C   UNL A   1      37.694  29.939  28.710  1.00  0.00     0.029 A 
ATOM     48  C   UNL A   1      38.698  30.824  29.293  1.00  0.00     0.049 A 
ATOM     49  H   UNL A   1      40.696  30.386  29.685  1.00  0.00     0.167 HD
ATOM     50  C   UNL A   1      44.923  29.420  30.209  1.00  0.00     0.031 A 
ATOM     51  C   UNL A   1      38.473  32.095  29.685  1.00  0.00     0.031 A 
ATOM     52  C   UNL A   1      44.774  30.778  30.666  1.00  0.00     0.049 A 
ATOM     53  C   UNL A   1      39.604  32.893  30.264  1.00  0.00     0.074 A 
ATOM     54  C   UNL A   1      45.751  31.624  31.163  1.00  0.00     0.029 A 
ATOM     55  N   UNL A   1      43.585  31.490  30.679  1.00  0.00    -0.354 N 
ATOM     56  N   UNL A   1      40.860  32.544  30.412  1.00  0.00    -0.248 NA
ATOM     57  C   UNL A   1      39.294  34.248  30.737  1.00  0.00     0.031 C 
ATOM     58  C   UNL A   1      45.142  32.826  31.529  1.00  0.00     0.029 A 
ATOM     59  C   UNL A   1      43.798  32.755  31.199  1.00  0.00     0.049 A 
ATOM     60  H   UNL A   1      42.717  31.146  30.365  1.00  0.00     0.167 HD
ATOM     61  C   UNL A   1      41.491  33.638  30.989  1.00  0.00     0.074 A 
ATOM     62  C   UNL A   1      40.484  34.669  31.145  1.00  0.00     0.031 C 
ATOM     63  C   UNL A   1      42.787  33.770  31.360  1.00  0.00     0.031 A 
BRANCH  50  64
ATOM     64  C   UNL A   1      46.298  28.808  30.276  1.00  0.00    -0.014 A 
ATOM     65  C   UNL A   1      46.722  28.173  31.459  1.00  0.00     0.010 A 
ATOM     66  C   UNL A   1      47.211  28.965  29.219  1.00  0.00     0.010 A 
ATOM     67  C   UNL A   1      48.040  27.728  31.593  1.00  0.00     0.020 A 
ATOM     68  C   UNL A   1      48.524  28.498  29.339  1.00  0.00     0.020 A 
ATOM     69  C   UNL A   1      48.936  27.903  30.535  1.00  0.00     0.054 A 
BRANCH  69  70
ATOM     70  S   UNL A   1      50.648  27.336  30.731  1.00  0.00     0.124 S 
ATOM     71  O   UNL A   1      51.380  28.594  30.830  1.00  0.00    -0.237 OA
ATOM     72  O   UNL A   1      50.586  26.542  31.956  1.00  0.00    -0.237 OA
ATOM     73  O   UNL A   1      50.892  26.563  29.514  1.00  0.00    -0.744 OA
ENDBRANCH  69  70
ENDBRANCH  50  64
BRANCH  51  74
ATOM     74  C   UNL A   1      37.113  32.672  29.511  1.00  0.00    -0.014 A 
ATOM     75  C   UNL A   1      36.771  33.342  28.321  1.00  0.00     0.010 A 
ATOM     76  C   UNL A   1      36.190  32.648  30.571  1.00  0.00     0.010 A 
ATOM     77  C   UNL A   1      35.563  34.035  28.218  1.00  0.00     0.020 A 
ATOM     78  C   UNL A   1      34.966  33.315  30.460  1.00  0.00     0.020 A 
ATOM     79  C   UNL A   1      34.676  34.032  29.296  1.00  0.00     0.054 A 
BRANCH  79  80
ATOM     80  S   UNL A   1      33.144  34.995  29.168  1.00  0.00     0.124 S 
ATOM     81  O   UNL A   1      32.649  34.950  30.542  1.00  0.00    -0.237 OA
ATOM     82  O   UNL A   1      33.620  36.299  28.714  1.00  0.00    -0.237 OA
ATOM     83  O   UNL A   1      32.353  34.248  28.194  1.00  0.00    -0.744 OA
ENDBRANCH  79  80
ENDBRANCH  51  74
BRANCH  63  84
ATOM     84  C   UNL A   1      43.217  35.069  31.987  1.00  0.00    -0.014 A 
ATOM     85  C   UNL A   1      42.890  35.339  33.330  1.00  0.00     0.010 A 
ATOM     86  C   UNL A   1      43.817  36.076  31.212  1.00  0.00     0.010 A 
ATOM     87  C   UNL A   1      43.121  36.603  33.875  1.00  0.00     0.020 A 
ATOM     88  C   UNL A   1      44.074  37.335  31.762  1.00  0.00     0.020 A 
ATOM     89  C   UNL A   1      43.700  37.599  33.082  1.00  0.00     0.054 A 
BRANCH  89  90
ATOM     90  S   UNL A   1      43.955  39.247  33.794  1.00  0.00     0.124 S 
ATOM     91  O   UNL A   1      45.033  39.777  32.964  1.00  0.00    -0.237 OA
ATOM     92  O   UNL A   1      42.651  39.882  33.615  1.00  0.00    -0.237 OA
ATOM     93  O   UNL A   1      44.316  38.967  35.182  1.00  0.00    -0.744 OA
ENDBRANCH  89  90
ENDBRANCH  63  84
ENDBRANCH  37  38
ENDBRANCH  29  32
ENDBRANCH  27  28
ENDBRANCH  26  27
ENDBRANCH   1  26
TORSDOF 18
ENDMDL
