MODEL 1
REMARK VINA RESULT:      -9.3      0.000      0.000
REMARK SMILES C=CCN(CC(=O)NCCCCCCNC(=O)c1ccc(-c2c3nc(c(-c4ccc(S(=O)(=O)[O-])cc4)c4ccc([nH]4)c(-c4ccc(S(=O)(=O)[O-])cc4)c4nc(c(-c5ccc(S(=O)(=O)[O-])cc5)c5ccc2[nH]5)C=C4)C=C3)cc1)C(=O)N1CC[N@H+](C)C(C)(C)C1
REMARK SMILES IDX 11 1 10 2 9 3 8 4 6 5 7 6 5 8 4 9 3 10 2 11 1 12 78 13 79 14
REMARK SMILES IDX 80 15 81 16 88 17 82 18 85 19 83 20 86 21 87 22 84 23 12 25
REMARK SMILES IDX 13 26 14 27 15 28 16 29 17 31 18 32 19 33 77 34 20 35 76 36
REMARK SMILES IDX 21 37 22 38 23 39 70 40 24 41 75 42 69 43 71 44 25 45 74 46
REMARK SMILES IDX 68 47 67 48 26 50 56 51 37 52 55 53 38 54 41 55 54 56 72 57
REMARK SMILES IDX 39 58 40 59 53 61 73 62 42 63 27 64 28 65 36 66 29 67 35 68
REMARK SMILES IDX 30 69 31 70 32 71 33 72 34 73 57 74 58 75 66 76 59 77 65 78
REMARK SMILES IDX 60 79 61 80 62 81 63 82 64 83 43 84 44 85 52 86 45 87 51 88
REMARK SMILES IDX 46 89 47 90 48 91 49 92 50 93
REMARK H PARENT 8 7 83 24 15 30 71 49 41 60
REMARK Flexibility Score: inf
ROOT
ATOM      1  C   UNL A   1      31.149  27.674  27.384  1.00  0.00     0.002 C 
ENDROOT
BRANCH   1   2
ATOM      2  C   UNL A   1      31.263  26.546  26.353  1.00  0.00     0.021 C 
BRANCH   2   3
ATOM      3  C   UNL A   1      30.289  26.647  25.183  1.00  0.00     0.116 C 
BRANCH   3   4
ATOM      4  N   UNL A   1      29.987  25.380  24.573  1.00  0.00    -0.355 N 
ATOM      5  C   UNL A   1      30.571  24.784  23.500  1.00  0.00     0.239 C 
ATOM      6  O   UNL A   1      30.475  23.552  23.441  1.00  0.00    -0.273 OA
ATOM      7  H   UNL A   1      29.255  24.871  24.992  1.00  0.00     0.163 HD
BRANCH   5   8
ATOM      8  C   UNL A   1      31.409  25.555  22.457  1.00  0.00     0.221 C 
BRANCH   8   9
ATOM      9  N   UNL A   1      32.827  25.208  22.298  1.00  0.00    -0.312 N 
BRANCH   9  10
ATOM     10  C   UNL A   1      33.777  26.322  22.346  1.00  0.00     0.149 C 
BRANCH  10  11
ATOM     11  C   UNL A   1      33.434  27.285  23.446  1.00  0.00    -0.013 C 
ATOM     12  C   UNL A   1      33.280  28.599  23.238  1.00  0.00     0.006 C 
ENDBRANCH  10  11
ENDBRANCH   9  10
BRANCH   9  13
ATOM     13  C   UNL A   1      33.374  23.929  22.318  1.00  0.00     0.321 C 
ATOM     14  O   UNL A   1      33.386  23.223  21.306  1.00  0.00    -0.248 OA
BRANCH  13  15
ATOM     15  N   UNL A   1      34.043  23.506  23.451  1.00  0.00    -0.313 N 
ATOM     16  C   UNL A   1      35.505  23.563  23.411  1.00  0.00     0.183 C 
ATOM     17  C   UNL A   1      33.564  22.443  24.327  1.00  0.00     0.189 C 
ATOM     18  C   UNL A   1      36.120  23.635  24.822  1.00  0.00     0.284 C 
ATOM     19  C   UNL A   1      34.123  22.558  25.780  1.00  0.00     0.110 C 
ATOM     20  N   UNL A   1      35.622  22.630  25.800  1.00  0.00    -0.330 N 
ATOM     21  C   UNL A   1      33.610  23.838  26.482  1.00  0.00     0.080 C 
ATOM     22  C   UNL A   1      33.564  21.370  26.596  1.00  0.00     0.080 C 
ATOM     23  C   UNL A   1      36.293  21.347  25.597  1.00  0.00     0.333 C 
ATOM     24  H   UNL A   1      35.862  22.923  26.747  1.00  0.00     0.348 HD
ENDBRANCH  13  15
ENDBRANCH   9  13
ENDBRANCH   8   9
ENDBRANCH   5   8
ENDBRANCH   3   4
ENDBRANCH   2   3
ENDBRANCH   1   2
BRANCH   1  25
ATOM     25  C   UNL A   1      32.243  28.745  27.320  1.00  0.00     0.002 C 
BRANCH  25  26
ATOM     26  C   UNL A   1      33.656  28.232  27.032  1.00  0.00     0.021 C 
BRANCH  26  27
ATOM     27  C   UNL A   1      34.649  29.301  26.599  1.00  0.00     0.116 C 
BRANCH  27  28
ATOM     28  N   UNL A   1      34.258  30.619  27.064  1.00  0.00    -0.352 N 
ATOM     29  C   UNL A   1      34.764  31.353  28.105  1.00  0.00     0.251 C 
ATOM     30  H   UNL A   1      33.527  31.046  26.562  1.00  0.00     0.163 HD
ATOM     31  O   UNL A   1      34.162  32.355  28.495  1.00  0.00    -0.269 OA
BRANCH  29  32
ATOM     32  C   UNL A   1      36.019  30.938  28.768  1.00  0.00     0.039 A 
ATOM     33  C   UNL A   1      35.991  29.856  29.651  1.00  0.00     0.014 A 
ATOM     34  C   UNL A   1      37.218  31.621  28.537  1.00  0.00     0.014 A 
ATOM     35  C   UNL A   1      37.170  29.435  30.268  1.00  0.00     0.010 A 
ATOM     36  C   UNL A   1      38.406  31.151  29.092  1.00  0.00     0.010 A 
ATOM     37  C   UNL A   1      38.393  30.062  29.975  1.00  0.00    -0.014 A 
BRANCH  37  38
ATOM     38  C   UNL A   1      39.659  29.591  30.593  1.00  0.00     0.031 A 
ATOM     39  C   UNL A   1      40.196  30.258  31.832  1.00  0.00     0.074 A 
ATOM     40  C   UNL A   1      40.346  28.585  30.016  1.00  0.00     0.049 A 
ATOM     41  N   UNL A   1      41.281  29.985  32.508  1.00  0.00    -0.248 NA
ATOM     42  C   UNL A   1      39.424  31.392  32.368  1.00  0.00     0.031 C 
ATOM     43  C   UNL A   1      39.957  27.891  28.785  1.00  0.00     0.029 A 
ATOM     44  N   UNL A   1      41.516  27.972  30.386  1.00  0.00    -0.354 N 
ATOM     45  C   UNL A   1      41.332  30.919  33.539  1.00  0.00     0.074 A 
ATOM     46  C   UNL A   1      40.196  31.799  33.365  1.00  0.00     0.031 C 
ATOM     47  C   UNL A   1      40.852  26.926  28.524  1.00  0.00     0.029 A 
ATOM     48  C   UNL A   1      41.899  26.957  29.541  1.00  0.00     0.049 A 
ATOM     49  H   UNL A   1      42.034  28.235  31.181  1.00  0.00     0.167 HD
ATOM     50  C   UNL A   1      42.229  31.024  34.548  1.00  0.00     0.031 A 
ATOM     51  C   UNL A   1      42.970  26.142  29.578  1.00  0.00     0.031 A 
ATOM     52  C   UNL A   1      43.354  30.142  34.720  1.00  0.00     0.049 A 
ATOM     53  C   UNL A   1      43.952  26.276  30.709  1.00  0.00     0.074 A 
ATOM     54  C   UNL A   1      44.288  30.128  35.742  1.00  0.00     0.029 A 
ATOM     55  N   UNL A   1      43.702  29.122  33.847  1.00  0.00    -0.354 N 
ATOM     56  N   UNL A   1      43.940  27.117  31.715  1.00  0.00    -0.248 NA
ATOM     57  C   UNL A   1      45.083  25.338  30.719  1.00  0.00     0.031 C 
ATOM     58  C   UNL A   1      45.232  29.135  35.457  1.00  0.00     0.029 A 
ATOM     59  C   UNL A   1      44.851  28.489  34.292  1.00  0.00     0.049 A 
ATOM     60  H   UNL A   1      43.206  28.883  33.031  1.00  0.00     0.167 HD
ATOM     61  C   UNL A   1      45.047  26.794  32.493  1.00  0.00     0.074 A 
ATOM     62  C   UNL A   1      45.692  25.667  31.850  1.00  0.00     0.031 C 
ATOM     63  C   UNL A   1      45.488  27.375  33.636  1.00  0.00     0.031 A 
BRANCH  50  64
ATOM     64  C   UNL A   1      42.034  32.141  35.542  1.00  0.00    -0.014 A 
ATOM     65  C   UNL A   1      41.258  31.957  36.701  1.00  0.00     0.010 A 
ATOM     66  C   UNL A   1      42.666  33.380  35.333  1.00  0.00     0.010 A 
ATOM     67  C   UNL A   1      41.080  33.005  37.609  1.00  0.00     0.020 A 
ATOM     68  C   UNL A   1      42.516  34.421  36.255  1.00  0.00     0.020 A 
ATOM     69  C   UNL A   1      41.708  34.232  37.378  1.00  0.00     0.054 A 
BRANCH  69  70
ATOM     70  S   UNL A   1      41.476  35.567  38.583  1.00  0.00     0.124 S 
ATOM     71  O   UNL A   1      42.158  36.683  37.930  1.00  0.00    -0.237 OA
ATOM     72  O   UNL A   1      40.022  35.681  38.660  1.00  0.00    -0.237 OA
ATOM     73  O   UNL A   1      42.125  35.063  39.791  1.00  0.00    -0.744 OA
ENDBRANCH  69  70
ENDBRANCH  50  64
BRANCH  51  74
ATOM     74  C   UNL A   1      43.158  25.115  28.516  1.00  0.00    -0.014 A 
ATOM     75  C   UNL A   1      43.883  25.415  27.348  1.00  0.00     0.010 A 
ATOM     76  C   UNL A   1      42.625  23.824  28.675  1.00  0.00     0.010 A 
ATOM     77  C   UNL A   1      44.055  24.448  26.353  1.00  0.00     0.020 A 
ATOM     78  C   UNL A   1      42.820  22.845  27.696  1.00  0.00     0.020 A 
ATOM     79  C   UNL A   1      43.525  23.168  26.535  1.00  0.00     0.054 A 
BRANCH  79  80
ATOM     80  S   UNL A   1      43.807  21.914  25.256  1.00  0.00     0.124 S 
ATOM     81  O   UNL A   1      43.672  22.693  24.030  1.00  0.00    -0.237 OA
ATOM     82  O   UNL A   1      45.156  21.446  25.565  1.00  0.00    -0.237 OA
ATOM     83  O   UNL A   1      42.747  20.936  25.497  1.00  0.00    -0.744 OA
ENDBRANCH  79  80
ENDBRANCH  51  74
BRANCH  63  84
ATOM     84  C   UNL A   1      46.713  26.782  34.283  1.00  0.00    -0.014 A 
ATOM     85  C   UNL A   1      48.000  27.272  34.000  1.00  0.00     0.010 A 
ATOM     86  C   UNL A   1      46.567  25.737  35.214  1.00  0.00     0.010 A 
ATOM     87  C   UNL A   1      49.123  26.699  34.603  1.00  0.00     0.020 A 
ATOM     88  C   UNL A   1      47.684  25.183  35.843  1.00  0.00     0.020 A 
ATOM     89  C   UNL A   1      48.957  25.654  35.519  1.00  0.00     0.054 A 
BRANCH  89  90
ATOM     90  S   UNL A   1      50.427  24.941  36.304  1.00  0.00     0.124 S 
ATOM     91  O   UNL A   1      50.222  25.293  37.708  1.00  0.00    -0.237 OA
ATOM     92  O   UNL A   1      50.304  23.520  35.989  1.00  0.00    -0.237 OA
ATOM     93  O   UNL A   1      51.539  25.625  35.647  1.00  0.00    -0.744 OA
ENDBRANCH  89  90
ENDBRANCH  63  84
ENDBRANCH  37  38
ENDBRANCH  29  32
ENDBRANCH  27  28
ENDBRANCH  26  27
ENDBRANCH  25  26
ENDBRANCH   1  25
TORSDOF 21
ENDMDL
MODEL 2
REMARK VINA RESULT:      -9.0      5.233      9.506
REMARK SMILES C=CCN(CC(=O)NCCCCCCNC(=O)c1ccc(-c2c3nc(c(-c4ccc(S(=O)(=O)[O-])cc4)c4ccc([nH]4)c(-c4ccc(S(=O)(=O)[O-])cc4)c4nc(c(-c5ccc(S(=O)(=O)[O-])cc5)c5ccc2[nH]5)C=C4)C=C3)cc1)C(=O)N1CC[N@H+](C)C(C)(C)C1
REMARK SMILES IDX 11 1 10 2 9 3 8 4 6 5 7 6 5 8 4 9 3 10 2 11 1 12 78 13 79 14
REMARK SMILES IDX 80 15 81 16 88 17 82 18 85 19 83 20 86 21 87 22 84 23 12 25
REMARK SMILES IDX 13 26 14 27 15 28 16 29 17 31 18 32 19 33 77 34 20 35 76 36
REMARK SMILES IDX 21 37 22 38 23 39 70 40 24 41 75 42 69 43 71 44 25 45 74 46
REMARK SMILES IDX 68 47 67 48 26 50 56 51 37 52 55 53 38 54 41 55 54 56 72 57
REMARK SMILES IDX 39 58 40 59 53 61 73 62 42 63 27 64 28 65 36 66 29 67 35 68
REMARK SMILES IDX 30 69 31 70 32 71 33 72 34 73 57 74 58 75 66 76 59 77 65 78
REMARK SMILES IDX 60 79 61 80 62 81 63 82 64 83 43 84 44 85 52 86 45 87 51 88
REMARK SMILES IDX 46 89 47 90 48 91 49 92 50 93
REMARK H PARENT 8 7 83 24 15 30 71 49 41 60
REMARK Flexibility Score: inf
ROOT
ATOM      1  C   UNL A   1      33.100  29.369  26.280  1.00  0.00     0.002 C 
ENDROOT
BRANCH   1   2
ATOM      2  C   UNL A   1      32.083  29.665  25.172  1.00  0.00     0.021 C 
BRANCH   2   3
ATOM      3  C   UNL A   1      31.290  28.453  24.691  1.00  0.00     0.116 C 
BRANCH   3   4
ATOM      4  N   UNL A   1      31.051  27.476  25.720  1.00  0.00    -0.355 N 
ATOM      5  C   UNL A   1      31.322  26.144  25.717  1.00  0.00     0.239 C 
ATOM      6  O   UNL A   1      31.459  25.613  26.826  1.00  0.00    -0.273 OA
ATOM      7  H   UNL A   1      30.633  27.820  26.543  1.00  0.00     0.163 HD
BRANCH   5   8
ATOM      8  C   UNL A   1      31.562  25.333  24.426  1.00  0.00     0.221 C 
BRANCH   8   9
ATOM      9  N   UNL A   1      32.935  25.209  23.918  1.00  0.00    -0.312 N 
BRANCH   9  10
ATOM     10  C   UNL A   1      33.241  25.947  22.691  1.00  0.00     0.149 C 
BRANCH  10  11
ATOM     11  C   UNL A   1      32.294  25.584  21.584  1.00  0.00    -0.013 C 
ATOM     12  C   UNL A   1      32.646  25.601  20.292  1.00  0.00     0.006 C 
ENDBRANCH  10  11
ENDBRANCH   9  10
BRANCH   9  13
ATOM     13  C   UNL A   1      34.017  24.643  24.585  1.00  0.00     0.321 C 
ATOM     14  O   UNL A   1      34.930  25.342  25.032  1.00  0.00    -0.248 OA
BRANCH  13  15
ATOM     15  N   UNL A   1      33.989  23.292  24.875  1.00  0.00    -0.313 N 
ATOM     16  C   UNL A   1      35.047  22.786  25.750  1.00  0.00     0.183 C 
ATOM     17  C   UNL A   1      33.518  22.272  23.944  1.00  0.00     0.189 C 
ATOM     18  C   UNL A   1      34.635  21.480  26.459  1.00  0.00     0.284 C 
ATOM     19  C   UNL A   1      33.026  20.977  24.665  1.00  0.00     0.110 C 
ATOM     20  N   UNL A   1      34.070  20.417  25.586  1.00  0.00    -0.330 N 
ATOM     21  C   UNL A   1      31.775  21.255  25.532  1.00  0.00     0.080 C 
ATOM     22  C   UNL A   1      32.578  19.974  23.578  1.00  0.00     0.080 C 
ATOM     23  C   UNL A   1      35.142  19.687  24.914  1.00  0.00     0.333 C 
ATOM     24  H   UNL A   1      33.580  19.728  26.157  1.00  0.00     0.348 HD
ENDBRANCH  13  15
ENDBRANCH   9  13
ENDBRANCH   8   9
ENDBRANCH   5   8
ENDBRANCH   3   4
ENDBRANCH   2   3
ENDBRANCH   1   2
BRANCH   1  25
ATOM     25  C   UNL A   1      33.424  30.540  27.213  1.00  0.00     0.002 C 
BRANCH  25  26
ATOM     26  C   UNL A   1      34.912  30.790  27.469  1.00  0.00     0.021 C 
BRANCH  26  27
ATOM     27  C   UNL A   1      35.636  29.663  28.192  1.00  0.00     0.116 C 
BRANCH  27  28
ATOM     28  N   UNL A   1      35.646  29.864  29.629  1.00  0.00    -0.352 N 
ATOM     29  C   UNL A   1      36.642  29.598  30.531  1.00  0.00     0.251 C 
ATOM     30  H   UNL A   1      34.822  30.245  30.009  1.00  0.00     0.163 HD
ATOM     31  O   UNL A   1      36.395  29.623  31.738  1.00  0.00    -0.269 OA
BRANCH  29  32
ATOM     32  C   UNL A   1      38.005  29.267  30.060  1.00  0.00     0.039 A 
ATOM     33  C   UNL A   1      38.376  29.625  28.762  1.00  0.00     0.014 A 
ATOM     34  C   UNL A   1      38.909  28.590  30.886  1.00  0.00     0.014 A 
ATOM     35  C   UNL A   1      39.665  29.342  28.308  1.00  0.00     0.010 A 
ATOM     36  C   UNL A   1      40.218  28.379  30.459  1.00  0.00     0.010 A 
ATOM     37  C   UNL A   1      40.606  28.740  29.160  1.00  0.00    -0.014 A 
BRANCH  37  38
ATOM     38  C   UNL A   1      41.994  28.476  28.700  1.00  0.00     0.031 A 
ATOM     39  C   UNL A   1      42.386  27.109  28.207  1.00  0.00     0.074 A 
ATOM     40  C   UNL A   1      42.913  29.461  28.760  1.00  0.00     0.049 A 
ATOM     41  N   UNL A   1      43.546  26.693  27.769  1.00  0.00    -0.248 NA
ATOM     42  C   UNL A   1      41.346  26.066  28.231  1.00  0.00     0.031 C 
ATOM     43  C   UNL A   1      42.670  30.815  29.265  1.00  0.00     0.029 A 
ATOM     44  N   UNL A   1      44.235  29.476  28.397  1.00  0.00    -0.354 N 
ATOM     45  C   UNL A   1      43.381  25.342  27.478  1.00  0.00     0.074 A 
ATOM     46  C   UNL A   1      42.024  24.996  27.842  1.00  0.00     0.031 C 
ATOM     47  C   UNL A   1      43.795  31.537  29.146  1.00  0.00     0.029 A 
ATOM     48  C   UNL A   1      44.849  30.690  28.595  1.00  0.00     0.049 A 
ATOM     49  H   UNL A   1      44.701  28.691  28.028  1.00  0.00     0.167 HD
ATOM     50  C   UNL A   1      44.270  24.474  26.940  1.00  0.00     0.031 A 
ATOM     51  C   UNL A   1      46.116  31.081  28.361  1.00  0.00     0.031 A 
ATOM     52  C   UNL A   1      45.618  24.824  26.574  1.00  0.00     0.049 A 
ATOM     53  C   UNL A   1      47.085  30.099  27.761  1.00  0.00     0.074 A 
ATOM     54  C   UNL A   1      46.578  24.033  25.967  1.00  0.00     0.029 A 
ATOM     55  N   UNL A   1      46.198  26.067  26.784  1.00  0.00    -0.354 N 
ATOM     56  N   UNL A   1      46.887  28.848  27.424  1.00  0.00    -0.248 NA
ATOM     57  C   UNL A   1      48.444  30.590  27.494  1.00  0.00     0.031 C 
ATOM     58  C   UNL A   1      47.757  24.780  25.862  1.00  0.00     0.029 A 
ATOM     59  C   UNL A   1      47.511  26.056  26.343  1.00  0.00     0.049 A 
ATOM     60  H   UNL A   1      45.744  26.842  27.186  1.00  0.00     0.167 HD
ATOM     61  C   UNL A   1      48.089  28.407  26.881  1.00  0.00     0.074 A 
ATOM     62  C   UNL A   1      49.000  29.533  26.917  1.00  0.00     0.031 C 
ATOM     63  C   UNL A   1      48.409  27.182  26.395  1.00  0.00     0.031 A 
BRANCH  50  64
ATOM     64  C   UNL A   1      43.814  23.053  26.723  1.00  0.00    -0.014 A 
ATOM     65  C   UNL A   1      44.251  22.309  25.611  1.00  0.00     0.010 A 
ATOM     66  C   UNL A   1      42.966  22.440  27.663  1.00  0.00     0.010 A 
ATOM     67  C   UNL A   1      43.813  20.995  25.420  1.00  0.00     0.020 A 
ATOM     68  C   UNL A   1      42.550  21.116  27.492  1.00  0.00     0.020 A 
ATOM     69  C   UNL A   1      42.963  20.408  26.361  1.00  0.00     0.054 A 
BRANCH  69  70
ATOM     70  S   UNL A   1      42.426  18.696  26.098  1.00  0.00     0.124 S 
ATOM     71  O   UNL A   1      42.652  18.105  27.415  1.00  0.00    -0.237 OA
ATOM     72  O   UNL A   1      41.025  18.855  25.714  1.00  0.00    -0.237 OA
ATOM     73  O   UNL A   1      43.309  18.213  25.039  1.00  0.00    -0.744 OA
ENDBRANCH  69  70
ENDBRANCH  50  64
BRANCH  51  74
ATOM     74  C   UNL A   1      46.534  32.474  28.681  1.00  0.00    -0.014 A 
ATOM     75  C   UNL A   1      46.476  33.483  27.702  1.00  0.00     0.010 A 
ATOM     76  C   UNL A   1      46.977  32.803  29.974  1.00  0.00     0.010 A 
ATOM     77  C   UNL A   1      46.871  34.789  28.007  1.00  0.00     0.020 A 
ATOM     78  C   UNL A   1      47.345  34.113  30.291  1.00  0.00     0.020 A 
ATOM     79  C   UNL A   1      47.300  35.096  29.301  1.00  0.00     0.054 A 
BRANCH  79  80
ATOM     80  S   UNL A   1      47.756  36.809  29.689  1.00  0.00     0.124 S 
ATOM     81  O   UNL A   1      46.975  37.067  30.894  1.00  0.00    -0.237 OA
ATOM     82  O   UNL A   1      49.201  36.715  29.877  1.00  0.00    -0.237 OA
ATOM     83  O   UNL A   1      47.338  37.551  28.501  1.00  0.00    -0.744 OA
ENDBRANCH  79  80
ENDBRANCH  51  74
BRANCH  63  84
ATOM     84  C   UNL A   1      49.797  27.004  25.834  1.00  0.00    -0.014 A 
ATOM     85  C   UNL A   1      50.059  27.175  24.463  1.00  0.00     0.010 A 
ATOM     86  C   UNL A   1      50.861  26.692  26.701  1.00  0.00     0.010 A 
ATOM     87  C   UNL A   1      51.352  26.994  23.963  1.00  0.00     0.020 A 
ATOM     88  C   UNL A   1      52.159  26.541  26.210  1.00  0.00     0.020 A 
ATOM     89  C   UNL A   1      52.393  26.674  24.840  1.00  0.00     0.054 A 
BRANCH  89  90
ATOM     90  S   UNL A   1      54.065  26.466  24.171  1.00  0.00     0.124 S 
ATOM     91  O   UNL A   1      53.819  26.472  22.731  1.00  0.00    -0.237 OA
ATOM     92  O   UNL A   1      54.768  27.635  24.692  1.00  0.00    -0.237 OA
ATOM     93  O   UNL A   1      54.502  25.185  24.722  1.00  0.00    -0.744 OA
ENDBRANCH  89  90
ENDBRANCH  63  84
ENDBRANCH  37  38
ENDBRANCH  29  32
ENDBRANCH  27  28
ENDBRANCH  26  27
ENDBRANCH  25  26
ENDBRANCH   1  25
TORSDOF 21
ENDMDL
MODEL 3
REMARK VINA RESULT:      -8.9      2.772      9.350
REMARK SMILES C=CCN(CC(=O)NCCCCCCNC(=O)c1ccc(-c2c3nc(c(-c4ccc(S(=O)(=O)[O-])cc4)c4ccc([nH]4)c(-c4ccc(S(=O)(=O)[O-])cc4)c4nc(c(-c5ccc(S(=O)(=O)[O-])cc5)c5ccc2[nH]5)C=C4)C=C3)cc1)C(=O)N1CC[N@H+](C)C(C)(C)C1
REMARK SMILES IDX 11 1 10 2 9 3 8 4 6 5 7 6 5 8 4 9 3 10 2 11 1 12 78 13 79 14
REMARK SMILES IDX 80 15 81 16 88 17 82 18 85 19 83 20 86 21 87 22 84 23 12 25
REMARK SMILES IDX 13 26 14 27 15 28 16 29 17 31 18 32 19 33 77 34 20 35 76 36
REMARK SMILES IDX 21 37 22 38 23 39 70 40 24 41 75 42 69 43 71 44 25 45 74 46
REMARK SMILES IDX 68 47 67 48 26 50 56 51 37 52 55 53 38 54 41 55 54 56 72 57
REMARK SMILES IDX 39 58 40 59 53 61 73 62 42 63 27 64 28 65 36 66 29 67 35 68
REMARK SMILES IDX 30 69 31 70 32 71 33 72 34 73 57 74 58 75 66 76 59 77 65 78
REMARK SMILES IDX 60 79 61 80 62 81 63 82 64 83 43 84 44 85 52 86 45 87 51 88
REMARK SMILES IDX 46 89 47 90 48 91 49 92 50 93
REMARK H PARENT 8 7 83 24 15 30 71 49 41 60
REMARK Flexibility Score: inf
ROOT
ATOM      1  C   UNL A   1      38.750  22.996  26.069  1.00  0.00     0.002 C 
ENDROOT
BRANCH   1   2
ATOM      2  C   UNL A   1      37.430  22.217  26.107  1.00  0.00     0.021 C 
BRANCH   2   3
ATOM      3  C   UNL A   1      36.992  21.637  24.766  1.00  0.00     0.116 C 
BRANCH   3   4
ATOM      4  N   UNL A   1      35.751  20.912  24.829  1.00  0.00    -0.355 N 
ATOM      5  C   UNL A   1      34.524  21.271  24.368  1.00  0.00     0.239 C 
ATOM      6  O   UNL A   1      33.742  20.345  24.121  1.00  0.00    -0.273 OA
ATOM      7  H   UNL A   1      35.796  20.032  25.267  1.00  0.00     0.163 HD
BRANCH   5   8
ATOM      8  C   UNL A   1      34.133  22.732  24.053  1.00  0.00     0.221 C 
BRANCH   8   9
ATOM      9  N   UNL A   1      33.344  23.477  25.043  1.00  0.00    -0.312 N 
BRANCH   9  10
ATOM     10  C   UNL A   1      33.975  23.693  26.346  1.00  0.00     0.149 C 
BRANCH  10  11
ATOM     11  C   UNL A   1      33.827  22.489  27.231  1.00  0.00    -0.013 C 
ATOM     12  C   UNL A   1      33.065  22.485  28.332  1.00  0.00     0.006 C 
ENDBRANCH  10  11
ENDBRANCH   9  10
BRANCH   9  13
ATOM     13  C   UNL A   1      32.162  24.173  24.806  1.00  0.00     0.321 C 
ATOM     14  O   UNL A   1      31.101  23.830  25.336  1.00  0.00    -0.248 OA
BRANCH  13  15
ATOM     15  N   UNL A   1      32.214  25.351  24.085  1.00  0.00    -0.313 N 
ATOM     16  C   UNL A   1      32.625  25.245  22.684  1.00  0.00     0.183 C 
ATOM     17  C   UNL A   1      32.576  26.640  24.662  1.00  0.00     0.189 C 
ATOM     18  C   UNL A   1      32.120  26.434  21.842  1.00  0.00     0.284 C 
ATOM     19  C   UNL A   1      31.999  27.846  23.855  1.00  0.00     0.110 C 
ATOM     20  N   UNL A   1      32.381  27.786  22.405  1.00  0.00    -0.330 N 
ATOM     21  C   UNL A   1      30.453  27.869  23.904  1.00  0.00     0.080 C 
ATOM     22  C   UNL A   1      32.467  29.145  24.550  1.00  0.00     0.080 C 
ATOM     23  C   UNL A   1      33.754  28.198  22.123  1.00  0.00     0.333 C 
ATOM     24  H   UNL A   1      31.784  28.471  21.943  1.00  0.00     0.348 HD
ENDBRANCH  13  15
ENDBRANCH   9  13
ENDBRANCH   8   9
ENDBRANCH   5   8
ENDBRANCH   3   4
ENDBRANCH   2   3
ENDBRANCH   1   2
BRANCH   1  25
ATOM     25  C   UNL A   1      40.012  22.178  26.357  1.00  0.00     0.002 C 
BRANCH  25  26
ATOM     26  C   UNL A   1      40.657  22.412  27.725  1.00  0.00     0.021 C 
BRANCH  26  27
ATOM     27  C   UNL A   1      42.008  23.111  27.684  1.00  0.00     0.116 C 
BRANCH  27  28
ATOM     28  N   UNL A   1      42.199  23.842  26.445  1.00  0.00    -0.352 N 
ATOM     29  C   UNL A   1      41.981  25.170  26.183  1.00  0.00     0.251 C 
ATOM     30  H   UNL A   1      42.533  23.311  25.687  1.00  0.00     0.163 HD
ATOM     31  O   UNL A   1      41.983  25.570  25.018  1.00  0.00    -0.269 OA
BRANCH  29  32
ATOM     32  C   UNL A   1      41.727  26.116  27.291  1.00  0.00     0.039 A 
ATOM     33  C   UNL A   1      40.601  25.927  28.095  1.00  0.00     0.014 A 
ATOM     34  C   UNL A   1      42.583  27.197  27.527  1.00  0.00     0.014 A 
ATOM     35  C   UNL A   1      40.357  26.796  29.160  1.00  0.00     0.010 A 
ATOM     36  C   UNL A   1      42.382  28.015  28.636  1.00  0.00     0.010 A 
ATOM     37  C   UNL A   1      41.259  27.832  29.457  1.00  0.00    -0.014 A 
BRANCH  37  38
ATOM     38  C   UNL A   1      41.031  28.734  30.615  1.00  0.00     0.031 A 
ATOM     39  C   UNL A   1      41.882  28.616  31.852  1.00  0.00     0.074 A 
ATOM     40  C   UNL A   1      40.030  29.636  30.568  1.00  0.00     0.049 A 
ATOM     41  N   UNL A   1      41.829  29.313  32.957  1.00  0.00    -0.248 NA
ATOM     42  C   UNL A   1      42.913  27.565  31.855  1.00  0.00     0.031 C 
ATOM     43  C   UNL A   1      39.102  29.813  29.447  1.00  0.00     0.029 A 
ATOM     44  N   UNL A   1      39.623  30.571  31.486  1.00  0.00    -0.354 N 
ATOM     45  C   UNL A   1      42.806  28.778  33.791  1.00  0.00     0.074 A 
ATOM     46  C   UNL A   1      43.399  27.664  33.084  1.00  0.00     0.031 C 
ATOM     47  C   UNL A   1      38.260  30.820  29.730  1.00  0.00     0.029 A 
ATOM     48  C   UNL A   1      38.559  31.332  31.063  1.00  0.00     0.049 A 
ATOM     49  H   UNL A   1      40.053  30.687  32.364  1.00  0.00     0.167 HD
ATOM     50  C   UNL A   1      43.188  29.188  35.024  1.00  0.00     0.031 A 
ATOM     51  C   UNL A   1      37.896  32.331  31.678  1.00  0.00     0.031 A 
ATOM     52  C   UNL A   1      42.599  30.301  35.722  1.00  0.00     0.049 A 
ATOM     53  C   UNL A   1      38.340  32.770  33.047  1.00  0.00     0.074 A 
ATOM     54  C   UNL A   1      42.955  30.833  36.950  1.00  0.00     0.029 A 
ATOM     55  N   UNL A   1      41.529  31.051  35.256  1.00  0.00    -0.354 N 
ATOM     56  N   UNL A   1      39.315  32.299  33.787  1.00  0.00    -0.248 NA
ATOM     57  C   UNL A   1      37.604  33.887  33.655  1.00  0.00     0.031 C 
ATOM     58  C   UNL A   1      42.063  31.868  37.251  1.00  0.00     0.029 A 
ATOM     59  C   UNL A   1      41.194  32.024  36.183  1.00  0.00     0.049 A 
ATOM     60  H   UNL A   1      41.074  30.912  34.394  1.00  0.00     0.167 HD
ATOM     61  C   UNL A   1      39.327  33.079  34.937  1.00  0.00     0.074 A 
ATOM     62  C   UNL A   1      38.275  34.064  34.785  1.00  0.00     0.031 C 
ATOM     63  C   UNL A   1      40.137  32.990  36.022  1.00  0.00     0.031 A 
BRANCH  50  64
ATOM     64  C   UNL A   1      44.293  28.418  35.704  1.00  0.00    -0.014 A 
ATOM     65  C   UNL A   1      45.641  28.793  35.552  1.00  0.00     0.010 A 
ATOM     66  C   UNL A   1      43.977  27.328  36.535  1.00  0.00     0.010 A 
ATOM     67  C   UNL A   1      46.654  28.065  36.183  1.00  0.00     0.020 A 
ATOM     68  C   UNL A   1      44.985  26.616  37.192  1.00  0.00     0.020 A 
ATOM     69  C   UNL A   1      46.320  26.979  36.996  1.00  0.00     0.054 A 
BRANCH  69  70
ATOM     70  S   UNL A   1      47.654  26.065  37.818  1.00  0.00     0.124 S 
ATOM     71  O   UNL A   1      47.804  26.810  39.066  1.00  0.00    -0.237 OA
ATOM     72  O   UNL A   1      47.088  24.725  37.952  1.00  0.00    -0.237 OA
ATOM     73  O   UNL A   1      48.775  26.175  36.888  1.00  0.00    -0.744 OA
ENDBRANCH  69  70
ENDBRANCH  50  64
BRANCH  51  74
ATOM     74  C   UNL A   1      36.752  32.994  30.993  1.00  0.00    -0.014 A 
ATOM     75  C   UNL A   1      35.428  32.722  31.382  1.00  0.00     0.010 A 
ATOM     76  C   UNL A   1      36.983  33.915  29.955  1.00  0.00     0.010 A 
ATOM     77  C   UNL A   1      34.357  33.346  30.734  1.00  0.00     0.020 A 
ATOM     78  C   UNL A   1      35.917  34.563  29.325  1.00  0.00     0.020 A 
ATOM     79  C   UNL A   1      34.609  34.265  29.712  1.00  0.00     0.054 A 
BRANCH  79  80
ATOM     80  S   UNL A   1      33.208  35.103  28.922  1.00  0.00     0.124 S 
ATOM     81  O   UNL A   1      32.347  35.397  30.063  1.00  0.00    -0.237 OA
ATOM     82  O   UNL A   1      33.844  36.257  28.293  1.00  0.00    -0.237 OA
ATOM     83  O   UNL A   1      32.692  34.101  27.990  1.00  0.00    -0.744 OA
ENDBRANCH  79  80
ENDBRANCH  51  74
BRANCH  63  84
ATOM     84  C   UNL A   1      39.935  34.005  37.118  1.00  0.00    -0.014 A 
ATOM     85  C   UNL A   1      40.602  35.243  37.101  1.00  0.00     0.010 A 
ATOM     86  C   UNL A   1      39.038  33.726  38.165  1.00  0.00     0.010 A 
ATOM     87  C   UNL A   1      40.409  36.164  38.134  1.00  0.00     0.020 A 
ATOM     88  C   UNL A   1      38.817  34.657  39.182  1.00  0.00     0.020 A 
ATOM     89  C   UNL A   1      39.520  35.863  39.170  1.00  0.00     0.054 A 
BRANCH  89  90
ATOM     90  S   UNL A   1      39.269  37.083  40.488  1.00  0.00     0.124 S 
ATOM     91  O   UNL A   1      40.638  37.504  40.776  1.00  0.00    -0.237 OA
ATOM     92  O   UNL A   1      38.427  38.086  39.841  1.00  0.00    -0.237 OA
ATOM     93  O   UNL A   1      38.617  36.319  41.549  1.00  0.00    -0.744 OA
ENDBRANCH  89  90
ENDBRANCH  63  84
ENDBRANCH  37  38
ENDBRANCH  29  32
ENDBRANCH  27  28
ENDBRANCH  26  27
ENDBRANCH  25  26
ENDBRANCH   1  25
TORSDOF 21
ENDMDL
