MODEL 1
REMARK VINA RESULT:     -12.9      0.000      0.000
REMARK SMILES O=C(NCCCCCCNC(=O)[C@H]1[C@H]2CC[C@H](CC2)[C@@H]1C(=O)Nc1sc2c(c1C(=O)N1CCCCC1)CCCC2)c1ccc(-c2c3nc(c(-c4ccc(S(=O)(=O)[O-])cc4)c4ccc([nH]4)c(-c4ccc(S(=O)(=O)[O-])cc4)c4nc(c(-c5ccc(S(=O)(=O)[O-])cc5)c5ccc2[nH]5)C=C4)C=C3)cc1
REMARK SMILES IDX 6 1 5 2 4 3 3 4 1 5 2 6 41 8 42 9 100 10 43 11 99 12 44 13
REMARK SMILES IDX 45 14 46 15 93 16 47 17 98 18 92 19 94 20 48 21 97 22 91 23
REMARK SMILES IDX 90 24 49 26 79 27 60 28 78 29 61 30 64 31 77 32 95 33 62 34
REMARK SMILES IDX 63 35 76 37 96 38 65 39 50 40 51 41 59 42 52 43 58 44 53 45
REMARK SMILES IDX 54 46 55 47 56 48 57 49 80 50 81 51 89 52 82 53 88 54 83 55
REMARK SMILES IDX 84 56 85 57 86 58 87 59 66 60 67 61 75 62 68 63 74 64 69 65
REMARK SMILES IDX 70 66 71 67 72 68 73 69 7 70 8 71 9 72 10 73 11 74 12 76
REMARK SMILES IDX 13 77 14 78 20 79 15 80 19 81 17 82 16 83 18 84 21 85 22 86
REMARK SMILES IDX 23 87 24 89 25 90 28 91 26 92 27 93 40 94 37 95 39 96 38 97
REMARK SMILES IDX 29 98 30 99 31 100 32 101 36 102 33 103 35 104 34 105
REMARK H PARENT 3 7 94 25 64 36 10 75 23 88
REMARK Flexibility Score: inf
ROOT
ATOM      1  C   UNL A   1      34.037  31.127  28.002  1.00  0.00     0.002 C 
ENDROOT
BRANCH   1   2
ATOM      2  C   UNL A   1      35.420  31.666  27.630  1.00  0.00     0.021 C 
BRANCH   2   3
ATOM      3  C   UNL A   1      36.185  32.276  28.797  1.00  0.00     0.116 C 
BRANCH   3   4
ATOM      4  N   UNL A   1      35.848  31.633  30.058  1.00  0.00    -0.352 N 
ATOM      5  O   UNL A   1      35.967  30.044  31.653  1.00  0.00    -0.269 OA
ATOM      6  C   UNL A   1      36.506  30.623  30.712  1.00  0.00     0.251 C 
ATOM      7  H   UNL A   1      35.037  31.970  30.502  1.00  0.00     0.163 HD
BRANCH   6   8
ATOM      8  C   UNL A   1      37.858  30.227  30.268  1.00  0.00     0.039 A 
ATOM      9  C   UNL A   1      38.133  30.045  28.910  1.00  0.00     0.014 A 
ATOM     10  C   UNL A   1      38.863  30.049  31.221  1.00  0.00     0.014 A 
ATOM     11  C   UNL A   1      39.380  29.575  28.512  1.00  0.00     0.010 A 
ATOM     12  C   UNL A   1      40.137  29.653  30.814  1.00  0.00     0.010 A 
ATOM     13  C   UNL A   1      40.401  29.395  29.459  1.00  0.00    -0.014 A 
BRANCH  13  14
ATOM     14  C   UNL A   1      41.764  29.014  29.013  1.00  0.00     0.031 A 
ATOM     15  C   UNL A   1      42.863  30.032  28.926  1.00  0.00     0.074 A 
ATOM     16  C   UNL A   1      41.991  27.736  28.653  1.00  0.00     0.049 A 
ATOM     17  N   UNL A   1      44.091  29.881  28.497  1.00  0.00    -0.248 NA
ATOM     18  C   UNL A   1      42.542  31.399  29.364  1.00  0.00     0.031 C 
ATOM     19  C   UNL A   1      40.995  26.662  28.688  1.00  0.00     0.029 A 
ATOM     20  N   UNL A   1      43.122  27.126  28.175  1.00  0.00    -0.354 N 
ATOM     21  C   UNL A   1      44.683  31.136  28.589  1.00  0.00     0.074 A 
ATOM     22  C   UNL A   1      43.670  32.041  29.093  1.00  0.00     0.031 C 
ATOM     23  C   UNL A   1      41.560  25.524  28.262  1.00  0.00     0.029 A 
ATOM     24  C   UNL A   1      42.935  25.802  27.860  1.00  0.00     0.049 A 
ATOM     25  H   UNL A   1      43.984  27.590  28.069  1.00  0.00     0.167 HD
ATOM     26  C   UNL A   1      45.951  31.496  28.278  1.00  0.00     0.031 A 
ATOM     27  C   UNL A   1      43.759  24.912  27.273  1.00  0.00     0.031 A 
ATOM     28  C   UNL A   1      46.941  30.588  27.759  1.00  0.00     0.049 A 
ATOM     29  C   UNL A   1      45.146  25.340  26.899  1.00  0.00     0.074 A 
ATOM     30  C   UNL A   1      48.267  30.843  27.452  1.00  0.00     0.029 A 
ATOM     31  N   UNL A   1      46.711  29.254  27.451  1.00  0.00    -0.354 N 
ATOM     32  N   UNL A   1      45.707  26.517  27.045  1.00  0.00    -0.248 NA
ATOM     33  C   UNL A   1      46.014  24.326  26.290  1.00  0.00     0.031 C 
ATOM     34  C   UNL A   1      48.817  29.684  26.896  1.00  0.00     0.029 A 
ATOM     35  C   UNL A   1      47.859  28.683  26.925  1.00  0.00     0.049 A 
ATOM     36  H   UNL A   1      45.857  28.782  27.587  1.00  0.00     0.167 HD
ATOM     37  C   UNL A   1      47.004  26.380  26.564  1.00  0.00     0.074 A 
ATOM     38  C   UNL A   1      47.145  25.003  26.132  1.00  0.00     0.031 C 
ATOM     39  C   UNL A   1      47.986  27.311  26.495  1.00  0.00     0.031 A 
BRANCH  26  40
ATOM     40  C   UNL A   1      46.321  32.950  28.442  1.00  0.00    -0.014 A 
ATOM     41  C   UNL A   1      46.861  33.442  29.645  1.00  0.00     0.010 A 
ATOM     42  C   UNL A   1      46.136  33.839  27.367  1.00  0.00     0.010 A 
ATOM     43  C   UNL A   1      47.142  34.804  29.791  1.00  0.00     0.020 A 
ATOM     44  C   UNL A   1      46.447  35.195  27.497  1.00  0.00     0.020 A 
ATOM     45  C   UNL A   1      46.922  35.674  28.719  1.00  0.00     0.054 A 
BRANCH  45  46
ATOM     46  S   UNL A   1      47.269  37.440  28.944  1.00  0.00     0.124 S 
ATOM     47  O   UNL A   1      47.684  37.487  30.344  1.00  0.00    -0.237 OA
ATOM     48  O   UNL A   1      48.328  37.687  27.968  1.00  0.00    -0.237 OA
ATOM     49  O   UNL A   1      45.993  38.087  28.651  1.00  0.00    -0.744 OA
ENDBRANCH  45  46
ENDBRANCH  26  40
BRANCH  27  50
ATOM     50  C   UNL A   1      43.253  23.543  26.990  1.00  0.00    -0.014 A 
ATOM     51  C   UNL A   1      43.031  23.114  25.672  1.00  0.00     0.010 A 
ATOM     52  C   UNL A   1      43.078  22.627  28.047  1.00  0.00     0.010 A 
ATOM     53  C   UNL A   1      42.651  21.794  25.413  1.00  0.00     0.020 A 
ATOM     54  C   UNL A   1      42.726  21.300  27.791  1.00  0.00     0.020 A 
ATOM     55  C   UNL A   1      42.511  20.892  26.474  1.00  0.00     0.054 A 
BRANCH  55  56
ATOM     56  S   UNL A   1      42.112  19.162  26.104  1.00  0.00     0.124 S 
ATOM     57  O   UNL A   1      42.490  18.490  27.344  1.00  0.00    -0.237 OA
ATOM     58  O   UNL A   1      40.679  19.222  25.829  1.00  0.00    -0.237 OA
ATOM     59  O   UNL A   1      42.948  18.857  24.946  1.00  0.00    -0.744 OA
ENDBRANCH  55  56
ENDBRANCH  27  50
BRANCH  39  60
ATOM     60  C   UNL A   1      49.325  26.874  25.963  1.00  0.00    -0.014 A 
ATOM     61  C   UNL A   1      49.686  27.088  24.621  1.00  0.00     0.010 A 
ATOM     62  C   UNL A   1      50.273  26.328  26.849  1.00  0.00     0.010 A 
ATOM     63  C   UNL A   1      50.968  26.757  24.174  1.00  0.00     0.020 A 
ATOM     64  C   UNL A   1      51.563  26.021  26.412  1.00  0.00     0.020 A 
ATOM     65  C   UNL A   1      51.901  26.233  25.075  1.00  0.00     0.054 A 
BRANCH  65  66
ATOM     66  S   UNL A   1      53.585  25.896  24.490  1.00  0.00     0.124 S 
ATOM     67  O   UNL A   1      53.457  26.114  23.052  1.00  0.00    -0.237 OA
ATOM     68  O   UNL A   1      54.378  26.890  25.208  1.00  0.00    -0.237 OA
ATOM     69  O   UNL A   1      53.821  24.511  24.891  1.00  0.00    -0.744 OA
ENDBRANCH  65  66
ENDBRANCH  39  60
ENDBRANCH  13  14
ENDBRANCH   6   8
ENDBRANCH   3   4
ENDBRANCH   2   3
ENDBRANCH   1   2
BRANCH   1  70
ATOM     70  C   UNL A   1      33.106  30.875  26.811  1.00  0.00     0.002 C 
BRANCH  70  71
ATOM     71  C   UNL A   1      32.029  29.807  27.050  1.00  0.00     0.021 C 
BRANCH  71  72
ATOM     72  C   UNL A   1      32.584  28.494  27.601  1.00  0.00     0.116 C 
BRANCH  72  73
ATOM     73  N   UNL A   1      33.514  27.908  26.650  1.00  0.00    -0.356 N 
ATOM     74  C   UNL A   1      33.389  26.766  25.917  1.00  0.00     0.224 C 
ATOM     75  H   UNL A   1      34.352  28.407  26.517  1.00  0.00     0.163 HD
ATOM     76  O   UNL A   1      34.400  26.293  25.396  1.00  0.00    -0.275 OA
BRANCH  74  77
ATOM     77  C   UNL A   1      31.997  26.211  25.655  1.00  0.00     0.094 C 
ATOM     78  C   UNL A   1      31.286  27.124  24.617  1.00  0.00     0.002 C 
ATOM     79  C   UNL A   1      32.019  24.718  25.180  1.00  0.00     0.094 C 
ATOM     80  C   UNL A   1      31.973  27.022  23.244  1.00  0.00     0.005 C 
ATOM     81  C   UNL A   1      29.839  26.628  24.459  1.00  0.00     0.005 C 
ATOM     82  C   UNL A   1      31.281  24.668  23.810  1.00  0.00     0.002 C 
ATOM     83  C   UNL A   1      32.048  25.558  22.813  1.00  0.00     0.005 C 
ATOM     84  C   UNL A   1      29.840  25.184  23.952  1.00  0.00     0.005 C 
BRANCH  79  85
ATOM     85  C   UNL A   1      31.431  23.820  26.304  1.00  0.00     0.229 C 
ATOM     86  O   UNL A   1      30.378  24.133  26.875  1.00  0.00    -0.274 OA
ATOM     87  N   UNL A   1      32.003  22.641  26.689  1.00  0.00    -0.317 N 
ATOM     88  H   UNL A   1      31.425  22.048  27.224  1.00  0.00     0.170 HD
BRANCH  87  89
ATOM     89  C   UNL A   1      33.267  22.160  26.443  1.00  0.00     0.108 A 
ATOM     90  S   UNL A   1      34.584  22.966  27.153  1.00  0.00    -0.122 S 
ATOM     91  C   UNL A   1      33.623  21.012  25.737  1.00  0.00     0.078 A 
ATOM     92  C   UNL A   1      35.666  22.106  26.177  1.00  0.00     0.011 A 
ATOM     93  C   UNL A   1      35.073  21.013  25.563  1.00  0.00    -0.019 A 
ATOM     94  C   UNL A   1      37.096  22.523  26.050  1.00  0.00     0.047 C 
ATOM     95  C   UNL A   1      35.908  20.077  24.745  1.00  0.00     0.037 C 
ATOM     96  C   UNL A   1      37.755  21.812  24.862  1.00  0.00     0.006 C 
ATOM     97  C   UNL A   1      37.417  20.324  24.870  1.00  0.00     0.005 C 
BRANCH  91  98
ATOM     98  C   UNL A   1      32.577  20.146  25.142  1.00  0.00     0.257 C 
ATOM     99  O   UNL A   1      31.474  20.597  24.829  1.00  0.00    -0.269 OA
ATOM    100  N   UNL A   1      32.917  18.835  24.808  1.00  0.00    -0.339 N 
ATOM    101  C   UNL A   1      32.486  18.362  23.499  1.00  0.00     0.120 C 
ATOM    102  C   UNL A   1      32.907  17.798  25.831  1.00  0.00     0.120 C 
ATOM    103  C   UNL A   1      33.443  17.284  23.007  1.00  0.00     0.022 C 
ATOM    104  C   UNL A   1      33.805  16.622  25.431  1.00  0.00     0.022 C 
ATOM    105  C   UNL A   1      33.538  16.131  24.007  1.00  0.00     0.004 C 
ENDBRANCH  91  98
ENDBRANCH  87  89
ENDBRANCH  79  85
ENDBRANCH  74  77
ENDBRANCH  72  73
ENDBRANCH  71  72
ENDBRANCH  70  71
ENDBRANCH   1  70
TORSDOF 19
ENDMDL
MODEL 2
REMARK VINA RESULT:     -12.8      5.888     11.967
REMARK SMILES O=C(NCCCCCCNC(=O)[C@H]1[C@H]2CC[C@H](CC2)[C@@H]1C(=O)Nc1sc2c(c1C(=O)N1CCCCC1)CCCC2)c1ccc(-c2c3nc(c(-c4ccc(S(=O)(=O)[O-])cc4)c4ccc([nH]4)c(-c4ccc(S(=O)(=O)[O-])cc4)c4nc(c(-c5ccc(S(=O)(=O)[O-])cc5)c5ccc2[nH]5)C=C4)C=C3)cc1
REMARK SMILES IDX 6 1 5 2 4 3 3 4 1 5 2 6 41 8 42 9 100 10 43 11 99 12 44 13
REMARK SMILES IDX 45 14 46 15 93 16 47 17 98 18 92 19 94 20 48 21 97 22 91 23
REMARK SMILES IDX 90 24 49 26 79 27 60 28 78 29 61 30 64 31 77 32 95 33 62 34
REMARK SMILES IDX 63 35 76 37 96 38 65 39 50 40 51 41 59 42 52 43 58 44 53 45
REMARK SMILES IDX 54 46 55 47 56 48 57 49 80 50 81 51 89 52 82 53 88 54 83 55
REMARK SMILES IDX 84 56 85 57 86 58 87 59 66 60 67 61 75 62 68 63 74 64 69 65
REMARK SMILES IDX 70 66 71 67 72 68 73 69 7 70 8 71 9 72 10 73 11 74 12 76
REMARK SMILES IDX 13 77 14 78 20 79 15 80 19 81 17 82 16 83 18 84 21 85 22 86
REMARK SMILES IDX 23 87 24 89 25 90 28 91 26 92 27 93 40 94 37 95 39 96 38 97
REMARK SMILES IDX 29 98 30 99 31 100 32 101 36 102 33 103 35 104 34 105
REMARK H PARENT 3 7 94 25 64 36 10 75 23 88
REMARK Flexibility Score: inf
ROOT
ATOM      1  C   UNL A   1      39.905  21.840  26.297  1.00  0.00     0.002 C 
ENDROOT
BRANCH   1   2
ATOM      2  C   UNL A   1      40.444  22.328  27.643  1.00  0.00     0.021 C 
BRANCH   2   3
ATOM      3  C   UNL A   1      41.716  23.160  27.540  1.00  0.00     0.116 C 
BRANCH   3   4
ATOM      4  N   UNL A   1      41.775  23.901  26.290  1.00  0.00    -0.352 N 
ATOM      5  O   UNL A   1      41.413  25.655  24.920  1.00  0.00    -0.269 OA
ATOM      6  C   UNL A   1      41.537  25.234  26.067  1.00  0.00     0.251 C 
ATOM      7  H   UNL A   1      42.020  23.375  25.495  1.00  0.00     0.163 HD
BRANCH   6   8
ATOM      8  C   UNL A   1      41.417  26.154  27.216  1.00  0.00     0.039 A 
ATOM      9  C   UNL A   1      42.397  27.122  27.454  1.00  0.00     0.014 A 
ATOM     10  C   UNL A   1      40.306  26.055  28.056  1.00  0.00     0.014 A 
ATOM     11  C   UNL A   1      42.326  27.915  28.594  1.00  0.00     0.010 A 
ATOM     12  C   UNL A   1      40.195  26.906  29.156  1.00  0.00     0.010 A 
ATOM     13  C   UNL A   1      41.213  27.829  29.445  1.00  0.00    -0.014 A 
BRANCH  13  14
ATOM     14  C   UNL A   1      41.083  28.765  30.590  1.00  0.00     0.031 A 
ATOM     15  C   UNL A   1      41.964  28.637  31.798  1.00  0.00     0.074 A 
ATOM     16  C   UNL A   1      40.130  29.715  30.541  1.00  0.00     0.049 A 
ATOM     17  N   UNL A   1      41.941  29.329  32.909  1.00  0.00    -0.248 NA
ATOM     18  C   UNL A   1      42.998  27.592  31.761  1.00  0.00     0.031 C 
ATOM     19  C   UNL A   1      39.209  29.927  29.421  1.00  0.00     0.029 A 
ATOM     20  N   UNL A   1      39.768  30.670  31.455  1.00  0.00    -0.354 N 
ATOM     21  C   UNL A   1      42.936  28.788  33.715  1.00  0.00     0.074 A 
ATOM     22  C   UNL A   1      43.530  27.696  32.971  1.00  0.00     0.031 C 
ATOM     23  C   UNL A   1      38.396  30.953  29.709  1.00  0.00     0.029 A 
ATOM     24  C   UNL A   1      38.691  31.426  31.057  1.00  0.00     0.049 A 
ATOM     25  H   UNL A   1      40.233  30.803  32.312  1.00  0.00     0.167 HD
ATOM     26  C   UNL A   1      43.315  29.168  34.959  1.00  0.00     0.031 A 
ATOM     27  C   UNL A   1      37.987  32.368  31.712  1.00  0.00     0.031 A 
ATOM     28  C   UNL A   1      42.702  30.246  35.692  1.00  0.00     0.049 A 
ATOM     29  C   UNL A   1      38.396  32.747  33.104  1.00  0.00     0.074 A 
ATOM     30  C   UNL A   1      43.040  30.738  36.942  1.00  0.00     0.029 A 
ATOM     31  N   UNL A   1      41.612  30.985  35.254  1.00  0.00    -0.354 N 
ATOM     32  N   UNL A   1      39.376  32.264  33.830  1.00  0.00    -0.248 NA
ATOM     33  C   UNL A   1      37.615  33.800  33.764  1.00  0.00     0.031 C 
ATOM     34  C   UNL A   1      42.113  31.727  37.286  1.00  0.00     0.029 A 
ATOM     35  C   UNL A   1      41.242  31.905  36.222  1.00  0.00     0.049 A 
ATOM     36  H   UNL A   1      41.166  30.872  34.383  1.00  0.00     0.167 HD
ATOM     37  C   UNL A   1      39.344  32.969  35.027  1.00  0.00     0.074 A 
ATOM     38  C   UNL A   1      38.252  33.917  34.923  1.00  0.00     0.031 C 
ATOM     39  C   UNL A   1      40.150  32.842  36.108  1.00  0.00     0.031 A 
BRANCH  26  40
ATOM     40  C   UNL A   1      44.413  28.376  35.624  1.00  0.00    -0.014 A 
ATOM     41  C   UNL A   1      45.745  28.829  35.639  1.00  0.00     0.010 A 
ATOM     42  C   UNL A   1      44.104  27.157  36.256  1.00  0.00     0.010 A 
ATOM     43  C   UNL A   1      46.754  28.049  36.213  1.00  0.00     0.020 A 
ATOM     44  C   UNL A   1      45.103  26.389  36.860  1.00  0.00     0.020 A 
ATOM     45  C   UNL A   1      46.427  26.827  36.809  1.00  0.00     0.054 A 
BRANCH  45  46
ATOM     46  S   UNL A   1      47.759  25.821  37.520  1.00  0.00     0.124 S 
ATOM     47  O   UNL A   1      48.861  26.778  37.573  1.00  0.00    -0.237 OA
ATOM     48  O   UNL A   1      47.208  25.429  38.816  1.00  0.00    -0.237 OA
ATOM     49  O   UNL A   1      47.924  24.732  36.562  1.00  0.00    -0.744 OA
ENDBRANCH  45  46
ENDBRANCH  26  40
BRANCH  27  50
ATOM     50  C   UNL A   1      36.808  32.980  31.043  1.00  0.00    -0.014 A 
ATOM     51  C   UNL A   1      35.505  32.705  31.487  1.00  0.00     0.010 A 
ATOM     52  C   UNL A   1      36.997  33.917  30.008  1.00  0.00     0.010 A 
ATOM     53  C   UNL A   1      34.411  33.362  30.914  1.00  0.00     0.020 A 
ATOM     54  C   UNL A   1      35.910  34.596  29.453  1.00  0.00     0.020 A 
ATOM     55  C   UNL A   1      34.622  34.312  29.908  1.00  0.00     0.054 A 
BRANCH  55  56
ATOM     56  S   UNL A   1      33.196  35.220  29.250  1.00  0.00     0.124 S 
ATOM     57  O   UNL A   1      32.403  35.455  30.453  1.00  0.00    -0.237 OA
ATOM     58  O   UNL A   1      33.822  36.403  28.663  1.00  0.00    -0.237 OA
ATOM     59  O   UNL A   1      32.613  34.290  28.286  1.00  0.00    -0.744 OA
ENDBRANCH  55  56
ENDBRANCH  27  50
BRANCH  39  60
ATOM     60  C   UNL A   1      39.916  33.775  37.267  1.00  0.00    -0.014 A 
ATOM     61  C   UNL A   1      40.354  35.110  37.233  1.00  0.00     0.010 A 
ATOM     62  C   UNL A   1      39.158  33.329  38.367  1.00  0.00     0.010 A 
ATOM     63  C   UNL A   1      40.044  35.981  38.281  1.00  0.00     0.020 A 
ATOM     64  C   UNL A   1      38.824  34.204  39.403  1.00  0.00     0.020 A 
ATOM     65  C   UNL A   1      39.273  35.524  39.356  1.00  0.00     0.054 A 
BRANCH  65  66
ATOM     66  S   UNL A   1      38.810  36.697  40.659  1.00  0.00     0.124 S 
ATOM     67  O   UNL A   1      37.880  35.908  41.463  1.00  0.00    -0.237 OA
ATOM     68  O   UNL A   1      40.091  36.996  41.291  1.00  0.00    -0.237 OA
ATOM     69  O   UNL A   1      38.208  37.810  39.926  1.00  0.00    -0.744 OA
ENDBRANCH  65  66
ENDBRANCH  39  60
ENDBRANCH  13  14
ENDBRANCH   6   8
ENDBRANCH   3   4
ENDBRANCH   2   3
ENDBRANCH   1   2
BRANCH   1  70
ATOM     70  C   UNL A   1      38.555  22.441  25.891  1.00  0.00     0.002 C 
BRANCH  70  71
ATOM     71  C   UNL A   1      37.743  21.591  24.904  1.00  0.00     0.021 C 
BRANCH  71  72
ATOM     72  C   UNL A   1      36.674  22.383  24.152  1.00  0.00     0.116 C 
BRANCH  72  73
ATOM     73  N   UNL A   1      36.084  23.381  25.029  1.00  0.00    -0.356 N 
ATOM     74  C   UNL A   1      35.009  24.190  24.812  1.00  0.00     0.224 C 
ATOM     75  H   UNL A   1      36.525  23.487  25.904  1.00  0.00     0.163 HD
ATOM     76  O   UNL A   1      34.851  25.161  25.553  1.00  0.00    -0.275 OA
BRANCH  74  77
ATOM     77  C   UNL A   1      33.983  23.781  23.767  1.00  0.00     0.094 C 
ATOM     78  C   UNL A   1      33.452  22.363  24.122  1.00  0.00     0.002 C 
ATOM     79  C   UNL A   1      32.810  24.811  23.632  1.00  0.00     0.094 C 
ATOM     80  C   UNL A   1      32.636  22.399  25.426  1.00  0.00     0.005 C 
ATOM     81  C   UNL A   1      32.514  21.909  22.991  1.00  0.00     0.005 C 
ATOM     82  C   UNL A   1      31.488  24.027  23.885  1.00  0.00     0.002 C 
ATOM     83  C   UNL A   1      31.532  23.450  25.313  1.00  0.00     0.005 C 
ATOM     84  C   UNL A   1      31.338  22.880  22.874  1.00  0.00     0.005 C 
BRANCH  79  85
ATOM     85  C   UNL A   1      32.923  25.531  22.260  1.00  0.00     0.229 C 
ATOM     86  O   UNL A   1      33.177  24.892  21.232  1.00  0.00    -0.274 OA
ATOM     87  N   UNL A   1      32.714  26.872  22.105  1.00  0.00    -0.317 N 
ATOM     88  H   UNL A   1      32.572  27.171  21.177  1.00  0.00     0.170 HD
BRANCH  87  89
ATOM     89  C   UNL A   1      32.674  27.867  23.054  1.00  0.00     0.108 A 
ATOM     90  S   UNL A   1      34.125  28.295  23.828  1.00  0.00    -0.122 S 
ATOM     91  C   UNL A   1      31.587  28.659  23.417  1.00  0.00     0.078 A 
ATOM     92  C   UNL A   1      33.273  29.200  24.975  1.00  0.00     0.011 A 
ATOM     93  C   UNL A   1      31.960  29.435  24.597  1.00  0.00    -0.019 A 
ATOM     94  C   UNL A   1      33.930  29.676  26.232  1.00  0.00     0.047 C 
ATOM     95  C   UNL A   1      31.088  30.308  25.444  1.00  0.00     0.037 C 
ATOM     96  C   UNL A   1      32.875  30.151  27.238  1.00  0.00     0.006 C 
ATOM     97  C   UNL A   1      31.845  31.046  26.556  1.00  0.00     0.005 C 
BRANCH  91  98
ATOM     98  C   UNL A   1      30.272  28.474  22.756  1.00  0.00     0.257 C 
ATOM     99  O   UNL A   1      29.879  27.356  22.417  1.00  0.00    -0.269 OA
ATOM    100  N   UNL A   1      29.423  29.575  22.655  1.00  0.00    -0.339 N 
ATOM    101  C   UNL A   1      28.027  29.358  23.012  1.00  0.00     0.120 C 
ATOM    102  C   UNL A   1      29.603  30.535  21.575  1.00  0.00     0.120 C 
ATOM    103  C   UNL A   1      27.420  30.662  23.511  1.00  0.00     0.022 C 
ATOM    104  C   UNL A   1      28.988  31.892  21.936  1.00  0.00     0.022 C 
ATOM    105  C   UNL A   1      27.558  31.772  22.466  1.00  0.00     0.004 C 
ENDBRANCH  91  98
ENDBRANCH  87  89
ENDBRANCH  79  85
ENDBRANCH  74  77
ENDBRANCH  72  73
ENDBRANCH  71  72
ENDBRANCH  70  71
ENDBRANCH   1  70
TORSDOF 19
ENDMDL
MODEL 3
REMARK VINA RESULT:     -12.7      0.505      7.633
REMARK SMILES O=C(NCCCCCCNC(=O)[C@H]1[C@H]2CC[C@H](CC2)[C@@H]1C(=O)Nc1sc2c(c1C(=O)N1CCCCC1)CCCC2)c1ccc(-c2c3nc(c(-c4ccc(S(=O)(=O)[O-])cc4)c4ccc([nH]4)c(-c4ccc(S(=O)(=O)[O-])cc4)c4nc(c(-c5ccc(S(=O)(=O)[O-])cc5)c5ccc2[nH]5)C=C4)C=C3)cc1
REMARK SMILES IDX 6 1 5 2 4 3 3 4 1 5 2 6 41 8 42 9 100 10 43 11 99 12 44 13
REMARK SMILES IDX 45 14 46 15 93 16 47 17 98 18 92 19 94 20 48 21 97 22 91 23
REMARK SMILES IDX 90 24 49 26 79 27 60 28 78 29 61 30 64 31 77 32 95 33 62 34
REMARK SMILES IDX 63 35 76 37 96 38 65 39 50 40 51 41 59 42 52 43 58 44 53 45
REMARK SMILES IDX 54 46 55 47 56 48 57 49 80 50 81 51 89 52 82 53 88 54 83 55
REMARK SMILES IDX 84 56 85 57 86 58 87 59 66 60 67 61 75 62 68 63 74 64 69 65
REMARK SMILES IDX 70 66 71 67 72 68 73 69 7 70 8 71 9 72 10 73 11 74 12 76
REMARK SMILES IDX 13 77 14 78 20 79 15 80 19 81 17 82 16 83 18 84 21 85 22 86
REMARK SMILES IDX 23 87 24 89 25 90 28 91 26 92 27 93 40 94 37 95 39 96 38 97
REMARK SMILES IDX 29 98 30 99 31 100 32 101 36 102 33 103 35 104 34 105
REMARK H PARENT 3 7 94 25 64 36 10 75 23 88
REMARK Flexibility Score: inf
ROOT
ATOM      1  C   UNL A   1      34.250  31.135  28.135  1.00  0.00     0.002 C 
ENDROOT
BRANCH   1   2
ATOM      2  C   UNL A   1      35.466  32.023  27.863  1.00  0.00     0.021 C 
BRANCH   2   3
ATOM      3  C   UNL A   1      36.402  32.178  29.055  1.00  0.00     0.116 C 
BRANCH   3   4
ATOM      4  N   UNL A   1      36.049  31.274  30.139  1.00  0.00    -0.352 N 
ATOM      5  O   UNL A   1      36.130  29.363  31.332  1.00  0.00    -0.269 OA
ATOM      6  C   UNL A   1      36.683  30.127  30.544  1.00  0.00     0.251 C 
ATOM      7  H   UNL A   1      35.246  31.520  30.652  1.00  0.00     0.163 HD
BRANCH   6   8
ATOM      8  C   UNL A   1      38.025  29.811  30.016  1.00  0.00     0.039 A 
ATOM      9  C   UNL A   1      39.111  29.660  30.884  1.00  0.00     0.014 A 
ATOM     10  C   UNL A   1      38.196  29.652  28.639  1.00  0.00     0.014 A 
ATOM     11  C   UNL A   1      40.388  29.463  30.369  1.00  0.00     0.010 A 
ATOM     12  C   UNL A   1      39.465  29.376  28.129  1.00  0.00     0.010 A 
ATOM     13  C   UNL A   1      40.574  29.298  28.988  1.00  0.00    -0.014 A 
BRANCH  13  14
ATOM     14  C   UNL A   1      41.919  28.964  28.457  1.00  0.00     0.031 A 
ATOM     15  C   UNL A   1      42.249  27.571  28.007  1.00  0.00     0.074 A 
ATOM     16  C   UNL A   1      42.855  29.931  28.418  1.00  0.00     0.049 A 
ATOM     17  N   UNL A   1      43.392  27.095  27.578  1.00  0.00    -0.248 NA
ATOM     18  C   UNL A   1      41.164  26.580  28.055  1.00  0.00     0.031 C 
ATOM     19  C   UNL A   1      42.648  31.320  28.837  1.00  0.00     0.029 A 
ATOM     20  N   UNL A   1      44.166  29.896  28.020  1.00  0.00    -0.354 N 
ATOM     21  C   UNL A   1      43.172  25.746  27.329  1.00  0.00     0.074 A 
ATOM     22  C   UNL A   1      41.792  25.474  27.677  1.00  0.00     0.031 C 
ATOM     23  C   UNL A   1      43.788  32.005  28.665  1.00  0.00     0.029 A 
ATOM     24  C   UNL A   1      44.820  31.092  28.189  1.00  0.00     0.049 A 
ATOM     25  H   UNL A   1      44.597  29.092  27.648  1.00  0.00     0.167 HD
ATOM     26  C   UNL A   1      44.043  24.821  26.858  1.00  0.00     0.031 A 
ATOM     27  C   UNL A   1      46.116  31.417  28.022  1.00  0.00     0.031 A 
ATOM     28  C   UNL A   1      45.418  25.103  26.534  1.00  0.00     0.049 A 
ATOM     29  C   UNL A   1      47.074  30.370  27.537  1.00  0.00     0.074 A 
ATOM     30  C   UNL A   1      46.371  24.247  26.010  1.00  0.00     0.029 A 
ATOM     31  N   UNL A   1      46.043  26.328  26.722  1.00  0.00    -0.354 N 
ATOM     32  N   UNL A   1      46.837  29.112  27.253  1.00  0.00    -0.248 NA
ATOM     33  C   UNL A   1      48.469  30.783  27.343  1.00  0.00     0.031 C 
ATOM     34  C   UNL A   1      47.587  24.935  25.945  1.00  0.00     0.029 A 
ATOM     35  C   UNL A   1      47.377  26.241  26.358  1.00  0.00     0.049 A 
ATOM     36  H   UNL A   1      45.603  27.139  27.065  1.00  0.00     0.167 HD
ATOM     37  C   UNL A   1      48.049  28.585  26.826  1.00  0.00     0.074 A 
ATOM     38  C   UNL A   1      49.015  29.665  26.880  1.00  0.00     0.031 C 
ATOM     39  C   UNL A   1      48.330  27.323  26.420  1.00  0.00     0.031 A 
BRANCH  26  40
ATOM     40  C   UNL A   1      43.543  23.404  26.715  1.00  0.00    -0.014 A 
ATOM     41  C   UNL A   1      42.975  22.710  27.798  1.00  0.00     0.010 A 
ATOM     42  C   UNL A   1      43.635  22.759  25.468  1.00  0.00     0.010 A 
ATOM     43  C   UNL A   1      42.571  21.379  27.655  1.00  0.00     0.020 A 
ATOM     44  C   UNL A   1      43.203  21.439  25.310  1.00  0.00     0.020 A 
ATOM     45  C   UNL A   1      42.700  20.748  26.413  1.00  0.00     0.054 A 
BRANCH  45  46
ATOM     46  S   UNL A   1      42.195  19.012  26.262  1.00  0.00     0.124 S 
ATOM     47  O   UNL A   1      43.148  18.509  25.275  1.00  0.00    -0.237 OA
ATOM     48  O   UNL A   1      42.374  18.506  27.621  1.00  0.00    -0.237 OA
ATOM     49  O   UNL A   1      40.810  19.090  25.807  1.00  0.00    -0.744 OA
ENDBRANCH  45  46
ENDBRANCH  26  40
BRANCH  27  50
ATOM     50  C   UNL A   1      46.559  32.798  28.351  1.00  0.00    -0.014 A 
ATOM     51  C   UNL A   1      46.983  33.128  29.648  1.00  0.00     0.010 A 
ATOM     52  C   UNL A   1      46.642  33.770  27.335  1.00  0.00     0.010 A 
ATOM     53  C   UNL A   1      47.490  34.403  29.922  1.00  0.00     0.020 A 
ATOM     54  C   UNL A   1      47.174  35.034  27.597  1.00  0.00     0.020 A 
ATOM     55  C   UNL A   1      47.592  35.344  28.892  1.00  0.00     0.054 A 
BRANCH  55  56
ATOM     56  S   UNL A   1      48.343  36.956  29.251  1.00  0.00     0.124 S 
ATOM     57  O   UNL A   1      47.944  37.175  30.638  1.00  0.00    -0.237 OA
ATOM     58  O   UNL A   1      49.764  36.696  29.035  1.00  0.00    -0.237 OA
ATOM     59  O   UNL A   1      47.725  37.848  28.273  1.00  0.00    -0.744 OA
ENDBRANCH  55  56
ENDBRANCH  27  50
BRANCH  39  60
ATOM     60  C   UNL A   1      49.736  27.034  25.964  1.00  0.00    -0.014 A 
ATOM     61  C   UNL A   1      50.546  26.100  26.633  1.00  0.00     0.010 A 
ATOM     62  C   UNL A   1      50.215  27.639  24.786  1.00  0.00     0.010 A 
ATOM     63  C   UNL A   1      51.813  25.781  26.136  1.00  0.00     0.020 A 
ATOM     64  C   UNL A   1      51.470  27.303  24.272  1.00  0.00     0.020 A 
ATOM     65  C   UNL A   1      52.263  26.379  24.953  1.00  0.00     0.054 A 
BRANCH  65  66
ATOM     66  S   UNL A   1      53.873  25.881  24.282  1.00  0.00     0.124 S 
ATOM     67  O   UNL A   1      54.764  26.892  24.846  1.00  0.00    -0.237 OA
ATOM     68  O   UNL A   1      54.038  24.531  24.814  1.00  0.00    -0.237 OA
ATOM     69  O   UNL A   1      53.684  25.956  22.835  1.00  0.00    -0.744 OA
ENDBRANCH  65  66
ENDBRANCH  39  60
ENDBRANCH  13  14
ENDBRANCH   6   8
ENDBRANCH   3   4
ENDBRANCH   2   3
ENDBRANCH   1   2
BRANCH   1  70
ATOM     70  C   UNL A   1      33.584  30.560  26.880  1.00  0.00     0.002 C 
BRANCH  70  71
ATOM     71  C   UNL A   1      32.193  29.952  27.110  1.00  0.00     0.021 C 
BRANCH  71  72
ATOM     72  C   UNL A   1      32.225  28.458  27.431  1.00  0.00     0.116 C 
BRANCH  72  73
ATOM     73  N   UNL A   1      33.279  27.808  26.670  1.00  0.00    -0.356 N 
ATOM     74  C   UNL A   1      33.252  26.619  26.005  1.00  0.00     0.224 C 
ATOM     75  H   UNL A   1      34.133  28.296  26.630  1.00  0.00     0.163 HD
ATOM     76  O   UNL A   1      34.324  26.111  25.673  1.00  0.00    -0.275 OA
BRANCH  74  77
ATOM     77  C   UNL A   1      31.908  26.048  25.577  1.00  0.00     0.094 C 
ATOM     78  C   UNL A   1      31.268  27.012  24.539  1.00  0.00     0.002 C 
ATOM     79  C   UNL A   1      32.020  24.592  25.011  1.00  0.00     0.094 C 
ATOM     80  C   UNL A   1      32.081  27.020  23.233  1.00  0.00     0.005 C 
ATOM     81  C   UNL A   1      29.858  26.491  24.213  1.00  0.00     0.005 C 
ATOM     82  C   UNL A   1      31.414  24.617  23.577  1.00  0.00     0.002 C 
ATOM     83  C   UNL A   1      32.242  25.591  22.716  1.00  0.00     0.005 C 
ATOM     84  C   UNL A   1      29.951  25.086  23.616  1.00  0.00     0.005 C 
BRANCH  79  85
ATOM     85  C   UNL A   1      31.359  23.605  26.013  1.00  0.00     0.229 C 
ATOM     86  O   UNL A   1      30.245  23.848  26.495  1.00  0.00    -0.274 OA
ATOM     87  N   UNL A   1      31.934  22.422  26.381  1.00  0.00    -0.317 N 
ATOM     88  H   UNL A   1      31.329  21.779  26.818  1.00  0.00     0.170 HD
BRANCH  87  89
ATOM     89  C   UNL A   1      33.234  21.997  26.232  1.00  0.00     0.108 A 
ATOM     90  S   UNL A   1      34.442  22.783  27.133  1.00  0.00    -0.122 S 
ATOM     91  C   UNL A   1      33.701  20.918  25.484  1.00  0.00     0.078 A 
ATOM     92  C   UNL A   1      35.647  22.031  26.214  1.00  0.00     0.011 A 
ATOM     93  C   UNL A   1      35.159  20.973  25.463  1.00  0.00    -0.019 A 
ATOM     94  C   UNL A   1      37.067  22.498  26.268  1.00  0.00     0.047 C 
ATOM     95  C   UNL A   1      36.106  20.127  24.669  1.00  0.00     0.037 C 
ATOM     96  C   UNL A   1      37.869  21.899  25.106  1.00  0.00     0.006 C 
ATOM     97  C   UNL A   1      37.585  20.406  24.969  1.00  0.00     0.005 C 
BRANCH  91  98
ATOM     98  C   UNL A   1      32.753  20.071  24.721  1.00  0.00     0.257 C 
ATOM     99  O   UNL A   1      31.828  20.568  24.075  1.00  0.00    -0.269 OA
ATOM    100  N   UNL A   1      33.013  18.704  24.632  1.00  0.00    -0.339 N 
ATOM    101  C   UNL A   1      32.886  18.100  23.313  1.00  0.00     0.120 C 
ATOM    102  C   UNL A   1      32.617  17.816  25.716  1.00  0.00     0.120 C 
ATOM    103  C   UNL A   1      33.806  16.891  23.215  1.00  0.00     0.022 C 
ATOM    104  C   UNL A   1      33.446  16.526  25.702  1.00  0.00     0.022 C 
ATOM    105  C   UNL A   1      33.504  15.875  24.319  1.00  0.00     0.004 C 
ENDBRANCH  91  98
ENDBRANCH  87  89
ENDBRANCH  79  85
ENDBRANCH  74  77
ENDBRANCH  72  73
ENDBRANCH  71  72
ENDBRANCH  70  71
ENDBRANCH   1  70
TORSDOF 19
ENDMDL
