MODEL 1
REMARK VINA RESULT:      -9.8      0.000      0.000
REMARK SMILES CCc1ccc(O[C@H](C)C(=O)Oc2cccc(C(=O)NCCCCCCNC(=O)c3ccc(-c4c5nc(c(-c6ccc(S(=O)(=O)[O-])cc6)c6ccc([nH]6)c(-c6ccc(S(=O)(=O)[O-])cc6)c6nc(c(-c7ccc(S(=O)(=O)[O-])cc7)c7ccc4[nH]7)C=C6)C=C5)cc3)c2)cc1
REMARK SMILES IDX 22 1 21 2 20 3 18 4 19 5 17 7 13 8 14 9 90 10 15 11 16 12
REMARK SMILES IDX 12 13 10 14 11 15 8 16 9 17 7 18 6 19 3 20 4 21 92 22 5 23
REMARK SMILES IDX 91 24 2 25 1 26 23 27 24 28 25 29 26 30 27 31 28 32 29 34
REMARK SMILES IDX 30 35 31 36 89 37 32 38 88 39 33 40 34 41 35 42 82 43 36 44
REMARK SMILES IDX 87 45 81 46 83 47 37 48 86 49 80 50 79 51 38 53 68 54 49 55
REMARK SMILES IDX 67 56 50 57 53 58 66 59 84 60 51 61 52 62 65 64 85 65 54 66
REMARK SMILES IDX 39 67 40 68 48 69 41 70 47 71 42 72 43 73 44 74 45 75 46 76
REMARK SMILES IDX 69 77 70 78 78 79 71 80 77 81 72 82 73 83 74 84 75 85 76 86
REMARK SMILES IDX 55 87 56 88 64 89 57 90 63 91 58 92 59 93 60 94 61 95 62 96
REMARK H PARENT 20 6 27 33 83 52 53 63
REMARK Flexibility Score: inf
ROOT
ATOM      1  C   UNL A   1      39.670  23.969  27.373  1.00  0.00     0.021 C 
ENDROOT
BRANCH   1   2
ATOM      2  C   UNL A   1      38.617  24.228  26.303  1.00  0.00     0.116 C 
BRANCH   2   3
ATOM      3  N   UNL A   1      38.342  23.087  25.444  1.00  0.00    -0.352 N 
ATOM      4  C   UNL A   1      37.155  22.601  24.936  1.00  0.00     0.251 C 
ATOM      5  O   UNL A   1      37.177  21.572  24.262  1.00  0.00    -0.269 OA
ATOM      6  H   UNL A   1      39.140  22.574  25.179  1.00  0.00     0.163 HD
BRANCH   4   7
ATOM      7  C   UNL A   1      35.844  23.246  25.230  1.00  0.00     0.043 A 
ATOM      8  C   UNL A   1      34.167  24.926  24.785  1.00  0.00     0.131 A 
ATOM      9  C   UNL A   1      33.546  24.657  26.003  1.00  0.00     0.047 A 
ATOM     10  C   UNL A   1      35.255  24.168  24.365  1.00  0.00     0.061 A 
ATOM     11  C   UNL A   1      34.038  23.630  26.811  1.00  0.00     0.005 A 
ATOM     12  C   UNL A   1      35.198  22.944  26.438  1.00  0.00     0.014 A 
BRANCH   8  13
ATOM     13  O   UNL A   1      33.784  26.120  24.124  1.00  0.00    -0.424 OA
BRANCH  13  14
ATOM     14  C   UNL A   1      33.232  26.107  22.843  1.00  0.00     0.352 C 
ATOM     15  O   UNL A   1      33.870  26.204  21.800  1.00  0.00    -0.247 OA
BRANCH  14  16
ATOM     16  C   UNL A   1      31.712  25.934  22.894  1.00  0.00     0.279 C 
ATOM     17  C   UNL A   1      30.982  27.136  22.301  1.00  0.00     0.066 C 
BRANCH  16  18
ATOM     18  O   UNL A   1      31.234  24.634  22.552  1.00  0.00    -0.479 OA
BRANCH  18  19
ATOM     19  C   UNL A   1      31.486  23.518  23.288  1.00  0.00     0.120 A 
ATOM     20  C   UNL A   1      32.204  21.123  24.593  1.00  0.00    -0.048 A 
ATOM     21  C   UNL A   1      31.294  22.015  25.173  1.00  0.00     0.007 A 
ATOM     22  C   UNL A   1      32.734  21.429  23.338  1.00  0.00     0.007 A 
ATOM     23  C   UNL A   1      30.935  23.203  24.523  1.00  0.00     0.047 A 
ATOM     24  C   UNL A   1      32.371  22.614  22.691  1.00  0.00     0.047 A 
BRANCH  20  25
ATOM     25  C   UNL A   1      32.606  19.862  25.317  1.00  0.00     0.032 C 
ATOM     26  C   UNL A   1      32.727  18.672  24.376  1.00  0.00     0.009 C 
ENDBRANCH  20  25
ENDBRANCH  18  19
ENDBRANCH  16  18
ENDBRANCH  14  16
ENDBRANCH  13  14
ENDBRANCH   8  13
ENDBRANCH   4   7
ENDBRANCH   2   3
ENDBRANCH   1   2
BRANCH   1  27
ATOM     27  C   UNL A   1      40.842  23.078  26.968  1.00  0.00     0.002 C 
BRANCH  27  28
ATOM     28  C   UNL A   1      41.296  22.045  28.002  1.00  0.00     0.002 C 
BRANCH  28  29
ATOM     29  C   UNL A   1      41.382  20.595  27.518  1.00  0.00     0.021 C 
BRANCH  29  30
ATOM     30  C   UNL A   1      41.293  20.394  26.008  1.00  0.00     0.116 C 
BRANCH  30  31
ATOM     31  N   UNL A   1      42.411  19.629  25.479  1.00  0.00    -0.352 N 
ATOM     32  C   UNL A   1      43.668  20.052  25.121  1.00  0.00     0.251 C 
ATOM     33  H   UNL A   1      42.241  18.668  25.360  1.00  0.00     0.163 HD
ATOM     34  O   UNL A   1      44.421  19.288  24.528  1.00  0.00    -0.269 OA
BRANCH  32  35
ATOM     35  C   UNL A   1      44.104  21.431  25.432  1.00  0.00     0.039 A 
ATOM     36  C   UNL A   1      43.811  22.452  24.524  1.00  0.00     0.014 A 
ATOM     37  C   UNL A   1      44.808  21.719  26.604  1.00  0.00     0.014 A 
ATOM     38  C   UNL A   1      44.170  23.769  24.820  1.00  0.00     0.010 A 
ATOM     39  C   UNL A   1      45.100  23.041  26.933  1.00  0.00     0.010 A 
ATOM     40  C   UNL A   1      44.786  24.081  26.044  1.00  0.00    -0.014 A 
BRANCH  40  41
ATOM     41  C   UNL A   1      45.098  25.487  26.414  1.00  0.00     0.031 A 
ATOM     42  C   UNL A   1      46.491  26.029  26.232  1.00  0.00     0.074 A 
ATOM     43  C   UNL A   1      44.141  26.256  26.970  1.00  0.00     0.049 A 
ATOM     44  N   UNL A   1      46.963  27.207  26.549  1.00  0.00    -0.248 NA
ATOM     45  C   UNL A   1      47.487  25.124  25.636  1.00  0.00     0.031 C 
ATOM     46  C   UNL A   1      42.761  25.836  27.233  1.00  0.00     0.029 A 
ATOM     47  N   UNL A   1      44.182  27.552  27.423  1.00  0.00    -0.354 N 
ATOM     48  C   UNL A   1      48.311  27.181  26.207  1.00  0.00     0.074 A 
ATOM     49  C   UNL A   1      48.591  25.853  25.703  1.00  0.00     0.031 C 
ATOM     50  C   UNL A   1      42.084  26.860  27.774  1.00  0.00     0.029 A 
ATOM     51  C   UNL A   1      42.987  27.995  27.943  1.00  0.00     0.049 A 
ATOM     52  H   UNL A   1      44.990  28.112  27.380  1.00  0.00     0.167 HD
ATOM     53  C   UNL A   1      49.227  28.175  26.288  1.00  0.00     0.031 A 
ATOM     54  C   UNL A   1      42.657  29.175  28.503  1.00  0.00     0.031 A 
ATOM     55  C   UNL A   1      48.941  29.495  26.784  1.00  0.00     0.049 A 
ATOM     56  C   UNL A   1      43.699  30.255  28.603  1.00  0.00     0.074 A 
ATOM     57  C   UNL A   1      49.787  30.588  26.854  1.00  0.00     0.029 A 
ATOM     58  N   UNL A   1      47.719  29.903  27.297  1.00  0.00    -0.354 N 
ATOM     59  N   UNL A   1      44.950  30.232  28.211  1.00  0.00    -0.248 NA
ATOM     60  C   UNL A   1      43.283  31.526  29.213  1.00  0.00     0.031 C 
ATOM     61  C   UNL A   1      49.096  31.637  27.469  1.00  0.00     0.029 A 
ATOM     62  C   UNL A   1      47.798  31.221  27.716  1.00  0.00     0.049 A 
ATOM     63  H   UNL A   1      46.915  29.339  27.356  1.00  0.00     0.167 HD
ATOM     64  C   UNL A   1      45.462  31.492  28.498  1.00  0.00     0.074 A 
ATOM     65  C   UNL A   1      44.380  32.259  29.081  1.00  0.00     0.031 C 
ATOM     66  C   UNL A   1      46.714  31.973  28.295  1.00  0.00     0.031 A 
BRANCH  53  67
ATOM     67  C   UNL A   1      50.633  27.871  25.836  1.00  0.00    -0.014 A 
ATOM     68  C   UNL A   1      51.019  28.033  24.493  1.00  0.00     0.010 A 
ATOM     69  C   UNL A   1      51.599  27.474  26.781  1.00  0.00     0.010 A 
ATOM     70  C   UNL A   1      52.332  27.766  24.096  1.00  0.00     0.020 A 
ATOM     71  C   UNL A   1      52.920  27.237  26.393  1.00  0.00     0.020 A 
ATOM     72  C   UNL A   1      53.275  27.370  25.050  1.00  0.00     0.054 A 
BRANCH  72  73
ATOM     73  S   UNL A   1      54.979  27.064  24.509  1.00  0.00     0.124 S 
ATOM     74  O   UNL A   1      55.158  25.656  24.860  1.00  0.00    -0.237 OA
ATOM     75  O   UNL A   1      54.917  27.350  23.079  1.00  0.00    -0.237 OA
ATOM     76  O   UNL A   1      55.769  28.006  25.298  1.00  0.00    -0.744 OA
ENDBRANCH  72  73
ENDBRANCH  53  67
BRANCH  54  77
ATOM     77  C   UNL A   1      41.275  29.397  29.015  1.00  0.00    -0.014 A 
ATOM     78  C   UNL A   1      40.198  29.561  28.125  1.00  0.00     0.010 A 
ATOM     79  C   UNL A   1      41.028  29.446  30.398  1.00  0.00     0.010 A 
ATOM     80  C   UNL A   1      38.908  29.793  28.608  1.00  0.00     0.020 A 
ATOM     81  C   UNL A   1      39.734  29.646  30.887  1.00  0.00     0.020 A 
ATOM     82  C   UNL A   1      38.683  29.833  29.987  1.00  0.00     0.054 A 
BRANCH  82  83
ATOM     83  S   UNL A   1      36.994  30.099  30.592  1.00  0.00     0.124 S 
ATOM     84  O   UNL A   1      36.842  29.013  31.556  1.00  0.00    -0.237 OA
ATOM     85  O   UNL A   1      37.070  31.443  31.158  1.00  0.00    -0.237 OA
ATOM     86  O   UNL A   1      36.177  29.984  29.386  1.00  0.00    -0.744 OA
ENDBRANCH  82  83
ENDBRANCH  54  77
BRANCH  66  87
ATOM     87  C   UNL A   1      46.979  33.407  28.672  1.00  0.00    -0.014 A 
ATOM     88  C   UNL A   1      46.750  34.457  27.767  1.00  0.00     0.010 A 
ATOM     89  C   UNL A   1      47.409  33.710  29.978  1.00  0.00     0.010 A 
ATOM     90  C   UNL A   1      46.973  35.783  28.151  1.00  0.00     0.020 A 
ATOM     91  C   UNL A   1      47.602  35.035  30.375  1.00  0.00     0.020 A 
ATOM     92  C   UNL A   1      47.396  36.063  29.454  1.00  0.00     0.054 A 
BRANCH  92  93
ATOM     93  S   UNL A   1      47.631  37.795  29.940  1.00  0.00     0.124 S 
ATOM     94  O   UNL A   1      49.086  37.913  29.952  1.00  0.00    -0.237 OA
ATOM     95  O   UNL A   1      46.949  38.521  28.872  1.00  0.00    -0.237 OA
ATOM     96  O   UNL A   1      46.988  37.877  31.250  1.00  0.00    -0.744 OA
ENDBRANCH  92  93
ENDBRANCH  66  87
ENDBRANCH  40  41
ENDBRANCH  32  35
ENDBRANCH  30  31
ENDBRANCH  29  30
ENDBRANCH  28  29
ENDBRANCH  27  28
ENDBRANCH   1  27
TORSDOF 22
ENDMDL
MODEL 2
REMARK VINA RESULT:      -9.6      2.782      8.924
REMARK SMILES CCc1ccc(O[C@H](C)C(=O)Oc2cccc(C(=O)NCCCCCCNC(=O)c3ccc(-c4c5nc(c(-c6ccc(S(=O)(=O)[O-])cc6)c6ccc([nH]6)c(-c6ccc(S(=O)(=O)[O-])cc6)c6nc(c(-c7ccc(S(=O)(=O)[O-])cc7)c7ccc4[nH]7)C=C6)C=C5)cc3)c2)cc1
REMARK SMILES IDX 22 1 21 2 20 3 18 4 19 5 17 7 13 8 14 9 90 10 15 11 16 12
REMARK SMILES IDX 12 13 10 14 11 15 8 16 9 17 7 18 6 19 3 20 4 21 92 22 5 23
REMARK SMILES IDX 91 24 2 25 1 26 23 27 24 28 25 29 26 30 27 31 28 32 29 34
REMARK SMILES IDX 30 35 31 36 89 37 32 38 88 39 33 40 34 41 35 42 82 43 36 44
REMARK SMILES IDX 87 45 81 46 83 47 37 48 86 49 80 50 79 51 38 53 68 54 49 55
REMARK SMILES IDX 67 56 50 57 53 58 66 59 84 60 51 61 52 62 65 64 85 65 54 66
REMARK SMILES IDX 39 67 40 68 48 69 41 70 47 71 42 72 43 73 44 74 45 75 46 76
REMARK SMILES IDX 69 77 70 78 78 79 71 80 77 81 72 82 73 83 74 84 75 85 76 86
REMARK SMILES IDX 55 87 56 88 64 89 57 90 63 91 58 92 59 93 60 94 61 95 62 96
REMARK H PARENT 20 6 27 33 83 52 53 63
REMARK Flexibility Score: inf
ROOT
ATOM      1  C   UNL A   1      31.663  29.047  26.002  1.00  0.00     0.021 C 
ENDROOT
BRANCH   1   2
ATOM      2  C   UNL A   1      32.412  29.362  24.713  1.00  0.00     0.116 C 
BRANCH   2   3
ATOM      3  N   UNL A   1      31.553  29.680  23.582  1.00  0.00    -0.352 N 
ATOM      4  C   UNL A   1      30.885  28.861  22.695  1.00  0.00     0.251 C 
ATOM      5  O   UNL A   1      30.251  29.379  21.776  1.00  0.00    -0.269 OA
ATOM      6  H   UNL A   1      31.427  30.643  23.424  1.00  0.00     0.163 HD
BRANCH   4   7
ATOM      7  C   UNL A   1      30.959  27.375  22.777  1.00  0.00     0.043 A 
ATOM      8  C   UNL A   1      30.430  25.289  23.873  1.00  0.00     0.131 A 
ATOM      9  C   UNL A   1      31.385  24.622  23.109  1.00  0.00     0.047 A 
ATOM     10  C   UNL A   1      30.160  26.636  23.648  1.00  0.00     0.061 A 
ATOM     11  C   UNL A   1      32.085  25.323  22.125  1.00  0.00     0.005 A 
ATOM     12  C   UNL A   1      31.892  26.700  21.976  1.00  0.00     0.014 A 
BRANCH   8  13
ATOM     13  O   UNL A   1      29.926  24.602  25.006  1.00  0.00    -0.424 OA
BRANCH  13  14
ATOM     14  C   UNL A   1      30.472  24.781  26.277  1.00  0.00     0.352 C 
ATOM     15  O   UNL A   1      30.611  25.862  26.839  1.00  0.00    -0.247 OA
BRANCH  14  16
ATOM     16  C   UNL A   1      30.863  23.442  26.908  1.00  0.00     0.279 C 
ATOM     17  C   UNL A   1      30.400  22.258  26.063  1.00  0.00     0.066 C 
BRANCH  16  18
ATOM     18  O   UNL A   1      32.177  23.388  27.460  1.00  0.00    -0.479 OA
BRANCH  18  19
ATOM     19  C   UNL A   1      33.303  23.215  26.717  1.00  0.00     0.120 A 
ATOM     20  C   UNL A   1      35.642  22.570  25.280  1.00  0.00    -0.048 A 
ATOM     21  C   UNL A   1      35.062  23.841  25.180  1.00  0.00     0.007 A 
ATOM     22  C   UNL A   1      35.055  21.631  26.130  1.00  0.00     0.007 A 
ATOM     23  C   UNL A   1      33.902  24.161  25.896  1.00  0.00     0.047 A 
ATOM     24  C   UNL A   1      33.898  21.956  26.845  1.00  0.00     0.047 A 
BRANCH  20  25
ATOM     25  C   UNL A   1      36.875  22.227  24.481  1.00  0.00     0.032 C 
ATOM     26  C   UNL A   1      36.866  22.873  23.103  1.00  0.00     0.009 C 
ENDBRANCH  20  25
ENDBRANCH  18  19
ENDBRANCH  16  18
ENDBRANCH  14  16
ENDBRANCH  13  14
ENDBRANCH   8  13
ENDBRANCH   4   7
ENDBRANCH   2   3
ENDBRANCH   1   2
BRANCH   1  27
ATOM     27  C   UNL A   1      32.492  29.051  27.284  1.00  0.00     0.002 C 
BRANCH  27  28
ATOM     28  C   UNL A   1      33.927  29.570  27.161  1.00  0.00     0.002 C 
BRANCH  28  29
ATOM     29  C   UNL A   1      34.174  31.001  27.645  1.00  0.00     0.021 C 
BRANCH  29  30
ATOM     30  C   UNL A   1      35.548  31.266  28.256  1.00  0.00     0.116 C 
BRANCH  30  31
ATOM     31  N   UNL A   1      35.497  31.410  29.702  1.00  0.00    -0.352 N 
ATOM     32  C   UNL A   1      36.391  30.985  30.655  1.00  0.00     0.251 C 
ATOM     33  H   UNL A   1      34.706  31.881  30.048  1.00  0.00     0.163 HD
ATOM     34  O   UNL A   1      36.090  31.044  31.842  1.00  0.00    -0.269 OA
BRANCH  32  35
ATOM     35  C   UNL A   1      37.704  30.438  30.249  1.00  0.00     0.039 A 
ATOM     36  C   UNL A   1      37.994  30.319  28.887  1.00  0.00     0.014 A 
ATOM     37  C   UNL A   1      38.642  30.031  31.201  1.00  0.00     0.014 A 
ATOM     38  C   UNL A   1      39.247  29.852  28.482  1.00  0.00     0.010 A 
ATOM     39  C   UNL A   1      39.916  29.636  30.798  1.00  0.00     0.010 A 
ATOM     40  C   UNL A   1      40.232  29.539  29.434  1.00  0.00    -0.014 A 
BRANCH  40  41
ATOM     41  C   UNL A   1      41.598  29.122  29.021  1.00  0.00     0.031 A 
ATOM     42  C   UNL A   1      42.715  30.130  28.963  1.00  0.00     0.074 A 
ATOM     43  C   UNL A   1      41.818  27.848  28.640  1.00  0.00     0.049 A 
ATOM     44  N   UNL A   1      43.953  29.964  28.573  1.00  0.00    -0.248 NA
ATOM     45  C   UNL A   1      42.395  31.506  29.375  1.00  0.00     0.031 C 
ATOM     46  C   UNL A   1      40.810  26.784  28.617  1.00  0.00     0.029 A 
ATOM     47  N   UNL A   1      42.959  27.229  28.192  1.00  0.00    -0.354 N 
ATOM     48  C   UNL A   1      44.555  31.214  28.678  1.00  0.00     0.074 A 
ATOM     49  C   UNL A   1      43.532  32.137  29.122  1.00  0.00     0.031 C 
ATOM     50  C   UNL A   1      41.382  25.643  28.204  1.00  0.00     0.029 A 
ATOM     51  C   UNL A   1      42.784  25.898  27.887  1.00  0.00     0.049 A 
ATOM     52  H   UNL A   1      43.822  27.693  28.098  1.00  0.00     0.167 HD
ATOM     53  C   UNL A   1      45.844  31.558  28.445  1.00  0.00     0.031 A 
ATOM     54  C   UNL A   1      43.648  24.989  27.396  1.00  0.00     0.031 A 
ATOM     55  C   UNL A   1      46.858  30.634  28.011  1.00  0.00     0.049 A 
ATOM     56  C   UNL A   1      45.069  25.402  27.123  1.00  0.00     0.074 A 
ATOM     57  C   UNL A   1      48.205  30.874  27.801  1.00  0.00     0.029 A 
ATOM     58  N   UNL A   1      46.641  29.297  27.717  1.00  0.00    -0.354 N 
ATOM     59  N   UNL A   1      45.634  26.573  27.294  1.00  0.00    -0.248 NA
ATOM     60  C   UNL A   1      45.973  24.369  26.598  1.00  0.00     0.031 C 
ATOM     61  C   UNL A   1      48.788  29.698  27.318  1.00  0.00     0.029 A 
ATOM     62  C   UNL A   1      47.821  28.707  27.296  1.00  0.00     0.049 A 
ATOM     63  H   UNL A   1      45.775  28.835  27.795  1.00  0.00     0.167 HD
ATOM     64  C   UNL A   1      46.965  26.409  26.928  1.00  0.00     0.074 A 
ATOM     65  C   UNL A   1      47.124  25.023  26.542  1.00  0.00     0.031 C 
ATOM     66  C   UNL A   1      47.966  27.325  26.915  1.00  0.00     0.031 A 
BRANCH  53  67
ATOM     67  C   UNL A   1      46.232  33.001  28.647  1.00  0.00    -0.014 A 
ATOM     68  C   UNL A   1      46.128  33.937  27.602  1.00  0.00     0.010 A 
ATOM     69  C   UNL A   1      46.654  33.439  29.917  1.00  0.00     0.010 A 
ATOM     70  C   UNL A   1      46.473  35.275  27.812  1.00  0.00     0.020 A 
ATOM     71  C   UNL A   1      46.970  34.782  30.139  1.00  0.00     0.020 A 
ATOM     72  C   UNL A   1      46.892  35.689  29.081  1.00  0.00     0.054 A 
BRANCH  72  73
ATOM     73  S   UNL A   1      47.301  37.438  29.331  1.00  0.00     0.124 S 
ATOM     74  O   UNL A   1      47.592  37.878  27.968  1.00  0.00    -0.237 OA
ATOM     75  O   UNL A   1      46.074  37.973  29.914  1.00  0.00    -0.237 OA
ATOM     76  O   UNL A   1      48.452  37.401  30.231  1.00  0.00    -0.744 OA
ENDBRANCH  72  73
ENDBRANCH  53  67
BRANCH  54  77
ATOM     77  C   UNL A   1      43.194  23.595  27.131  1.00  0.00    -0.014 A 
ATOM     78  C   UNL A   1      43.321  22.599  28.116  1.00  0.00     0.010 A 
ATOM     79  C   UNL A   1      42.630  23.255  25.888  1.00  0.00     0.010 A 
ATOM     80  C   UNL A   1      42.916  21.287  27.855  1.00  0.00     0.020 A 
ATOM     81  C   UNL A   1      42.193  21.952  25.634  1.00  0.00     0.020 A 
ATOM     82  C   UNL A   1      42.353  20.972  26.614  1.00  0.00     0.054 A 
BRANCH  82  83
ATOM     83  S   UNL A   1      41.800  19.271  26.311  1.00  0.00     0.124 S 
ATOM     84  O   UNL A   1      42.798  18.793  25.359  1.00  0.00    -0.237 OA
ATOM     85  O   UNL A   1      41.859  18.678  27.644  1.00  0.00    -0.237 OA
ATOM     86  O   UNL A   1      40.452  19.441  25.771  1.00  0.00    -0.744 OA
ENDBRANCH  82  83
ENDBRANCH  54  77
BRANCH  66  87
ATOM     87  C   UNL A   1      49.336  26.852  26.503  1.00  0.00    -0.014 A 
ATOM     88  C   UNL A   1      50.243  26.329  27.440  1.00  0.00     0.010 A 
ATOM     89  C   UNL A   1      49.697  26.879  25.142  1.00  0.00     0.010 A 
ATOM     90  C   UNL A   1      51.497  25.867  27.028  1.00  0.00     0.020 A 
ATOM     91  C   UNL A   1      50.935  26.389  24.723  1.00  0.00     0.020 A 
ATOM     92  C   UNL A   1      51.834  25.899  25.672  1.00  0.00     0.054 A 
BRANCH  92  93
ATOM     93  S   UNL A   1      53.448  25.248  25.160  1.00  0.00     0.124 S 
ATOM     94  O   UNL A   1      53.231  23.806  25.229  1.00  0.00    -0.237 OA
ATOM     95  O   UNL A   1      53.601  25.798  23.815  1.00  0.00    -0.237 OA
ATOM     96  O   UNL A   1      54.371  25.787  26.156  1.00  0.00    -0.744 OA
ENDBRANCH  92  93
ENDBRANCH  66  87
ENDBRANCH  40  41
ENDBRANCH  32  35
ENDBRANCH  30  31
ENDBRANCH  29  30
ENDBRANCH  28  29
ENDBRANCH  27  28
ENDBRANCH   1  27
TORSDOF 22
ENDMDL
MODEL 3
REMARK VINA RESULT:      -9.6      6.042     10.086
REMARK SMILES CCc1ccc(O[C@H](C)C(=O)Oc2cccc(C(=O)NCCCCCCNC(=O)c3ccc(-c4c5nc(c(-c6ccc(S(=O)(=O)[O-])cc6)c6ccc([nH]6)c(-c6ccc(S(=O)(=O)[O-])cc6)c6nc(c(-c7ccc(S(=O)(=O)[O-])cc7)c7ccc4[nH]7)C=C6)C=C5)cc3)c2)cc1
REMARK SMILES IDX 22 1 21 2 20 3 18 4 19 5 17 7 13 8 14 9 90 10 15 11 16 12
REMARK SMILES IDX 12 13 10 14 11 15 8 16 9 17 7 18 6 19 3 20 4 21 92 22 5 23
REMARK SMILES IDX 91 24 2 25 1 26 23 27 24 28 25 29 26 30 27 31 28 32 29 34
REMARK SMILES IDX 30 35 31 36 89 37 32 38 88 39 33 40 34 41 35 42 82 43 36 44
REMARK SMILES IDX 87 45 81 46 83 47 37 48 86 49 80 50 79 51 38 53 68 54 49 55
REMARK SMILES IDX 67 56 50 57 53 58 66 59 84 60 51 61 52 62 65 64 85 65 54 66
REMARK SMILES IDX 39 67 40 68 48 69 41 70 47 71 42 72 43 73 44 74 45 75 46 76
REMARK SMILES IDX 69 77 70 78 78 79 71 80 77 81 72 82 73 83 74 84 75 85 76 86
REMARK SMILES IDX 55 87 56 88 64 89 57 90 63 91 58 92 59 93 60 94 61 95 62 96
REMARK H PARENT 20 6 27 33 83 52 53 63
REMARK Flexibility Score: inf
ROOT
ATOM      1  C   UNL A   1      32.019  27.236  26.246  1.00  0.00     0.021 C 
ENDROOT
BRANCH   1   2
ATOM      2  C   UNL A   1      30.999  26.120  26.057  1.00  0.00     0.116 C 
BRANCH   2   3
ATOM      3  N   UNL A   1      31.190  24.978  26.938  1.00  0.00    -0.352 N 
ATOM      4  C   UNL A   1      31.847  23.781  26.739  1.00  0.00     0.251 C 
ATOM      5  O   UNL A   1      31.824  22.938  27.635  1.00  0.00    -0.269 OA
ATOM      6  H   UNL A   1      30.780  25.076  27.827  1.00  0.00     0.163 HD
BRANCH   4   7
ATOM      7  C   UNL A   1      32.526  23.454  25.453  1.00  0.00     0.043 A 
ATOM      8  C   UNL A   1      33.712  24.122  23.458  1.00  0.00     0.131 A 
ATOM      9  C   UNL A   1      33.500  22.868  22.888  1.00  0.00     0.047 A 
ATOM     10  C   UNL A   1      33.304  24.383  24.763  1.00  0.00     0.061 A 
ATOM     11  C   UNL A   1      32.854  21.878  23.632  1.00  0.00     0.005 A 
ATOM     12  C   UNL A   1      32.346  22.177  24.901  1.00  0.00     0.014 A 
BRANCH   8  13
ATOM     13  O   UNL A   1      34.149  25.152  22.589  1.00  0.00    -0.424 OA
BRANCH  13  14
ATOM     14  C   UNL A   1      33.576  26.424  22.609  1.00  0.00     0.352 C 
ATOM     15  O   UNL A   1      34.037  27.395  23.199  1.00  0.00    -0.247 OA
BRANCH  14  16
ATOM     16  C   UNL A   1      32.293  26.470  21.775  1.00  0.00     0.279 C 
ATOM     17  C   UNL A   1      32.419  25.656  20.490  1.00  0.00     0.066 C 
BRANCH  16  18
ATOM     18  O   UNL A   1      31.079  26.353  22.516  1.00  0.00    -0.479 OA
BRANCH  18  19
ATOM     19  C   UNL A   1      30.218  27.385  22.724  1.00  0.00     0.120 A 
ATOM     20  C   UNL A   1      28.644  29.706  23.026  1.00  0.00    -0.048 A 
ATOM     21  C   UNL A   1      28.167  28.453  23.433  1.00  0.00     0.007 A 
ATOM     22  C   UNL A   1      29.930  29.791  22.489  1.00  0.00     0.007 A 
ATOM     23  C   UNL A   1      28.951  27.302  23.285  1.00  0.00     0.047 A 
ATOM     24  C   UNL A   1      30.710  28.639  22.346  1.00  0.00     0.047 A 
BRANCH  20  25
ATOM     25  C   UNL A   1      27.779  30.934  23.162  1.00  0.00     0.032 C 
ATOM     26  C   UNL A   1      28.598  32.189  23.427  1.00  0.00     0.009 C 
ENDBRANCH  20  25
ENDBRANCH  18  19
ENDBRANCH  16  18
ENDBRANCH  14  16
ENDBRANCH  13  14
ENDBRANCH   8  13
ENDBRANCH   4   7
ENDBRANCH   2   3
ENDBRANCH   1   2
BRANCH   1  27
ATOM     27  C   UNL A   1      31.456  28.625  26.538  1.00  0.00     0.002 C 
BRANCH  27  28
ATOM     28  C   UNL A   1      32.369  29.809  26.209  1.00  0.00     0.002 C 
BRANCH  28  29
ATOM     29  C   UNL A   1      32.035  31.135  26.897  1.00  0.00     0.021 C 
BRANCH  29  30
ATOM     30  C   UNL A   1      33.203  32.100  27.078  1.00  0.00     0.116 C 
BRANCH  30  31
ATOM     31  N   UNL A   1      32.800  33.357  27.688  1.00  0.00    -0.352 N 
ATOM     32  C   UNL A   1      33.328  34.010  28.775  1.00  0.00     0.251 C 
ATOM     33  H   UNL A   1      32.038  33.805  27.258  1.00  0.00     0.163 HD
ATOM     34  O   UNL A   1      32.741  34.976  29.249  1.00  0.00    -0.269 OA
BRANCH  32  35
ATOM     35  C   UNL A   1      34.590  33.536  29.385  1.00  0.00     0.039 A 
ATOM     36  C   UNL A   1      35.793  34.138  29.003  1.00  0.00     0.014 A 
ATOM     37  C   UNL A   1      34.595  32.497  30.319  1.00  0.00     0.014 A 
ATOM     38  C   UNL A   1      36.990  33.740  29.603  1.00  0.00     0.010 A 
ATOM     39  C   UNL A   1      35.778  32.153  30.970  1.00  0.00     0.010 A 
ATOM     40  C   UNL A   1      36.989  32.769  30.617  1.00  0.00    -0.014 A 
BRANCH  40  41
ATOM     41  C   UNL A   1      38.241  32.394  31.327  1.00  0.00     0.031 A 
ATOM     42  C   UNL A   1      39.157  31.349  30.749  1.00  0.00     0.074 A 
ATOM     43  C   UNL A   1      38.522  32.952  32.521  1.00  0.00     0.049 A 
ATOM     44  N   UNL A   1      40.259  30.852  31.250  1.00  0.00    -0.248 NA
ATOM     45  C   UNL A   1      38.775  30.769  29.451  1.00  0.00     0.031 C 
ATOM     46  C   UNL A   1      37.696  33.951  33.205  1.00  0.00     0.029 A 
ATOM     47  N   UNL A   1      39.576  32.756  33.377  1.00  0.00    -0.354 N 
ATOM     48  C   UNL A   1      40.694  29.895  30.339  1.00  0.00     0.074 A 
ATOM     49  C   UNL A   1      39.710  29.846  29.279  1.00  0.00     0.031 C 
ATOM     50  C   UNL A   1      38.287  34.297  34.359  1.00  0.00     0.029 A 
ATOM     51  C   UNL A   1      39.508  33.515  34.524  1.00  0.00     0.049 A 
ATOM     52  H   UNL A   1      40.314  32.130  33.190  1.00  0.00     0.167 HD
ATOM     53  C   UNL A   1      41.817  29.139  30.372  1.00  0.00     0.031 A 
ATOM     54  C   UNL A   1      40.326  33.566  35.592  1.00  0.00     0.031 A 
ATOM     55  C   UNL A   1      42.795  29.198  31.426  1.00  0.00     0.049 A 
ATOM     56  C   UNL A   1      41.556  32.699  35.617  1.00  0.00     0.074 A 
ATOM     57  C   UNL A   1      43.994  28.512  31.524  1.00  0.00     0.029 A 
ATOM     58  N   UNL A   1      42.690  29.980  32.566  1.00  0.00    -0.354 N 
ATOM     59  N   UNL A   1      41.983  31.851  34.713  1.00  0.00    -0.248 NA
ATOM     60  C   UNL A   1      42.419  32.803  36.801  1.00  0.00     0.031 C 
ATOM     61  C   UNL A   1      44.582  28.832  32.752  1.00  0.00     0.029 A 
ATOM     62  C   UNL A   1      43.786  29.770  33.387  1.00  0.00     0.049 A 
ATOM     63  H   UNL A   1      41.946  30.593  32.762  1.00  0.00     0.167 HD
ATOM     64  C   UNL A   1      43.180  31.343  35.205  1.00  0.00     0.074 A 
ATOM     65  C   UNL A   1      43.416  31.992  36.478  1.00  0.00     0.031 C 
ATOM     66  C   UNL A   1      44.009  30.423  34.652  1.00  0.00     0.031 A 
BRANCH  53  67
ATOM     67  C   UNL A   1      42.048  28.174  29.237  1.00  0.00    -0.014 A 
ATOM     68  C   UNL A   1      42.745  28.564  28.079  1.00  0.00     0.010 A 
ATOM     69  C   UNL A   1      41.610  26.842  29.355  1.00  0.00     0.010 A 
ATOM     70  C   UNL A   1      42.967  27.650  27.044  1.00  0.00     0.020 A 
ATOM     71  C   UNL A   1      41.858  25.917  28.337  1.00  0.00     0.020 A 
ATOM     72  C   UNL A   1      42.522  26.332  27.181  1.00  0.00     0.054 A 
BRANCH  72  73
ATOM     73  S   UNL A   1      42.854  25.161  25.836  1.00  0.00     0.124 S 
ATOM     74  O   UNL A   1      42.507  25.950  24.656  1.00  0.00    -0.237 OA
ATOM     75  O   UNL A   1      44.277  24.877  26.004  1.00  0.00    -0.237 OA
ATOM     76  O   UNL A   1      41.959  24.041  26.120  1.00  0.00    -0.744 OA
ENDBRANCH  72  73
ENDBRANCH  53  67
BRANCH  54  77
ATOM     77  C   UNL A   1      40.010  34.474  36.731  1.00  0.00    -0.014 A 
ATOM     78  C   UNL A   1      39.236  34.023  37.815  1.00  0.00     0.010 A 
ATOM     79  C   UNL A   1      40.483  35.799  36.738  1.00  0.00     0.010 A 
ATOM     80  C   UNL A   1      38.920  34.884  38.870  1.00  0.00     0.020 A 
ATOM     81  C   UNL A   1      40.198  36.654  37.805  1.00  0.00     0.020 A 
ATOM     82  C   UNL A   1      39.405  36.196  38.859  1.00  0.00     0.054 A 
BRANCH  82  83
ATOM     83  S   UNL A   1      39.015  37.285  40.256  1.00  0.00     0.124 S 
ATOM     84  O   UNL A   1      38.123  36.448  41.053  1.00  0.00    -0.237 OA
ATOM     85  O   UNL A   1      40.331  37.539  40.834  1.00  0.00    -0.237 OA
ATOM     86  O   UNL A   1      38.387  38.442  39.621  1.00  0.00    -0.744 OA
ENDBRANCH  82  83
ENDBRANCH  54  77
BRANCH  66  87
ATOM     87  C   UNL A   1      45.273  30.086  35.400  1.00  0.00    -0.014 A 
ATOM     88  C   UNL A   1      46.454  30.826  35.215  1.00  0.00     0.010 A 
ATOM     89  C   UNL A   1      45.258  29.046  36.349  1.00  0.00     0.010 A 
ATOM     90  C   UNL A   1      47.604  30.513  35.945  1.00  0.00     0.020 A 
ATOM     91  C   UNL A   1      46.396  28.752  37.102  1.00  0.00     0.020 A 
ATOM     92  C   UNL A   1      47.567  29.479  36.885  1.00  0.00     0.054 A 
BRANCH  92  93
ATOM     93  S   UNL A   1      49.061  29.127  37.853  1.00  0.00     0.124 S 
ATOM     94  O   UNL A   1      49.616  30.463  38.051  1.00  0.00    -0.237 OA
ATOM     95  O   UNL A   1      48.522  28.486  39.050  1.00  0.00    -0.237 OA
ATOM     96  O   UNL A   1      49.841  28.252  36.981  1.00  0.00    -0.744 OA
ENDBRANCH  92  93
ENDBRANCH  66  87
ENDBRANCH  40  41
ENDBRANCH  32  35
ENDBRANCH  30  31
ENDBRANCH  29  30
ENDBRANCH  28  29
ENDBRANCH  27  28
ENDBRANCH   1  27
TORSDOF 22
ENDMDL
