MODEL 1
REMARK VINA RESULT:     -10.3      0.000      0.000
REMARK SMILES CC(C)(C)[C@H](CCC(=O)NCCCCCCNC(=O)c1ccc(-c2c3nc(c(-c4ccc(S(=O)(=O)[O-])cc4)c4ccc([nH]4)c(-c4ccc(S(=O)(=O)[O-])cc4)c4nc(c(-c5ccc(S(=O)(=O)[O-])cc5)c5ccc2[nH]5)C=C4)C=C3)cc1)CC[NH+]1CCOCC1
REMARK SMILES IDX 12 1 11 2 10 3 8 4 9 5 7 7 6 8 5 9 2 10 1 11 3 12 4 13 80 14
REMARK SMILES IDX 81 15 82 16 83 17 87 18 84 20 86 21 85 22 13 23 14 24 15 25
REMARK SMILES IDX 16 26 17 27 18 28 19 30 20 31 21 32 79 33 22 34 78 35 23 36
REMARK SMILES IDX 24 37 25 38 72 39 26 40 77 41 71 42 73 43 27 44 76 45 70 46
REMARK SMILES IDX 69 47 28 49 58 50 39 51 57 52 40 53 43 54 56 55 74 56 41 57
REMARK SMILES IDX 42 58 55 60 75 61 44 62 29 63 30 64 38 65 31 66 37 67 32 68
REMARK SMILES IDX 33 69 34 70 35 71 36 72 59 73 60 74 68 75 61 76 67 77 62 78
REMARK SMILES IDX 63 79 64 80 65 81 66 82 45 83 46 84 54 85 47 86 53 87 48 88
REMARK SMILES IDX 49 89 50 90 51 91 52 92
REMARK H PARENT 10 6 82 19 17 29 73 48 43 59
REMARK Flexibility Score: inf
ROOT
ATOM      1  C   UNL A   1      31.892  28.136  27.350  1.00  0.00     0.021 C 
ENDROOT
BRANCH   1   2
ATOM      2  C   UNL A   1      32.301  26.923  26.432  1.00  0.00     0.116 C 
BRANCH   2   3
ATOM      3  N   UNL A   1      31.387  25.692  26.590  1.00  0.00    -0.356 N 
ATOM      4  C   UNL A   1      30.684  24.689  25.961  1.00  0.00     0.220 C 
ATOM      5  O   UNL A   1      29.913  24.122  26.765  1.00  0.00    -0.275 OA
ATOM      6  H   UNL A   1      31.245  25.570  27.557  1.00  0.00     0.163 HD
BRANCH   4   7
ATOM      7  C   UNL A   1      30.769  24.006  24.514  1.00  0.00     0.100 C 
BRANCH   7   8
ATOM      8  C   UNL A   1      31.891  23.221  23.663  1.00  0.00     0.014 C 
BRANCH   8   9
ATOM      9  C   UNL A   1      33.038  22.288  24.245  1.00  0.00     0.000 C 
BRANCH   9  10
ATOM     10  C   UNL A   1      34.237  23.139  24.688  1.00  0.00    -0.035 C 
ATOM     11  C   UNL A   1      34.187  24.504  23.919  1.00  0.00     0.011 C 
ATOM     12  C   UNL A   1      35.323  22.085  24.413  1.00  0.00     0.011 C 
ATOM     13  C   UNL A   1      34.443  23.674  26.114  1.00  0.00     0.011 C 
ENDBRANCH   9  10
BRANCH   9  14
ATOM     14  C   UNL A   1      32.702  21.100  25.153  1.00  0.00     0.065 C 
BRANCH  14  15
ATOM     15  C   UNL A   1      33.030  19.621  24.651  1.00  0.00     0.262 C 
BRANCH  15  16
ATOM     16  N   UNL A   1      33.726  18.479  25.303  1.00  0.00    -0.331 N 
ATOM     17  C   UNL A   1      34.741  17.886  24.362  1.00  0.00     0.291 C 
ATOM     18  C   UNL A   1      33.020  17.324  25.882  1.00  0.00     0.291 C 
ATOM     19  H   UNL A   1      34.062  18.983  26.124  1.00  0.00     0.348 HD
ATOM     20  C   UNL A   1      34.176  16.839  23.369  1.00  0.00     0.221 C 
ATOM     21  C   UNL A   1      32.468  16.326  24.863  1.00  0.00     0.221 C 
ATOM     22  O   UNL A   1      33.507  15.774  24.060  1.00  0.00    -0.370 OA
ENDBRANCH  15  16
ENDBRANCH  14  15
ENDBRANCH   9  14
ENDBRANCH   8   9
ENDBRANCH   7   8
ENDBRANCH   4   7
ENDBRANCH   2   3
ENDBRANCH   1   2
BRANCH   1  23
ATOM     23  C   UNL A   1      31.818  29.587  26.875  1.00  0.00     0.002 C 
BRANCH  23  24
ATOM     24  C   UNL A   1      33.011  30.497  27.202  1.00  0.00     0.002 C 
BRANCH  24  25
ATOM     25  C   UNL A   1      34.395  29.866  27.479  1.00  0.00     0.021 C 
BRANCH  25  26
ATOM     26  C   UNL A   1      35.485  30.727  28.131  1.00  0.00     0.116 C 
BRANCH  26  27
ATOM     27  N   UNL A   1      35.566  30.552  29.570  1.00  0.00    -0.352 N 
ATOM     28  C   UNL A   1      36.525  29.979  30.370  1.00  0.00     0.251 C 
ATOM     29  H   UNL A   1      34.792  30.908  30.063  1.00  0.00     0.163 HD
ATOM     30  O   UNL A   1      36.251  29.766  31.552  1.00  0.00    -0.269 OA
BRANCH  28  31
ATOM     31  C   UNL A   1      37.870  29.606  29.866  1.00  0.00     0.039 A 
ATOM     32  C   UNL A   1      38.868  29.299  30.801  1.00  0.00     0.014 A 
ATOM     33  C   UNL A   1      38.202  29.673  28.511  1.00  0.00     0.014 A 
ATOM     34  C   UNL A   1      40.175  29.024  30.380  1.00  0.00     0.010 A 
ATOM     35  C   UNL A   1      39.498  29.351  28.087  1.00  0.00     0.010 A 
ATOM     36  C   UNL A   1      40.502  29.032  29.015  1.00  0.00    -0.014 A 
BRANCH  36  37
ATOM     37  C   UNL A   1      41.891  28.736  28.559  1.00  0.00     0.031 A 
ATOM     38  C   UNL A   1      42.278  27.339  28.141  1.00  0.00     0.074 A 
ATOM     39  C   UNL A   1      42.818  29.715  28.545  1.00  0.00     0.049 A 
ATOM     40  N   UNL A   1      43.444  26.883  27.758  1.00  0.00    -0.248 NA
ATOM     41  C   UNL A   1      41.218  26.318  28.175  1.00  0.00     0.031 C 
ATOM     42  C   UNL A   1      42.589  31.104  28.947  1.00  0.00     0.029 A 
ATOM     43  N   UNL A   1      44.144  29.692  28.182  1.00  0.00    -0.354 N 
ATOM     44  C   UNL A   1      43.261  25.526  27.511  1.00  0.00     0.074 A 
ATOM     45  C   UNL A   1      41.885  25.222  27.840  1.00  0.00     0.031 C 
ATOM     46  C   UNL A   1      43.727  31.802  28.796  1.00  0.00     0.029 A 
ATOM     47  C   UNL A   1      44.776  30.907  28.316  1.00  0.00     0.049 A 
ATOM     48  H   UNL A   1      44.598  28.882  27.856  1.00  0.00     0.167 HD
ATOM     49  C   UNL A   1      44.148  24.616  27.035  1.00  0.00     0.031 A 
ATOM     50  C   UNL A   1      46.056  31.262  28.086  1.00  0.00     0.031 A 
ATOM     51  C   UNL A   1      45.517  24.914  26.705  1.00  0.00     0.049 A 
ATOM     52  C   UNL A   1      47.024  30.234  27.563  1.00  0.00     0.074 A 
ATOM     53  C   UNL A   1      46.489  24.065  26.201  1.00  0.00     0.029 A 
ATOM     54  N   UNL A   1      46.108  26.162  26.834  1.00  0.00    -0.354 N 
ATOM     55  N   UNL A   1      46.819  28.964  27.306  1.00  0.00    -0.248 NA
ATOM     56  C   UNL A   1      48.391  30.693  27.280  1.00  0.00     0.031 C 
ATOM     57  C   UNL A   1      47.676  24.792  26.059  1.00  0.00     0.029 A 
ATOM     58  C   UNL A   1      47.430  26.105  26.422  1.00  0.00     0.049 A 
ATOM     59  H   UNL A   1      45.656  26.969  27.169  1.00  0.00     0.167 HD
ATOM     60  C   UNL A   1      48.021  28.481  26.800  1.00  0.00     0.074 A 
ATOM     61  C   UNL A   1      48.943  29.599  26.773  1.00  0.00     0.031 C 
ATOM     62  C   UNL A   1      48.333  27.227  26.392  1.00  0.00     0.031 A 
BRANCH  49  63
ATOM     63  C   UNL A   1      43.656  23.205  26.833  1.00  0.00    -0.014 A 
ATOM     64  C   UNL A   1      43.617  22.633  25.549  1.00  0.00     0.010 A 
ATOM     65  C   UNL A   1      43.268  22.426  27.939  1.00  0.00     0.010 A 
ATOM     66  C   UNL A   1      43.159  21.325  25.368  1.00  0.00     0.020 A 
ATOM     67  C   UNL A   1      42.837  21.107  27.766  1.00  0.00     0.020 A 
ATOM     68  C   UNL A   1      42.768  20.571  26.477  1.00  0.00     0.054 A 
BRANCH  68  69
ATOM     69  S   UNL A   1      42.198  18.867  26.223  1.00  0.00     0.124 S 
ATOM     70  O   UNL A   1      42.290  18.317  27.579  1.00  0.00    -0.237 OA
ATOM     71  O   UNL A   1      40.828  19.062  25.728  1.00  0.00    -0.237 OA
ATOM     72  O   UNL A   1      43.131  18.321  25.263  1.00  0.00    -0.744 OA
ENDBRANCH  68  69
ENDBRANCH  49  63
BRANCH  50  73
ATOM     73  C   UNL A   1      46.501  32.661  28.338  1.00  0.00    -0.014 A 
ATOM     74  C   UNL A   1      46.455  33.626  27.315  1.00  0.00     0.010 A 
ATOM     75  C   UNL A   1      46.990  33.033  29.604  1.00  0.00     0.010 A 
ATOM     76  C   UNL A   1      46.920  34.926  27.543  1.00  0.00     0.020 A 
ATOM     77  C   UNL A   1      47.427  34.339  29.844  1.00  0.00     0.020 A 
ATOM     78  C   UNL A   1      47.407  35.273  28.806  1.00  0.00     0.054 A 
BRANCH  78  79
ATOM     79  S   UNL A   1      47.979  36.971  29.092  1.00  0.00     0.124 S 
ATOM     80  O   UNL A   1      46.964  37.482  30.006  1.00  0.00    -0.237 OA
ATOM     81  O   UNL A   1      49.306  36.766  29.666  1.00  0.00    -0.237 OA
ATOM     82  O   UNL A   1      47.972  37.560  27.754  1.00  0.00    -0.744 OA
ENDBRANCH  78  79
ENDBRANCH  50  73
BRANCH  62  83
ATOM     83  C   UNL A   1      49.714  27.005  25.831  1.00  0.00    -0.014 A 
ATOM     84  C   UNL A   1      50.668  26.231  26.516  1.00  0.00     0.010 A 
ATOM     85  C   UNL A   1      50.047  27.556  24.580  1.00  0.00     0.010 A 
ATOM     86  C   UNL A   1      51.945  26.047  25.978  1.00  0.00     0.020 A 
ATOM     87  C   UNL A   1      51.313  27.351  24.027  1.00  0.00     0.020 A 
ATOM     88  C   UNL A   1      52.260  26.612  24.738  1.00  0.00     0.054 A 
BRANCH  88  89
ATOM     89  S   UNL A   1      53.915  26.339  24.047  1.00  0.00     0.124 S 
ATOM     90  O   UNL A   1      53.626  26.159  22.627  1.00  0.00    -0.237 OA
ATOM     91  O   UNL A   1      54.617  27.573  24.394  1.00  0.00    -0.237 OA
ATOM     92  O   UNL A   1      54.388  25.145  24.744  1.00  0.00    -0.744 OA
ENDBRANCH  88  89
ENDBRANCH  62  83
ENDBRANCH  36  37
ENDBRANCH  28  31
ENDBRANCH  26  27
ENDBRANCH  25  26
ENDBRANCH  24  25
ENDBRANCH  23  24
ENDBRANCH   1  23
TORSDOF 22
ENDMDL
MODEL 2
REMARK VINA RESULT:      -9.2      6.646      9.248
REMARK SMILES CC(C)(C)[C@H](CCC(=O)NCCCCCCNC(=O)c1ccc(-c2c3nc(c(-c4ccc(S(=O)(=O)[O-])cc4)c4ccc([nH]4)c(-c4ccc(S(=O)(=O)[O-])cc4)c4nc(c(-c5ccc(S(=O)(=O)[O-])cc5)c5ccc2[nH]5)C=C4)C=C3)cc1)CC[NH+]1CCOCC1
REMARK SMILES IDX 12 1 11 2 10 3 8 4 9 5 7 7 6 8 5 9 2 10 1 11 3 12 4 13 80 14
REMARK SMILES IDX 81 15 82 16 83 17 87 18 84 20 86 21 85 22 13 23 14 24 15 25
REMARK SMILES IDX 16 26 17 27 18 28 19 30 20 31 21 32 79 33 22 34 78 35 23 36
REMARK SMILES IDX 24 37 25 38 72 39 26 40 77 41 71 42 73 43 27 44 76 45 70 46
REMARK SMILES IDX 69 47 28 49 58 50 39 51 57 52 40 53 43 54 56 55 74 56 41 57
REMARK SMILES IDX 42 58 55 60 75 61 44 62 29 63 30 64 38 65 31 66 37 67 32 68
REMARK SMILES IDX 33 69 34 70 35 71 36 72 59 73 60 74 68 75 61 76 67 77 62 78
REMARK SMILES IDX 63 79 64 80 65 81 66 82 45 83 46 84 54 85 47 86 53 87 48 88
REMARK SMILES IDX 49 89 50 90 51 91 52 92
REMARK H PARENT 10 6 82 19 17 29 73 48 43 59
REMARK Flexibility Score: inf
ROOT
ATOM      1  C   UNL A   1      31.977  29.971  27.232  1.00  0.00     0.021 C 
ENDROOT
BRANCH   1   2
ATOM      2  C   UNL A   1      31.842  28.476  26.756  1.00  0.00     0.116 C 
BRANCH   2   3
ATOM      3  N   UNL A   1      31.366  28.331  25.296  1.00  0.00    -0.356 N 
ATOM      4  C   UNL A   1      31.719  28.295  23.966  1.00  0.00     0.220 C 
ATOM      5  O   UNL A   1      30.705  28.380  23.240  1.00  0.00    -0.275 OA
ATOM      6  H   UNL A   1      30.388  28.213  25.330  1.00  0.00     0.163 HD
BRANCH   4   7
ATOM      7  C   UNL A   1      33.086  28.004  23.182  1.00  0.00     0.100 C 
BRANCH   7   8
ATOM      8  C   UNL A   1      34.044  26.728  22.951  1.00  0.00     0.014 C 
BRANCH   8   9
ATOM      9  C   UNL A   1      33.665  25.204  23.198  1.00  0.00     0.000 C 
BRANCH   9  10
ATOM     10  C   UNL A   1      32.649  24.736  22.146  1.00  0.00    -0.035 C 
ATOM     11  C   UNL A   1      31.209  24.894  22.743  1.00  0.00     0.011 C 
ATOM     12  C   UNL A   1      33.279  23.358  21.882  1.00  0.00     0.011 C 
ATOM     13  C   UNL A   1      32.423  25.424  20.790  1.00  0.00     0.011 C 
ENDBRANCH   9  10
BRANCH   9  14
ATOM     14  C   UNL A   1      34.736  24.178  23.582  1.00  0.00     0.065 C 
BRANCH  14  15
ATOM     15  C   UNL A   1      34.625  23.425  24.984  1.00  0.00     0.262 C 
BRANCH  15  16
ATOM     16  N   UNL A   1      33.747  22.320  25.455  1.00  0.00    -0.331 N 
ATOM     17  C   UNL A   1      32.322  22.798  25.554  1.00  0.00     0.291 C 
ATOM     18  C   UNL A   1      33.986  21.569  26.699  1.00  0.00     0.291 C 
ATOM     19  H   UNL A   1      33.983  21.647  24.726  1.00  0.00     0.348 HD
ATOM     20  C   UNL A   1      31.964  23.509  26.884  1.00  0.00     0.221 C 
ATOM     21  C   UNL A   1      33.631  22.317  27.984  1.00  0.00     0.221 C 
ATOM     22  O   UNL A   1      32.252  22.674  28.015  1.00  0.00    -0.370 OA
ENDBRANCH  15  16
ENDBRANCH  14  15
ENDBRANCH   9  14
ENDBRANCH   8   9
ENDBRANCH   7   8
ENDBRANCH   4   7
ENDBRANCH   2   3
ENDBRANCH   1   2
BRANCH   1  23
ATOM     23  C   UNL A   1      31.420  31.170  26.464  1.00  0.00     0.002 C 
BRANCH  23  24
ATOM     24  C   UNL A   1      31.919  32.563  26.875  1.00  0.00     0.002 C 
BRANCH  24  25
ATOM     25  C   UNL A   1      33.189  32.689  27.748  1.00  0.00     0.021 C 
BRANCH  25  26
ATOM     26  C   UNL A   1      33.756  34.085  28.035  1.00  0.00     0.116 C 
BRANCH  26  27
ATOM     27  N   UNL A   1      33.032  34.793  29.075  1.00  0.00    -0.352 N 
ATOM     28  C   UNL A   1      33.191  34.831  30.439  1.00  0.00     0.251 C 
ATOM     29  H   UNL A   1      32.290  35.348  28.742  1.00  0.00     0.163 HD
ATOM     30  O   UNL A   1      32.303  35.346  31.119  1.00  0.00    -0.269 OA
BRANCH  28  31
ATOM     31  C   UNL A   1      34.386  34.273  31.121  1.00  0.00     0.039 A 
ATOM     32  C   UNL A   1      35.552  35.048  31.157  1.00  0.00     0.014 A 
ATOM     33  C   UNL A   1      34.420  32.966  31.611  1.00  0.00     0.014 A 
ATOM     34  C   UNL A   1      36.731  34.534  31.713  1.00  0.00     0.010 A 
ATOM     35  C   UNL A   1      35.585  32.469  32.210  1.00  0.00     0.010 A 
ATOM     36  C   UNL A   1      36.756  33.241  32.260  1.00  0.00    -0.014 A 
BRANCH  36  37
ATOM     37  C   UNL A   1      38.006  32.688  32.858  1.00  0.00     0.031 A 
ATOM     38  C   UNL A   1      38.901  31.779  32.054  1.00  0.00     0.074 A 
ATOM     39  C   UNL A   1      38.327  32.978  34.135  1.00  0.00     0.049 A 
ATOM     40  N   UNL A   1      40.002  31.169  32.417  1.00  0.00    -0.248 NA
ATOM     41  C   UNL A   1      38.497  31.506  30.665  1.00  0.00     0.031 C 
ATOM     42  C   UNL A   1      37.539  33.822  35.036  1.00  0.00     0.029 A 
ATOM     43  N   UNL A   1      39.400  32.590  34.903  1.00  0.00    -0.354 N 
ATOM     44  C   UNL A   1      40.417  30.438  31.308  1.00  0.00     0.074 A 
ATOM     45  C   UNL A   1      39.422  30.638  30.277  1.00  0.00     0.031 C 
ATOM     46  C   UNL A   1      38.160  33.900  36.224  1.00  0.00     0.029 A 
ATOM     47  C   UNL A   1      39.373  33.089  36.184  1.00  0.00     0.049 A 
ATOM     48  H   UNL A   1      40.120  32.010  34.566  1.00  0.00     0.167 HD
ATOM     49  C   UNL A   1      41.535  29.685  31.150  1.00  0.00     0.031 A 
ATOM     50  C   UNL A   1      40.224  32.912  37.215  1.00  0.00     0.031 A 
ATOM     51  C   UNL A   1      42.529  29.485  32.171  1.00  0.00     0.049 A 
ATOM     52  C   UNL A   1      41.455  32.067  37.018  1.00  0.00     0.074 A 
ATOM     53  C   UNL A   1      43.703  28.753  32.102  1.00  0.00     0.029 A 
ATOM     54  N   UNL A   1      42.474  30.028  33.446  1.00  0.00    -0.354 N 
ATOM     55  N   UNL A   1      41.843  31.412  35.949  1.00  0.00    -0.248 NA
ATOM     56  C   UNL A   1      42.372  31.953  38.160  1.00  0.00     0.031 C 
ATOM     57  C   UNL A   1      44.340  28.826  33.346  1.00  0.00     0.029 A 
ATOM     58  C   UNL A   1      43.590  29.646  34.172  1.00  0.00     0.049 A 
ATOM     59  H   UNL A   1      41.749  30.600  33.785  1.00  0.00     0.167 HD
ATOM     60  C   UNL A   1      43.066  30.838  36.280  1.00  0.00     0.074 A 
ATOM     61  C   UNL A   1      43.359  31.235  37.642  1.00  0.00     0.031 C 
ATOM     62  C   UNL A   1      43.874  30.055  35.524  1.00  0.00     0.031 A 
BRANCH  49  63
ATOM     63  C   UNL A   1      41.745  29.026  29.810  1.00  0.00    -0.014 A 
ATOM     64  C   UNL A   1      41.354  27.692  29.594  1.00  0.00     0.010 A 
ATOM     65  C   UNL A   1      42.299  29.756  28.742  1.00  0.00     0.010 A 
ATOM     66  C   UNL A   1      41.552  27.087  28.350  1.00  0.00     0.020 A 
ATOM     67  C   UNL A   1      42.472  29.163  27.487  1.00  0.00     0.020 A 
ATOM     68  C   UNL A   1      42.113  27.825  27.305  1.00  0.00     0.054 A 
BRANCH  68  69
ATOM     69  S   UNL A   1      42.341  27.028  25.690  1.00  0.00     0.124 S 
ATOM     70  O   UNL A   1      43.505  26.172  25.942  1.00  0.00    -0.237 OA
ATOM     71  O   UNL A   1      41.073  26.307  25.511  1.00  0.00    -0.237 OA
ATOM     72  O   UNL A   1      42.562  28.129  24.780  1.00  0.00    -0.744 OA
ENDBRANCH  68  69
ENDBRANCH  49  63
BRANCH  50  73
ATOM     73  C   UNL A   1      39.950  33.555  38.531  1.00  0.00    -0.014 A 
ATOM     74  C   UNL A   1      40.508  34.806  38.850  1.00  0.00     0.010 A 
ATOM     75  C   UNL A   1      39.140  32.908  39.481  1.00  0.00     0.010 A 
ATOM     76  C   UNL A   1      40.288  35.383  40.105  1.00  0.00     0.020 A 
ATOM     77  C   UNL A   1      38.893  33.494  40.726  1.00  0.00     0.020 A 
ATOM     78  C   UNL A   1      39.484  34.721  41.037  1.00  0.00     0.054 A 
BRANCH  78  79
ATOM     79  S   UNL A   1      39.186  35.497  42.650  1.00  0.00     0.124 S 
ATOM     80  O   UNL A   1      37.752  35.293  42.823  1.00  0.00    -0.237 OA
ATOM     81  O   UNL A   1      40.050  34.724  43.538  1.00  0.00    -0.237 OA
ATOM     82  O   UNL A   1      39.602  36.883  42.441  1.00  0.00    -0.744 OA
ENDBRANCH  78  79
ENDBRANCH  50  73
BRANCH  62  83
ATOM     83  C   UNL A   1      45.180  29.617  36.134  1.00  0.00    -0.014 A 
ATOM     84  C   UNL A   1      45.284  28.417  36.859  1.00  0.00     0.010 A 
ATOM     85  C   UNL A   1      46.329  30.407  35.947  1.00  0.00     0.010 A 
ATOM     86  C   UNL A   1      46.507  28.036  37.421  1.00  0.00     0.020 A 
ATOM     87  C   UNL A   1      47.557  30.017  36.485  1.00  0.00     0.020 A 
ATOM     88  C   UNL A   1      47.634  28.841  37.234  1.00  0.00     0.054 A 
BRANCH  88  89
ATOM     89  S   UNL A   1      49.215  28.315  37.952  1.00  0.00     0.124 S 
ATOM     90  O   UNL A   1      49.507  29.407  38.877  1.00  0.00    -0.237 OA
ATOM     91  O   UNL A   1      48.876  27.037  38.574  1.00  0.00    -0.237 OA
ATOM     92  O   UNL A   1      50.105  28.222  36.797  1.00  0.00    -0.744 OA
ENDBRANCH  88  89
ENDBRANCH  62  83
ENDBRANCH  36  37
ENDBRANCH  28  31
ENDBRANCH  26  27
ENDBRANCH  25  26
ENDBRANCH  24  25
ENDBRANCH  23  24
ENDBRANCH   1  23
TORSDOF 22
ENDMDL
MODEL 3
REMARK VINA RESULT:      -8.9      7.788     14.630
REMARK SMILES CC(C)(C)[C@H](CCC(=O)NCCCCCCNC(=O)c1ccc(-c2c3nc(c(-c4ccc(S(=O)(=O)[O-])cc4)c4ccc([nH]4)c(-c4ccc(S(=O)(=O)[O-])cc4)c4nc(c(-c5ccc(S(=O)(=O)[O-])cc5)c5ccc2[nH]5)C=C4)C=C3)cc1)CC[NH+]1CCOCC1
REMARK SMILES IDX 12 1 11 2 10 3 8 4 9 5 7 7 6 8 5 9 2 10 1 11 3 12 4 13 80 14
REMARK SMILES IDX 81 15 82 16 83 17 87 18 84 20 86 21 85 22 13 23 14 24 15 25
REMARK SMILES IDX 16 26 17 27 18 28 19 30 20 31 21 32 79 33 22 34 78 35 23 36
REMARK SMILES IDX 24 37 25 38 72 39 26 40 77 41 71 42 73 43 27 44 76 45 70 46
REMARK SMILES IDX 69 47 28 49 58 50 39 51 57 52 40 53 43 54 56 55 74 56 41 57
REMARK SMILES IDX 42 58 55 60 75 61 44 62 29 63 30 64 38 65 31 66 37 67 32 68
REMARK SMILES IDX 33 69 34 70 35 71 36 72 59 73 60 74 68 75 61 76 67 77 62 78
REMARK SMILES IDX 63 79 64 80 65 81 66 82 45 83 46 84 54 85 47 86 53 87 48 88
REMARK SMILES IDX 49 89 50 90 51 91 52 92
REMARK H PARENT 10 6 82 19 17 29 73 48 43 59
REMARK Flexibility Score: inf
ROOT
ATOM      1  C   UNL A   1      44.696  24.508  31.658  1.00  0.00     0.021 C 
ENDROOT
BRANCH   1   2
ATOM      2  C   UNL A   1      43.979  24.445  33.060  1.00  0.00     0.116 C 
BRANCH   2   3
ATOM      3  N   UNL A   1      44.165  23.100  33.790  1.00  0.00    -0.356 N 
ATOM      4  C   UNL A   1      45.007  22.289  34.517  1.00  0.00     0.220 C 
ATOM      5  O   UNL A   1      44.538  21.133  34.603  1.00  0.00    -0.275 OA
ATOM      6  H   UNL A   1      43.315  22.610  33.696  1.00  0.00     0.163 HD
BRANCH   4   7
ATOM      7  C   UNL A   1      46.325  22.548  35.391  1.00  0.00     0.100 C 
BRANCH   7   8
ATOM      8  C   UNL A   1      47.594  21.674  35.868  1.00  0.00     0.014 C 
BRANCH   8   9
ATOM      9  C   UNL A   1      48.139  21.533  37.354  1.00  0.00     0.000 C 
BRANCH   9  10
ATOM     10  C   UNL A   1      47.703  20.187  37.951  1.00  0.00    -0.035 C 
ATOM     11  C   UNL A   1      48.969  19.471  38.536  1.00  0.00     0.011 C 
ATOM     12  C   UNL A   1      46.969  19.662  36.705  1.00  0.00     0.011 C 
ATOM     13  C   UNL A   1      46.763  20.035  39.158  1.00  0.00     0.011 C 
ENDBRANCH   9  10
BRANCH   9  14
ATOM     14  C   UNL A   1      49.556  21.988  37.720  1.00  0.00     0.065 C 
BRANCH  14  15
ATOM     15  C   UNL A   1      50.621  22.227  36.555  1.00  0.00     0.262 C 
BRANCH  15  16
ATOM     16  N   UNL A   1      51.505  21.294  35.807  1.00  0.00    -0.331 N 
ATOM     17  C   UNL A   1      52.141  22.005  34.642  1.00  0.00     0.291 C 
ATOM     18  C   UNL A   1      51.048  20.004  35.264  1.00  0.00     0.291 C 
ATOM     19  H   UNL A   1      52.098  21.020  36.591  1.00  0.00     0.348 HD
ATOM     20  C   UNL A   1      51.277  22.051  33.356  1.00  0.00     0.221 C 
ATOM     21  C   UNL A   1      50.187  20.101  34.004  1.00  0.00     0.221 C 
ATOM     22  O   UNL A   1      50.893  20.733  32.940  1.00  0.00    -0.370 OA
ENDBRANCH  15  16
ENDBRANCH  14  15
ENDBRANCH   9  14
ENDBRANCH   8   9
ENDBRANCH   7   8
ENDBRANCH   4   7
ENDBRANCH   2   3
ENDBRANCH   1   2
BRANCH   1  23
ATOM     23  C   UNL A   1      44.465  23.504  30.529  1.00  0.00     0.002 C 
BRANCH  23  24
ATOM     24  C   UNL A   1      43.305  23.785  29.563  1.00  0.00     0.002 C 
BRANCH  24  25
ATOM     25  C   UNL A   1      43.100  22.872  28.334  1.00  0.00     0.021 C 
BRANCH  25  26
ATOM     26  C   UNL A   1      41.778  22.955  27.561  1.00  0.00     0.116 C 
BRANCH  26  27
ATOM     27  N   UNL A   1      41.848  23.824  26.400  1.00  0.00    -0.352 N 
ATOM     28  C   UNL A   1      41.648  25.175  26.254  1.00  0.00     0.251 C 
ATOM     29  H   UNL A   1      42.082  23.360  25.564  1.00  0.00     0.163 HD
ATOM     30  O   UNL A   1      41.558  25.635  25.115  1.00  0.00    -0.269 OA
BRANCH  28  31
ATOM     31  C   UNL A   1      41.531  26.097  27.411  1.00  0.00     0.039 A 
ATOM     32  C   UNL A   1      40.472  25.906  28.309  1.00  0.00     0.014 A 
ATOM     33  C   UNL A   1      42.359  27.212  27.561  1.00  0.00     0.014 A 
ATOM     34  C   UNL A   1      40.268  26.800  29.368  1.00  0.00     0.010 A 
ATOM     35  C   UNL A   1      42.184  28.079  28.648  1.00  0.00     0.010 A 
ATOM     36  C   UNL A   1      41.132  27.889  29.559  1.00  0.00    -0.014 A 
BRANCH  36  37
ATOM     37  C   UNL A   1      40.924  28.843  30.687  1.00  0.00     0.031 A 
ATOM     38  C   UNL A   1      41.763  28.744  31.937  1.00  0.00     0.074 A 
ATOM     39  C   UNL A   1      39.961  29.783  30.605  1.00  0.00     0.049 A 
ATOM     40  N   UNL A   1      41.698  29.454  33.035  1.00  0.00    -0.248 NA
ATOM     41  C   UNL A   1      42.799  27.699  31.961  1.00  0.00     0.031 C 
ATOM     42  C   UNL A   1      39.061  29.975  29.467  1.00  0.00     0.029 A 
ATOM     43  N   UNL A   1      39.575  30.755  31.498  1.00  0.00    -0.354 N 
ATOM     44  C   UNL A   1      42.676  28.940  33.881  1.00  0.00     0.074 A 
ATOM     45  C   UNL A   1      43.284  27.824  33.189  1.00  0.00     0.031 C 
ATOM     46  C   UNL A   1      38.238  31.007  29.723  1.00  0.00     0.029 A 
ATOM     47  C   UNL A   1      38.530  31.531  31.054  1.00  0.00     0.049 A 
ATOM     48  H   UNL A   1      40.007  30.882  32.373  1.00  0.00     0.167 HD
ATOM     49  C   UNL A   1      43.053  29.367  35.113  1.00  0.00     0.031 A 
ATOM     50  C   UNL A   1      37.875  32.547  31.650  1.00  0.00     0.031 A 
ATOM     51  C   UNL A   1      42.453  30.479  35.804  1.00  0.00     0.049 A 
ATOM     52  C   UNL A   1      38.306  33.001  33.020  1.00  0.00     0.074 A 
ATOM     53  C   UNL A   1      42.775  30.998  37.046  1.00  0.00     0.029 A 
ATOM     54  N   UNL A   1      41.414  31.251  35.307  1.00  0.00    -0.354 N 
ATOM     55  N   UNL A   1      39.256  32.520  33.786  1.00  0.00    -0.248 NA
ATOM     56  C   UNL A   1      37.590  34.147  33.596  1.00  0.00     0.031 C 
ATOM     57  C   UNL A   1      41.908  32.063  37.316  1.00  0.00     0.029 A 
ATOM     58  C   UNL A   1      41.082  32.240  36.219  1.00  0.00     0.049 A 
ATOM     59  H   UNL A   1      40.977  31.117  34.436  1.00  0.00     0.167 HD
ATOM     60  C   UNL A   1      39.274  33.326  34.919  1.00  0.00     0.074 A 
ATOM     61  C   UNL A   1      38.249  34.334  34.731  1.00  0.00     0.031 C 
ATOM     62  C   UNL A   1      40.066  33.242  36.015  1.00  0.00     0.031 A 
BRANCH  49  63
ATOM     63  C   UNL A   1      44.180  28.629  35.790  1.00  0.00    -0.014 A 
ATOM     64  C   UNL A   1      45.488  29.148  35.782  1.00  0.00     0.010 A 
ATOM     65  C   UNL A   1      43.928  27.429  36.477  1.00  0.00     0.010 A 
ATOM     66  C   UNL A   1      46.529  28.460  36.410  1.00  0.00     0.020 A 
ATOM     67  C   UNL A   1      44.961  26.751  37.133  1.00  0.00     0.020 A 
ATOM     68  C   UNL A   1      46.260  27.263  37.079  1.00  0.00     0.054 A 
BRANCH  68  69
ATOM     69  S   UNL A   1      47.621  26.396  37.908  1.00  0.00     0.124 S 
ATOM     70  O   UNL A   1      47.585  25.086  37.250  1.00  0.00    -0.237 OA
ATOM     71  O   UNL A   1      48.783  27.227  37.564  1.00  0.00    -0.237 OA
ATOM     72  O   UNL A   1      47.247  26.403  39.305  1.00  0.00    -0.744 OA
ENDBRANCH  68  69
ENDBRANCH  49  63
BRANCH  50  73
ATOM     73  C   UNL A   1      36.742  33.219  30.953  1.00  0.00    -0.014 A 
ATOM     74  C   UNL A   1      35.423  33.076  31.421  1.00  0.00     0.010 A 
ATOM     75  C   UNL A   1      36.977  33.994  29.803  1.00  0.00     0.010 A 
ATOM     76  C   UNL A   1      34.358  33.668  30.734  1.00  0.00     0.020 A 
ATOM     77  C   UNL A   1      35.918  34.613  29.131  1.00  0.00     0.020 A 
ATOM     78  C   UNL A   1      34.612  34.430  29.591  1.00  0.00     0.054 A 
BRANCH  78  79
ATOM     79  S   UNL A   1      33.221  35.214  28.729  1.00  0.00     0.124 S 
ATOM     80  O   UNL A   1      33.902  36.166  27.858  1.00  0.00    -0.237 OA
ATOM     81  O   UNL A   1      32.584  34.082  28.059  1.00  0.00    -0.237 OA
ATOM     82  O   UNL A   1      32.440  35.805  29.815  1.00  0.00    -0.744 OA
ENDBRANCH  78  79
ENDBRANCH  50  73
BRANCH  62  83
ATOM     83  C   UNL A   1      39.896  34.298  37.075  1.00  0.00    -0.014 A 
ATOM     84  C   UNL A   1      40.534  35.547  36.975  1.00  0.00     0.010 A 
ATOM     85  C   UNL A   1      39.055  34.044  38.174  1.00  0.00     0.010 A 
ATOM     86  C   UNL A   1      40.365  36.508  37.977  1.00  0.00     0.020 A 
ATOM     87  C   UNL A   1      38.863  35.012  39.163  1.00  0.00     0.020 A 
ATOM     88  C   UNL A   1      39.534  36.232  39.067  1.00  0.00     0.054 A 
BRANCH  88  89
ATOM     89  S   UNL A   1      39.311  37.502  40.342  1.00  0.00     0.124 S 
ATOM     90  O   UNL A   1      38.268  38.341  39.757  1.00  0.00    -0.237 OA
ATOM     91  O   UNL A   1      38.909  36.721  41.509  1.00  0.00    -0.237 OA
ATOM     92  O   UNL A   1      40.628  38.126  40.443  1.00  0.00    -0.744 OA
ENDBRANCH  88  89
ENDBRANCH  62  83
ENDBRANCH  36  37
ENDBRANCH  28  31
ENDBRANCH  26  27
ENDBRANCH  25  26
ENDBRANCH  24  25
ENDBRANCH  23  24
ENDBRANCH   1  23
TORSDOF 22
ENDMDL
