MODEL 1
REMARK VINA RESULT:     -10.4      0.000      0.000
REMARK SMILES CCN(CC)C(=O)C[C@](C)(C(=O)NCCCCCCNC(=O)c1ccc(-c2c3nc(c(-c4ccc(S(=O)(=O)[O-])cc4)c4ccc([nH]4)c(-c4ccc(S(=O)(=O)[O-])cc4)c4nc(c(-c5ccc(S(=O)(=O)[O-])cc5)c5ccc2[nH]5)C=C4)C=C3)cc1)c1ccccc1
REMARK SMILES IDX 16 1 15 2 14 3 13 4 11 5 12 6 9 8 10 9 8 10 6 11 3 12 7 13
REMARK SMILES IDX 2 14 1 15 4 16 5 17 83 18 84 19 88 20 85 21 87 22 86 23
REMARK SMILES IDX 17 24 18 25 19 26 20 27 21 28 22 30 23 31 24 32 82 33 25 34
REMARK SMILES IDX 81 35 26 36 27 37 28 38 75 39 29 40 80 41 74 42 76 43 30 44
REMARK SMILES IDX 79 45 73 46 72 47 31 49 61 50 42 51 60 52 43 53 46 54 59 55
REMARK SMILES IDX 77 56 44 57 45 58 58 60 78 61 47 62 32 63 33 64 41 65 34 66
REMARK SMILES IDX 40 67 35 68 36 69 37 70 38 71 39 72 62 73 63 74 71 75 64 76
REMARK SMILES IDX 70 77 65 78 66 79 67 80 68 81 69 82 48 83 49 84 57 85 50 86
REMARK SMILES IDX 56 87 51 88 52 89 53 90 54 91 55 92
REMARK H PARENT 13 7 20 29 76 48 46 59
REMARK Flexibility Score: inf
ROOT
ATOM      1  C   UNL A   1      34.842  29.666  27.951  1.00  0.00     0.002 C 
ENDROOT
BRANCH   1   2
ATOM      2  C   UNL A   1      33.725  28.943  27.199  1.00  0.00     0.021 C 
BRANCH   2   3
ATOM      3  C   UNL A   1      33.165  29.679  25.989  1.00  0.00     0.116 C 
BRANCH   3   4
ATOM      4  N   UNL A   1      33.578  29.180  24.697  1.00  0.00    -0.355 N 
ATOM      5  C   UNL A   1      32.796  28.945  23.590  1.00  0.00     0.230 C 
ATOM      6  O   UNL A   1      33.352  29.226  22.523  1.00  0.00    -0.274 OA
ATOM      7  H   UNL A   1      34.538  28.983  24.597  1.00  0.00     0.163 HD
BRANCH   5   8
ATOM      8  C   UNL A   1      31.344  28.340  23.679  1.00  0.00     0.080 C 
ATOM      9  C   UNL A   1      31.146  27.356  22.494  1.00  0.00     0.027 C 
BRANCH   8  10
ATOM     10  C   UNL A   1      31.052  27.719  25.078  1.00  0.00     0.121 C 
BRANCH  10  11
ATOM     11  C   UNL A   1      30.693  26.257  25.290  1.00  0.00     0.223 C 
ATOM     12  N   UNL A   1      31.712  25.316  25.470  1.00  0.00    -0.343 N 
ATOM     13  O   UNL A   1      29.503  25.943  25.241  1.00  0.00    -0.275 OA
BRANCH  12  14
ATOM     14  C   UNL A   1      31.422  23.872  25.356  1.00  0.00     0.116 C 
ATOM     15  C   UNL A   1      31.129  23.309  23.970  1.00  0.00     0.027 C 
ENDBRANCH  12  14
BRANCH  12  16
ATOM     16  C   UNL A   1      33.127  25.655  25.683  1.00  0.00     0.116 C 
ATOM     17  C   UNL A   1      34.081  24.475  25.727  1.00  0.00     0.027 C 
ENDBRANCH  12  16
ENDBRANCH  10  11
ENDBRANCH   8  10
BRANCH   8  18
ATOM     18  C   UNL A   1      30.152  29.373  23.466  1.00  0.00    -0.032 A 
ATOM     19  C   UNL A   1      30.031  30.602  24.131  1.00  0.00     0.005 A 
ATOM     20  C   UNL A   1      29.115  29.052  22.551  1.00  0.00     0.005 A 
ATOM     21  C   UNL A   1      28.926  31.442  23.924  1.00  0.00     0.000 A 
ATOM     22  C   UNL A   1      28.017  29.891  22.340  1.00  0.00     0.000 A 
ATOM     23  C   UNL A   1      27.920  31.088  23.034  1.00  0.00     0.000 A 
ENDBRANCH   8  18
ENDBRANCH   5   8
ENDBRANCH   3   4
ENDBRANCH   2   3
ENDBRANCH   1   2
BRANCH   1  24
ATOM     24  C   UNL A   1      35.234  31.053  27.420  1.00  0.00     0.002 C 
BRANCH  24  25
ATOM     25  C   UNL A   1      35.018  32.231  28.375  1.00  0.00     0.021 C 
BRANCH  25  26
ATOM     26  C   UNL A   1      36.134  32.486  29.380  1.00  0.00     0.116 C 
BRANCH  26  27
ATOM     27  N   UNL A   1      35.911  31.807  30.645  1.00  0.00    -0.352 N 
ATOM     28  C   UNL A   1      36.631  30.813  31.258  1.00  0.00     0.251 C 
ATOM     29  H   UNL A   1      35.118  32.109  31.142  1.00  0.00     0.163 HD
ATOM     30  O   UNL A   1      36.154  30.253  32.249  1.00  0.00    -0.269 OA
BRANCH  28  31
ATOM     31  C   UNL A   1      37.956  30.390  30.749  1.00  0.00     0.039 A 
ATOM     32  C   UNL A   1      38.111  30.162  29.377  1.00  0.00     0.014 A 
ATOM     33  C   UNL A   1      39.035  30.166  31.609  1.00  0.00     0.014 A 
ATOM     34  C   UNL A   1      39.350  29.759  28.868  1.00  0.00     0.010 A 
ATOM     35  C   UNL A   1      40.289  29.844  31.092  1.00  0.00     0.010 A 
ATOM     36  C   UNL A   1      40.459  29.622  29.717  1.00  0.00    -0.014 A 
BRANCH  36  37
ATOM     37  C   UNL A   1      41.792  29.218  29.192  1.00  0.00     0.031 A 
ATOM     38  C   UNL A   1      42.906  30.230  29.097  1.00  0.00     0.074 A 
ATOM     39  C   UNL A   1      41.990  27.959  28.753  1.00  0.00     0.049 A 
ATOM     40  N   UNL A   1      44.111  30.089  28.606  1.00  0.00    -0.248 NA
ATOM     41  C   UNL A   1      42.619  31.586  29.595  1.00  0.00     0.031 C 
ATOM     42  C   UNL A   1      40.987  26.891  28.757  1.00  0.00     0.029 A 
ATOM     43  N   UNL A   1      43.103  27.364  28.211  1.00  0.00    -0.354 N 
ATOM     44  C   UNL A   1      44.714  31.337  28.715  1.00  0.00     0.074 A 
ATOM     45  C   UNL A   1      43.728  32.235  29.273  1.00  0.00     0.031 C 
ATOM     46  C   UNL A   1      41.539  25.767  28.271  1.00  0.00     0.029 A 
ATOM     47  C   UNL A   1      42.918  26.042  27.882  1.00  0.00     0.049 A 
ATOM     48  H   UNL A   1      43.954  27.840  28.072  1.00  0.00     0.167 HD
ATOM     49  C   UNL A   1      45.981  31.700  28.402  1.00  0.00     0.031 A 
ATOM     50  C   UNL A   1      43.761  25.150  27.324  1.00  0.00     0.031 A 
ATOM     51  C   UNL A   1      46.971  30.800  27.870  1.00  0.00     0.049 A 
ATOM     52  C   UNL A   1      45.164  25.577  26.984  1.00  0.00     0.074 A 
ATOM     53  C   UNL A   1      48.297  31.060  27.571  1.00  0.00     0.029 A 
ATOM     54  N   UNL A   1      46.746  29.467  27.564  1.00  0.00    -0.354 N 
ATOM     55  N   UNL A   1      45.729  26.749  27.143  1.00  0.00    -0.248 NA
ATOM     56  C   UNL A   1      46.044  24.556  26.398  1.00  0.00     0.031 C 
ATOM     57  C   UNL A   1      48.861  29.896  27.041  1.00  0.00     0.029 A 
ATOM     58  C   UNL A   1      47.902  28.896  27.063  1.00  0.00     0.049 A 
ATOM     59  H   UNL A   1      45.890  28.996  27.687  1.00  0.00     0.167 HD
ATOM     60  C   UNL A   1      47.040  26.600  26.703  1.00  0.00     0.074 A 
ATOM     61  C   UNL A   1      47.186  25.221  26.286  1.00  0.00     0.031 C 
ATOM     62  C   UNL A   1      48.033  27.520  26.652  1.00  0.00     0.031 A 
BRANCH  49  63
ATOM     63  C   UNL A   1      46.371  33.139  28.626  1.00  0.00    -0.014 A 
ATOM     64  C   UNL A   1      46.932  33.557  29.847  1.00  0.00     0.010 A 
ATOM     65  C   UNL A   1      46.212  34.077  27.590  1.00  0.00     0.010 A 
ATOM     66  C   UNL A   1      47.286  34.894  30.043  1.00  0.00     0.020 A 
ATOM     67  C   UNL A   1      46.592  35.410  27.772  1.00  0.00     0.020 A 
ATOM     68  C   UNL A   1      47.110  35.814  29.005  1.00  0.00     0.054 A 
BRANCH  68  69
ATOM     69  S   UNL A   1      47.597  37.540  29.279  1.00  0.00     0.124 S 
ATOM     70  O   UNL A   1      46.329  38.241  29.096  1.00  0.00    -0.237 OA
ATOM     71  O   UNL A   1      48.108  37.514  30.648  1.00  0.00    -0.237 OA
ATOM     72  O   UNL A   1      48.601  37.785  28.247  1.00  0.00    -0.744 OA
ENDBRANCH  68  69
ENDBRANCH  49  63
BRANCH  50  73
ATOM     73  C   UNL A   1      43.306  23.756  27.065  1.00  0.00    -0.014 A 
ATOM     74  C   UNL A   1      42.861  23.377  25.786  1.00  0.00     0.010 A 
ATOM     75  C   UNL A   1      43.319  22.799  28.096  1.00  0.00     0.010 A 
ATOM     76  C   UNL A   1      42.419  22.072  25.547  1.00  0.00     0.020 A 
ATOM     77  C   UNL A   1      42.904  21.486  27.853  1.00  0.00     0.020 A 
ATOM     78  C   UNL A   1      42.443  21.134  26.583  1.00  0.00     0.054 A 
BRANCH  78  79
ATOM     79  S   UNL A   1      41.906  19.436  26.241  1.00  0.00     0.124 S 
ATOM     80  O   UNL A   1      42.615  19.137  25.001  1.00  0.00    -0.237 OA
ATOM     81  O   UNL A   1      42.367  18.714  27.425  1.00  0.00    -0.237 OA
ATOM     82  O   UNL A   1      40.454  19.556  26.120  1.00  0.00    -0.744 OA
ENDBRANCH  78  79
ENDBRANCH  50  73
BRANCH  62  83
ATOM     83  C   UNL A   1      49.380  27.063  26.160  1.00  0.00    -0.014 A 
ATOM     84  C   UNL A   1      50.219  26.270  26.962  1.00  0.00     0.010 A 
ATOM     85  C   UNL A   1      49.785  27.385  24.852  1.00  0.00     0.010 A 
ATOM     86  C   UNL A   1      51.453  25.832  26.476  1.00  0.00     0.020 A 
ATOM     87  C   UNL A   1      51.007  26.926  24.352  1.00  0.00     0.020 A 
ATOM     88  C   UNL A   1      51.839  26.163  25.173  1.00  0.00     0.054 A 
BRANCH  88  89
ATOM     89  S   UNL A   1      53.425  25.542  24.548  1.00  0.00     0.124 S 
ATOM     90  O   UNL A   1      54.375  26.459  25.170  1.00  0.00    -0.237 OA
ATOM     91  O   UNL A   1      53.453  24.171  25.050  1.00  0.00    -0.237 OA
ATOM     92  O   UNL A   1      53.297  25.665  23.097  1.00  0.00    -0.744 OA
ENDBRANCH  88  89
ENDBRANCH  62  83
ENDBRANCH  36  37
ENDBRANCH  28  31
ENDBRANCH  26  27
ENDBRANCH  25  26
ENDBRANCH  24  25
ENDBRANCH   1  24
TORSDOF 21
ENDMDL
MODEL 2
REMARK VINA RESULT:     -10.3      0.529      8.145
REMARK SMILES CCN(CC)C(=O)C[C@](C)(C(=O)NCCCCCCNC(=O)c1ccc(-c2c3nc(c(-c4ccc(S(=O)(=O)[O-])cc4)c4ccc([nH]4)c(-c4ccc(S(=O)(=O)[O-])cc4)c4nc(c(-c5ccc(S(=O)(=O)[O-])cc5)c5ccc2[nH]5)C=C4)C=C3)cc1)c1ccccc1
REMARK SMILES IDX 16 1 15 2 14 3 13 4 11 5 12 6 9 8 10 9 8 10 6 11 3 12 7 13
REMARK SMILES IDX 2 14 1 15 4 16 5 17 83 18 84 19 88 20 85 21 87 22 86 23
REMARK SMILES IDX 17 24 18 25 19 26 20 27 21 28 22 30 23 31 24 32 82 33 25 34
REMARK SMILES IDX 81 35 26 36 27 37 28 38 75 39 29 40 80 41 74 42 76 43 30 44
REMARK SMILES IDX 79 45 73 46 72 47 31 49 61 50 42 51 60 52 43 53 46 54 59 55
REMARK SMILES IDX 77 56 44 57 45 58 58 60 78 61 47 62 32 63 33 64 41 65 34 66
REMARK SMILES IDX 40 67 35 68 36 69 37 70 38 71 39 72 62 73 63 74 71 75 64 76
REMARK SMILES IDX 70 77 65 78 66 79 67 80 68 81 69 82 48 83 49 84 57 85 50 86
REMARK SMILES IDX 56 87 51 88 52 89 53 90 54 91 55 92
REMARK H PARENT 13 7 20 29 76 48 46 59
REMARK Flexibility Score: inf
ROOT
ATOM      1  C   UNL A   1      34.774  29.646  27.936  1.00  0.00     0.002 C 
ENDROOT
BRANCH   1   2
ATOM      2  C   UNL A   1      33.826  28.842  27.044  1.00  0.00     0.021 C 
BRANCH   2   3
ATOM      3  C   UNL A   1      33.215  29.608  25.877  1.00  0.00     0.116 C 
BRANCH   3   4
ATOM      4  N   UNL A   1      33.546  29.120  24.558  1.00  0.00    -0.355 N 
ATOM      5  C   UNL A   1      32.688  28.833  23.521  1.00  0.00     0.230 C 
ATOM      6  O   UNL A   1      33.137  29.133  22.411  1.00  0.00    -0.274 OA
ATOM      7  H   UNL A   1      34.504  28.975  24.379  1.00  0.00     0.163 HD
BRANCH   5   8
ATOM      8  C   UNL A   1      31.285  28.150  23.735  1.00  0.00     0.080 C 
ATOM      9  C   UNL A   1      31.086  27.074  22.633  1.00  0.00     0.027 C 
BRANCH   8  10
ATOM     10  C   UNL A   1      31.108  27.615  25.188  1.00  0.00     0.121 C 
BRANCH  10  11
ATOM     11  C   UNL A   1      30.803  26.162  25.516  1.00  0.00     0.223 C 
ATOM     12  N   UNL A   1      31.856  25.254  25.672  1.00  0.00    -0.343 N 
ATOM     13  O   UNL A   1      29.621  25.822  25.582  1.00  0.00    -0.275 OA
BRANCH  12  14
ATOM     14  C   UNL A   1      31.595  23.801  25.669  1.00  0.00     0.116 C 
ATOM     15  C   UNL A   1      31.065  23.167  26.951  1.00  0.00     0.027 C 
ENDBRANCH  12  14
BRANCH  12  16
ATOM     16  C   UNL A   1      33.275  25.635  25.750  1.00  0.00     0.116 C 
ATOM     17  C   UNL A   1      34.104  25.315  24.520  1.00  0.00     0.027 C 
ENDBRANCH  12  16
ENDBRANCH  10  11
ENDBRANCH   8  10
BRANCH   8  18
ATOM     18  C   UNL A   1      30.020  29.092  23.521  1.00  0.00    -0.032 A 
ATOM     19  C   UNL A   1      28.853  28.721  22.837  1.00  0.00     0.005 A 
ATOM     20  C   UNL A   1      30.048  30.414  24.038  1.00  0.00     0.005 A 
ATOM     21  C   UNL A   1      27.795  29.623  22.649  1.00  0.00     0.000 A 
ATOM     22  C   UNL A   1      28.991  31.311  23.855  1.00  0.00     0.000 A 
ATOM     23  C   UNL A   1      27.863  30.916  23.153  1.00  0.00     0.000 A 
ENDBRANCH   8  18
ENDBRANCH   5   8
ENDBRANCH   3   4
ENDBRANCH   2   3
ENDBRANCH   1   2
BRANCH   1  24
ATOM     24  C   UNL A   1      35.089  31.078  27.478  1.00  0.00     0.002 C 
BRANCH  24  25
ATOM     25  C   UNL A   1      34.995  32.169  28.549  1.00  0.00     0.021 C 
BRANCH  25  26
ATOM     26  C   UNL A   1      36.191  32.285  29.486  1.00  0.00     0.116 C 
BRANCH  26  27
ATOM     27  N   UNL A   1      36.022  31.511  30.705  1.00  0.00    -0.352 N 
ATOM     28  C   UNL A   1      36.794  30.510  31.236  1.00  0.00     0.251 C 
ATOM     29  H   UNL A   1      35.227  31.744  31.235  1.00  0.00     0.163 HD
ATOM     30  O   UNL A   1      36.361  29.863  32.193  1.00  0.00    -0.269 OA
BRANCH  28  31
ATOM     31  C   UNL A   1      38.126  30.181  30.676  1.00  0.00     0.039 A 
ATOM     32  C   UNL A   1      38.237  29.919  29.306  1.00  0.00     0.014 A 
ATOM     33  C   UNL A   1      39.258  30.077  31.490  1.00  0.00     0.014 A 
ATOM     34  C   UNL A   1      39.481  29.602  28.750  1.00  0.00     0.010 A 
ATOM     35  C   UNL A   1      40.510  29.842  30.922  1.00  0.00     0.010 A 
ATOM     36  C   UNL A   1      40.635  29.587  29.549  1.00  0.00    -0.014 A 
BRANCH  36  37
ATOM     37  C   UNL A   1      41.972  29.276  28.972  1.00  0.00     0.031 A 
ATOM     38  C   UNL A   1      42.270  27.892  28.454  1.00  0.00     0.074 A 
ATOM     39  C   UNL A   1      42.936  30.219  28.961  1.00  0.00     0.049 A 
ATOM     40  N   UNL A   1      43.391  27.411  27.981  1.00  0.00    -0.248 NA
ATOM     41  C   UNL A   1      41.170  26.913  28.497  1.00  0.00     0.031 C 
ATOM     42  C   UNL A   1      42.791  31.588  29.464  1.00  0.00     0.029 A 
ATOM     43  N   UNL A   1      44.234  30.167  28.515  1.00  0.00    -0.354 N 
ATOM     44  C   UNL A   1      43.138  26.074  27.692  1.00  0.00     0.074 A 
ATOM     45  C   UNL A   1      41.774  25.807  28.090  1.00  0.00     0.031 C 
ATOM     46  C   UNL A   1      43.942  32.251  29.270  1.00  0.00     0.029 A 
ATOM     47  C   UNL A   1      44.920  31.349  28.671  1.00  0.00     0.049 A 
ATOM     48  H   UNL A   1      44.635  29.360  28.120  1.00  0.00     0.167 HD
ATOM     49  C   UNL A   1      43.958  25.155  27.127  1.00  0.00     0.031 A 
ATOM     50  C   UNL A   1      46.194  31.671  28.371  1.00  0.00     0.031 A 
ATOM     51  C   UNL A   1      45.308  25.427  26.708  1.00  0.00     0.049 A 
ATOM     52  C   UNL A   1      47.086  30.633  27.744  1.00  0.00     0.074 A 
ATOM     53  C   UNL A   1      46.200  24.578  26.077  1.00  0.00     0.029 A 
ATOM     54  N   UNL A   1      45.959  26.641  26.873  1.00  0.00    -0.354 N 
ATOM     55  N   UNL A   1      46.811  29.390  27.434  1.00  0.00    -0.248 NA
ATOM     56  C   UNL A   1      48.459  31.048  27.419  1.00  0.00     0.031 C 
ATOM     57  C   UNL A   1      47.406  25.264  25.901  1.00  0.00     0.029 A 
ATOM     58  C   UNL A   1      47.246  26.557  26.372  1.00  0.00     0.049 A 
ATOM     59  H   UNL A   1      45.563  27.442  27.284  1.00  0.00     0.167 HD
ATOM     60  C   UNL A   1      47.967  28.881  26.850  1.00  0.00     0.074 A 
ATOM     61  C   UNL A   1      48.937  29.955  26.839  1.00  0.00     0.031 C 
ATOM     62  C   UNL A   1      48.201  27.637  26.366  1.00  0.00     0.031 A 
BRANCH  49  63
ATOM     63  C   UNL A   1      43.416  23.763  26.929  1.00  0.00    -0.014 A 
ATOM     64  C   UNL A   1      43.047  23.303  25.651  1.00  0.00     0.010 A 
ATOM     65  C   UNL A   1      43.311  22.889  28.026  1.00  0.00     0.010 A 
ATOM     66  C   UNL A   1      42.543  22.012  25.482  1.00  0.00     0.020 A 
ATOM     67  C   UNL A   1      42.834  21.586  27.856  1.00  0.00     0.020 A 
ATOM     68  C   UNL A   1      42.435  21.162  26.586  1.00  0.00     0.054 A 
BRANCH  68  69
ATOM     69  S   UNL A   1      41.796  19.483  26.334  1.00  0.00     0.124 S 
ATOM     70  O   UNL A   1      42.500  19.074  25.120  1.00  0.00    -0.237 OA
ATOM     71  O   UNL A   1      42.206  18.797  27.558  1.00  0.00    -0.237 OA
ATOM     72  O   UNL A   1      40.357  19.678  26.184  1.00  0.00    -0.744 OA
ENDBRANCH  68  69
ENDBRANCH  49  63
BRANCH  50  73
ATOM     73  C   UNL A   1      46.700  33.044  28.646  1.00  0.00    -0.014 A 
ATOM     74  C   UNL A   1      47.263  33.360  29.894  1.00  0.00     0.010 A 
ATOM     75  C   UNL A   1      46.624  34.042  27.657  1.00  0.00     0.010 A 
ATOM     76  C   UNL A   1      47.723  34.654  30.157  1.00  0.00     0.020 A 
ATOM     77  C   UNL A   1      47.109  35.329  27.907  1.00  0.00     0.020 A 
ATOM     78  C   UNL A   1      47.643  35.631  29.161  1.00  0.00     0.054 A 
BRANCH  78  79
ATOM     79  S   UNL A   1      48.286  37.292  29.508  1.00  0.00     0.124 S 
ATOM     80  O   UNL A   1      48.985  37.612  28.269  1.00  0.00    -0.237 OA
ATOM     81  O   UNL A   1      47.067  38.055  29.765  1.00  0.00    -0.237 OA
ATOM     82  O   UNL A   1      49.142  37.088  30.676  1.00  0.00    -0.744 OA
ENDBRANCH  78  79
ENDBRANCH  50  73
BRANCH  62  83
ATOM     83  C   UNL A   1      49.549  27.375  25.750  1.00  0.00    -0.014 A 
ATOM     84  C   UNL A   1      50.623  26.896  26.521  1.00  0.00     0.010 A 
ATOM     85  C   UNL A   1      49.725  27.556  24.366  1.00  0.00     0.010 A 
ATOM     86  C   UNL A   1      51.858  26.631  25.924  1.00  0.00     0.020 A 
ATOM     87  C   UNL A   1      50.951  27.267  23.761  1.00  0.00     0.020 A 
ATOM     88  C   UNL A   1      52.014  26.818  24.547  1.00  0.00     0.054 A 
BRANCH  88  89
ATOM     89  S   UNL A   1      53.613  26.422  23.788  1.00  0.00     0.124 S 
ATOM     90  O   UNL A   1      53.216  26.003  22.447  1.00  0.00    -0.237 OA
ATOM     91  O   UNL A   1      54.329  27.693  23.864  1.00  0.00    -0.237 OA
ATOM     92  O   UNL A   1      54.148  25.361  24.640  1.00  0.00    -0.744 OA
ENDBRANCH  88  89
ENDBRANCH  62  83
ENDBRANCH  36  37
ENDBRANCH  28  31
ENDBRANCH  26  27
ENDBRANCH  25  26
ENDBRANCH  24  25
ENDBRANCH   1  24
TORSDOF 21
ENDMDL
MODEL 3
REMARK VINA RESULT:     -10.1      6.251     11.867
REMARK SMILES CCN(CC)C(=O)C[C@](C)(C(=O)NCCCCCCNC(=O)c1ccc(-c2c3nc(c(-c4ccc(S(=O)(=O)[O-])cc4)c4ccc([nH]4)c(-c4ccc(S(=O)(=O)[O-])cc4)c4nc(c(-c5ccc(S(=O)(=O)[O-])cc5)c5ccc2[nH]5)C=C4)C=C3)cc1)c1ccccc1
REMARK SMILES IDX 16 1 15 2 14 3 13 4 11 5 12 6 9 8 10 9 8 10 6 11 3 12 7 13
REMARK SMILES IDX 2 14 1 15 4 16 5 17 83 18 84 19 88 20 85 21 87 22 86 23
REMARK SMILES IDX 17 24 18 25 19 26 20 27 21 28 22 30 23 31 24 32 82 33 25 34
REMARK SMILES IDX 81 35 26 36 27 37 28 38 75 39 29 40 80 41 74 42 76 43 30 44
REMARK SMILES IDX 79 45 73 46 72 47 31 49 61 50 42 51 60 52 43 53 46 54 59 55
REMARK SMILES IDX 77 56 44 57 45 58 58 60 78 61 47 62 32 63 33 64 41 65 34 66
REMARK SMILES IDX 40 67 35 68 36 69 37 70 38 71 39 72 62 73 63 74 71 75 64 76
REMARK SMILES IDX 70 77 65 78 66 79 67 80 68 81 69 82 48 83 49 84 57 85 50 86
REMARK SMILES IDX 56 87 51 88 52 89 53 90 54 91 55 92
REMARK H PARENT 13 7 20 29 76 48 46 59
REMARK Flexibility Score: inf
ROOT
ATOM      1  C   UNL A   1      38.722  22.822  26.573  1.00  0.00     0.002 C 
ENDROOT
BRANCH   1   2
ATOM      2  C   UNL A   1      37.663  22.794  25.469  1.00  0.00     0.021 C 
BRANCH   2   3
ATOM      3  C   UNL A   1      36.613  21.698  25.595  1.00  0.00     0.116 C 
BRANCH   3   4
ATOM      4  N   UNL A   1      35.497  21.987  26.467  1.00  0.00    -0.355 N 
ATOM      5  C   UNL A   1      34.212  21.503  26.386  1.00  0.00     0.230 C 
ATOM      6  O   UNL A   1      33.697  21.278  27.486  1.00  0.00    -0.274 OA
ATOM      7  H   UNL A   1      35.678  22.607  27.210  1.00  0.00     0.163 HD
BRANCH   5   8
ATOM      8  C   UNL A   1      33.459  21.294  25.018  1.00  0.00     0.080 C 
ATOM      9  C   UNL A   1      31.934  21.455  25.263  1.00  0.00     0.027 C 
BRANCH   8  10
ATOM     10  C   UNL A   1      34.024  22.211  23.891  1.00  0.00     0.121 C 
BRANCH  10  11
ATOM     11  C   UNL A   1      33.158  23.126  23.041  1.00  0.00     0.223 C 
ATOM     12  N   UNL A   1      32.630  24.294  23.602  1.00  0.00    -0.343 N 
ATOM     13  O   UNL A   1      32.906  22.774  21.887  1.00  0.00    -0.275 OA
BRANCH  12  14
ATOM     14  C   UNL A   1      31.543  25.024  22.919  1.00  0.00     0.116 C 
ATOM     15  C   UNL A   1      30.176  25.069  23.595  1.00  0.00     0.027 C 
ENDBRANCH  12  14
BRANCH  12  16
ATOM     16  C   UNL A   1      33.017  24.832  24.915  1.00  0.00     0.116 C 
ATOM     17  C   UNL A   1      34.293  25.651  24.933  1.00  0.00     0.027 C 
ENDBRANCH  12  16
ENDBRANCH  10  11
ENDBRANCH   8  10
BRANCH   8  18
ATOM     18  C   UNL A   1      33.551  19.831  24.397  1.00  0.00    -0.032 A 
ATOM     19  C   UNL A   1      32.604  19.271  23.527  1.00  0.00     0.005 A 
ATOM     20  C   UNL A   1      34.653  19.003  24.738  1.00  0.00     0.005 A 
ATOM     21  C   UNL A   1      32.729  17.955  23.055  1.00  0.00     0.000 A 
ATOM     22  C   UNL A   1      34.781  17.694  24.264  1.00  0.00     0.000 A 
ATOM     23  C   UNL A   1      33.812  17.167  23.424  1.00  0.00     0.000 A 
ENDBRANCH   8  18
ENDBRANCH   5   8
ENDBRANCH   3   4
ENDBRANCH   2   3
ENDBRANCH   1   2
BRANCH   1  24
ATOM     24  C   UNL A   1      40.118  22.311  26.189  1.00  0.00     0.002 C 
BRANCH  24  25
ATOM     25  C   UNL A   1      41.114  22.130  27.339  1.00  0.00     0.021 C 
BRANCH  25  26
ATOM     26  C   UNL A   1      42.356  23.011  27.286  1.00  0.00     0.116 C 
BRANCH  26  27
ATOM     27  N   UNL A   1      42.356  23.909  26.143  1.00  0.00    -0.352 N 
ATOM     28  C   UNL A   1      42.055  25.244  26.063  1.00  0.00     0.251 C 
ATOM     29  H   UNL A   1      42.615  23.492  25.290  1.00  0.00     0.163 HD
ATOM     30  O   UNL A   1      41.942  25.767  24.951  1.00  0.00    -0.269 OA
BRANCH  28  31
ATOM     31  C   UNL A   1      41.848  26.066  27.279  1.00  0.00     0.039 A 
ATOM     32  C   UNL A   1      42.765  27.081  27.571  1.00  0.00     0.014 A 
ATOM     33  C   UNL A   1      40.792  25.816  28.161  1.00  0.00     0.014 A 
ATOM     34  C   UNL A   1      42.597  27.871  28.714  1.00  0.00     0.010 A 
ATOM     35  C   UNL A   1      40.580  26.656  29.254  1.00  0.00     0.010 A 
ATOM     36  C   UNL A   1      41.487  27.683  29.553  1.00  0.00    -0.014 A 
BRANCH  36  37
ATOM     37  C   UNL A   1      41.276  28.528  30.760  1.00  0.00     0.031 A 
ATOM     38  C   UNL A   1      40.163  29.545  30.786  1.00  0.00     0.074 A 
ATOM     39  C   UNL A   1      42.113  28.421  31.812  1.00  0.00     0.049 A 
ATOM     40  N   UNL A   1      39.864  30.418  31.715  1.00  0.00    -0.248 NA
ATOM     41  C   UNL A   1      39.288  29.606  29.604  1.00  0.00     0.031 C 
ATOM     42  C   UNL A   1      43.250  27.502  31.902  1.00  0.00     0.029 A 
ATOM     43  N   UNL A   1      42.139  29.096  33.007  1.00  0.00    -0.354 N 
ATOM     44  C   UNL A   1      38.785  31.143  31.220  1.00  0.00     0.074 A 
ATOM     45  C   UNL A   1      38.515  30.643  29.890  1.00  0.00     0.031 C 
ATOM     46  C   UNL A   1      43.843  27.651  33.098  1.00  0.00     0.029 A 
ATOM     47  C   UNL A   1      43.158  28.702  33.843  1.00  0.00     0.049 A 
ATOM     48  H   UNL A   1      41.490  29.797  33.244  1.00  0.00     0.167 HD
ATOM     49  C   UNL A   1      38.069  32.122  31.823  1.00  0.00     0.031 A 
ATOM     50  C   UNL A   1      43.507  29.140  35.069  1.00  0.00     0.031 A 
ATOM     51  C   UNL A   1      38.322  32.603  33.156  1.00  0.00     0.049 A 
ATOM     52  C   UNL A   1      42.696  30.229  35.720  1.00  0.00     0.074 A 
ATOM     53  C   UNL A   1      37.619  33.553  33.876  1.00  0.00     0.029 A 
ATOM     54  N   UNL A   1      39.355  32.167  33.972  1.00  0.00    -0.354 N 
ATOM     55  N   UNL A   1      41.649  30.865  35.254  1.00  0.00    -0.248 NA
ATOM     56  C   UNL A   1      43.110  30.650  37.066  1.00  0.00     0.031 C 
ATOM     57  C   UNL A   1      38.254  33.725  35.110  1.00  0.00     0.029 A 
ATOM     58  C   UNL A   1      39.319  32.841  35.180  1.00  0.00     0.049 A 
ATOM     59  H   UNL A   1      40.015  31.478  33.728  1.00  0.00     0.167 HD
ATOM     60  C   UNL A   1      41.261  31.743  36.261  1.00  0.00     0.074 A 
ATOM     61  C   UNL A   1      42.177  31.544  37.364  1.00  0.00     0.031 C 
ATOM     62  C   UNL A   1      40.238  32.631  36.271  1.00  0.00     0.031 A 
BRANCH  49  63
ATOM     63  C   UNL A   1      36.938  32.742  31.044  1.00  0.00    -0.014 A 
ATOM     64  C   UNL A   1      37.168  33.812  30.159  1.00  0.00     0.010 A 
ATOM     65  C   UNL A   1      35.636  32.223  31.166  1.00  0.00     0.010 A 
ATOM     66  C   UNL A   1      36.109  34.379  29.444  1.00  0.00     0.020 A 
ATOM     67  C   UNL A   1      34.580  32.769  30.431  1.00  0.00     0.020 A 
ATOM     68  C   UNL A   1      34.821  33.856  29.588  1.00  0.00     0.054 A 
BRANCH  68  69
ATOM     69  S   UNL A   1      33.469  34.599  28.632  1.00  0.00     0.124 S 
ATOM     70  O   UNL A   1      33.054  33.483  27.785  1.00  0.00    -0.237 OA
ATOM     71  O   UNL A   1      32.518  34.986  29.671  1.00  0.00    -0.237 OA
ATOM     72  O   UNL A   1      34.109  35.709  27.931  1.00  0.00    -0.744 OA
ENDBRANCH  68  69
ENDBRANCH  49  63
BRANCH  50  73
ATOM     73  C   UNL A   1      44.673  28.536  35.772  1.00  0.00    -0.014 A 
ATOM     74  C   UNL A   1      45.953  29.101  35.644  1.00  0.00     0.010 A 
ATOM     75  C   UNL A   1      44.506  27.394  36.576  1.00  0.00     0.010 A 
ATOM     76  C   UNL A   1      47.050  28.526  36.291  1.00  0.00     0.020 A 
ATOM     77  C   UNL A   1      45.596  26.831  37.247  1.00  0.00     0.020 A 
ATOM     78  C   UNL A   1      46.865  27.393  37.089  1.00  0.00     0.054 A 
BRANCH  78  79
ATOM     79  S   UNL A   1      48.294  26.687  37.955  1.00  0.00     0.124 S 
ATOM     80  O   UNL A   1      47.712  25.513  38.596  1.00  0.00    -0.237 OA
ATOM     81  O   UNL A   1      49.224  26.417  36.861  1.00  0.00    -0.237 OA
ATOM     82  O   UNL A   1      48.706  27.757  38.862  1.00  0.00    -0.744 OA
ENDBRANCH  78  79
ENDBRANCH  50  73
BRANCH  62  83
ATOM     83  C   UNL A   1      40.027  33.434  37.526  1.00  0.00    -0.014 A 
ATOM     84  C   UNL A   1      39.113  33.021  38.511  1.00  0.00     0.010 A 
ATOM     85  C   UNL A   1      40.799  34.589  37.747  1.00  0.00     0.010 A 
ATOM     86  C   UNL A   1      38.953  33.766  39.683  1.00  0.00     0.020 A 
ATOM     87  C   UNL A   1      40.662  35.321  38.930  1.00  0.00     0.020 A 
ATOM     88  C   UNL A   1      39.729  34.911  39.885  1.00  0.00     0.054 A 
BRANCH  88  89
ATOM     89  S   UNL A   1      39.537  35.834  41.435  1.00  0.00     0.124 S 
ATOM     90  O   UNL A   1      40.368  35.060  42.352  1.00  0.00    -0.237 OA
ATOM     91  O   UNL A   1      40.048  37.157  41.086  1.00  0.00    -0.237 OA
ATOM     92  O   UNL A   1      38.100  35.776  41.696  1.00  0.00    -0.744 OA
ENDBRANCH  88  89
ENDBRANCH  62  83
ENDBRANCH  36  37
ENDBRANCH  28  31
ENDBRANCH  26  27
ENDBRANCH  25  26
ENDBRANCH  24  25
ENDBRANCH   1  24
TORSDOF 21
ENDMDL
