MODEL 1
REMARK VINA RESULT:      -9.9      0.000      0.000
REMARK SMILES C[C@@H](C(=O)NCCCCCCNC(=O)c1ccc(-c2c3nc(c(-c4ccc(S(=O)(=O)[O-])cc4)c4ccc([nH]4)c(-c4ccc(S(=O)(=O)[O-])cc4)c4nc(c(-c5ccc(S(=O)(=O)[O-])cc5)c5ccc2[nH]5)C=C4)C=C3)cc1)c1ccc(Cc2ccoc2)cc1F
REMARK SMILES IDX 8 1 7 2 6 3 5 4 3 5 4 6 2 8 1 9 75 10 76 11 86 12 77 13
REMARK SMILES IDX 85 14 87 15 78 16 79 17 80 18 81 19 84 20 82 21 83 22 9 23
REMARK SMILES IDX 10 24 11 25 12 26 13 27 14 29 15 30 16 31 74 32 17 33 73 34
REMARK SMILES IDX 18 35 19 36 20 37 67 38 21 39 72 40 66 41 68 42 22 43 71 44
REMARK SMILES IDX 65 45 64 46 23 48 53 49 34 50 52 51 35 52 38 53 51 54 69 55
REMARK SMILES IDX 36 56 37 57 50 59 70 60 39 61 24 62 25 63 33 64 26 65 32 66
REMARK SMILES IDX 27 67 28 68 29 69 30 70 31 71 54 72 55 73 63 74 56 75 62 76
REMARK SMILES IDX 57 77 58 78 59 79 60 80 61 81 40 82 41 83 49 84 42 85 48 86
REMARK SMILES IDX 43 87 44 88 45 89 46 90 47 91
REMARK H PARENT 5 7 12 28 68 47 38 58
REMARK Flexibility Score: inf
ROOT
ATOM      1  C   UNL A   1      32.327  25.720  25.145  1.00  0.00     0.002 C 
ENDROOT
BRANCH   1   2
ATOM      2  C   UNL A   1      31.820  25.639  23.699  1.00  0.00     0.021 C 
BRANCH   2   3
ATOM      3  C   UNL A   1      30.993  24.384  23.406  1.00  0.00     0.116 C 
BRANCH   3   4
ATOM      4  N   UNL A   1      30.723  23.667  24.635  1.00  0.00    -0.356 N 
ATOM      5  C   UNL A   1      31.152  22.437  25.045  1.00  0.00     0.227 C 
ATOM      6  O   UNL A   1      30.621  21.974  26.057  1.00  0.00    -0.274 OA
ATOM      7  H   UNL A   1      30.140  24.138  25.273  1.00  0.00     0.163 HD
BRANCH   5   8
ATOM      8  C   UNL A   1      32.298  21.729  24.297  1.00  0.00     0.108 C 
ATOM      9  C   UNL A   1      32.269  20.212  24.513  1.00  0.00     0.023 C 
BRANCH   8  10
ATOM     10  C   UNL A   1      33.642  22.379  24.626  1.00  0.00    -0.000 A 
ATOM     11  C   UNL A   1      34.103  22.340  25.952  1.00  0.00     0.008 A 
ATOM     12  C   UNL A   1      34.477  22.968  23.671  1.00  0.00     0.127 A 
ATOM     13  C   UNL A   1      35.350  22.872  26.298  1.00  0.00     0.004 A 
ATOM     14  C   UNL A   1      35.705  23.535  24.018  1.00  0.00     0.043 A 
ATOM     15  F   UNL A   1      34.134  22.997  22.377  1.00  0.00    -0.207 F 
ATOM     16  C   UNL A   1      36.162  23.495  25.339  1.00  0.00    -0.041 A 
BRANCH  16  17
ATOM     17  C   UNL A   1      37.528  24.031  25.690  1.00  0.00     0.074 C 
BRANCH  17  18
ATOM     18  C   UNL A   1      38.403  22.878  26.047  1.00  0.00    -0.005 A 
ATOM     19  C   UNL A   1      38.460  21.588  25.438  1.00  0.00     0.046 A 
ATOM     20  C   UNL A   1      39.403  22.860  27.003  1.00  0.00     0.198 A 
ATOM     21  C   UNL A   1      39.461  20.891  26.070  1.00  0.00     0.195 A 
ATOM     22  O   UNL A   1      40.044  21.664  27.019  1.00  0.00    -0.472 OA
ENDBRANCH  17  18
ENDBRANCH  16  17
ENDBRANCH   8  10
ENDBRANCH   5   8
ENDBRANCH   3   4
ENDBRANCH   2   3
ENDBRANCH   1   2
BRANCH   1  23
ATOM     23  C   UNL A   1      33.666  26.445  25.318  1.00  0.00     0.002 C 
BRANCH  23  24
ATOM     24  C   UNL A   1      33.568  27.971  25.359  1.00  0.00     0.021 C 
BRANCH  24  25
ATOM     25  C   UNL A   1      34.427  28.628  26.435  1.00  0.00     0.116 C 
BRANCH  25  26
ATOM     26  N   UNL A   1      34.023  30.002  26.685  1.00  0.00    -0.352 N 
ATOM     27  C   UNL A   1      34.509  30.895  27.605  1.00  0.00     0.251 C 
ATOM     28  H   UNL A   1      33.296  30.340  26.112  1.00  0.00     0.163 HD
ATOM     29  O   UNL A   1      33.898  31.939  27.829  1.00  0.00    -0.269 OA
BRANCH  27  30
ATOM     30  C   UNL A   1      35.756  30.591  28.339  1.00  0.00     0.039 A 
ATOM     31  C   UNL A   1      35.728  29.635  29.358  1.00  0.00     0.014 A 
ATOM     32  C   UNL A   1      36.948  31.253  28.029  1.00  0.00     0.014 A 
ATOM     33  C   UNL A   1      36.908  29.306  30.028  1.00  0.00     0.010 A 
ATOM     34  C   UNL A   1      38.136  30.868  28.645  1.00  0.00     0.010 A 
ATOM     35  C   UNL A   1      38.128  29.895  29.655  1.00  0.00    -0.014 A 
BRANCH  35  36
ATOM     36  C   UNL A   1      39.401  29.507  30.317  1.00  0.00     0.031 A 
ATOM     37  C   UNL A   1      39.878  30.249  31.536  1.00  0.00     0.074 A 
ATOM     38  C   UNL A   1      40.148  28.515  29.792  1.00  0.00     0.049 A 
ATOM     39  N   UNL A   1      40.979  30.082  32.224  1.00  0.00    -0.248 NA
ATOM     40  C   UNL A   1      39.019  31.336  32.036  1.00  0.00     0.031 C 
ATOM     41  C   UNL A   1      39.814  27.745  28.591  1.00  0.00     0.029 A 
ATOM     42  N   UNL A   1      41.346  27.985  30.201  1.00  0.00    -0.354 N 
ATOM     43  C   UNL A   1      40.946  31.037  33.232  1.00  0.00     0.074 A 
ATOM     44  C   UNL A   1      39.748  31.823  33.029  1.00  0.00     0.031 C 
ATOM     45  C   UNL A   1      40.768  26.825  28.379  1.00  0.00     0.029 A 
ATOM     46  C   UNL A   1      41.802  26.965  29.398  1.00  0.00     0.049 A 
ATOM     47  H   UNL A   1      41.835  28.305  30.993  1.00  0.00     0.167 HD
ATOM     48  C   UNL A   1      41.817  31.228  34.252  1.00  0.00     0.031 A 
ATOM     49  C   UNL A   1      42.929  26.230  29.469  1.00  0.00     0.031 A 
ATOM     50  C   UNL A   1      43.007  30.446  34.452  1.00  0.00     0.049 A 
ATOM     51  C   UNL A   1      43.898  26.484  30.592  1.00  0.00     0.074 A 
ATOM     52  C   UNL A   1      43.939  30.542  35.471  1.00  0.00     0.029 A 
ATOM     53  N   UNL A   1      43.433  29.422  33.618  1.00  0.00    -0.354 N 
ATOM     54  N   UNL A   1      43.818  27.356  31.569  1.00  0.00    -0.248 NA
ATOM     55  C   UNL A   1      45.103  25.643  30.631  1.00  0.00     0.031 C 
ATOM     56  C   UNL A   1      44.954  29.612  35.224  1.00  0.00     0.029 A 
ATOM     57  C   UNL A   1      44.622  28.892  34.088  1.00  0.00     0.049 A 
ATOM     58  H   UNL A   1      42.958  29.119  32.810  1.00  0.00     0.167 HD
ATOM     59  C   UNL A   1      44.946  27.148  32.355  1.00  0.00     0.074 A 
ATOM     60  C   UNL A   1      45.680  26.055  31.751  1.00  0.00     0.031 C 
ATOM     61  C   UNL A   1      45.339  27.801  33.477  1.00  0.00     0.031 A 
BRANCH  48  62
ATOM     62  C   UNL A   1      41.506  32.326  35.238  1.00  0.00    -0.014 A 
ATOM     63  C   UNL A   1      42.024  33.623  35.062  1.00  0.00     0.010 A 
ATOM     64  C   UNL A   1      40.653  32.074  36.327  1.00  0.00     0.010 A 
ATOM     65  C   UNL A   1      41.727  34.636  35.977  1.00  0.00     0.020 A 
ATOM     66  C   UNL A   1      40.328  33.093  37.229  1.00  0.00     0.020 A 
ATOM     67  C   UNL A   1      40.881  34.364  37.056  1.00  0.00     0.054 A 
BRANCH  67  68
ATOM     68  S   UNL A   1      40.491  35.707  38.211  1.00  0.00     0.124 S 
ATOM     69  O   UNL A   1      41.813  36.051  38.729  1.00  0.00    -0.237 OA
ATOM     70  O   UNL A   1      39.877  36.708  37.341  1.00  0.00    -0.237 OA
ATOM     71  O   UNL A   1      39.589  35.085  39.176  1.00  0.00    -0.744 OA
ENDBRANCH  67  68
ENDBRANCH  48  62
BRANCH  49  72
ATOM     72  C   UNL A   1      43.206  25.182  28.447  1.00  0.00    -0.014 A 
ATOM     73  C   UNL A   1      43.828  25.510  27.230  1.00  0.00     0.010 A 
ATOM     74  C   UNL A   1      42.836  23.845  28.685  1.00  0.00     0.010 A 
ATOM     75  C   UNL A   1      44.042  24.531  26.255  1.00  0.00     0.020 A 
ATOM     76  C   UNL A   1      43.078  22.857  27.726  1.00  0.00     0.020 A 
ATOM     77  C   UNL A   1      43.664  23.209  26.510  1.00  0.00     0.054 A 
BRANCH  77  78
ATOM     78  S   UNL A   1      43.973  21.950  25.241  1.00  0.00     0.124 S 
ATOM     79  O   UNL A   1      42.968  20.943  25.563  1.00  0.00    -0.237 OA
ATOM     80  O   UNL A   1      43.753  22.692  24.001  1.00  0.00    -0.237 OA
ATOM     81  O   UNL A   1      45.358  21.554  25.483  1.00  0.00    -0.744 OA
ENDBRANCH  77  78
ENDBRANCH  49  72
BRANCH  61  82
ATOM     82  C   UNL A   1      46.600  27.325  34.151  1.00  0.00    -0.014 A 
ATOM     83  C   UNL A   1      47.853  27.883  33.840  1.00  0.00     0.010 A 
ATOM     84  C   UNL A   1      46.520  26.332  35.144  1.00  0.00     0.010 A 
ATOM     85  C   UNL A   1      49.007  27.428  34.484  1.00  0.00     0.020 A 
ATOM     86  C   UNL A   1      47.668  25.898  35.812  1.00  0.00     0.020 A 
ATOM     87  C   UNL A   1      48.907  26.438  35.467  1.00  0.00     0.054 A 
BRANCH  87  88
ATOM     88  S   UNL A   1      50.415  25.893  36.312  1.00  0.00     0.124 S 
ATOM     89  O   UNL A   1      51.262  27.078  36.217  1.00  0.00    -0.237 OA
ATOM     90  O   UNL A   1      49.932  25.571  37.653  1.00  0.00    -0.237 OA
ATOM     91  O   UNL A   1      50.859  24.746  35.525  1.00  0.00    -0.744 OA
ENDBRANCH  87  88
ENDBRANCH  61  82
ENDBRANCH  35  36
ENDBRANCH  27  30
ENDBRANCH  25  26
ENDBRANCH  24  25
ENDBRANCH  23  24
ENDBRANCH   1  23
TORSDOF 19
ENDMDL
MODEL 2
REMARK VINA RESULT:      -9.9      3.025      9.538
REMARK SMILES C[C@@H](C(=O)NCCCCCCNC(=O)c1ccc(-c2c3nc(c(-c4ccc(S(=O)(=O)[O-])cc4)c4ccc([nH]4)c(-c4ccc(S(=O)(=O)[O-])cc4)c4nc(c(-c5ccc(S(=O)(=O)[O-])cc5)c5ccc2[nH]5)C=C4)C=C3)cc1)c1ccc(Cc2ccoc2)cc1F
REMARK SMILES IDX 8 1 7 2 6 3 5 4 3 5 4 6 2 8 1 9 75 10 76 11 86 12 77 13
REMARK SMILES IDX 85 14 87 15 78 16 79 17 80 18 81 19 84 20 82 21 83 22 9 23
REMARK SMILES IDX 10 24 11 25 12 26 13 27 14 29 15 30 16 31 74 32 17 33 73 34
REMARK SMILES IDX 18 35 19 36 20 37 67 38 21 39 72 40 66 41 68 42 22 43 71 44
REMARK SMILES IDX 65 45 64 46 23 48 53 49 34 50 52 51 35 52 38 53 51 54 69 55
REMARK SMILES IDX 36 56 37 57 50 59 70 60 39 61 24 62 25 63 33 64 26 65 32 66
REMARK SMILES IDX 27 67 28 68 29 69 30 70 31 71 54 72 55 73 63 74 56 75 62 76
REMARK SMILES IDX 57 77 58 78 59 79 60 80 61 81 40 82 41 83 49 84 42 85 48 86
REMARK SMILES IDX 43 87 44 88 45 89 46 90 47 91
REMARK H PARENT 5 7 12 28 68 47 38 58
REMARK Flexibility Score: inf
ROOT
ATOM      1  C   UNL A   1      37.332  21.077  24.956  1.00  0.00     0.002 C 
ENDROOT
BRANCH   1   2
ATOM      2  C   UNL A   1      36.014  21.847  24.788  1.00  0.00     0.021 C 
BRANCH   2   3
ATOM      3  C   UNL A   1      34.782  21.069  25.259  1.00  0.00     0.116 C 
BRANCH   3   4
ATOM      4  N   UNL A   1      33.600  21.542  24.569  1.00  0.00    -0.356 N 
ATOM      5  C   UNL A   1      32.684  22.483  24.944  1.00  0.00     0.227 C 
ATOM      6  O   UNL A   1      31.661  22.564  24.260  1.00  0.00    -0.274 OA
ATOM      7  H   UNL A   1      33.430  21.121  23.696  1.00  0.00     0.163 HD
BRANCH   5   8
ATOM      8  C   UNL A   1      32.985  23.429  26.123  1.00  0.00     0.108 C 
ATOM      9  C   UNL A   1      32.256  22.999  27.400  1.00  0.00     0.023 C 
BRANCH   8  10
ATOM     10  C   UNL A   1      32.739  24.884  25.725  1.00  0.00    -0.000 A 
ATOM     11  C   UNL A   1      31.571  25.519  26.177  1.00  0.00     0.008 A 
ATOM     12  C   UNL A   1      33.640  25.651  24.978  1.00  0.00     0.127 A 
ATOM     13  C   UNL A   1      31.322  26.864  25.888  1.00  0.00     0.004 A 
ATOM     14  C   UNL A   1      33.378  26.983  24.654  1.00  0.00     0.043 A 
ATOM     15  F   UNL A   1      34.802  25.136  24.556  1.00  0.00    -0.207 F 
ATOM     16  C   UNL A   1      32.213  27.613  25.105  1.00  0.00    -0.041 A 
BRANCH  16  17
ATOM     17  C   UNL A   1      31.980  29.077  24.825  1.00  0.00     0.074 C 
BRANCH  17  18
ATOM     18  C   UNL A   1      30.941  29.187  23.760  1.00  0.00    -0.005 A 
ATOM     19  C   UNL A   1      29.777  30.014  23.742  1.00  0.00     0.046 A 
ATOM     20  C   UNL A   1      30.946  28.559  22.528  1.00  0.00     0.198 A 
ATOM     21  C   UNL A   1      29.166  29.815  22.528  1.00  0.00     0.195 A 
ATOM     22  O   UNL A   1      29.877  28.935  21.782  1.00  0.00    -0.472 OA
ENDBRANCH  17  18
ENDBRANCH  16  17
ENDBRANCH   8  10
ENDBRANCH   5   8
ENDBRANCH   3   4
ENDBRANCH   2   3
ENDBRANCH   1   2
BRANCH   1  23
ATOM     23  C   UNL A   1      38.429  21.835  25.711  1.00  0.00     0.002 C 
BRANCH  23  24
ATOM     24  C   UNL A   1      38.100  23.297  26.021  1.00  0.00     0.021 C 
BRANCH  24  25
ATOM     25  C   UNL A   1      39.184  24.032  26.804  1.00  0.00     0.116 C 
BRANCH  25  26
ATOM     26  N   UNL A   1      40.255  24.499  25.937  1.00  0.00    -0.352 N 
ATOM     27  C   UNL A   1      40.994  25.651  26.016  1.00  0.00     0.251 C 
ATOM     28  H   UNL A   1      40.481  23.902  25.187  1.00  0.00     0.163 HD
ATOM     29  O   UNL A   1      41.704  25.990  25.070  1.00  0.00    -0.269 OA
BRANCH  27  30
ATOM     30  C   UNL A   1      40.921  26.491  27.229  1.00  0.00     0.039 A 
ATOM     31  C   UNL A   1      41.704  27.646  27.303  1.00  0.00     0.014 A 
ATOM     32  C   UNL A   1      40.088  26.138  28.296  1.00  0.00     0.014 A 
ATOM     33  C   UNL A   1      41.611  28.474  28.424  1.00  0.00     0.010 A 
ATOM     34  C   UNL A   1      39.940  27.004  29.376  1.00  0.00     0.010 A 
ATOM     35  C   UNL A   1      40.703  28.177  29.455  1.00  0.00    -0.014 A 
BRANCH  35  36
ATOM     36  C   UNL A   1      40.548  29.082  30.624  1.00  0.00     0.031 A 
ATOM     37  C   UNL A   1      41.409  28.898  31.845  1.00  0.00     0.074 A 
ATOM     38  C   UNL A   1      39.601  30.041  30.601  1.00  0.00     0.049 A 
ATOM     39  N   UNL A   1      41.391  29.562  32.973  1.00  0.00    -0.248 NA
ATOM     40  C   UNL A   1      42.405  27.814  31.803  1.00  0.00     0.031 C 
ATOM     41  C   UNL A   1      38.678  30.297  29.492  1.00  0.00     0.029 A 
ATOM     42  N   UNL A   1      39.256  30.981  31.540  1.00  0.00    -0.354 N 
ATOM     43  C   UNL A   1      42.366  28.978  33.772  1.00  0.00     0.074 A 
ATOM     44  C   UNL A   1      42.913  27.866  33.026  1.00  0.00     0.031 C 
ATOM     45  C   UNL A   1      37.893  31.340  29.804  1.00  0.00     0.029 A 
ATOM     46  C   UNL A   1      38.224  31.802  31.148  1.00  0.00     0.049 A 
ATOM     47  H   UNL A   1      39.703  31.059  32.414  1.00  0.00     0.167 HD
ATOM     48  C   UNL A   1      42.790  29.348  35.005  1.00  0.00     0.031 A 
ATOM     49  C   UNL A   1      37.608  32.808  31.798  1.00  0.00     0.031 A 
ATOM     50  C   UNL A   1      42.244  30.454  35.746  1.00  0.00     0.049 A 
ATOM     51  C   UNL A   1      38.074  33.179  33.181  1.00  0.00     0.074 A 
ATOM     52  C   UNL A   1      42.623  30.928  36.989  1.00  0.00     0.029 A 
ATOM     53  N   UNL A   1      41.201  31.261  35.313  1.00  0.00    -0.354 N 
ATOM     54  N   UNL A   1      39.038  32.649  33.896  1.00  0.00    -0.248 NA
ATOM     55  C   UNL A   1      37.379  34.294  33.838  1.00  0.00     0.031 C 
ATOM     56  C   UNL A   1      41.777  31.987  37.331  1.00  0.00     0.029 A 
ATOM     57  C   UNL A   1      40.912  32.216  36.272  1.00  0.00     0.049 A 
ATOM     58  H   UNL A   1      40.736  31.166  34.450  1.00  0.00     0.167 HD
ATOM     59  C   UNL A   1      39.085  33.387  35.073  1.00  0.00     0.074 A 
ATOM     60  C   UNL A   1      38.066  34.411  34.965  1.00  0.00     0.031 C 
ATOM     61  C   UNL A   1      39.897  33.231  36.148  1.00  0.00     0.031 A 
BRANCH  48  62
ATOM     62  C   UNL A   1      43.908  28.551  35.627  1.00  0.00    -0.014 A 
ATOM     63  C   UNL A   1      45.253  28.835  35.325  1.00  0.00     0.010 A 
ATOM     64  C   UNL A   1      43.617  27.535  36.555  1.00  0.00     0.010 A 
ATOM     65  C   UNL A   1      46.283  28.095  35.910  1.00  0.00     0.020 A 
ATOM     66  C   UNL A   1      44.647  26.812  37.166  1.00  0.00     0.020 A 
ATOM     67  C   UNL A   1      45.973  27.086  36.826  1.00  0.00     0.054 A 
BRANCH  67  68
ATOM     68  S   UNL A   1      47.334  26.161  37.590  1.00  0.00     0.124 S 
ATOM     69  O   UNL A   1      46.776  24.813  37.664  1.00  0.00    -0.237 OA
ATOM     70  O   UNL A   1      48.419  26.339  36.628  1.00  0.00    -0.237 OA
ATOM     71  O   UNL A   1      47.527  26.825  38.876  1.00  0.00    -0.744 OA
ENDBRANCH  67  68
ENDBRANCH  48  62
BRANCH  49  72
ATOM     72  C   UNL A   1      36.483  33.541  31.152  1.00  0.00    -0.014 A 
ATOM     73  C   UNL A   1      35.270  33.742  31.835  1.00  0.00     0.010 A 
ATOM     74  C   UNL A   1      36.617  34.033  29.840  1.00  0.00     0.010 A 
ATOM     75  C   UNL A   1      34.201  34.387  31.207  1.00  0.00     0.020 A 
ATOM     76  C   UNL A   1      35.562  34.708  29.221  1.00  0.00     0.020 A 
ATOM     77  C   UNL A   1      34.353  34.866  29.902  1.00  0.00     0.054 A 
BRANCH  77  78
ATOM     78  S   UNL A   1      32.961  35.722  29.115  1.00  0.00     0.124 S 
ATOM     79  O   UNL A   1      32.383  34.666  28.291  1.00  0.00    -0.237 OA
ATOM     80  O   UNL A   1      32.160  36.143  30.262  1.00  0.00    -0.237 OA
ATOM     81  O   UNL A   1      33.602  36.810  28.380  1.00  0.00    -0.744 OA
ENDBRANCH  77  78
ENDBRANCH  49  72
BRANCH  61  82
ATOM     82  C   UNL A   1      39.748  34.218  37.278  1.00  0.00    -0.014 A 
ATOM     83  C   UNL A   1      39.016  33.900  38.436  1.00  0.00     0.010 A 
ATOM     84  C   UNL A   1      40.391  35.466  37.194  1.00  0.00     0.010 A 
ATOM     85  C   UNL A   1      38.899  34.830  39.473  1.00  0.00     0.020 A 
ATOM     86  C   UNL A   1      40.302  36.386  38.243  1.00  0.00     0.020 A 
ATOM     87  C   UNL A   1      39.543  36.068  39.370  1.00  0.00     0.054 A 
BRANCH  87  88
ATOM     88  S   UNL A   1      39.404  37.240  40.745  1.00  0.00     0.124 S 
ATOM     89  O   UNL A   1      38.735  36.437  41.764  1.00  0.00    -0.237 OA
ATOM     90  O   UNL A   1      40.799  37.574  41.023  1.00  0.00    -0.237 OA
ATOM     91  O   UNL A   1      38.607  38.332  40.191  1.00  0.00    -0.744 OA
ENDBRANCH  87  88
ENDBRANCH  61  82
ENDBRANCH  35  36
ENDBRANCH  27  30
ENDBRANCH  25  26
ENDBRANCH  24  25
ENDBRANCH  23  24
ENDBRANCH   1  23
TORSDOF 19
ENDMDL
MODEL 3
REMARK VINA RESULT:      -9.8      2.725      4.112
REMARK SMILES C[C@@H](C(=O)NCCCCCCNC(=O)c1ccc(-c2c3nc(c(-c4ccc(S(=O)(=O)[O-])cc4)c4ccc([nH]4)c(-c4ccc(S(=O)(=O)[O-])cc4)c4nc(c(-c5ccc(S(=O)(=O)[O-])cc5)c5ccc2[nH]5)C=C4)C=C3)cc1)c1ccc(Cc2ccoc2)cc1F
REMARK SMILES IDX 8 1 7 2 6 3 5 4 3 5 4 6 2 8 1 9 75 10 76 11 86 12 77 13
REMARK SMILES IDX 85 14 87 15 78 16 79 17 80 18 81 19 84 20 82 21 83 22 9 23
REMARK SMILES IDX 10 24 11 25 12 26 13 27 14 29 15 30 16 31 74 32 17 33 73 34
REMARK SMILES IDX 18 35 19 36 20 37 67 38 21 39 72 40 66 41 68 42 22 43 71 44
REMARK SMILES IDX 65 45 64 46 23 48 53 49 34 50 52 51 35 52 38 53 51 54 69 55
REMARK SMILES IDX 36 56 37 57 50 59 70 60 39 61 24 62 25 63 33 64 26 65 32 66
REMARK SMILES IDX 27 67 28 68 29 69 30 70 31 71 54 72 55 73 63 74 56 75 62 76
REMARK SMILES IDX 57 77 58 78 59 79 60 80 61 81 40 82 41 83 49 84 42 85 48 86
REMARK SMILES IDX 43 87 44 88 45 89 46 90 47 91
REMARK H PARENT 5 7 12 28 68 47 38 58
REMARK Flexibility Score: inf
ROOT
ATOM      1  C   UNL A   1      34.096  25.739  25.281  1.00  0.00     0.002 C 
ENDROOT
BRANCH   1   2
ATOM      2  C   UNL A   1      35.133  24.717  25.767  1.00  0.00     0.021 C 
BRANCH   2   3
ATOM      3  C   UNL A   1      34.516  23.434  26.330  1.00  0.00     0.116 C 
BRANCH   3   4
ATOM      4  N   UNL A   1      35.076  22.277  25.664  1.00  0.00    -0.356 N 
ATOM      5  C   UNL A   1      34.450  21.233  25.045  1.00  0.00     0.227 C 
ATOM      6  O   UNL A   1      35.156  20.275  24.722  1.00  0.00    -0.274 OA
ATOM      7  H   UNL A   1      36.059  22.235  25.656  1.00  0.00     0.163 HD
BRANCH   5   8
ATOM      8  C   UNL A   1      32.946  21.319  24.715  1.00  0.00     0.108 C 
ATOM      9  C   UNL A   1      32.405  19.992  24.173  1.00  0.00     0.023 C 
BRANCH   8  10
ATOM     10  C   UNL A   1      32.656  22.522  23.819  1.00  0.00    -0.000 A 
ATOM     11  C   UNL A   1      31.465  23.239  24.017  1.00  0.00     0.008 A 
ATOM     12  C   UNL A   1      33.536  22.995  22.840  1.00  0.00     0.127 A 
ATOM     13  C   UNL A   1      31.175  24.380  23.262  1.00  0.00     0.004 A 
ATOM     14  C   UNL A   1      33.234  24.111  22.057  1.00  0.00     0.043 A 
ATOM     15  F   UNL A   1      34.717  22.401  22.626  1.00  0.00    -0.207 F 
ATOM     16  C   UNL A   1      32.046  24.823  22.257  1.00  0.00    -0.041 A 
BRANCH  16  17
ATOM     17  C   UNL A   1      31.768  26.078  21.467  1.00  0.00     0.074 C 
BRANCH  17  18
ATOM     18  C   UNL A   1      32.303  27.239  22.233  1.00  0.00    -0.005 A 
ATOM     19  C   UNL A   1      31.612  28.089  23.150  1.00  0.00     0.046 A 
ATOM     20  C   UNL A   1      33.614  27.678  22.267  1.00  0.00     0.198 A 
ATOM     21  C   UNL A   1      32.536  28.974  23.649  1.00  0.00     0.195 A 
ATOM     22  O   UNL A   1      33.759  28.723  23.121  1.00  0.00    -0.472 OA
ENDBRANCH  17  18
ENDBRANCH  16  17
ENDBRANCH   8  10
ENDBRANCH   5   8
ENDBRANCH   3   4
ENDBRANCH   2   3
ENDBRANCH   1   2
BRANCH   1  23
ATOM     23  C   UNL A   1      32.842  25.849  26.153  1.00  0.00     0.002 C 
BRANCH  23  24
ATOM     24  C   UNL A   1      32.606  27.231  26.766  1.00  0.00     0.021 C 
BRANCH  24  25
ATOM     25  C   UNL A   1      33.866  28.083  26.899  1.00  0.00     0.116 C 
BRANCH  25  26
ATOM     26  N   UNL A   1      33.549  29.477  27.167  1.00  0.00    -0.352 N 
ATOM     27  C   UNL A   1      34.289  30.420  27.834  1.00  0.00     0.251 C 
ATOM     28  H   UNL A   1      32.681  29.787  26.822  1.00  0.00     0.163 HD
ATOM     29  O   UNL A   1      33.769  31.486  28.163  1.00  0.00    -0.269 OA
BRANCH  27  30
ATOM     30  C   UNL A   1      35.701  30.146  28.171  1.00  0.00     0.039 A 
ATOM     31  C   UNL A   1      36.018  29.715  29.462  1.00  0.00     0.014 A 
ATOM     32  C   UNL A   1      36.711  30.320  27.220  1.00  0.00     0.014 A 
ATOM     33  C   UNL A   1      37.343  29.409  29.781  1.00  0.00     0.010 A 
ATOM     34  C   UNL A   1      38.017  29.941  27.518  1.00  0.00     0.010 A 
ATOM     35  C   UNL A   1      38.349  29.487  28.803  1.00  0.00    -0.014 A 
BRANCH  35  36
ATOM     36  C   UNL A   1      39.751  29.104  29.112  1.00  0.00     0.031 A 
ATOM     37  C   UNL A   1      40.690  30.101  29.735  1.00  0.00     0.074 A 
ATOM     38  C   UNL A   1      40.189  27.870  28.790  1.00  0.00     0.049 A 
ATOM     39  N   UNL A   1      41.956  29.963  30.039  1.00  0.00    -0.248 NA
ATOM     40  C   UNL A   1      40.145  31.435  30.036  1.00  0.00     0.031 C 
ATOM     41  C   UNL A   1      39.388  26.825  28.148  1.00  0.00     0.029 A 
ATOM     42  N   UNL A   1      41.420  27.285  28.957  1.00  0.00    -0.354 N 
ATOM     43  C   UNL A   1      42.356  31.186  30.563  1.00  0.00     0.074 A 
ATOM     44  C   UNL A   1      41.218  32.074  30.477  1.00  0.00     0.031 C 
ATOM     45  C   UNL A   1      40.138  25.722  28.003  1.00  0.00     0.029 A 
ATOM     46  C   UNL A   1      41.483  25.990  28.499  1.00  0.00     0.049 A 
ATOM     47  H   UNL A   1      42.186  27.749  29.366  1.00  0.00     0.167 HD
ATOM     48  C   UNL A   1      43.554  31.533  31.094  1.00  0.00     0.031 A 
ATOM     49  C   UNL A   1      42.510  25.118  28.474  1.00  0.00     0.031 A 
ATOM     50  C   UNL A   1      44.684  30.647  31.178  1.00  0.00     0.049 A 
ATOM     51  C   UNL A   1      43.841  25.538  29.039  1.00  0.00     0.074 A 
ATOM     52  C   UNL A   1      45.932  30.894  31.724  1.00  0.00     0.029 A 
ATOM     53  N   UNL A   1      44.708  29.344  30.703  1.00  0.00    -0.354 N 
ATOM     54  N   UNL A   1      44.181  26.683  29.582  1.00  0.00    -0.248 NA
ATOM     55  C   UNL A   1      44.921  24.543  29.001  1.00  0.00     0.031 C 
ATOM     56  C   UNL A   1      46.726  29.758  31.533  1.00  0.00     0.029 A 
ATOM     57  C   UNL A   1      45.953  28.781  30.927  1.00  0.00     0.049 A 
ATOM     58  H   UNL A   1      43.950  28.887  30.271  1.00  0.00     0.167 HD
ATOM     59  C   UNL A   1      45.505  26.534  29.979  1.00  0.00     0.074 A 
ATOM     60  C   UNL A   1      45.897  25.183  29.630  1.00  0.00     0.031 C 
ATOM     61  C   UNL A   1      46.326  27.434  30.577  1.00  0.00     0.031 A 
BRANCH  48  62
ATOM     62  C   UNL A   1      43.697  32.933  31.634  1.00  0.00    -0.014 A 
ATOM     63  C   UNL A   1      44.189  33.973  30.824  1.00  0.00     0.010 A 
ATOM     64  C   UNL A   1      43.297  33.224  32.951  1.00  0.00     0.010 A 
ATOM     65  C   UNL A   1      44.313  35.269  31.331  1.00  0.00     0.020 A 
ATOM     66  C   UNL A   1      43.391  34.526  33.452  1.00  0.00     0.020 A 
ATOM     67  C   UNL A   1      43.914  35.538  32.644  1.00  0.00     0.054 A 
BRANCH  67  68
ATOM     68  S   UNL A   1      44.062  37.235  33.264  1.00  0.00     0.124 S 
ATOM     69  O   UNL A   1      45.377  37.209  33.901  1.00  0.00    -0.237 OA
ATOM     70  O   UNL A   1      43.972  38.030  32.042  1.00  0.00    -0.237 OA
ATOM     71  O   UNL A   1      42.931  37.371  34.178  1.00  0.00    -0.744 OA
ENDBRANCH  67  68
ENDBRANCH  48  62
BRANCH  49  72
ATOM     72  C   UNL A   1      42.325  23.758  27.894  1.00  0.00    -0.014 A 
ATOM     73  C   UNL A   1      42.549  23.523  26.526  1.00  0.00     0.010 A 
ATOM     74  C   UNL A   1      41.910  22.689  28.711  1.00  0.00     0.010 A 
ATOM     75  C   UNL A   1      42.327  22.256  25.979  1.00  0.00     0.020 A 
ATOM     76  C   UNL A   1      41.720  21.414  28.173  1.00  0.00     0.020 A 
ATOM     77  C   UNL A   1      41.913  21.208  26.807  1.00  0.00     0.054 A 
BRANCH  77  78
ATOM     78  S   UNL A   1      41.654  19.566  26.080  1.00  0.00     0.124 S 
ATOM     79  O   UNL A   1      42.575  19.587  24.949  1.00  0.00    -0.237 OA
ATOM     80  O   UNL A   1      42.018  18.674  27.179  1.00  0.00    -0.237 OA
ATOM     81  O   UNL A   1      40.235  19.567  25.733  1.00  0.00    -0.744 OA
ENDBRANCH  77  78
ENDBRANCH  49  72
BRANCH  61  82
ATOM     82  C   UNL A   1      47.716  26.974  30.934  1.00  0.00    -0.014 A 
ATOM     83  C   UNL A   1      48.788  27.116  30.035  1.00  0.00     0.010 A 
ATOM     84  C   UNL A   1      47.958  26.432  32.209  1.00  0.00     0.010 A 
ATOM     85  C   UNL A   1      50.069  26.688  30.392  1.00  0.00     0.020 A 
ATOM     86  C   UNL A   1      49.245  26.033  32.581  1.00  0.00     0.020 A 
ATOM     87  C   UNL A   1      50.290  26.149  31.664  1.00  0.00     0.054 A 
BRANCH  87  88
ATOM     88  S   UNL A   1      51.970  25.636  32.114  1.00  0.00     0.124 S 
ATOM     89  O   UNL A   1      52.709  25.901  30.884  1.00  0.00    -0.237 OA
ATOM     90  O   UNL A   1      52.282  26.516  33.238  1.00  0.00    -0.237 OA
ATOM     91  O   UNL A   1      51.820  24.225  32.459  1.00  0.00    -0.744 OA
ENDBRANCH  87  88
ENDBRANCH  61  82
ENDBRANCH  35  36
ENDBRANCH  27  30
ENDBRANCH  25  26
ENDBRANCH  24  25
ENDBRANCH  23  24
ENDBRANCH   1  23
TORSDOF 19
ENDMDL
