MODEL 1
REMARK VINA RESULT:     -12.1      0.000      0.000
REMARK SMILES CCn1ncc(NC(=O)[C@@H]2CCCC[C@@H]2C(=O)NCCCCCCNC(=O)c2ccc(-c3c4nc(c(-c5ccc(S(=O)(=O)[O-])cc5)c5ccc([nH]5)c(-c5ccc(S(=O)(=O)[O-])cc5)c5nc(c(-c6ccc(S(=O)(=O)[O-])cc6)c6ccc3[nH]6)C=C5)C=C4)cc2)c1C(=O)Nc1cnn(C)c1C
REMARK SMILES IDX 21 1 20 2 19 3 18 4 16 5 17 6 15 8 10 9 11 10 12 11 14 12
REMARK SMILES IDX 13 13 8 14 7 15 9 17 6 18 3 19 4 20 88 21 5 22 2 23 1 24
REMARK SMILES IDX 89 25 90 26 91 27 92 29 93 30 97 31 94 32 95 33 98 34 96 35
REMARK SMILES IDX 22 36 23 37 24 38 25 39 26 40 27 42 28 43 29 44 87 45 30 46
REMARK SMILES IDX 86 47 31 48 32 49 33 50 80 51 34 52 85 53 79 54 81 55 35 56
REMARK SMILES IDX 84 57 78 58 77 59 36 61 66 62 47 63 65 64 48 65 51 66 64 67
REMARK SMILES IDX 82 68 49 69 50 70 63 72 83 73 52 74 37 75 38 76 46 77 39 78
REMARK SMILES IDX 45 79 40 80 41 81 42 82 43 83 44 84 67 85 68 86 76 87 69 88
REMARK SMILES IDX 75 89 70 90 71 91 72 92 73 93 74 94 53 95 54 96 62 97 55 98
REMARK SMILES IDX 61 99 56 100 57 101 58 102 59 103 60 104
REMARK H PARENT 18 7 7 16 91 28 25 41 81 60 51 71
REMARK Flexibility Score: inf
ROOT
ATOM      1  C   UNL A   1      34.373  28.983  26.374  1.00  0.00     0.002 C 
ENDROOT
BRANCH   1   2
ATOM      2  C   UNL A   1      33.268  27.946  26.461  1.00  0.00     0.021 C 
BRANCH   2   3
ATOM      3  C   UNL A   1      33.670  26.557  26.028  1.00  0.00     0.116 C 
BRANCH   3   4
ATOM      4  N   UNL A   1      32.855  25.455  26.417  1.00  0.00    -0.356 N 
ATOM      5  C   UNL A   1      33.145  24.152  26.137  1.00  0.00     0.223 C 
ATOM      6  O   UNL A   1      32.540  23.278  26.766  1.00  0.00    -0.275 OA
ATOM      7  H   UNL A   1      32.031  25.646  26.922  1.00  0.00     0.163 HD
BRANCH   5   8
ATOM      8  C   UNL A   1      34.107  23.753  25.000  1.00  0.00     0.091 C 
ATOM      9  C   UNL A   1      33.862  22.537  24.100  1.00  0.00     0.091 C 
ATOM     10  C   UNL A   1      34.463  21.176  24.453  1.00  0.00     0.014 C 
ATOM     11  C   UNL A   1      35.898  21.282  24.976  1.00  0.00     0.001 C 
ATOM     12  C   UNL A   1      35.586  23.835  25.401  1.00  0.00     0.014 C 
ATOM     13  C   UNL A   1      36.238  22.517  25.820  1.00  0.00     0.001 C 
BRANCH   9  14
ATOM     14  C   UNL A   1      32.463  22.424  23.579  1.00  0.00     0.228 C 
ATOM     15  N   UNL A   1      31.829  23.519  23.070  1.00  0.00    -0.322 N 
ATOM     16  H   UNL A   1      30.873  23.349  22.906  1.00  0.00     0.170 HD
ATOM     17  O   UNL A   1      31.843  21.359  23.645  1.00  0.00    -0.274 OA
BRANCH  15  18
ATOM     18  C   UNL A   1      32.199  24.819  22.723  1.00  0.00     0.092 A 
ATOM     19  N   UNL A   1      32.701  26.952  22.462  1.00  0.00    -0.258 N 
ATOM     20  N   UNL A   1      33.666  26.308  21.775  1.00  0.00    -0.178 NA
ATOM     21  C   UNL A   1      31.714  26.117  22.950  1.00  0.00     0.150 A 
ATOM     22  C   UNL A   1      33.392  25.029  21.985  1.00  0.00     0.162 A 
BRANCH  19  23
ATOM     23  C   UNL A   1      32.891  28.379  22.671  1.00  0.00     0.142 C 
ATOM     24  C   UNL A   1      34.332  28.865  22.710  1.00  0.00     0.029 C 
ENDBRANCH  19  23
BRANCH  21  25
ATOM     25  C   UNL A   1      30.621  26.628  23.746  1.00  0.00     0.276 C 
ATOM     26  O   UNL A   1      30.680  26.681  24.973  1.00  0.00    -0.267 OA
ATOM     27  N   UNL A   1      29.420  26.912  23.094  1.00  0.00    -0.318 N 
ATOM     28  H   UNL A   1      28.779  26.199  22.873  1.00  0.00     0.170 HD
BRANCH  27  29
ATOM     29  C   UNL A   1      29.163  28.238  22.769  1.00  0.00     0.082 A 
ATOM     30  C   UNL A   1      30.004  29.190  22.174  1.00  0.00     0.161 A 
ATOM     31  C   UNL A   1      27.975  28.896  23.013  1.00  0.00     0.059 A 
ATOM     32  N   UNL A   1      29.480  30.417  22.234  1.00  0.00    -0.179 NA
ATOM     33  N   UNL A   1      28.276  30.224  22.820  1.00  0.00    -0.271 N 
ATOM     34  C   UNL A   1      26.671  28.427  23.559  1.00  0.00     0.068 C 
ATOM     35  C   UNL A   1      27.617  31.351  23.443  1.00  0.00     0.174 C 
ENDBRANCH  27  29
ENDBRANCH  21  25
ENDBRANCH  15  18
ENDBRANCH   9  14
ENDBRANCH   5   8
ENDBRANCH   3   4
ENDBRANCH   2   3
ENDBRANCH   1   2
BRANCH   1  36
ATOM     36  C   UNL A   1      34.518  29.922  27.582  1.00  0.00     0.002 C 
BRANCH  36  37
ATOM     37  C   UNL A   1      33.668  31.203  27.606  1.00  0.00     0.021 C 
BRANCH  37  38
ATOM     38  C   UNL A   1      34.399  32.442  28.092  1.00  0.00     0.116 C 
BRANCH  38  39
ATOM     39  N   UNL A   1      34.215  32.685  29.523  1.00  0.00    -0.352 N 
ATOM     40  C   UNL A   1      34.950  32.213  30.588  1.00  0.00     0.251 C 
ATOM     41  H   UNL A   1      33.458  33.269  29.757  1.00  0.00     0.163 HD
ATOM     42  O   UNL A   1      34.474  32.236  31.728  1.00  0.00    -0.269 OA
BRANCH  40  43
ATOM     43  C   UNL A   1      36.303  31.683  30.359  1.00  0.00     0.039 A 
ATOM     44  C   UNL A   1      37.409  32.520  30.191  1.00  0.00     0.014 A 
ATOM     45  C   UNL A   1      36.457  30.301  30.322  1.00  0.00     0.014 A 
ATOM     46  C   UNL A   1      38.670  31.943  30.049  1.00  0.00     0.010 A 
ATOM     47  C   UNL A   1      37.703  29.747  30.407  1.00  0.00     0.010 A 
ATOM     48  C   UNL A   1      38.804  30.551  30.171  1.00  0.00    -0.014 A 
BRANCH  48  49
ATOM     49  C   UNL A   1      40.104  29.896  30.166  1.00  0.00     0.031 A 
ATOM     50  C   UNL A   1      40.617  29.598  31.524  1.00  0.00     0.074 A 
ATOM     51  C   UNL A   1      40.675  29.391  29.049  1.00  0.00     0.049 A 
ATOM     52  N   UNL A   1      41.547  30.227  32.160  1.00  0.00    -0.248 NA
ATOM     53  C   UNL A   1      39.885  28.621  32.350  1.00  0.00     0.031 C 
ATOM     54  C   UNL A   1      40.127  29.320  27.687  1.00  0.00     0.029 A 
ATOM     55  N   UNL A   1      41.847  28.716  28.923  1.00  0.00    -0.354 N 
ATOM     56  C   UNL A   1      41.703  29.547  33.360  1.00  0.00     0.074 A 
ATOM     57  C   UNL A   1      40.516  28.745  33.520  1.00  0.00     0.031 C 
ATOM     58  C   UNL A   1      40.846  28.441  26.951  1.00  0.00     0.029 A 
ATOM     59  C   UNL A   1      42.003  28.026  27.724  1.00  0.00     0.049 A 
ATOM     60  H   UNL A   1      42.536  28.716  29.626  1.00  0.00     0.167 HD
ATOM     61  C   UNL A   1      42.921  29.464  33.965  1.00  0.00     0.031 A 
ATOM     62  C   UNL A   1      43.002  27.160  27.408  1.00  0.00     0.031 A 
ATOM     63  C   UNL A   1      43.863  30.388  33.379  1.00  0.00     0.049 A 
ATOM     64  C   UNL A   1      44.126  27.455  28.332  1.00  0.00     0.074 A 
ATOM     65  C   UNL A   1      43.896  31.757  33.192  1.00  0.00     0.029 A 
ATOM     66  N   UNL A   1      44.771  29.864  32.488  1.00  0.00    -0.354 N 
ATOM     67  N   UNL A   1      44.789  28.577  28.309  1.00  0.00    -0.248 NA
ATOM     68  C   UNL A   1      44.193  26.716  29.581  1.00  0.00     0.031 C 
ATOM     69  C   UNL A   1      44.444  31.936  31.886  1.00  0.00     0.029 A 
ATOM     70  C   UNL A   1      44.799  30.681  31.386  1.00  0.00     0.049 A 
ATOM     71  H   UNL A   1      45.306  29.048  32.617  1.00  0.00     0.167 HD
ATOM     72  C   UNL A   1      44.967  28.908  29.645  1.00  0.00     0.074 A 
ATOM     73  C   UNL A   1      44.665  27.679  30.380  1.00  0.00     0.031 C 
ATOM     74  C   UNL A   1      45.060  30.213  30.041  1.00  0.00     0.031 A 
BRANCH  61  75
ATOM     75  C   UNL A   1      43.378  28.259  34.753  1.00  0.00    -0.014 A 
ATOM     76  C   UNL A   1      43.842  28.454  36.070  1.00  0.00     0.010 A 
ATOM     77  C   UNL A   1      43.627  27.001  34.168  1.00  0.00     0.010 A 
ATOM     78  C   UNL A   1      44.584  27.467  36.732  1.00  0.00     0.020 A 
ATOM     79  C   UNL A   1      44.326  25.994  34.835  1.00  0.00     0.020 A 
ATOM     80  C   UNL A   1      44.830  26.247  36.103  1.00  0.00     0.054 A 
BRANCH  80  81
ATOM     81  S   UNL A   1      45.863  25.015  36.928  1.00  0.00     0.124 S 
ATOM     82  O   UNL A   1      46.516  25.815  37.960  1.00  0.00    -0.237 OA
ATOM     83  O   UNL A   1      44.873  24.051  37.401  1.00  0.00    -0.237 OA
ATOM     84  O   UNL A   1      46.736  24.531  35.861  1.00  0.00    -0.744 OA
ENDBRANCH  80  81
ENDBRANCH  61  75
BRANCH  62  85
ATOM     85  C   UNL A   1      42.951  25.905  26.614  1.00  0.00    -0.014 A 
ATOM     86  C   UNL A   1      43.689  25.780  25.419  1.00  0.00     0.010 A 
ATOM     87  C   UNL A   1      42.444  24.724  27.194  1.00  0.00     0.010 A 
ATOM     88  C   UNL A   1      43.994  24.515  24.881  1.00  0.00     0.020 A 
ATOM     89  C   UNL A   1      42.739  23.463  26.659  1.00  0.00     0.020 A 
ATOM     90  C   UNL A   1      43.540  23.362  25.524  1.00  0.00     0.054 A 
BRANCH  90  91
ATOM     91  S   UNL A   1      44.129  21.732  24.966  1.00  0.00     0.124 S 
ATOM     92  O   UNL A   1      44.296  21.935  23.530  1.00  0.00    -0.237 OA
ATOM     93  O   UNL A   1      45.362  21.558  25.728  1.00  0.00    -0.237 OA
ATOM     94  O   UNL A   1      43.042  20.828  25.342  1.00  0.00    -0.744 OA
ENDBRANCH  90  91
ENDBRANCH  62  85
BRANCH  74  95
ATOM     95  C   UNL A   1      45.260  31.271  28.975  1.00  0.00    -0.014 A 
ATOM     96  C   UNL A   1      46.516  31.708  28.506  1.00  0.00     0.010 A 
ATOM     97  C   UNL A   1      44.107  31.775  28.350  1.00  0.00     0.010 A 
ATOM     98  C   UNL A   1      46.609  32.662  27.479  1.00  0.00     0.020 A 
ATOM     99  C   UNL A   1      44.191  32.708  27.316  1.00  0.00     0.020 A 
ATOM    100  C   UNL A   1      45.440  33.165  26.899  1.00  0.00     0.054 A 
BRANCH 100 101
ATOM    101  S   UNL A   1      45.554  34.414  25.587  1.00  0.00     0.124 S 
ATOM    102  O   UNL A   1      44.736  33.834  24.524  1.00  0.00    -0.237 OA
ATOM    103  O   UNL A   1      45.003  35.607  26.225  1.00  0.00    -0.237 OA
ATOM    104  O   UNL A   1      46.985  34.484  25.294  1.00  0.00    -0.744 OA
ENDBRANCH 100 101
ENDBRANCH  74  95
ENDBRANCH  48  49
ENDBRANCH  40  43
ENDBRANCH  38  39
ENDBRANCH  37  38
ENDBRANCH  36  37
ENDBRANCH   1  36
TORSDOF 21
ENDMDL
MODEL 2
REMARK VINA RESULT:     -11.9      2.979      6.816
REMARK SMILES CCn1ncc(NC(=O)[C@@H]2CCCC[C@@H]2C(=O)NCCCCCCNC(=O)c2ccc(-c3c4nc(c(-c5ccc(S(=O)(=O)[O-])cc5)c5ccc([nH]5)c(-c5ccc(S(=O)(=O)[O-])cc5)c5nc(c(-c6ccc(S(=O)(=O)[O-])cc6)c6ccc3[nH]6)C=C5)C=C4)cc2)c1C(=O)Nc1cnn(C)c1C
REMARK SMILES IDX 21 1 20 2 19 3 18 4 16 5 17 6 15 8 10 9 11 10 12 11 14 12
REMARK SMILES IDX 13 13 8 14 7 15 9 17 6 18 3 19 4 20 88 21 5 22 2 23 1 24
REMARK SMILES IDX 89 25 90 26 91 27 92 29 93 30 97 31 94 32 95 33 98 34 96 35
REMARK SMILES IDX 22 36 23 37 24 38 25 39 26 40 27 42 28 43 29 44 87 45 30 46
REMARK SMILES IDX 86 47 31 48 32 49 33 50 80 51 34 52 85 53 79 54 81 55 35 56
REMARK SMILES IDX 84 57 78 58 77 59 36 61 66 62 47 63 65 64 48 65 51 66 64 67
REMARK SMILES IDX 82 68 49 69 50 70 63 72 83 73 52 74 37 75 38 76 46 77 39 78
REMARK SMILES IDX 45 79 40 80 41 81 42 82 43 83 44 84 67 85 68 86 76 87 69 88
REMARK SMILES IDX 75 89 70 90 71 91 72 92 73 93 74 94 53 95 54 96 62 97 55 98
REMARK SMILES IDX 61 99 56 100 57 101 58 102 59 103 60 104
REMARK H PARENT 18 7 7 16 91 28 25 41 81 60 51 71
REMARK Flexibility Score: inf
ROOT
ATOM      1  C   UNL A   1      33.133  29.368  26.421  1.00  0.00     0.002 C 
ENDROOT
BRANCH   1   2
ATOM      2  C   UNL A   1      32.704  28.065  27.071  1.00  0.00     0.021 C 
BRANCH   2   3
ATOM      3  C   UNL A   1      33.016  26.826  26.267  1.00  0.00     0.116 C 
BRANCH   3   4
ATOM      4  N   UNL A   1      32.261  25.641  26.511  1.00  0.00    -0.356 N 
ATOM      5  C   UNL A   1      32.662  24.390  26.147  1.00  0.00     0.223 C 
ATOM      6  O   UNL A   1      32.085  23.426  26.661  1.00  0.00    -0.275 OA
ATOM      7  H   UNL A   1      31.396  25.733  26.973  1.00  0.00     0.163 HD
BRANCH   5   8
ATOM      8  C   UNL A   1      33.719  24.155  25.048  1.00  0.00     0.091 C 
ATOM      9  C   UNL A   1      33.627  22.996  24.049  1.00  0.00     0.091 C 
ATOM     10  C   UNL A   1      34.316  21.662  24.342  1.00  0.00     0.014 C 
ATOM     11  C   UNL A   1      35.704  21.838  24.962  1.00  0.00     0.001 C 
ATOM     12  C   UNL A   1      35.160  24.320  25.549  1.00  0.00     0.014 C 
ATOM     13  C   UNL A   1      35.892  23.028  25.914  1.00  0.00     0.001 C 
BRANCH   9  14
ATOM     14  C   UNL A   1      32.275  22.816  23.433  1.00  0.00     0.228 C 
ATOM     15  N   UNL A   1      31.632  23.875  22.863  1.00  0.00    -0.322 N 
ATOM     16  H   UNL A   1      30.699  23.662  22.635  1.00  0.00     0.170 HD
ATOM     17  O   UNL A   1      31.698  21.726  23.471  1.00  0.00    -0.274 OA
BRANCH  15  18
ATOM     18  C   UNL A   1      31.970  25.186  22.522  1.00  0.00     0.092 A 
ATOM     19  N   UNL A   1      32.426  27.331  22.273  1.00  0.00    -0.258 N 
ATOM     20  N   UNL A   1      33.392  26.713  21.565  1.00  0.00    -0.178 NA
ATOM     21  C   UNL A   1      31.464  26.471  22.769  1.00  0.00     0.150 A 
ATOM     22  C   UNL A   1      33.148  25.426  21.768  1.00  0.00     0.162 A 
BRANCH  19  23
ATOM     23  C   UNL A   1      32.591  28.760  22.493  1.00  0.00     0.142 C 
ATOM     24  C   UNL A   1      33.953  29.207  23.000  1.00  0.00     0.029 C 
ENDBRANCH  19  23
BRANCH  21  25
ATOM     25  C   UNL A   1      30.374  26.953  23.587  1.00  0.00     0.276 C 
ATOM     26  O   UNL A   1      30.186  26.539  24.729  1.00  0.00    -0.267 OA
ATOM     27  N   UNL A   1      29.431  27.789  22.987  1.00  0.00    -0.318 N 
ATOM     28  H   UNL A   1      28.706  27.423  22.432  1.00  0.00     0.170 HD
BRANCH  27  29
ATOM     29  C   UNL A   1      29.554  29.156  23.202  1.00  0.00     0.082 A 
ATOM     30  C   UNL A   1      30.266  29.842  24.197  1.00  0.00     0.161 A 
ATOM     31  C   UNL A   1      28.941  30.134  22.446  1.00  0.00     0.059 A 
ATOM     32  N   UNL A   1      29.957  31.141  24.218  1.00  0.00    -0.179 NA
ATOM     33  N   UNL A   1      29.088  31.281  23.191  1.00  0.00    -0.271 N 
ATOM     34  C   UNL A   1      28.109  30.064  21.213  1.00  0.00     0.068 C 
ATOM     35  C   UNL A   1      28.212  32.432  23.172  1.00  0.00     0.174 C 
ENDBRANCH  27  29
ENDBRANCH  21  25
ENDBRANCH  15  18
ENDBRANCH   9  14
ENDBRANCH   5   8
ENDBRANCH   3   4
ENDBRANCH   2   3
ENDBRANCH   1   2
BRANCH   1  36
ATOM     36  C   UNL A   1      33.100  30.614  27.319  1.00  0.00     0.002 C 
BRANCH  36  37
ATOM     37  C   UNL A   1      31.897  31.564  27.192  1.00  0.00     0.021 C 
BRANCH  37  38
ATOM     38  C   UNL A   1      32.220  32.922  26.595  1.00  0.00     0.116 C 
BRANCH  38  39
ATOM     39  N   UNL A   1      32.117  34.008  27.570  1.00  0.00    -0.352 N 
ATOM     40  C   UNL A   1      32.897  34.262  28.677  1.00  0.00     0.251 C 
ATOM     41  H   UNL A   1      31.387  34.649  27.412  1.00  0.00     0.163 HD
ATOM     42  O   UNL A   1      32.484  35.010  29.568  1.00  0.00    -0.269 OA
BRANCH  40  43
ATOM     43  C   UNL A   1      34.225  33.636  28.788  1.00  0.00     0.039 A 
ATOM     44  C   UNL A   1      35.226  33.846  27.836  1.00  0.00     0.014 A 
ATOM     45  C   UNL A   1      34.464  32.824  29.892  1.00  0.00     0.014 A 
ATOM     46  C   UNL A   1      36.480  33.276  28.049  1.00  0.00     0.010 A 
ATOM     47  C   UNL A   1      35.740  32.456  30.208  1.00  0.00     0.010 A 
ATOM     48  C   UNL A   1      36.728  32.591  29.249  1.00  0.00    -0.014 A 
BRANCH  48  49
ATOM     49  C   UNL A   1      38.050  32.087  29.593  1.00  0.00     0.031 A 
ATOM     50  C   UNL A   1      38.215  30.640  29.323  1.00  0.00     0.074 A 
ATOM     51  C   UNL A   1      39.094  32.892  29.894  1.00  0.00     0.049 A 
ATOM     52  N   UNL A   1      38.226  29.684  30.190  1.00  0.00    -0.248 NA
ATOM     53  C   UNL A   1      38.163  30.178  27.925  1.00  0.00     0.031 C 
ATOM     54  C   UNL A   1      39.161  34.360  29.874  1.00  0.00     0.029 A 
ATOM     55  N   UNL A   1      40.378  32.551  30.176  1.00  0.00    -0.354 N 
ATOM     56  C   UNL A   1      38.459  28.525  29.462  1.00  0.00     0.074 A 
ATOM     57  C   UNL A   1      38.170  28.853  28.089  1.00  0.00     0.031 C 
ATOM     58  C   UNL A   1      40.453  34.760  29.892  1.00  0.00     0.029 A 
ATOM     59  C   UNL A   1      41.295  33.596  30.104  1.00  0.00     0.049 A 
ATOM     60  H   UNL A   1      40.641  31.633  30.415  1.00  0.00     0.167 HD
ATOM     61  C   UNL A   1      39.161  27.488  30.001  1.00  0.00     0.031 A 
ATOM     62  C   UNL A   1      42.648  33.498  30.192  1.00  0.00     0.031 A 
ATOM     63  C   UNL A   1      39.322  27.648  31.427  1.00  0.00     0.049 A 
ATOM     64  C   UNL A   1      42.937  32.204  30.857  1.00  0.00     0.074 A 
ATOM     65  C   UNL A   1      38.457  27.796  32.494  1.00  0.00     0.029 A 
ATOM     66  N   UNL A   1      40.541  28.112  31.864  1.00  0.00    -0.354 N 
ATOM     67  N   UNL A   1      42.616  31.954  32.096  1.00  0.00    -0.248 NA
ATOM     68  C   UNL A   1      43.138  31.035  30.017  1.00  0.00     0.031 C 
ATOM     69  C   UNL A   1      39.068  28.778  33.330  1.00  0.00     0.029 A 
ATOM     70  C   UNL A   1      40.309  29.107  32.780  1.00  0.00     0.049 A 
ATOM     71  H   UNL A   1      41.424  27.788  31.572  1.00  0.00     0.167 HD
ATOM     72  C   UNL A   1      42.132  30.654  32.079  1.00  0.00     0.074 A 
ATOM     73  C   UNL A   1      42.567  30.107  30.793  1.00  0.00     0.031 C 
ATOM     74  C   UNL A   1      41.185  30.244  32.976  1.00  0.00     0.031 A 
BRANCH  61  75
ATOM     75  C   UNL A   1      40.073  26.593  29.195  1.00  0.00    -0.014 A 
ATOM     76  C   UNL A   1      41.409  26.997  29.000  1.00  0.00     0.010 A 
ATOM     77  C   UNL A   1      39.605  25.527  28.400  1.00  0.00     0.010 A 
ATOM     78  C   UNL A   1      42.207  26.412  28.007  1.00  0.00     0.020 A 
ATOM     79  C   UNL A   1      40.406  24.907  27.440  1.00  0.00     0.020 A 
ATOM     80  C   UNL A   1      41.693  25.378  27.226  1.00  0.00     0.054 A 
BRANCH  80  81
ATOM     81  S   UNL A   1      42.697  24.692  25.890  1.00  0.00     0.124 S 
ATOM     82  O   UNL A   1      42.146  23.346  25.761  1.00  0.00    -0.237 OA
ATOM     83  O   UNL A   1      42.408  25.605  24.788  1.00  0.00    -0.237 OA
ATOM     84  O   UNL A   1      44.060  24.766  26.412  1.00  0.00    -0.744 OA
ENDBRANCH  80  81
ENDBRANCH  61  75
BRANCH  62  85
ATOM     85  C   UNL A   1      43.700  34.257  29.466  1.00  0.00    -0.014 A 
ATOM     86  C   UNL A   1      45.050  34.172  29.864  1.00  0.00     0.010 A 
ATOM     87  C   UNL A   1      43.429  34.799  28.194  1.00  0.00     0.010 A 
ATOM     88  C   UNL A   1      46.092  34.521  28.984  1.00  0.00     0.020 A 
ATOM     89  C   UNL A   1      44.462  35.155  27.316  1.00  0.00     0.020 A 
ATOM     90  C   UNL A   1      45.789  34.982  27.702  1.00  0.00     0.054 A 
BRANCH  90  91
ATOM     91  S   UNL A   1      47.128  35.207  26.489  1.00  0.00     0.124 S 
ATOM     92  O   UNL A   1      46.710  36.415  25.783  1.00  0.00    -0.237 OA
ATOM     93  O   UNL A   1      48.308  35.345  27.336  1.00  0.00    -0.237 OA
ATOM     94  O   UNL A   1      47.082  33.978  25.696  1.00  0.00    -0.744 OA
ENDBRANCH  90  91
ENDBRANCH  62  85
BRANCH  74  95
ATOM     95  C   UNL A   1      40.892  31.136  34.165  1.00  0.00    -0.014 A 
ATOM     96  C   UNL A   1      39.913  32.151  34.182  1.00  0.00     0.010 A 
ATOM     97  C   UNL A   1      41.581  30.859  35.357  1.00  0.00     0.010 A 
ATOM     98  C   UNL A   1      39.674  32.900  35.345  1.00  0.00     0.020 A 
ATOM     99  C   UNL A   1      41.336  31.585  36.523  1.00  0.00     0.020 A 
ATOM    100  C   UNL A   1      40.398  32.618  36.507  1.00  0.00     0.054 A 
BRANCH 100 101
ATOM    101  S   UNL A   1      40.110  33.598  38.007  1.00  0.00     0.124 S 
ATOM    102  O   UNL A   1      41.439  34.132  38.299  1.00  0.00    -0.237 OA
ATOM    103  O   UNL A   1      39.120  34.579  37.571  1.00  0.00    -0.237 OA
ATOM    104  O   UNL A   1      39.614  32.619  38.975  1.00  0.00    -0.744 OA
ENDBRANCH 100 101
ENDBRANCH  74  95
ENDBRANCH  48  49
ENDBRANCH  40  43
ENDBRANCH  38  39
ENDBRANCH  37  38
ENDBRANCH  36  37
ENDBRANCH   1  36
TORSDOF 21
ENDMDL
MODEL 3
REMARK VINA RESULT:     -11.6      1.983      4.297
REMARK SMILES CCn1ncc(NC(=O)[C@@H]2CCCC[C@@H]2C(=O)NCCCCCCNC(=O)c2ccc(-c3c4nc(c(-c5ccc(S(=O)(=O)[O-])cc5)c5ccc([nH]5)c(-c5ccc(S(=O)(=O)[O-])cc5)c5nc(c(-c6ccc(S(=O)(=O)[O-])cc6)c6ccc3[nH]6)C=C5)C=C4)cc2)c1C(=O)Nc1cnn(C)c1C
REMARK SMILES IDX 21 1 20 2 19 3 18 4 16 5 17 6 15 8 10 9 11 10 12 11 14 12
REMARK SMILES IDX 13 13 8 14 7 15 9 17 6 18 3 19 4 20 88 21 5 22 2 23 1 24
REMARK SMILES IDX 89 25 90 26 91 27 92 29 93 30 97 31 94 32 95 33 98 34 96 35
REMARK SMILES IDX 22 36 23 37 24 38 25 39 26 40 27 42 28 43 29 44 87 45 30 46
REMARK SMILES IDX 86 47 31 48 32 49 33 50 80 51 34 52 85 53 79 54 81 55 35 56
REMARK SMILES IDX 84 57 78 58 77 59 36 61 66 62 47 63 65 64 48 65 51 66 64 67
REMARK SMILES IDX 82 68 49 69 50 70 63 72 83 73 52 74 37 75 38 76 46 77 39 78
REMARK SMILES IDX 45 79 40 80 41 81 42 82 43 83 44 84 67 85 68 86 76 87 69 88
REMARK SMILES IDX 75 89 70 90 71 91 72 92 73 93 74 94 53 95 54 96 62 97 55 98
REMARK SMILES IDX 61 99 56 100 57 101 58 102 59 103 60 104
REMARK H PARENT 18 7 7 16 91 28 25 41 81 60 51 71
REMARK Flexibility Score: inf
ROOT
ATOM      1  C   UNL A   1      33.418  31.197  27.493  1.00  0.00     0.002 C 
ENDROOT
BRANCH   1   2
ATOM      2  C   UNL A   1      32.119  30.715  26.873  1.00  0.00     0.021 C 
BRANCH   2   3
ATOM      3  C   UNL A   1      31.761  29.283  27.190  1.00  0.00     0.116 C 
BRANCH   3   4
ATOM      4  N   UNL A   1      32.773  28.285  27.087  1.00  0.00    -0.356 N 
ATOM      5  C   UNL A   1      33.242  27.790  25.906  1.00  0.00     0.223 C 
ATOM      6  O   UNL A   1      34.304  27.160  25.925  1.00  0.00    -0.275 OA
ATOM      7  H   UNL A   1      33.158  27.930  27.921  1.00  0.00     0.163 HD
BRANCH   5   8
ATOM      8  C   UNL A   1      32.439  27.901  24.593  1.00  0.00     0.091 C 
ATOM      9  C   UNL A   1      31.774  26.691  23.928  1.00  0.00     0.091 C 
ATOM     10  C   UNL A   1      32.515  25.889  22.858  1.00  0.00     0.014 C 
ATOM     11  C   UNL A   1      33.296  26.779  21.888  1.00  0.00     0.001 C 
ATOM     12  C   UNL A   1      33.118  28.787  23.541  1.00  0.00     0.014 C 
ATOM     13  C   UNL A   1      33.924  28.053  22.470  1.00  0.00     0.001 C 
BRANCH   9  14
ATOM     14  C   UNL A   1      31.004  25.815  24.866  1.00  0.00     0.228 C 
ATOM     15  N   UNL A   1      31.503  24.603  25.241  1.00  0.00    -0.322 N 
ATOM     16  H   UNL A   1      30.840  24.065  25.731  1.00  0.00     0.170 HD
ATOM     17  O   UNL A   1      29.889  26.147  25.277  1.00  0.00    -0.274 OA
BRANCH  15  18
ATOM     18  C   UNL A   1      32.721  23.936  25.104  1.00  0.00     0.092 A 
ATOM     19  N   UNL A   1      34.604  22.909  24.582  1.00  0.00    -0.258 N 
ATOM     20  N   UNL A   1      34.924  23.631  25.674  1.00  0.00    -0.178 NA
ATOM     21  C   UNL A   1      33.260  22.949  24.263  1.00  0.00     0.150 A 
ATOM     22  C   UNL A   1      33.807  24.290  25.946  1.00  0.00     0.162 A 
BRANCH  19  23
ATOM     23  C   UNL A   1      35.707  22.295  23.859  1.00  0.00     0.142 C 
ATOM     24  C   UNL A   1      37.079  22.414  24.503  1.00  0.00     0.029 C 
ENDBRANCH  19  23
BRANCH  21  25
ATOM     25  C   UNL A   1      32.742  22.268  23.098  1.00  0.00     0.276 C 
ATOM     26  O   UNL A   1      32.965  22.667  21.957  1.00  0.00    -0.267 OA
ATOM     27  N   UNL A   1      31.836  21.226  23.305  1.00  0.00    -0.318 N 
ATOM     28  H   UNL A   1      30.886  21.406  23.484  1.00  0.00     0.170 HD
BRANCH  27  29
ATOM     29  C   UNL A   1      32.325  19.927  23.246  1.00  0.00     0.082 A 
ATOM     30  C   UNL A   1      32.335  19.025  22.173  1.00  0.00     0.161 A 
ATOM     31  C   UNL A   1      32.896  19.249  24.304  1.00  0.00     0.059 A 
ATOM     32  N   UNL A   1      32.678  17.796  22.565  1.00  0.00    -0.179 NA
ATOM     33  N   UNL A   1      32.940  17.940  23.884  1.00  0.00    -0.271 N 
ATOM     34  C   UNL A   1      33.236  19.672  25.691  1.00  0.00     0.068 C 
ATOM     35  C   UNL A   1      32.916  16.768  24.732  1.00  0.00     0.174 C 
ENDBRANCH  27  29
ENDBRANCH  21  25
ENDBRANCH  15  18
ENDBRANCH   9  14
ENDBRANCH   5   8
ENDBRANCH   3   4
ENDBRANCH   2   3
ENDBRANCH   1   2
BRANCH   1  36
ATOM     36  C   UNL A   1      33.425  32.645  28.009  1.00  0.00     0.002 C 
BRANCH  36  37
ATOM     37  C   UNL A   1      34.776  33.374  28.091  1.00  0.00     0.021 C 
BRANCH  37  38
ATOM     38  C   UNL A   1      34.821  34.518  29.089  1.00  0.00     0.116 C 
BRANCH  38  39
ATOM     39  N   UNL A   1      34.320  34.139  30.409  1.00  0.00    -0.352 N 
ATOM     40  C   UNL A   1      34.714  33.102  31.226  1.00  0.00     0.251 C 
ATOM     41  H   UNL A   1      33.598  34.706  30.765  1.00  0.00     0.163 HD
ATOM     42  O   UNL A   1      33.979  32.721  32.143  1.00  0.00    -0.269 OA
BRANCH  40  43
ATOM     43  C   UNL A   1      36.016  32.453  30.999  1.00  0.00     0.039 A 
ATOM     44  C   UNL A   1      37.224  33.110  31.242  1.00  0.00     0.014 A 
ATOM     45  C   UNL A   1      36.010  31.142  30.536  1.00  0.00     0.014 A 
ATOM     46  C   UNL A   1      38.415  32.406  31.071  1.00  0.00     0.010 A 
ATOM     47  C   UNL A   1      37.151  30.393  30.583  1.00  0.00     0.010 A 
ATOM     48  C   UNL A   1      38.363  31.039  30.752  1.00  0.00    -0.014 A 
BRANCH  48  49
ATOM     49  C   UNL A   1      39.561  30.214  30.689  1.00  0.00     0.031 A 
ATOM     50  C   UNL A   1      40.147  29.928  32.019  1.00  0.00     0.074 A 
ATOM     51  C   UNL A   1      39.960  29.572  29.568  1.00  0.00     0.049 A 
ATOM     52  N   UNL A   1      41.204  30.460  32.533  1.00  0.00    -0.248 NA
ATOM     53  C   UNL A   1      39.369  29.110  32.966  1.00  0.00     0.031 C 
ATOM     54  C   UNL A   1      39.289  29.497  28.261  1.00  0.00     0.029 A 
ATOM     55  N   UNL A   1      41.017  28.737  29.395  1.00  0.00    -0.354 N 
ATOM     56  C   UNL A   1      41.374  29.836  33.761  1.00  0.00     0.074 A 
ATOM     57  C   UNL A   1      40.111  29.214  34.070  1.00  0.00     0.031 C 
ATOM     58  C   UNL A   1      39.819  28.487  27.533  1.00  0.00     0.029 A 
ATOM     59  C   UNL A   1      40.975  27.964  28.238  1.00  0.00     0.049 A 
ATOM     60  H   UNL A   1      41.759  28.684  30.040  1.00  0.00     0.167 HD
ATOM     61  C   UNL A   1      42.620  29.623  34.273  1.00  0.00     0.031 A 
ATOM     62  C   UNL A   1      41.821  26.953  27.905  1.00  0.00     0.031 A 
ATOM     63  C   UNL A   1      43.619  30.374  33.551  1.00  0.00     0.049 A 
ATOM     64  C   UNL A   1      43.050  27.145  28.714  1.00  0.00     0.074 A 
ATOM     65  C   UNL A   1      43.816  31.713  33.267  1.00  0.00     0.029 A 
ATOM     66  N   UNL A   1      44.369  29.681  32.629  1.00  0.00    -0.354 N 
ATOM     67  N   UNL A   1      43.850  28.163  28.561  1.00  0.00    -0.248 NA
ATOM     68  C   UNL A   1      43.130  26.477  30.002  1.00  0.00     0.031 C 
ATOM     69  C   UNL A   1      44.265  31.739  31.913  1.00  0.00     0.029 A 
ATOM     70  C   UNL A   1      44.406  30.421  31.474  1.00  0.00     0.049 A 
ATOM     71  H   UNL A   1      44.801  28.808  32.771  1.00  0.00     0.167 HD
ATOM     72  C   UNL A   1      44.187  28.543  29.852  1.00  0.00     0.074 A 
ATOM     73  C   UNL A   1      43.792  27.411  30.692  1.00  0.00     0.031 C 
ATOM     74  C   UNL A   1      44.485  29.844  30.148  1.00  0.00     0.031 A 
BRANCH  61  75
ATOM     75  C   UNL A   1      42.982  28.415  35.103  1.00  0.00    -0.014 A 
ATOM     76  C   UNL A   1      43.786  28.602  36.246  1.00  0.00     0.010 A 
ATOM     77  C   UNL A   1      42.801  27.089  34.660  1.00  0.00     0.010 A 
ATOM     78  C   UNL A   1      44.434  27.524  36.863  1.00  0.00     0.020 A 
ATOM     79  C   UNL A   1      43.406  26.002  35.294  1.00  0.00     0.020 A 
ATOM     80  C   UNL A   1      44.247  26.231  36.373  1.00  0.00     0.054 A 
BRANCH  80  81
ATOM     81  S   UNL A   1      45.158  24.859  37.118  1.00  0.00     0.124 S 
ATOM     82  O   UNL A   1      44.746  23.737  36.280  1.00  0.00    -0.237 OA
ATOM     83  O   UNL A   1      46.544  25.292  36.965  1.00  0.00    -0.237 OA
ATOM     84  O   UNL A   1      44.667  24.831  38.494  1.00  0.00    -0.744 OA
ENDBRANCH  80  81
ENDBRANCH  61  75
BRANCH  62  85
ATOM     85  C   UNL A   1      41.535  25.672  27.207  1.00  0.00    -0.014 A 
ATOM     86  C   UNL A   1      42.585  24.895  26.675  1.00  0.00     0.010 A 
ATOM     87  C   UNL A   1      40.276  25.055  27.352  1.00  0.00     0.010 A 
ATOM     88  C   UNL A   1      42.408  23.528  26.393  1.00  0.00     0.020 A 
ATOM     89  C   UNL A   1      40.092  23.696  27.066  1.00  0.00     0.020 A 
ATOM     90  C   UNL A   1      41.167  22.930  26.620  1.00  0.00     0.054 A 
BRANCH  90  91
ATOM     91  S   UNL A   1      41.002  21.122  26.482  1.00  0.00     0.124 S 
ATOM     92  O   UNL A   1      39.741  20.977  25.760  1.00  0.00    -0.237 OA
ATOM     93  O   UNL A   1      42.202  20.747  25.740  1.00  0.00    -0.237 OA
ATOM     94  O   UNL A   1      40.976  20.673  27.873  1.00  0.00    -0.744 OA
ENDBRANCH  90  91
ENDBRANCH  62  85
BRANCH  74  95
ATOM     95  C   UNL A   1      44.727  30.802  28.999  1.00  0.00    -0.014 A 
ATOM     96  C   UNL A   1      45.887  30.812  28.197  1.00  0.00     0.010 A 
ATOM     97  C   UNL A   1      43.676  31.669  28.657  1.00  0.00     0.010 A 
ATOM     98  C   UNL A   1      46.008  31.706  27.120  1.00  0.00     0.020 A 
ATOM     99  C   UNL A   1      43.780  32.545  27.576  1.00  0.00     0.020 A 
ATOM    100  C   UNL A   1      44.954  32.576  26.825  1.00  0.00     0.054 A 
BRANCH 100 101
ATOM    101  S   UNL A   1      45.114  33.748  25.448  1.00  0.00     0.124 S 
ATOM    102  O   UNL A   1      46.559  33.955  25.374  1.00  0.00    -0.237 OA
ATOM    103  O   UNL A   1      44.525  33.018  24.328  1.00  0.00    -0.237 OA
ATOM    104  O   UNL A   1      44.347  34.913  25.889  1.00  0.00    -0.744 OA
ENDBRANCH 100 101
ENDBRANCH  74  95
ENDBRANCH  48  49
ENDBRANCH  40  43
ENDBRANCH  38  39
ENDBRANCH  37  38
ENDBRANCH  36  37
ENDBRANCH   1  36
TORSDOF 21
ENDMDL
