MODEL 1
REMARK VINA RESULT:     -10.0      0.000      0.000
REMARK SMILES CC(C)Cc1cc(C(=O)N[C@@H](CO)C(=O)NCCCCCCNC(=O)c2ccc(-c3c4nc(c(-c5ccc(S(=O)(=O)[O-])cc5)c5ccc([nH]5)c(-c5ccc(S(=O)(=O)[O-])cc5)c5nc(c(-c6ccc(S(=O)(=O)[O-])cc6)c6ccc3[nH]6)C=C5)C=C4)cc2)n(C)n1
REMARK SMILES IDX 19 1 18 2 17 3 16 4 14 5 15 6 11 8 10 9 8 10 9 11 7 13 5 14
REMARK SMILES IDX 6 15 88 16 86 17 87 18 4 19 2 20 1 21 3 22 12 23 13 24 20 26
REMARK SMILES IDX 21 27 22 28 23 29 24 30 25 32 26 33 27 34 85 35 28 36 84 37
REMARK SMILES IDX 29 38 30 39 31 40 78 41 32 42 83 43 77 44 79 45 33 46 82 47
REMARK SMILES IDX 76 48 75 49 34 51 64 52 45 53 63 54 46 55 49 56 62 57 80 58
REMARK SMILES IDX 47 59 48 60 61 62 81 63 50 64 35 65 36 66 44 67 37 68 43 69
REMARK SMILES IDX 38 70 39 71 40 72 41 73 42 74 65 75 66 76 74 77 67 78 73 79
REMARK SMILES IDX 68 80 69 81 70 82 71 83 72 84 51 85 52 86 60 87 53 88 59 89
REMARK SMILES IDX 54 90 55 91 56 92 57 93 58 94
REMARK H PARENT 16 7 10 12 13 25 23 31 79 50 49 61
REMARK Flexibility Score: inf
ROOT
ATOM      1  C   UNL A   1      33.332  28.417  23.092  1.00  0.00     0.002 C 
ENDROOT
BRANCH   1   2
ATOM      2  C   UNL A   1      31.835  28.522  23.393  1.00  0.00     0.021 C 
BRANCH   2   3
ATOM      3  C   UNL A   1      30.950  27.759  22.416  1.00  0.00     0.116 C 
BRANCH   3   4
ATOM      4  N   UNL A   1      29.687  27.420  23.028  1.00  0.00    -0.354 N 
ATOM      5  C   UNL A   1      29.351  26.397  23.845  1.00  0.00     0.244 C 
ATOM      6  O   UNL A   1      28.206  26.400  24.313  1.00  0.00    -0.273 OA
ATOM      7  H   UNL A   1      28.948  28.034  22.814  1.00  0.00     0.163 HD
BRANCH   5   8
ATOM      8  C   UNL A   1      30.346  25.312  24.275  1.00  0.00     0.197 C 
BRANCH   8   9
ATOM      9  N   UNL A   1      30.121  24.682  25.560  1.00  0.00    -0.337 N 
ATOM     10  C   UNL A   1      30.825  23.779  26.301  1.00  0.00     0.270 C 
ATOM     11  O   UNL A   1      30.241  23.471  27.347  1.00  0.00    -0.268 OA
ATOM     12  H   UNL A   1      29.281  24.963  25.989  1.00  0.00     0.164 HD
BRANCH  10  13
ATOM     13  C   UNL A   1      32.145  23.235  26.013  1.00  0.00     0.126 A 
ATOM     14  C   UNL A   1      34.394  23.238  25.877  1.00  0.00     0.064 A 
ATOM     15  C   UNL A   1      33.293  23.950  26.363  1.00  0.00     0.059 A 
ATOM     16  N   UNL A   1      34.003  22.118  25.283  1.00  0.00    -0.178 NA
ATOM     17  N   UNL A   1      32.665  22.083  25.455  1.00  0.00    -0.263 N 
ATOM     18  C   UNL A   1      32.084  20.809  25.113  1.00  0.00     0.174 C 
BRANCH  14  19
ATOM     19  C   UNL A   1      35.837  23.589  25.933  1.00  0.00     0.061 C 
BRANCH  19  20
ATOM     20  C   UNL A   1      36.562  23.346  24.599  1.00  0.00    -0.011 C 
ATOM     21  C   UNL A   1      37.197  21.955  24.539  1.00  0.00     0.008 C 
ATOM     22  C   UNL A   1      35.577  23.524  23.443  1.00  0.00     0.008 C 
ENDBRANCH  19  20
ENDBRANCH  14  19
ENDBRANCH  10  13
ENDBRANCH   8   9
BRANCH   8  23
ATOM     23  C   UNL A   1      30.608  24.281  23.165  1.00  0.00     0.191 C 
BRANCH  23  24
ATOM     24  O   UNL A   1      31.453  24.758  22.123  1.00  0.00    -0.394 OA
ATOM     25  H   UNL A   1      32.075  25.410  22.482  1.00  0.00     0.210 HD
ENDBRANCH  23  24
ENDBRANCH   8  23
ENDBRANCH   5   8
ENDBRANCH   3   4
ENDBRANCH   2   3
ENDBRANCH   1   2
BRANCH   1  26
ATOM     26  C   UNL A   1      34.225  28.220  24.321  1.00  0.00     0.002 C 
BRANCH  26  27
ATOM     27  C   UNL A   1      33.621  27.347  25.422  1.00  0.00     0.021 C 
BRANCH  27  28
ATOM     28  C   UNL A   1      33.896  27.838  26.835  1.00  0.00     0.116 C 
BRANCH  28  29
ATOM     29  N   UNL A   1      33.521  29.231  27.008  1.00  0.00    -0.352 N 
ATOM     30  C   UNL A   1      34.216  30.232  27.634  1.00  0.00     0.251 C 
ATOM     31  H   UNL A   1      32.652  29.490  26.624  1.00  0.00     0.163 HD
ATOM     32  O   UNL A   1      33.671  31.306  27.877  1.00  0.00    -0.269 OA
BRANCH  30  33
ATOM     33  C   UNL A   1      35.617  29.994  28.031  1.00  0.00     0.039 A 
ATOM     34  C   UNL A   1      35.891  29.601  29.342  1.00  0.00     0.014 A 
ATOM     35  C   UNL A   1      36.653  30.139  27.102  1.00  0.00     0.014 A 
ATOM     36  C   UNL A   1      37.204  29.308  29.709  1.00  0.00     0.010 A 
ATOM     37  C   UNL A   1      37.946  29.767  27.448  1.00  0.00     0.010 A 
ATOM     38  C   UNL A   1      38.237  29.358  28.757  1.00  0.00    -0.014 A 
BRANCH  38  39
ATOM     39  C   UNL A   1      39.630  28.995  29.120  1.00  0.00     0.031 A 
ATOM     40  C   UNL A   1      40.520  30.002  29.795  1.00  0.00     0.074 A 
ATOM     41  C   UNL A   1      40.105  27.777  28.794  1.00  0.00     0.049 A 
ATOM     42  N   UNL A   1      41.773  29.884  30.154  1.00  0.00    -0.248 NA
ATOM     43  C   UNL A   1      39.936  31.324  30.083  1.00  0.00     0.031 C 
ATOM     44  C   UNL A   1      39.349  26.728  28.103  1.00  0.00     0.029 A 
ATOM     45  N   UNL A   1      41.339  27.214  29.000  1.00  0.00    -0.354 N 
ATOM     46  C   UNL A   1      42.129  31.114  30.694  1.00  0.00     0.074 A 
ATOM     47  C   UNL A   1      40.980  31.982  30.567  1.00  0.00     0.031 C 
ATOM     48  C   UNL A   1      40.126  25.642  27.970  1.00  0.00     0.029 A 
ATOM     49  C   UNL A   1      41.446  25.928  28.524  1.00  0.00     0.049 A 
ATOM     50  H   UNL A   1      42.079  27.686  29.446  1.00  0.00     0.167 HD
ATOM     51  C   UNL A   1      43.301  31.481  31.264  1.00  0.00     0.031 A 
ATOM     52  C   UNL A   1      42.490  25.077  28.525  1.00  0.00     0.031 A 
ATOM     53  C   UNL A   1      44.439  30.610  31.393  1.00  0.00     0.049 A 
ATOM     54  C   UNL A   1      43.788  25.515  29.146  1.00  0.00     0.074 A 
ATOM     55  C   UNL A   1      45.654  30.868  32.005  1.00  0.00     0.029 A 
ATOM     56  N   UNL A   1      44.507  29.315  30.899  1.00  0.00    -0.354 N 
ATOM     57  N   UNL A   1      44.083  26.659  29.717  1.00  0.00    -0.248 NA
ATOM     58  C   UNL A   1      44.889  24.544  29.135  1.00  0.00     0.031 C 
ATOM     59  C   UNL A   1      46.478  29.753  31.823  1.00  0.00     0.029 A 
ATOM     60  C   UNL A   1      45.754  28.773  31.164  1.00  0.00     0.049 A 
ATOM     61  H   UNL A   1      43.776  28.851  30.430  1.00  0.00     0.167 HD
ATOM     62  C   UNL A   1      45.396  26.533  30.159  1.00  0.00     0.074 A 
ATOM     63  C   UNL A   1      45.830  25.197  29.804  1.00  0.00     0.031 C 
ATOM     64  C   UNL A   1      46.171  27.442  30.801  1.00  0.00     0.031 A 
BRANCH  51  65
ATOM     65  C   UNL A   1      43.415  32.892  31.782  1.00  0.00    -0.014 A 
ATOM     66  C   UNL A   1      43.083  33.211  33.112  1.00  0.00     0.010 A 
ATOM     67  C   UNL A   1      43.903  33.907  30.939  1.00  0.00     0.010 A 
ATOM     68  C   UNL A   1      43.197  34.523  33.576  1.00  0.00     0.020 A 
ATOM     69  C   UNL A   1      44.049  35.216  31.410  1.00  0.00     0.020 A 
ATOM     70  C   UNL A   1      43.680  35.518  32.722  1.00  0.00     0.054 A 
BRANCH  70  71
ATOM     71  S   UNL A   1      43.843  37.207  33.360  1.00  0.00     0.124 S 
ATOM     72  O   UNL A   1      45.121  37.142  34.064  1.00  0.00    -0.237 OA
ATOM     73  O   UNL A   1      43.838  38.011  32.141  1.00  0.00    -0.237 OA
ATOM     74  O   UNL A   1      42.670  37.371  34.215  1.00  0.00    -0.744 OA
ENDBRANCH  70  71
ENDBRANCH  51  65
BRANCH  52  75
ATOM     75  C   UNL A   1      42.346  23.723  27.921  1.00  0.00    -0.014 A 
ATOM     76  C   UNL A   1      42.659  23.504  26.568  1.00  0.00     0.010 A 
ATOM     77  C   UNL A   1      41.903  22.640  28.702  1.00  0.00     0.010 A 
ATOM     78  C   UNL A   1      42.513  22.233  26.003  1.00  0.00     0.020 A 
ATOM     79  C   UNL A   1      41.788  21.362  28.150  1.00  0.00     0.020 A 
ATOM     80  C   UNL A   1      42.082  21.168  26.799  1.00  0.00     0.054 A 
BRANCH  80  81
ATOM     81  S   UNL A   1      41.948  19.519  26.057  1.00  0.00     0.124 S 
ATOM     82  O   UNL A   1      42.473  18.664  27.116  1.00  0.00    -0.237 OA
ATOM     83  O   UNL A   1      40.514  19.405  25.802  1.00  0.00    -0.237 OA
ATOM     84  O   UNL A   1      42.780  19.615  24.859  1.00  0.00    -0.744 OA
ENDBRANCH  80  81
ENDBRANCH  52  75
BRANCH  64  85
ATOM     85  C   UNL A   1      47.560  27.013  31.196  1.00  0.00    -0.014 A 
ATOM     86  C   UNL A   1      47.823  26.456  32.459  1.00  0.00     0.010 A 
ATOM     87  C   UNL A   1      48.608  27.117  30.262  1.00  0.00     0.010 A 
ATOM     88  C   UNL A   1      49.116  26.042  32.795  1.00  0.00     0.020 A 
ATOM     89  C   UNL A   1      49.894  26.673  30.581  1.00  0.00     0.020 A 
ATOM     90  C   UNL A   1      50.142  26.153  31.851  1.00  0.00     0.054 A 
BRANCH  90  91
ATOM     91  S   UNL A   1      51.801  25.568  32.297  1.00  0.00     0.124 S 
ATOM     92  O   UNL A   1      51.869  25.899  33.716  1.00  0.00    -0.237 OA
ATOM     93  O   UNL A   1      51.731  24.142  31.985  1.00  0.00    -0.237 OA
ATOM     94  O   UNL A   1      52.686  26.346  31.432  1.00  0.00    -0.744 OA
ENDBRANCH  90  91
ENDBRANCH  64  85
ENDBRANCH  38  39
ENDBRANCH  30  33
ENDBRANCH  28  29
ENDBRANCH  27  28
ENDBRANCH  26  27
ENDBRANCH   1  26
TORSDOF 22
ENDMDL
MODEL 2
REMARK VINA RESULT:     -10.0      2.688      3.976
REMARK SMILES CC(C)Cc1cc(C(=O)N[C@@H](CO)C(=O)NCCCCCCNC(=O)c2ccc(-c3c4nc(c(-c5ccc(S(=O)(=O)[O-])cc5)c5ccc([nH]5)c(-c5ccc(S(=O)(=O)[O-])cc5)c5nc(c(-c6ccc(S(=O)(=O)[O-])cc6)c6ccc3[nH]6)C=C5)C=C4)cc2)n(C)n1
REMARK SMILES IDX 19 1 18 2 17 3 16 4 14 5 15 6 11 8 10 9 8 10 9 11 7 13 5 14
REMARK SMILES IDX 6 15 88 16 86 17 87 18 4 19 2 20 1 21 3 22 12 23 13 24 20 26
REMARK SMILES IDX 21 27 22 28 23 29 24 30 25 32 26 33 27 34 85 35 28 36 84 37
REMARK SMILES IDX 29 38 30 39 31 40 78 41 32 42 83 43 77 44 79 45 33 46 82 47
REMARK SMILES IDX 76 48 75 49 34 51 64 52 45 53 63 54 46 55 49 56 62 57 80 58
REMARK SMILES IDX 47 59 48 60 61 62 81 63 50 64 35 65 36 66 44 67 37 68 43 69
REMARK SMILES IDX 38 70 39 71 40 72 41 73 42 74 65 75 66 76 74 77 67 78 73 79
REMARK SMILES IDX 68 80 69 81 70 82 71 83 72 84 51 85 52 86 60 87 53 88 59 89
REMARK SMILES IDX 54 90 55 91 56 92 57 93 58 94
REMARK H PARENT 16 7 10 12 13 25 23 31 79 50 49 61
REMARK Flexibility Score: inf
ROOT
ATOM      1  C   UNL A   1      30.969  26.805  26.124  1.00  0.00     0.002 C 
ENDROOT
BRANCH   1   2
ATOM      2  C   UNL A   1      31.792  25.573  25.740  1.00  0.00     0.021 C 
BRANCH   2   3
ATOM      3  C   UNL A   1      31.096  24.249  26.025  1.00  0.00     0.116 C 
BRANCH   3   4
ATOM      4  N   UNL A   1      31.645  23.628  27.208  1.00  0.00    -0.354 N 
ATOM      5  C   UNL A   1      32.531  22.617  27.340  1.00  0.00     0.244 C 
ATOM      6  O   UNL A   1      32.912  22.345  28.486  1.00  0.00    -0.273 OA
ATOM      7  H   UNL A   1      31.319  24.002  28.058  1.00  0.00     0.163 HD
BRANCH   5   8
ATOM      8  C   UNL A   1      33.137  21.877  26.143  1.00  0.00     0.197 C 
BRANCH   8   9
ATOM      9  N   UNL A   1      34.452  22.296  25.702  1.00  0.00    -0.337 N 
ATOM     10  C   UNL A   1      34.900  23.023  24.639  1.00  0.00     0.270 C 
ATOM     11  O   UNL A   1      36.134  23.116  24.620  1.00  0.00    -0.268 OA
ATOM     12  H   UNL A   1      35.176  21.990  26.295  1.00  0.00     0.164 HD
BRANCH  10  13
ATOM     13  C   UNL A   1      34.099  23.704  23.631  1.00  0.00     0.126 A 
ATOM     14  C   UNL A   1      33.351  25.456  22.427  1.00  0.00     0.064 A 
ATOM     15  C   UNL A   1      34.324  25.054  23.349  1.00  0.00     0.059 A 
ATOM     16  N   UNL A   1      32.567  24.437  22.099  1.00  0.00    -0.178 NA
ATOM     17  N   UNL A   1      33.084  23.377  22.753  1.00  0.00    -0.263 N 
ATOM     18  C   UNL A   1      32.533  22.118  22.317  1.00  0.00     0.174 C 
BRANCH  14  19
ATOM     19  C   UNL A   1      33.112  26.801  21.843  1.00  0.00     0.061 C 
BRANCH  19  20
ATOM     20  C   UNL A   1      32.283  27.712  22.764  1.00  0.00    -0.011 C 
ATOM     21  C   UNL A   1      32.770  29.162  22.722  1.00  0.00     0.008 C 
ATOM     22  C   UNL A   1      30.810  27.640  22.363  1.00  0.00     0.008 C 
ENDBRANCH  19  20
ENDBRANCH  14  19
ENDBRANCH  10  13
ENDBRANCH   8   9
BRANCH   8  23
ATOM     23  C   UNL A   1      33.038  20.349  26.284  1.00  0.00     0.191 C 
BRANCH  23  24
ATOM     24  O   UNL A   1      32.027  19.758  25.473  1.00  0.00    -0.394 OA
ATOM     25  H   UNL A   1      31.314  20.401  25.325  1.00  0.00     0.210 HD
ENDBRANCH  23  24
ENDBRANCH   8  23
ENDBRANCH   5   8
ENDBRANCH   3   4
ENDBRANCH   2   3
ENDBRANCH   1   2
BRANCH   1  26
ATOM     26  C   UNL A   1      31.775  27.956  26.735  1.00  0.00     0.002 C 
BRANCH  26  27
ATOM     27  C   UNL A   1      33.290  27.744  26.746  1.00  0.00     0.021 C 
BRANCH  27  28
ATOM     28  C   UNL A   1      34.079  28.810  26.001  1.00  0.00     0.116 C 
BRANCH  28  29
ATOM     29  N   UNL A   1      33.746  30.149  26.455  1.00  0.00    -0.352 N 
ATOM     30  C   UNL A   1      34.314  30.873  27.469  1.00  0.00     0.251 C 
ATOM     31  H   UNL A   1      33.015  30.594  25.969  1.00  0.00     0.163 HD
ATOM     32  O   UNL A   1      33.783  31.908  27.864  1.00  0.00    -0.269 OA
BRANCH  30  33
ATOM     33  C   UNL A   1      35.558  30.383  28.094  1.00  0.00     0.039 A 
ATOM     34  C   UNL A   1      36.782  30.714  27.512  1.00  0.00     0.014 A 
ATOM     35  C   UNL A   1      35.511  29.618  29.264  1.00  0.00     0.014 A 
ATOM     36  C   UNL A   1      37.966  30.314  28.132  1.00  0.00     0.010 A 
ATOM     37  C   UNL A   1      36.691  29.292  29.923  1.00  0.00     0.010 A 
ATOM     38  C   UNL A   1      37.930  29.627  29.358  1.00  0.00    -0.014 A 
BRANCH  38  39
ATOM     39  C   UNL A   1      39.182  29.245  30.057  1.00  0.00     0.031 A 
ATOM     40  C   UNL A   1      39.604  29.974  31.303  1.00  0.00     0.074 A 
ATOM     41  C   UNL A   1      39.964  28.277  29.539  1.00  0.00     0.049 A 
ATOM     42  N   UNL A   1      40.679  29.810  32.030  1.00  0.00    -0.248 NA
ATOM     43  C   UNL A   1      38.713  31.045  31.784  1.00  0.00     0.031 C 
ATOM     44  C   UNL A   1      39.681  27.524  28.313  1.00  0.00     0.029 A 
ATOM     45  N   UNL A   1      41.156  27.759  29.977  1.00  0.00    -0.354 N 
ATOM     46  C   UNL A   1      40.602  30.762  33.040  1.00  0.00     0.074 A 
ATOM     47  C   UNL A   1      39.405  31.536  32.802  1.00  0.00     0.031 C 
ATOM     48  C   UNL A   1      40.656  26.623  28.116  1.00  0.00     0.029 A 
ATOM     49  C   UNL A   1      41.654  26.761  29.172  1.00  0.00     0.049 A 
ATOM     50  H   UNL A   1      41.613  28.072  30.791  1.00  0.00     0.167 HD
ATOM     51  C   UNL A   1      41.442  30.959  34.083  1.00  0.00     0.031 A 
ATOM     52  C   UNL A   1      42.791  26.044  29.267  1.00  0.00     0.031 A 
ATOM     53  C   UNL A   1      42.629  30.180  34.317  1.00  0.00     0.049 A 
ATOM     54  C   UNL A   1      43.718  26.296  30.424  1.00  0.00     0.074 A 
ATOM     55  C   UNL A   1      43.517  30.265  35.375  1.00  0.00     0.029 A 
ATOM     56  N   UNL A   1      43.098  29.179  33.479  1.00  0.00    -0.354 N 
ATOM     57  N   UNL A   1      43.592  27.152  31.409  1.00  0.00    -0.248 NA
ATOM     58  C   UNL A   1      44.934  25.476  30.490  1.00  0.00     0.031 C 
ATOM     59  C   UNL A   1      44.558  29.359  35.144  1.00  0.00     0.029 A 
ATOM     60  C   UNL A   1      44.281  28.660  33.980  1.00  0.00     0.049 A 
ATOM     61  H   UNL A   1      42.657  28.883  32.651  1.00  0.00     0.167 HD
ATOM     62  C   UNL A   1      44.698  26.954  32.229  1.00  0.00     0.074 A 
ATOM     63  C   UNL A   1      45.473  25.885  31.631  1.00  0.00     0.031 C 
ATOM     64  C   UNL A   1      45.042  27.598  33.371  1.00  0.00     0.031 A 
BRANCH  51  65
ATOM     65  C   UNL A   1      41.112  32.070  35.046  1.00  0.00    -0.014 A 
ATOM     66  C   UNL A   1      40.456  31.810  36.265  1.00  0.00     0.010 A 
ATOM     67  C   UNL A   1      41.500  33.390  34.749  1.00  0.00     0.010 A 
ATOM     68  C   UNL A   1      40.160  32.852  37.147  1.00  0.00     0.020 A 
ATOM     69  C   UNL A   1      41.234  34.430  35.645  1.00  0.00     0.020 A 
ATOM     70  C   UNL A   1      40.551  34.156  36.832  1.00  0.00     0.054 A 
BRANCH  70  71
ATOM     71  S   UNL A   1      40.177  35.483  38.008  1.00  0.00     0.124 S 
ATOM     72  O   UNL A   1      38.839  35.114  38.464  1.00  0.00    -0.237 OA
ATOM     73  O   UNL A   1      41.239  35.339  39.001  1.00  0.00    -0.237 OA
ATOM     74  O   UNL A   1      40.245  36.697  37.198  1.00  0.00    -0.744 OA
ENDBRANCH  70  71
ENDBRANCH  51  65
BRANCH  52  75
ATOM     75  C   UNL A   1      43.109  25.016  28.237  1.00  0.00    -0.014 A 
ATOM     76  C   UNL A   1      43.953  25.322  27.155  1.00  0.00     0.010 A 
ATOM     77  C   UNL A   1      42.576  23.719  28.340  1.00  0.00     0.010 A 
ATOM     78  C   UNL A   1      44.242  24.356  26.186  1.00  0.00     0.020 A 
ATOM     79  C   UNL A   1      42.888  22.741  27.391  1.00  0.00     0.020 A 
ATOM     80  C   UNL A   1      43.710  23.070  26.312  1.00  0.00     0.054 A 
BRANCH  80  81
ATOM     81  S   UNL A   1      44.138  21.820  25.069  1.00  0.00     0.124 S 
ATOM     82  O   UNL A   1      43.207  20.743  25.387  1.00  0.00    -0.237 OA
ATOM     83  O   UNL A   1      43.888  22.526  23.815  1.00  0.00    -0.237 OA
ATOM     84  O   UNL A   1      45.545  21.533  25.344  1.00  0.00    -0.744 OA
ENDBRANCH  80  81
ENDBRANCH  52  75
BRANCH  64  85
ATOM     85  C   UNL A   1      46.294  27.141  34.075  1.00  0.00    -0.014 A 
ATOM     86  C   UNL A   1      47.538  27.740  33.817  1.00  0.00     0.010 A 
ATOM     87  C   UNL A   1      46.207  26.134  35.054  1.00  0.00     0.010 A 
ATOM     88  C   UNL A   1      48.682  27.316  34.501  1.00  0.00     0.020 A 
ATOM     89  C   UNL A   1      47.341  25.731  35.763  1.00  0.00     0.020 A 
ATOM     90  C   UNL A   1      48.574  26.315  35.470  1.00  0.00     0.054 A 
BRANCH  90  91
ATOM     91  S   UNL A   1      50.066  25.814  36.374  1.00  0.00     0.124 S 
ATOM     92  O   UNL A   1      49.668  24.523  36.926  1.00  0.00    -0.237 OA
ATOM     93  O   UNL A   1      51.076  25.763  35.320  1.00  0.00    -0.237 OA
ATOM     94  O   UNL A   1      50.251  26.881  37.355  1.00  0.00    -0.744 OA
ENDBRANCH  90  91
ENDBRANCH  64  85
ENDBRANCH  38  39
ENDBRANCH  30  33
ENDBRANCH  28  29
ENDBRANCH  27  28
ENDBRANCH  26  27
ENDBRANCH   1  26
TORSDOF 22
ENDMDL
MODEL 3
REMARK VINA RESULT:      -9.9      4.208     10.116
REMARK SMILES CC(C)Cc1cc(C(=O)N[C@@H](CO)C(=O)NCCCCCCNC(=O)c2ccc(-c3c4nc(c(-c5ccc(S(=O)(=O)[O-])cc5)c5ccc([nH]5)c(-c5ccc(S(=O)(=O)[O-])cc5)c5nc(c(-c6ccc(S(=O)(=O)[O-])cc6)c6ccc3[nH]6)C=C5)C=C4)cc2)n(C)n1
REMARK SMILES IDX 19 1 18 2 17 3 16 4 14 5 15 6 11 8 10 9 8 10 9 11 7 13 5 14
REMARK SMILES IDX 6 15 88 16 86 17 87 18 4 19 2 20 1 21 3 22 12 23 13 24 20 26
REMARK SMILES IDX 21 27 22 28 23 29 24 30 25 32 26 33 27 34 85 35 28 36 84 37
REMARK SMILES IDX 29 38 30 39 31 40 78 41 32 42 83 43 77 44 79 45 33 46 82 47
REMARK SMILES IDX 76 48 75 49 34 51 64 52 45 53 63 54 46 55 49 56 62 57 80 58
REMARK SMILES IDX 47 59 48 60 61 62 81 63 50 64 35 65 36 66 44 67 37 68 43 69
REMARK SMILES IDX 38 70 39 71 40 72 41 73 42 74 65 75 66 76 74 77 67 78 73 79
REMARK SMILES IDX 68 80 69 81 70 82 71 83 72 84 51 85 52 86 60 87 53 88 59 89
REMARK SMILES IDX 54 90 55 91 56 92 57 93 58 94
REMARK H PARENT 16 7 10 12 13 25 23 31 79 50 49 61
REMARK Flexibility Score: inf
ROOT
ATOM      1  C   UNL A   1      39.324  22.032  26.478  1.00  0.00     0.002 C 
ENDROOT
BRANCH   1   2
ATOM      2  C   UNL A   1      38.865  23.492  26.513  1.00  0.00     0.021 C 
BRANCH   2   3
ATOM      3  C   UNL A   1      37.432  23.703  26.044  1.00  0.00     0.116 C 
BRANCH   3   4
ATOM      4  N   UNL A   1      37.328  23.513  24.616  1.00  0.00    -0.354 N 
ATOM      5  C   UNL A   1      36.390  22.877  23.880  1.00  0.00     0.244 C 
ATOM      6  O   UNL A   1      36.493  22.952  22.648  1.00  0.00    -0.273 OA
ATOM      7  H   UNL A   1      38.061  23.910  24.093  1.00  0.00     0.163 HD
BRANCH   5   8
ATOM      8  C   UNL A   1      35.183  22.166  24.500  1.00  0.00     0.197 C 
BRANCH   8   9
ATOM      9  N   UNL A   1      33.959  22.142  23.725  1.00  0.00    -0.337 N 
ATOM     10  C   UNL A   1      32.732  22.714  23.886  1.00  0.00     0.270 C 
ATOM     11  O   UNL A   1      31.943  22.394  22.988  1.00  0.00    -0.268 OA
ATOM     12  H   UNL A   1      34.027  21.595  22.909  1.00  0.00     0.164 HD
BRANCH  10  13
ATOM     13  C   UNL A   1      32.322  23.653  24.920  1.00  0.00     0.126 A 
ATOM     14  C   UNL A   1      31.613  25.623  25.756  1.00  0.00     0.064 A 
ATOM     15  C   UNL A   1      31.824  24.911  24.570  1.00  0.00     0.059 A 
ATOM     16  N   UNL A   1      31.914  24.875  26.811  1.00  0.00    -0.178 NA
ATOM     17  N   UNL A   1      32.245  23.672  26.299  1.00  0.00    -0.263 N 
ATOM     18  C   UNL A   1      32.347  22.640  27.301  1.00  0.00     0.174 C 
BRANCH  14  19
ATOM     19  C   UNL A   1      31.146  27.021  25.940  1.00  0.00     0.061 C 
BRANCH  19  20
ATOM     20  C   UNL A   1      32.203  28.061  25.533  1.00  0.00    -0.011 C 
ATOM     21  C   UNL A   1      31.816  29.473  25.978  1.00  0.00     0.008 C 
ATOM     22  C   UNL A   1      33.556  27.675  26.131  1.00  0.00     0.008 C 
ENDBRANCH  19  20
ENDBRANCH  14  19
ENDBRANCH  10  13
ENDBRANCH   8   9
BRANCH   8  23
ATOM     23  C   UNL A   1      35.539  20.778  25.057  1.00  0.00     0.191 C 
BRANCH  23  24
ATOM     24  O   UNL A   1      34.409  20.005  25.448  1.00  0.00    -0.394 OA
ATOM     25  H   UNL A   1      34.464  19.808  26.396  1.00  0.00     0.210 HD
ENDBRANCH  23  24
ENDBRANCH   8  23
ENDBRANCH   5   8
ENDBRANCH   3   4
ENDBRANCH   2   3
ENDBRANCH   1   2
BRANCH   1  26
ATOM     26  C   UNL A   1      40.840  21.833  26.379  1.00  0.00     0.002 C 
BRANCH  26  27
ATOM     27  C   UNL A   1      41.624  22.241  27.627  1.00  0.00     0.021 C 
BRANCH  27  28
ATOM     28  C   UNL A   1      42.788  23.184  27.356  1.00  0.00     0.116 C 
BRANCH  28  29
ATOM     29  N   UNL A   1      42.582  23.968  26.151  1.00  0.00    -0.352 N 
ATOM     30  C   UNL A   1      42.100  25.245  26.034  1.00  0.00     0.251 C 
ATOM     31  H   UNL A   1      42.821  23.523  25.307  1.00  0.00     0.163 HD
ATOM     32  O   UNL A   1      41.791  25.692  24.933  1.00  0.00    -0.269 OA
BRANCH  30  33
ATOM     33  C   UNL A   1      41.937  26.066  27.250  1.00  0.00     0.039 A 
ATOM     34  C   UNL A   1      42.855  27.086  27.504  1.00  0.00     0.014 A 
ATOM     35  C   UNL A   1      40.866  25.841  28.121  1.00  0.00     0.014 A 
ATOM     36  C   UNL A   1      42.671  27.912  28.613  1.00  0.00     0.010 A 
ATOM     37  C   UNL A   1      40.640  26.716  29.177  1.00  0.00     0.010 A 
ATOM     38  C   UNL A   1      41.546  27.754  29.440  1.00  0.00    -0.014 A 
BRANCH  38  39
ATOM     39  C   UNL A   1      41.308  28.661  30.590  1.00  0.00     0.031 A 
ATOM     40  C   UNL A   1      42.141  28.532  31.836  1.00  0.00     0.074 A 
ATOM     41  C   UNL A   1      40.309  29.563  30.530  1.00  0.00     0.049 A 
ATOM     42  N   UNL A   1      42.058  29.206  32.955  1.00  0.00    -0.248 NA
ATOM     43  C   UNL A   1      43.188  27.497  31.836  1.00  0.00     0.031 C 
ATOM     44  C   UNL A   1      39.407  29.755  29.390  1.00  0.00     0.029 A 
ATOM     45  N   UNL A   1      39.882  30.488  31.448  1.00  0.00    -0.354 N 
ATOM     46  C   UNL A   1      43.028  28.668  33.793  1.00  0.00     0.074 A 
ATOM     47  C   UNL A   1      43.649  27.577  33.076  1.00  0.00     0.031 C 
ATOM     48  C   UNL A   1      38.556  30.755  29.667  1.00  0.00     0.029 A 
ATOM     49  C   UNL A   1      38.819  31.246  31.016  1.00  0.00     0.049 A 
ATOM     50  H   UNL A   1      40.297  30.599  32.334  1.00  0.00     0.167 HD
ATOM     51  C   UNL A   1      43.383  29.060  35.039  1.00  0.00     0.031 A 
ATOM     52  C   UNL A   1      38.127  32.221  31.638  1.00  0.00     0.031 A 
ATOM     53  C   UNL A   1      42.763  30.151  35.744  1.00  0.00     0.049 A 
ATOM     54  C   UNL A   1      38.528  32.626  33.030  1.00  0.00     0.074 A 
ATOM     55  C   UNL A   1      43.087  30.663  36.989  1.00  0.00     0.029 A 
ATOM     56  N   UNL A   1      41.691  30.894  35.272  1.00  0.00    -0.354 N 
ATOM     57  N   UNL A   1      39.495  32.153  33.779  1.00  0.00    -0.248 NA
ATOM     58  C   UNL A   1      37.752  33.705  33.656  1.00  0.00     0.031 C 
ATOM     59  C   UNL A   1      42.169  31.673  37.296  1.00  0.00     0.029 A 
ATOM     60  C   UNL A   1      41.319  31.839  36.214  1.00  0.00     0.049 A 
ATOM     61  H   UNL A   1      41.258  30.767  34.397  1.00  0.00     0.167 HD
ATOM     62  C   UNL A   1      39.462  32.896  34.954  1.00  0.00     0.074 A 
ATOM     63  C   UNL A   1      38.391  33.861  34.808  1.00  0.00     0.031 C 
ATOM     64  C   UNL A   1      40.248  32.790  36.054  1.00  0.00     0.031 A 
BRANCH  51  65
ATOM     65  C   UNL A   1      44.485  28.297  35.725  1.00  0.00    -0.014 A 
ATOM     66  C   UNL A   1      44.206  27.177  36.532  1.00  0.00     0.010 A 
ATOM     67  C   UNL A   1      45.825  28.677  35.527  1.00  0.00     0.010 A 
ATOM     68  C   UNL A   1      45.241  26.480  37.160  1.00  0.00     0.020 A 
ATOM     69  C   UNL A   1      46.866  27.961  36.128  1.00  0.00     0.020 A 
ATOM     70  C   UNL A   1      46.565  26.876  36.953  1.00  0.00     0.054 A 
BRANCH  70  71
ATOM     71  S   UNL A   1      47.889  25.935  37.759  1.00  0.00     0.124 S 
ATOM     72  O   UNL A   1      47.638  24.581  37.270  1.00  0.00    -0.237 OA
ATOM     73  O   UNL A   1      49.096  26.574  37.242  1.00  0.00    -0.237 OA
ATOM     74  O   UNL A   1      47.641  26.137  39.185  1.00  0.00    -0.744 OA
ENDBRANCH  70  71
ENDBRANCH  51  65
BRANCH  52  75
ATOM     75  C   UNL A   1      36.989  32.884  30.942  1.00  0.00    -0.014 A 
ATOM     76  C   UNL A   1      37.218  33.925  30.025  1.00  0.00     0.010 A 
ATOM     77  C   UNL A   1      35.668  32.468  31.185  1.00  0.00     0.010 A 
ATOM     78  C   UNL A   1      36.146  34.550  29.380  1.00  0.00     0.020 A 
ATOM     79  C   UNL A   1      34.596  33.068  30.519  1.00  0.00     0.020 A 
ATOM     80  C   UNL A   1      34.841  34.115  29.629  1.00  0.00     0.054 A 
BRANCH  80  81
ATOM     81  S   UNL A   1      33.471  34.908  28.744  1.00  0.00     0.124 S 
ATOM     82  O   UNL A   1      33.991  36.252  28.518  1.00  0.00    -0.237 OA
ATOM     83  O   UNL A   1      33.340  34.071  27.553  1.00  0.00    -0.237 OA
ATOM     84  O   UNL A   1      32.358  34.817  29.686  1.00  0.00    -0.744 OA
ENDBRANCH  80  81
ENDBRANCH  52  75
BRANCH  64  85
ATOM     85  C   UNL A   1      40.005  33.766  37.177  1.00  0.00    -0.014 A 
ATOM     86  C   UNL A   1      40.630  35.024  37.201  1.00  0.00     0.010 A 
ATOM     87  C   UNL A   1      39.089  33.435  38.193  1.00  0.00     0.010 A 
ATOM     88  C   UNL A   1      40.370  35.922  38.241  1.00  0.00     0.020 A 
ATOM     89  C   UNL A   1      38.801  34.342  39.215  1.00  0.00     0.020 A 
ATOM     90  C   UNL A   1      39.456  35.575  39.240  1.00  0.00     0.054 A 
BRANCH  90  91
ATOM     91  S   UNL A   1      39.104  36.775  40.554  1.00  0.00     0.124 S 
ATOM     92  O   UNL A   1      38.231  36.011  41.439  1.00  0.00    -0.237 OA
ATOM     93  O   UNL A   1      40.433  37.070  41.082  1.00  0.00    -0.237 OA
ATOM     94  O   UNL A   1      38.461  37.882  39.848  1.00  0.00    -0.744 OA
ENDBRANCH  90  91
ENDBRANCH  64  85
ENDBRANCH  38  39
ENDBRANCH  30  33
ENDBRANCH  28  29
ENDBRANCH  27  28
ENDBRANCH  26  27
ENDBRANCH   1  26
TORSDOF 22
ENDMDL
