MODEL 1
REMARK VINA RESULT:     -13.3      0.000      0.000
REMARK SMILES Cc1cccc(-c2cccc(O)c2)c1C(=O)NCCCCCCNC(=O)c1ccc(-c2c3nc(c(-c4ccc(S(=O)(=O)[O-])cc4)c4ccc([nH]4)c(-c4ccc(S(=O)(=O)[O-])cc4)c4nc(c(-c5ccc(S(=O)(=O)[O-])cc5)c5ccc2[nH]5)C=C4)C=C3)cc1
REMARK SMILES IDX 21 1 20 2 19 3 18 4 17 5 15 6 16 7 14 9 1 10 2 11 3 12 4 13
REMARK SMILES IDX 6 14 5 15 7 16 8 17 13 18 9 19 11 20 10 21 12 22 22 24 23 25
REMARK SMILES IDX 24 26 25 27 26 29 27 30 28 31 86 32 29 33 85 34 30 35 31 36
REMARK SMILES IDX 32 37 79 38 33 39 84 40 78 41 80 42 34 43 83 44 77 45 76 46
REMARK SMILES IDX 35 48 65 49 46 50 64 51 47 52 50 53 63 54 81 55 48 56 49 57
REMARK SMILES IDX 62 59 82 60 51 61 36 62 37 63 45 64 38 65 44 66 39 67 40 68
REMARK SMILES IDX 41 69 42 70 43 71 66 72 67 73 75 74 68 75 74 76 69 77 70 78
REMARK SMILES IDX 71 79 72 80 73 81 52 82 53 83 61 84 54 85 60 86 55 87 56 88
REMARK SMILES IDX 57 89 58 90 59 91
REMARK H PARENT 17 8 12 23 24 28 80 47 50 58
REMARK Flexibility Score: inf
ROOT
ATOM      1  C   UNL A   1      32.528  28.880  25.946  1.00  0.00     0.002 C 
ENDROOT
BRANCH   1   2
ATOM      2  C   UNL A   1      33.636  28.415  24.990  1.00  0.00     0.002 C 
BRANCH   2   3
ATOM      3  C   UNL A   1      33.578  28.953  23.551  1.00  0.00     0.021 C 
BRANCH   3   4
ATOM      4  C   UNL A   1      33.952  27.947  22.446  1.00  0.00     0.116 C 
BRANCH   4   5
ATOM      5  N   UNL A   1      32.751  27.489  21.777  1.00  0.00    -0.352 N 
ATOM      6  C   UNL A   1      31.765  26.564  22.018  1.00  0.00     0.252 C 
ATOM      7  O   UNL A   1      31.094  26.306  21.018  1.00  0.00    -0.269 OA
ATOM      8  H   UNL A   1      32.603  27.965  20.928  1.00  0.00     0.163 HD
BRANCH   6   9
ATOM      9  C   UNL A   1      31.425  25.929  23.351  1.00  0.00     0.050 A 
ATOM     10  C   UNL A   1      32.756  23.738  22.962  1.00  0.00     0.045 C 
ATOM     11  C   UNL A   1      31.967  24.697  23.805  1.00  0.00    -0.038 A 
ATOM     12  C   UNL A   1      31.679  24.225  25.106  1.00  0.00     0.004 A 
ATOM     13  C   UNL A   1      30.774  24.874  25.925  1.00  0.00     0.001 A 
ATOM     14  C   UNL A   1      30.418  26.549  24.170  1.00  0.00    -0.005 A 
ATOM     15  C   UNL A   1      30.127  26.000  25.446  1.00  0.00     0.009 A 
BRANCH  14  16
ATOM     16  C   UNL A   1      29.553  27.691  23.778  1.00  0.00    -0.014 A 
ATOM     17  C   UNL A   1      30.111  28.943  23.459  1.00  0.00     0.009 A 
ATOM     18  C   UNL A   1      28.172  27.527  23.576  1.00  0.00     0.055 A 
ATOM     19  C   UNL A   1      29.316  30.016  23.047  1.00  0.00     0.004 A 
ATOM     20  C   UNL A   1      27.391  28.588  23.121  1.00  0.00     0.116 A 
ATOM     21  C   UNL A   1      27.948  29.839  22.874  1.00  0.00     0.046 A 
BRANCH  20  22
ATOM     22  O   UNL A   1      26.061  28.360  22.912  1.00  0.00    -0.508 OA
ATOM     23  H   UNL A   1      25.725  28.306  22.039  1.00  0.00     0.293 HD
ENDBRANCH  20  22
ENDBRANCH  14  16
ENDBRANCH   6   9
ENDBRANCH   4   5
ENDBRANCH   3   4
ENDBRANCH   2   3
ENDBRANCH   1   2
BRANCH   1  24
ATOM     24  C   UNL A   1      32.991  29.613  27.208  1.00  0.00     0.021 C 
BRANCH  24  25
ATOM     25  C   UNL A   1      34.466  29.420  27.533  1.00  0.00     0.116 C 
BRANCH  25  26
ATOM     26  N   UNL A   1      35.258  30.635  27.408  1.00  0.00    -0.352 N 
ATOM     27  C   UNL A   1      36.307  30.896  28.276  1.00  0.00     0.251 C 
ATOM     28  H   UNL A   1      35.046  31.281  26.696  1.00  0.00     0.163 HD
ATOM     29  O   UNL A   1      36.426  31.916  28.945  1.00  0.00    -0.269 OA
BRANCH  27  30
ATOM     30  C   UNL A   1      37.316  29.821  28.352  1.00  0.00     0.039 A 
ATOM     31  C   UNL A   1      37.495  29.137  29.557  1.00  0.00     0.014 A 
ATOM     32  C   UNL A   1      38.225  29.695  27.303  1.00  0.00     0.014 A 
ATOM     33  C   UNL A   1      38.668  28.412  29.758  1.00  0.00     0.010 A 
ATOM     34  C   UNL A   1      39.421  29.042  27.535  1.00  0.00     0.010 A 
ATOM     35  C   UNL A   1      39.660  28.431  28.773  1.00  0.00    -0.014 A 
BRANCH  35  36
ATOM     36  C   UNL A   1      41.001  27.884  28.963  1.00  0.00     0.031 A 
ATOM     37  C   UNL A   1      41.318  26.513  28.498  1.00  0.00     0.074 A 
ATOM     38  C   UNL A   1      41.982  28.640  29.505  1.00  0.00     0.049 A 
ATOM     39  N   UNL A   1      42.308  25.804  28.931  1.00  0.00    -0.248 NA
ATOM     40  C   UNL A   1      40.488  25.808  27.526  1.00  0.00     0.031 C 
ATOM     41  C   UNL A   1      43.415  28.352  29.501  1.00  0.00     0.029 A 
ATOM     42  N   UNL A   1      41.859  29.713  30.388  1.00  0.00    -0.354 N 
ATOM     43  C   UNL A   1      42.420  24.703  28.112  1.00  0.00     0.074 A 
ATOM     44  C   UNL A   1      41.224  24.714  27.301  1.00  0.00     0.031 C 
ATOM     45  C   UNL A   1      43.977  28.982  30.544  1.00  0.00     0.029 A 
ATOM     46  C   UNL A   1      42.898  29.563  31.324  1.00  0.00     0.049 A 
ATOM     47  H   UNL A   1      41.184  30.430  30.361  1.00  0.00     0.167 HD
ATOM     48  C   UNL A   1      43.565  23.964  28.114  1.00  0.00     0.031 A 
ATOM     49  C   UNL A   1      42.687  29.367  32.660  1.00  0.00     0.031 A 
ATOM     50  C   UNL A   1      44.516  24.408  29.132  1.00  0.00     0.049 A 
ATOM     51  C   UNL A   1      43.300  28.081  33.195  1.00  0.00     0.074 A 
ATOM     52  C   UNL A   1      45.704  25.121  29.113  1.00  0.00     0.029 A 
ATOM     53  N   UNL A   1      44.143  24.324  30.462  1.00  0.00    -0.354 N 
ATOM     54  N   UNL A   1      43.943  27.208  32.468  1.00  0.00    -0.248 NA
ATOM     55  C   UNL A   1      43.135  27.630  34.579  1.00  0.00     0.031 C 
ATOM     56  C   UNL A   1      46.037  25.467  30.455  1.00  0.00     0.029 A 
ATOM     57  C   UNL A   1      45.055  24.957  31.284  1.00  0.00     0.049 A 
ATOM     58  H   UNL A   1      43.331  23.871  30.783  1.00  0.00     0.167 HD
ATOM     59  C   UNL A   1      44.222  26.102  33.223  1.00  0.00     0.074 A 
ATOM     60  C   UNL A   1      43.712  26.416  34.544  1.00  0.00     0.031 C 
ATOM     61  C   UNL A   1      44.802  24.980  32.711  1.00  0.00     0.031 A 
BRANCH  48  62
ATOM     62  C   UNL A   1      43.910  22.968  27.029  1.00  0.00    -0.014 A 
ATOM     63  C   UNL A   1      43.039  21.889  26.767  1.00  0.00     0.010 A 
ATOM     64  C   UNL A   1      45.092  23.009  26.267  1.00  0.00     0.010 A 
ATOM     65  C   UNL A   1      43.382  20.853  25.886  1.00  0.00     0.020 A 
ATOM     66  C   UNL A   1      45.469  21.960  25.413  1.00  0.00     0.020 A 
ATOM     67  C   UNL A   1      44.615  20.877  25.240  1.00  0.00     0.054 A 
BRANCH  67  68
ATOM     68  S   UNL A   1      45.093  19.475  24.196  1.00  0.00     0.124 S 
ATOM     69  O   UNL A   1      44.506  19.827  22.905  1.00  0.00    -0.237 OA
ATOM     70  O   UNL A   1      46.551  19.519  24.260  1.00  0.00    -0.237 OA
ATOM     71  O   UNL A   1      44.477  18.327  24.858  1.00  0.00    -0.744 OA
ENDBRANCH  67  68
ENDBRANCH  48  62
BRANCH  49  72
ATOM     72  C   UNL A   1      41.429  29.983  33.171  1.00  0.00    -0.014 A 
ATOM     73  C   UNL A   1      41.376  31.392  33.252  1.00  0.00     0.010 A 
ATOM     74  C   UNL A   1      40.226  29.258  33.162  1.00  0.00     0.010 A 
ATOM     75  C   UNL A   1      40.157  32.065  33.135  1.00  0.00     0.020 A 
ATOM     76  C   UNL A   1      39.001  29.932  33.062  1.00  0.00     0.020 A 
ATOM     77  C   UNL A   1      38.986  31.328  32.970  1.00  0.00     0.054 A 
BRANCH  77  78
ATOM     78  S   UNL A   1      37.476  32.206  32.458  1.00  0.00     0.124 S 
ATOM     79  O   UNL A   1      37.044  32.838  33.700  1.00  0.00    -0.237 OA
ATOM     80  O   UNL A   1      37.977  33.114  31.424  1.00  0.00    -0.237 OA
ATOM     81  O   UNL A   1      36.618  31.135  31.963  1.00  0.00    -0.744 OA
ENDBRANCH  77  78
ENDBRANCH  49  72
BRANCH  61  82
ATOM     82  C   UNL A   1      45.140  23.775  33.539  1.00  0.00    -0.014 A 
ATOM     83  C   UNL A   1      44.181  22.799  33.860  1.00  0.00     0.010 A 
ATOM     84  C   UNL A   1      46.417  23.659  34.129  1.00  0.00     0.010 A 
ATOM     85  C   UNL A   1      44.503  21.722  34.695  1.00  0.00     0.020 A 
ATOM     86  C   UNL A   1      46.741  22.596  34.977  1.00  0.00     0.020 A 
ATOM     87  C   UNL A   1      45.786  21.621  35.240  1.00  0.00     0.054 A 
BRANCH  87  88
ATOM     88  S   UNL A   1      46.175  20.239  36.345  1.00  0.00     0.124 S 
ATOM     89  O   UNL A   1      47.621  20.102  36.196  1.00  0.00    -0.237 OA
ATOM     90  O   UNL A   1      45.723  20.750  37.636  1.00  0.00    -0.237 OA
ATOM     91  O   UNL A   1      45.392  19.131  35.803  1.00  0.00    -0.744 OA
ENDBRANCH  87  88
ENDBRANCH  61  82
ENDBRANCH  35  36
ENDBRANCH  27  30
ENDBRANCH  25  26
ENDBRANCH  24  25
ENDBRANCH   1  24
TORSDOF 18
ENDMDL
MODEL 2
REMARK VINA RESULT:     -13.1      1.954      3.501
REMARK SMILES Cc1cccc(-c2cccc(O)c2)c1C(=O)NCCCCCCNC(=O)c1ccc(-c2c3nc(c(-c4ccc(S(=O)(=O)[O-])cc4)c4ccc([nH]4)c(-c4ccc(S(=O)(=O)[O-])cc4)c4nc(c(-c5ccc(S(=O)(=O)[O-])cc5)c5ccc2[nH]5)C=C4)C=C3)cc1
REMARK SMILES IDX 21 1 20 2 19 3 18 4 17 5 15 6 16 7 14 9 1 10 2 11 3 12 4 13
REMARK SMILES IDX 6 14 5 15 7 16 8 17 13 18 9 19 11 20 10 21 12 22 22 24 23 25
REMARK SMILES IDX 24 26 25 27 26 29 27 30 28 31 86 32 29 33 85 34 30 35 31 36
REMARK SMILES IDX 32 37 79 38 33 39 84 40 78 41 80 42 34 43 83 44 77 45 76 46
REMARK SMILES IDX 35 48 65 49 46 50 64 51 47 52 50 53 63 54 81 55 48 56 49 57
REMARK SMILES IDX 62 59 82 60 51 61 36 62 37 63 45 64 38 65 44 66 39 67 40 68
REMARK SMILES IDX 41 69 42 70 43 71 66 72 67 73 75 74 68 75 74 76 69 77 70 78
REMARK SMILES IDX 71 79 72 80 73 81 52 82 53 83 61 84 54 85 60 86 55 87 56 88
REMARK SMILES IDX 57 89 58 90 59 91
REMARK H PARENT 17 8 12 23 24 28 80 47 50 58
REMARK Flexibility Score: inf
ROOT
ATOM      1  C   UNL A   1      33.394  27.420  26.202  1.00  0.00     0.002 C 
ENDROOT
BRANCH   1   2
ATOM      2  C   UNL A   1      32.798  26.931  24.874  1.00  0.00     0.002 C 
BRANCH   2   3
ATOM      3  C   UNL A   1      33.795  26.508  23.783  1.00  0.00     0.021 C 
BRANCH   3   4
ATOM      4  C   UNL A   1      33.186  26.227  22.395  1.00  0.00     0.116 C 
BRANCH   4   5
ATOM      5  N   UNL A   1      33.208  24.802  22.133  1.00  0.00    -0.352 N 
ATOM      6  C   UNL A   1      33.065  23.651  22.867  1.00  0.00     0.252 C 
ATOM      7  O   UNL A   1      33.460  22.648  22.269  1.00  0.00    -0.269 OA
ATOM      8  H   UNL A   1      33.368  24.609  21.181  1.00  0.00     0.163 HD
BRANCH   6   9
ATOM      9  C   UNL A   1      32.439  23.523  24.241  1.00  0.00     0.050 A 
ATOM     10  C   UNL A   1      30.164  24.594  23.610  1.00  0.00     0.045 C 
ATOM     11  C   UNL A   1      31.090  23.858  24.532  1.00  0.00    -0.038 A 
ATOM     12  C   UNL A   1      30.553  23.610  25.817  1.00  0.00     0.004 A 
ATOM     13  C   UNL A   1      31.346  23.155  26.854  1.00  0.00     0.001 A 
ATOM     14  C   UNL A   1      33.277  23.137  25.344  1.00  0.00    -0.005 A 
ATOM     15  C   UNL A   1      32.697  22.957  26.626  1.00  0.00     0.009 A 
BRANCH  14  16
ATOM     16  C   UNL A   1      34.754  22.986  25.309  1.00  0.00    -0.014 A 
ATOM     17  C   UNL A   1      35.598  24.057  25.659  1.00  0.00     0.009 A 
ATOM     18  C   UNL A   1      35.357  21.740  25.067  1.00  0.00     0.055 A 
ATOM     19  C   UNL A   1      36.989  23.920  25.673  1.00  0.00     0.004 A 
ATOM     20  C   UNL A   1      36.743  21.598  25.128  1.00  0.00     0.116 A 
ATOM     21  C   UNL A   1      37.566  22.684  25.408  1.00  0.00     0.046 A 
BRANCH  20  22
ATOM     22  O   UNL A   1      37.268  20.357  24.914  1.00  0.00    -0.508 OA
ATOM     23  H   UNL A   1      36.840  19.599  25.262  1.00  0.00     0.293 HD
ENDBRANCH  20  22
ENDBRANCH  14  16
ENDBRANCH   6   9
ENDBRANCH   4   5
ENDBRANCH   3   4
ENDBRANCH   2   3
ENDBRANCH   1   2
BRANCH   1  24
ATOM     24  C   UNL A   1      34.253  28.685  26.129  1.00  0.00     0.021 C 
BRANCH  24  25
ATOM     25  C   UNL A   1      34.207  29.541  27.388  1.00  0.00     0.116 C 
BRANCH  25  26
ATOM     26  N   UNL A   1      35.003  30.756  27.300  1.00  0.00    -0.352 N 
ATOM     27  C   UNL A   1      36.058  30.983  28.171  1.00  0.00     0.251 C 
ATOM     28  H   UNL A   1      34.791  31.427  26.612  1.00  0.00     0.163 HD
ATOM     29  O   UNL A   1      36.184  31.980  28.874  1.00  0.00    -0.269 OA
BRANCH  27  30
ATOM     30  C   UNL A   1      37.062  29.902  28.206  1.00  0.00     0.039 A 
ATOM     31  C   UNL A   1      37.246  29.179  29.386  1.00  0.00     0.014 A 
ATOM     32  C   UNL A   1      37.965  29.806  27.147  1.00  0.00     0.014 A 
ATOM     33  C   UNL A   1      38.417  28.443  29.556  1.00  0.00     0.010 A 
ATOM     34  C   UNL A   1      39.159  29.142  27.350  1.00  0.00     0.010 A 
ATOM     35  C   UNL A   1      39.403  28.489  28.566  1.00  0.00    -0.014 A 
BRANCH  35  36
ATOM     36  C   UNL A   1      40.743  27.931  28.730  1.00  0.00     0.031 A 
ATOM     37  C   UNL A   1      41.017  26.528  28.339  1.00  0.00     0.074 A 
ATOM     38  C   UNL A   1      41.759  28.701  29.179  1.00  0.00     0.049 A 
ATOM     39  N   UNL A   1      42.015  25.829  28.770  1.00  0.00    -0.248 NA
ATOM     40  C   UNL A   1      40.133  25.779  27.451  1.00  0.00     0.031 C 
ATOM     41  C   UNL A   1      43.185  28.387  29.129  1.00  0.00     0.029 A 
ATOM     42  N   UNL A   1      41.694  29.829  29.997  1.00  0.00    -0.354 N 
ATOM     43  C   UNL A   1      42.072  24.678  28.018  1.00  0.00     0.074 A 
ATOM     44  C   UNL A   1      40.840  24.660  27.263  1.00  0.00     0.031 C 
ATOM     45  C   UNL A   1      43.805  29.071  30.103  1.00  0.00     0.029 A 
ATOM     46  C   UNL A   1      42.772  29.719  30.893  1.00  0.00     0.049 A 
ATOM     47  H   UNL A   1      41.029  30.556  29.955  1.00  0.00     0.167 HD
ATOM     48  C   UNL A   1      43.205  23.919  28.016  1.00  0.00     0.031 A 
ATOM     49  C   UNL A   1      42.620  29.610  32.247  1.00  0.00     0.031 A 
ATOM     50  C   UNL A   1      44.208  24.409  28.960  1.00  0.00     0.049 A 
ATOM     51  C   UNL A   1      43.236  28.349  32.833  1.00  0.00     0.074 A 
ATOM     52  C   UNL A   1      45.405  25.097  28.842  1.00  0.00     0.029 A 
ATOM     53  N   UNL A   1      43.895  24.415  30.308  1.00  0.00    -0.354 N 
ATOM     54  N   UNL A   1      43.832  27.421  32.135  1.00  0.00    -0.248 NA
ATOM     55  C   UNL A   1      43.129  27.988  34.249  1.00  0.00     0.031 C 
ATOM     56  C   UNL A   1      45.804  25.520  30.144  1.00  0.00     0.029 A 
ATOM     57  C   UNL A   1      44.854  25.081  31.046  1.00  0.00     0.049 A 
ATOM     58  H   UNL A   1      43.092  23.997  30.693  1.00  0.00     0.167 HD
ATOM     59  C   UNL A   1      44.128  26.359  32.945  1.00  0.00     0.074 A 
ATOM     60  C   UNL A   1      43.685  26.764  34.265  1.00  0.00     0.031 C 
ATOM     61  C   UNL A   1      44.667  25.197  32.479  1.00  0.00     0.031 A 
BRANCH  48  62
ATOM     62  C   UNL A   1      43.484  22.851  26.982  1.00  0.00    -0.014 A 
ATOM     63  C   UNL A   1      42.751  21.645  27.005  1.00  0.00     0.010 A 
ATOM     64  C   UNL A   1      44.480  22.951  25.993  1.00  0.00     0.010 A 
ATOM     65  C   UNL A   1      43.073  20.562  26.174  1.00  0.00     0.020 A 
ATOM     66  C   UNL A   1      44.842  21.864  25.182  1.00  0.00     0.020 A 
ATOM     67  C   UNL A   1      44.144  20.667  25.289  1.00  0.00     0.054 A 
BRANCH  67  68
ATOM     68  S   UNL A   1      44.621  19.222  24.306  1.00  0.00     0.124 S 
ATOM     69  O   UNL A   1      43.679  18.202  24.763  1.00  0.00    -0.237 OA
ATOM     70  O   UNL A   1      44.426  19.694  22.938  1.00  0.00    -0.237 OA
ATOM     71  O   UNL A   1      46.012  18.988  24.690  1.00  0.00    -0.744 OA
ENDBRANCH  67  68
ENDBRANCH  48  62
BRANCH  49  72
ATOM     72  C   UNL A   1      41.396  30.279  32.773  1.00  0.00    -0.014 A 
ATOM     73  C   UNL A   1      40.285  29.463  33.080  1.00  0.00     0.010 A 
ATOM     74  C   UNL A   1      41.473  31.562  33.338  1.00  0.00     0.010 A 
ATOM     75  C   UNL A   1      39.376  29.843  34.072  1.00  0.00     0.020 A 
ATOM     76  C   UNL A   1      40.551  31.953  34.320  1.00  0.00     0.020 A 
ATOM     77  C   UNL A   1      39.559  31.057  34.733  1.00  0.00     0.054 A 
BRANCH  77  78
ATOM     78  S   UNL A   1      38.602  31.369  36.249  1.00  0.00     0.124 S 
ATOM     79  O   UNL A   1      37.505  32.198  35.762  1.00  0.00    -0.237 OA
ATOM     80  O   UNL A   1      38.235  30.016  36.673  1.00  0.00    -0.237 OA
ATOM     81  O   UNL A   1      39.562  32.040  37.119  1.00  0.00    -0.744 OA
ENDBRANCH  77  78
ENDBRANCH  49  72
BRANCH  61  82
ATOM     82  C   UNL A   1      45.024  24.040  33.365  1.00  0.00    -0.014 A 
ATOM     83  C   UNL A   1      44.069  23.098  33.782  1.00  0.00     0.010 A 
ATOM     84  C   UNL A   1      46.321  23.943  33.913  1.00  0.00     0.010 A 
ATOM     85  C   UNL A   1      44.411  22.068  34.668  1.00  0.00     0.020 A 
ATOM     86  C   UNL A   1      46.668  22.930  34.810  1.00  0.00     0.020 A 
ATOM     87  C   UNL A   1      45.713  21.985  35.169  1.00  0.00     0.054 A 
BRANCH  87  88
ATOM     88  S   UNL A   1      46.130  20.667  36.340  1.00  0.00     0.124 S 
ATOM     89  O   UNL A   1      47.585  20.593  36.241  1.00  0.00    -0.237 OA
ATOM     90  O   UNL A   1      45.613  21.206  37.595  1.00  0.00    -0.237 OA
ATOM     91  O   UNL A   1      45.417  19.502  35.819  1.00  0.00    -0.744 OA
ENDBRANCH  87  88
ENDBRANCH  61  82
ENDBRANCH  35  36
ENDBRANCH  27  30
ENDBRANCH  25  26
ENDBRANCH  24  25
ENDBRANCH   1  24
TORSDOF 18
ENDMDL
MODEL 3
REMARK VINA RESULT:     -13.0      1.773      2.892
REMARK SMILES Cc1cccc(-c2cccc(O)c2)c1C(=O)NCCCCCCNC(=O)c1ccc(-c2c3nc(c(-c4ccc(S(=O)(=O)[O-])cc4)c4ccc([nH]4)c(-c4ccc(S(=O)(=O)[O-])cc4)c4nc(c(-c5ccc(S(=O)(=O)[O-])cc5)c5ccc2[nH]5)C=C4)C=C3)cc1
REMARK SMILES IDX 21 1 20 2 19 3 18 4 17 5 15 6 16 7 14 9 1 10 2 11 3 12 4 13
REMARK SMILES IDX 6 14 5 15 7 16 8 17 13 18 9 19 11 20 10 21 12 22 22 24 23 25
REMARK SMILES IDX 24 26 25 27 26 29 27 30 28 31 86 32 29 33 85 34 30 35 31 36
REMARK SMILES IDX 32 37 79 38 33 39 84 40 78 41 80 42 34 43 83 44 77 45 76 46
REMARK SMILES IDX 35 48 65 49 46 50 64 51 47 52 50 53 63 54 81 55 48 56 49 57
REMARK SMILES IDX 62 59 82 60 51 61 36 62 37 63 45 64 38 65 44 66 39 67 40 68
REMARK SMILES IDX 41 69 42 70 43 71 66 72 67 73 75 74 68 75 74 76 69 77 70 78
REMARK SMILES IDX 71 79 72 80 73 81 52 82 53 83 61 84 54 85 60 86 55 87 56 88
REMARK SMILES IDX 57 89 58 90 59 91
REMARK H PARENT 17 8 12 23 24 28 80 47 50 58
REMARK Flexibility Score: inf
ROOT
ATOM      1  C   UNL A   1      31.823  28.279  27.206  1.00  0.00     0.002 C 
ENDROOT
BRANCH   1   2
ATOM      2  C   UNL A   1      31.174  27.674  25.953  1.00  0.00     0.002 C 
BRANCH   2   3
ATOM      3  C   UNL A   1      30.617  26.248  26.081  1.00  0.00     0.021 C 
BRANCH   3   4
ATOM      4  C   UNL A   1      31.602  25.193  26.622  1.00  0.00     0.116 C 
BRANCH   4   5
ATOM      5  N   UNL A   1      31.406  23.939  25.920  1.00  0.00    -0.352 N 
ATOM      6  C   UNL A   1      32.182  23.073  25.191  1.00  0.00     0.252 C 
ATOM      7  O   UNL A   1      31.517  22.277  24.526  1.00  0.00    -0.269 OA
ATOM      8  H   UNL A   1      30.474  23.628  25.984  1.00  0.00     0.163 HD
BRANCH   6   9
ATOM      9  C   UNL A   1      33.695  22.990  25.192  1.00  0.00     0.050 A 
ATOM     10  C   UNL A   1      33.880  21.369  27.209  1.00  0.00     0.045 C 
ATOM     11  C   UNL A   1      34.441  22.132  26.044  1.00  0.00    -0.038 A 
ATOM     12  C   UNL A   1      35.845  22.037  25.910  1.00  0.00     0.004 A 
ATOM     13  C   UNL A   1      36.544  22.855  25.042  1.00  0.00     0.001 A 
ATOM     14  C   UNL A   1      34.433  23.900  24.359  1.00  0.00    -0.005 A 
ATOM     15  C   UNL A   1      35.848  23.797  24.305  1.00  0.00     0.009 A 
BRANCH  14  16
ATOM     16  C   UNL A   1      33.867  25.035  23.588  1.00  0.00    -0.014 A 
ATOM     17  C   UNL A   1      34.032  26.362  24.030  1.00  0.00     0.009 A 
ATOM     18  C   UNL A   1      33.276  24.842  22.328  1.00  0.00     0.055 A 
ATOM     19  C   UNL A   1      33.543  27.445  23.295  1.00  0.00     0.004 A 
ATOM     20  C   UNL A   1      32.832  25.930  21.578  1.00  0.00     0.116 A 
ATOM     21  C   UNL A   1      32.941  27.230  22.060  1.00  0.00     0.046 A 
BRANCH  20  22
ATOM     22  O   UNL A   1      32.296  25.682  20.347  1.00  0.00    -0.508 OA
ATOM     23  H   UNL A   1      32.728  25.990  19.576  1.00  0.00     0.293 HD
ENDBRANCH  20  22
ENDBRANCH  14  16
ENDBRANCH   6   9
ENDBRANCH   4   5
ENDBRANCH   3   4
ENDBRANCH   2   3
ENDBRANCH   1   2
BRANCH   1  24
ATOM     24  C   UNL A   1      32.672  29.533  26.988  1.00  0.00     0.021 C 
BRANCH  24  25
ATOM     25  C   UNL A   1      34.132  29.375  27.391  1.00  0.00     0.116 C 
BRANCH  25  26
ATOM     26  N   UNL A   1      34.900  30.608  27.306  1.00  0.00    -0.352 N 
ATOM     27  C   UNL A   1      35.951  30.855  28.176  1.00  0.00     0.251 C 
ATOM     28  H   UNL A   1      34.672  31.276  26.620  1.00  0.00     0.163 HD
ATOM     29  O   UNL A   1      36.057  31.852  28.882  1.00  0.00    -0.269 OA
BRANCH  27  30
ATOM     30  C   UNL A   1      36.979  29.797  28.206  1.00  0.00     0.039 A 
ATOM     31  C   UNL A   1      37.168  29.060  29.377  1.00  0.00     0.014 A 
ATOM     32  C   UNL A   1      37.895  29.737  27.155  1.00  0.00     0.014 A 
ATOM     33  C   UNL A   1      38.354  28.348  29.548  1.00  0.00     0.010 A 
ATOM     34  C   UNL A   1      39.101  29.096  27.361  1.00  0.00     0.010 A 
ATOM     35  C   UNL A   1      39.348  28.432  28.570  1.00  0.00    -0.014 A 
BRANCH  35  36
ATOM     36  C   UNL A   1      40.698  27.901  28.739  1.00  0.00     0.031 A 
ATOM     37  C   UNL A   1      40.998  26.498  28.367  1.00  0.00     0.074 A 
ATOM     38  C   UNL A   1      41.700  28.697  29.175  1.00  0.00     0.049 A 
ATOM     39  N   UNL A   1      42.010  25.824  28.807  1.00  0.00    -0.248 NA
ATOM     40  C   UNL A   1      40.127  25.720  27.492  1.00  0.00     0.031 C 
ATOM     41  C   UNL A   1      43.132  28.409  29.127  1.00  0.00     0.029 A 
ATOM     42  N   UNL A   1      41.615  29.835  29.977  1.00  0.00    -0.354 N 
ATOM     43  C   UNL A   1      42.088  24.664  28.071  1.00  0.00     0.074 A 
ATOM     44  C   UNL A   1      40.855  24.612  27.318  1.00  0.00     0.031 C 
ATOM     45  C   UNL A   1      43.740  29.118  30.090  1.00  0.00     0.029 A 
ATOM     46  C   UNL A   1      42.696  29.757  30.873  1.00  0.00     0.049 A 
ATOM     47  H   UNL A   1      40.936  30.548  29.926  1.00  0.00     0.167 HD
ATOM     48  C   UNL A   1      43.234  23.927  28.078  1.00  0.00     0.031 A 
ATOM     49  C   UNL A   1      42.549  29.665  32.228  1.00  0.00     0.031 A 
ATOM     50  C   UNL A   1      44.230  24.449  29.013  1.00  0.00     0.049 A 
ATOM     51  C   UNL A   1      43.189  28.425  32.831  1.00  0.00     0.074 A 
ATOM     52  C   UNL A   1      45.413  25.158  28.883  1.00  0.00     0.029 A 
ATOM     53  N   UNL A   1      43.919  24.468  30.361  1.00  0.00    -0.354 N 
ATOM     54  N   UNL A   1      43.802  27.498  32.145  1.00  0.00    -0.248 NA
ATOM     55  C   UNL A   1      43.091  28.083  34.252  1.00  0.00     0.031 C 
ATOM     56  C   UNL A   1      45.806  25.606  30.178  1.00  0.00     0.029 A 
ATOM     57  C   UNL A   1      44.866  25.163  31.088  1.00  0.00     0.049 A 
ATOM     58  H   UNL A   1      43.124  24.040  30.753  1.00  0.00     0.167 HD
ATOM     59  C   UNL A   1      44.119  26.454  32.970  1.00  0.00     0.074 A 
ATOM     60  C   UNL A   1      43.669  26.869  34.285  1.00  0.00     0.031 C 
ATOM     61  C   UNL A   1      44.679  25.295  32.520  1.00  0.00     0.031 A 
BRANCH  48  62
ATOM     62  C   UNL A   1      43.532  22.850  27.058  1.00  0.00    -0.014 A 
ATOM     63  C   UNL A   1      42.744  21.680  27.025  1.00  0.00     0.010 A 
ATOM     64  C   UNL A   1      44.596  22.905  26.139  1.00  0.00     0.010 A 
ATOM     65  C   UNL A   1      43.070  20.585  26.212  1.00  0.00     0.020 A 
ATOM     66  C   UNL A   1      44.961  21.804  25.349  1.00  0.00     0.020 A 
ATOM     67  C   UNL A   1      44.201  20.641  25.402  1.00  0.00     0.054 A 
BRANCH  67  68
ATOM     68  S   UNL A   1      44.676  19.178  24.444  1.00  0.00     0.124 S 
ATOM     69  O   UNL A   1      44.541  19.644  23.066  1.00  0.00    -0.237 OA
ATOM     70  O   UNL A   1      46.042  18.935  24.898  1.00  0.00    -0.237 OA
ATOM     71  O   UNL A   1      43.699  18.169  24.849  1.00  0.00    -0.744 OA
ENDBRANCH  67  68
ENDBRANCH  48  62
BRANCH  49  72
ATOM     72  C   UNL A   1      41.312  30.319  32.747  1.00  0.00    -0.014 A 
ATOM     73  C   UNL A   1      40.218  29.486  33.070  1.00  0.00     0.010 A 
ATOM     74  C   UNL A   1      41.365  31.612  33.291  1.00  0.00     0.010 A 
ATOM     75  C   UNL A   1      39.305  29.864  34.057  1.00  0.00     0.020 A 
ATOM     76  C   UNL A   1      40.439  32.000  34.270  1.00  0.00     0.020 A 
ATOM     77  C   UNL A   1      39.466  31.092  34.699  1.00  0.00     0.054 A 
BRANCH  77  78
ATOM     78  S   UNL A   1      38.505  31.409  36.212  1.00  0.00     0.124 S 
ATOM     79  O   UNL A   1      39.486  32.060  37.075  1.00  0.00    -0.237 OA
ATOM     80  O   UNL A   1      37.422  32.265  35.723  1.00  0.00    -0.237 OA
ATOM     81  O   UNL A   1      38.087  30.075  36.628  1.00  0.00    -0.744 OA
ENDBRANCH  77  78
ENDBRANCH  49  72
BRANCH  61  82
ATOM     82  C   UNL A   1      45.059  24.158  33.422  1.00  0.00    -0.014 A 
ATOM     83  C   UNL A   1      46.383  23.950  33.840  1.00  0.00     0.010 A 
ATOM     84  C   UNL A   1      44.100  23.182  33.771  1.00  0.00     0.010 A 
ATOM     85  C   UNL A   1      46.725  22.839  34.622  1.00  0.00     0.020 A 
ATOM     86  C   UNL A   1      44.435  22.063  34.537  1.00  0.00     0.020 A 
ATOM     87  C   UNL A   1      45.746  21.907  34.975  1.00  0.00     0.054 A 
BRANCH  87  88
ATOM     88  S   UNL A   1      46.212  20.460  35.960  1.00  0.00     0.124 S 
ATOM     89  O   UNL A   1      45.577  19.359  35.239  1.00  0.00    -0.237 OA
ATOM     90  O   UNL A   1      47.670  20.501  35.882  1.00  0.00    -0.237 OA
ATOM     91  O   UNL A   1      45.648  20.740  37.278  1.00  0.00    -0.744 OA
ENDBRANCH  87  88
ENDBRANCH  61  82
ENDBRANCH  35  36
ENDBRANCH  27  30
ENDBRANCH  25  26
ENDBRANCH  24  25
ENDBRANCH   1  24
TORSDOF 18
ENDMDL
