MODEL 1
REMARK VINA RESULT:      -8.9      0.000      0.000
REMARK SMILES COC(=O)c1c(SCC(=O)Nc2cc(C)ccc2C)[nH]c2cc(C(=O)NCCCCCCNC(=O)c3ccc(-c4c5nc(c(-c6ccc(S(=O)(=O)[O-])cc6)c6ccc([nH]6)c(-c6ccc(S(=O)(=O)[O-])cc6)c6nc(c(-c7ccc(S(=O)(=O)[O-])cc7)c7ccc4[nH]7)C=C6)C=C5)cc3)ccc2c1=O
REMARK SMILES IDX 29 1 28 2 27 3 26 4 24 5 25 6 23 8 5 9 6 10 99 11 20 12
REMARK SMILES IDX 98 13 100 14 21 15 97 17 22 18 96 19 3 20 4 21 2 22 1 23
REMARK SMILES IDX 7 24 8 25 9 26 10 27 11 28 12 30 13 31 18 32 14 33 17 34
REMARK SMILES IDX 19 35 15 36 16 37 30 38 31 39 32 40 33 41 34 42 35 44 36 45
REMARK SMILES IDX 37 46 95 47 38 48 94 49 39 50 40 51 41 52 88 53 42 54 93 55
REMARK SMILES IDX 87 56 89 57 43 58 92 59 86 60 85 61 44 63 74 64 55 65 73 66
REMARK SMILES IDX 56 67 59 68 72 69 90 70 57 71 58 72 71 74 91 75 60 76 45 77
REMARK SMILES IDX 46 78 54 79 47 80 53 81 48 82 49 83 50 84 51 85 52 86 75 87
REMARK SMILES IDX 76 88 84 89 77 90 83 91 78 92 79 93 80 94 81 95 82 96 61 97
REMARK SMILES IDX 62 98 70 99 63 100 69 101 64 102 65 103 66 104 67 105 68 106
REMARK H PARENT 26 7 20 16 11 29 33 43 89 62 59 73
REMARK Flexibility Score: inf
ROOT
ATOM      1  C   UNL A   1      44.419  30.040  34.057  1.00  0.00     0.002 C 
ENDROOT
BRANCH   1   2
ATOM      2  C   UNL A   1      44.180  29.477  32.649  1.00  0.00     0.021 C 
BRANCH   2   3
ATOM      3  C   UNL A   1      45.114  30.056  31.583  1.00  0.00     0.116 C 
BRANCH   3   4
ATOM      4  N   UNL A   1      44.422  31.012  30.735  1.00  0.00    -0.352 N 
ATOM      5  C   UNL A   1      44.422  31.239  29.378  1.00  0.00     0.251 C 
ATOM      6  O   UNL A   1      43.601  32.050  28.947  1.00  0.00    -0.269 OA
ATOM      7  H   UNL A   1      43.832  31.622  31.235  1.00  0.00     0.163 HD
BRANCH   5   8
ATOM      8  C   UNL A   1      45.300  30.510  28.414  1.00  0.00     0.041 A 
ATOM      9  C   UNL A   1      47.846  26.714  26.056  1.00  0.00     0.138 A 
ATOM     10  C   UNL A   1      46.740  26.165  26.608  1.00  0.00     0.092 A 
ATOM     11  C   UNL A   1      48.087  28.174  26.216  1.00  0.00     0.205 A 
ATOM     12  N   UNL A   1      45.852  26.963  27.338  1.00  0.00    -0.349 N 
ATOM     13  C   UNL A   1      47.054  28.994  26.865  1.00  0.00     0.046 A 
ATOM     14  O   UNL A   1      49.166  28.685  25.924  1.00  0.00    -0.288 OA
ATOM     15  C   UNL A   1      45.981  28.349  27.475  1.00  0.00     0.051 A 
ATOM     16  H   UNL A   1      45.092  26.524  27.781  1.00  0.00     0.167 HD
ATOM     17  C   UNL A   1      47.192  30.380  26.912  1.00  0.00     0.015 A 
ATOM     18  C   UNL A   1      45.126  29.112  28.283  1.00  0.00     0.040 A 
ATOM     19  C   UNL A   1      46.278  31.137  27.639  1.00  0.00     0.015 A 
BRANCH   9  20
ATOM     20  C   UNL A   1      48.904  25.999  25.353  1.00  0.00     0.344 C 
ATOM     21  O   UNL A   1      49.964  25.673  25.876  1.00  0.00    -0.246 OA
BRANCH  20  22
ATOM     22  O   UNL A   1      48.504  25.678  24.099  1.00  0.00    -0.465 OA
ATOM     23  C   UNL A   1      48.552  26.778  23.190  1.00  0.00     0.282 C 
ENDBRANCH  20  22
ENDBRANCH   9  20
BRANCH  10  24
ATOM     24  S   UNL A   1      46.382  24.444  26.639  1.00  0.00    -0.098 SA
BRANCH  24  25
ATOM     25  C   UNL A   1      44.633  24.094  26.867  1.00  0.00     0.176 C 
BRANCH  25  26
ATOM     26  C   UNL A   1      43.635  24.109  25.726  1.00  0.00     0.234 C 
ATOM     27  O   UNL A   1      43.945  24.701  24.681  1.00  0.00    -0.274 OA
ATOM     28  N   UNL A   1      42.510  23.330  25.691  1.00  0.00    -0.325 N 
ATOM     29  H   UNL A   1      41.657  23.727  25.400  1.00  0.00     0.169 HD
BRANCH  28  30
ATOM     30  C   UNL A   1      42.549  21.976  26.062  1.00  0.00     0.044 A 
ATOM     31  C   UNL A   1      43.452  21.136  25.418  1.00  0.00     0.029 A 
ATOM     32  C   UNL A   1      41.667  21.463  27.026  1.00  0.00    -0.027 A 
ATOM     33  C   UNL A   1      43.386  19.753  25.574  1.00  0.00    -0.049 A 
ATOM     34  C   UNL A   1      41.654  20.074  27.238  1.00  0.00     0.006 A 
ATOM     35  C   UNL A   1      40.729  22.311  27.840  1.00  0.00     0.046 C 
ATOM     36  C   UNL A   1      44.270  18.867  24.753  1.00  0.00     0.044 C 
ATOM     37  C   UNL A   1      42.482  19.225  26.496  1.00  0.00     0.004 A 
ENDBRANCH  28  30
ENDBRANCH  25  26
ENDBRANCH  24  25
ENDBRANCH  10  24
ENDBRANCH   5   8
ENDBRANCH   3   4
ENDBRANCH   2   3
ENDBRANCH   1   2
BRANCH   1  38
ATOM     38  C   UNL A   1      45.527  31.103  34.193  1.00  0.00     0.002 C 
BRANCH  38  39
ATOM     39  C   UNL A   1      46.387  31.074  35.467  1.00  0.00     0.021 C 
BRANCH  39  40
ATOM     40  C   UNL A   1      45.810  30.217  36.579  1.00  0.00     0.116 C 
BRANCH  40  41
ATOM     41  N   UNL A   1      45.634  30.944  37.846  1.00  0.00    -0.352 N 
ATOM     42  C   UNL A   1      44.735  31.925  38.241  1.00  0.00     0.251 C 
ATOM     43  H   UNL A   1      46.274  30.685  38.546  1.00  0.00     0.163 HD
ATOM     44  O   UNL A   1      44.953  32.572  39.262  1.00  0.00    -0.269 OA
BRANCH  42  45
ATOM     45  C   UNL A   1      43.498  32.166  37.470  1.00  0.00     0.039 A 
ATOM     46  C   UNL A   1      42.522  31.190  37.240  1.00  0.00     0.014 A 
ATOM     47  C   UNL A   1      43.493  33.253  36.620  1.00  0.00     0.014 A 
ATOM     48  C   UNL A   1      41.723  31.335  36.091  1.00  0.00     0.010 A 
ATOM     49  C   UNL A   1      42.329  33.610  36.047  1.00  0.00     0.010 A 
ATOM     50  C   UNL A   1      41.823  32.531  35.379  1.00  0.00    -0.014 A 
BRANCH  50  51
ATOM     51  C   UNL A   1      41.182  32.871  34.130  1.00  0.00     0.031 A 
ATOM     52  C   UNL A   1      39.735  33.085  34.331  1.00  0.00     0.074 A 
ATOM     53  C   UNL A   1      41.835  33.309  33.031  1.00  0.00     0.049 A 
ATOM     54  N   UNL A   1      38.829  32.169  34.261  1.00  0.00    -0.248 NA
ATOM     55  C   UNL A   1      39.288  34.322  35.009  1.00  0.00     0.031 C 
ATOM     56  C   UNL A   1      43.262  33.565  32.807  1.00  0.00     0.029 A 
ATOM     57  N   UNL A   1      41.285  33.700  31.853  1.00  0.00    -0.354 N 
ATOM     58  C   UNL A   1      37.657  32.816  34.605  1.00  0.00     0.074 A 
ATOM     59  C   UNL A   1      38.058  33.960  35.378  1.00  0.00     0.031 C 
ATOM     60  C   UNL A   1      43.424  34.253  31.645  1.00  0.00     0.029 A 
ATOM     61  C   UNL A   1      42.135  34.367  30.978  1.00  0.00     0.049 A 
ATOM     62  H   UNL A   1      40.342  33.522  31.632  1.00  0.00     0.167 HD
ATOM     63  C   UNL A   1      36.506  32.600  33.910  1.00  0.00     0.031 A 
ATOM     64  C   UNL A   1      41.767  34.987  29.822  1.00  0.00     0.031 A 
ATOM     65  C   UNL A   1      36.669  31.512  32.971  1.00  0.00     0.049 A 
ATOM     66  C   UNL A   1      40.439  34.423  29.442  1.00  0.00     0.074 A 
ATOM     67  C   UNL A   1      37.015  30.179  33.077  1.00  0.00     0.029 A 
ATOM     68  N   UNL A   1      36.920  31.870  31.663  1.00  0.00    -0.354 N 
ATOM     69  N   UNL A   1      40.263  33.171  29.120  1.00  0.00    -0.248 NA
ATOM     70  C   UNL A   1      39.250  35.112  29.923  1.00  0.00     0.031 C 
ATOM     71  C   UNL A   1      37.877  29.932  31.968  1.00  0.00     0.029 A 
ATOM     72  C   UNL A   1      37.944  31.091  31.189  1.00  0.00     0.049 A 
ATOM     73  H   UNL A   1      36.445  32.568  31.155  1.00  0.00     0.167 HD
ATOM     74  C   UNL A   1      39.088  32.796  29.761  1.00  0.00     0.074 A 
ATOM     75  C   UNL A   1      38.466  34.056  30.172  1.00  0.00     0.031 C 
ATOM     76  C   UNL A   1      38.880  31.505  30.161  1.00  0.00     0.031 A 
BRANCH  63  77
ATOM     77  C   UNL A   1      35.424  33.636  33.735  1.00  0.00    -0.014 A 
ATOM     78  C   UNL A   1      34.238  33.244  33.088  1.00  0.00     0.010 A 
ATOM     79  C   UNL A   1      35.610  35.017  33.949  1.00  0.00     0.010 A 
ATOM     80  C   UNL A   1      33.332  34.193  32.603  1.00  0.00     0.020 A 
ATOM     81  C   UNL A   1      34.694  35.969  33.509  1.00  0.00     0.020 A 
ATOM     82  C   UNL A   1      33.577  35.550  32.805  1.00  0.00     0.054 A 
BRANCH  82  83
ATOM     83  S   UNL A   1      32.457  36.769  32.082  1.00  0.00     0.124 S 
ATOM     84  O   UNL A   1      32.374  36.311  30.699  1.00  0.00    -0.237 OA
ATOM     85  O   UNL A   1      31.252  36.590  32.886  1.00  0.00    -0.237 OA
ATOM     86  O   UNL A   1      33.155  38.036  32.284  1.00  0.00    -0.744 OA
ENDBRANCH  82  83
ENDBRANCH  63  77
BRANCH  64  87
ATOM     87  C   UNL A   1      42.288  36.255  29.233  1.00  0.00    -0.014 A 
ATOM     88  C   UNL A   1      43.341  36.981  29.830  1.00  0.00     0.010 A 
ATOM     89  C   UNL A   1      41.941  36.599  27.910  1.00  0.00     0.010 A 
ATOM     90  C   UNL A   1      44.043  37.977  29.117  1.00  0.00     0.020 A 
ATOM     91  C   UNL A   1      42.635  37.586  27.194  1.00  0.00     0.020 A 
ATOM     92  C   UNL A   1      43.696  38.261  27.794  1.00  0.00     0.054 A 
BRANCH  92  93
ATOM     93  S   UNL A   1      44.688  39.442  26.824  1.00  0.00     0.124 S 
ATOM     94  O   UNL A   1      45.074  40.429  27.828  1.00  0.00    -0.237 OA
ATOM     95  O   UNL A   1      45.771  38.606  26.314  1.00  0.00    -0.237 OA
ATOM     96  O   UNL A   1      43.751  39.930  25.812  1.00  0.00    -0.744 OA
ENDBRANCH  92  93
ENDBRANCH  64  87
BRANCH  76  97
ATOM     97  C   UNL A   1      39.816  30.430  29.648  1.00  0.00    -0.014 A 
ATOM     98  C   UNL A   1      40.972  29.990  30.326  1.00  0.00     0.010 A 
ATOM     99  C   UNL A   1      39.400  29.722  28.508  1.00  0.00     0.010 A 
ATOM    100  C   UNL A   1      41.695  28.877  29.861  1.00  0.00     0.020 A 
ATOM    101  C   UNL A   1      40.102  28.606  28.052  1.00  0.00     0.020 A 
ATOM    102  C   UNL A   1      41.251  28.191  28.725  1.00  0.00     0.054 A 
BRANCH 102 103
ATOM    103  S   UNL A   1      42.152  26.723  28.148  1.00  0.00     0.124 S 
ATOM    104  O   UNL A   1      42.589  27.122  26.813  1.00  0.00    -0.237 OA
ATOM    105  O   UNL A   1      43.214  26.583  29.142  1.00  0.00    -0.237 OA
ATOM    106  O   UNL A   1      41.145  25.663  28.177  1.00  0.00    -0.744 OA
ENDBRANCH 102 103
ENDBRANCH  76  97
ENDBRANCH  50  51
ENDBRANCH  42  45
ENDBRANCH  40  41
ENDBRANCH  39  40
ENDBRANCH  38  39
ENDBRANCH   1  38
TORSDOF 22
ENDMDL
MODEL 2
REMARK VINA RESULT:      -8.8      3.435      8.132
REMARK SMILES COC(=O)c1c(SCC(=O)Nc2cc(C)ccc2C)[nH]c2cc(C(=O)NCCCCCCNC(=O)c3ccc(-c4c5nc(c(-c6ccc(S(=O)(=O)[O-])cc6)c6ccc([nH]6)c(-c6ccc(S(=O)(=O)[O-])cc6)c6nc(c(-c7ccc(S(=O)(=O)[O-])cc7)c7ccc4[nH]7)C=C6)C=C5)cc3)ccc2c1=O
REMARK SMILES IDX 29 1 28 2 27 3 26 4 24 5 25 6 23 8 5 9 6 10 99 11 20 12
REMARK SMILES IDX 98 13 100 14 21 15 97 17 22 18 96 19 3 20 4 21 2 22 1 23
REMARK SMILES IDX 7 24 8 25 9 26 10 27 11 28 12 30 13 31 18 32 14 33 17 34
REMARK SMILES IDX 19 35 15 36 16 37 30 38 31 39 32 40 33 41 34 42 35 44 36 45
REMARK SMILES IDX 37 46 95 47 38 48 94 49 39 50 40 51 41 52 88 53 42 54 93 55
REMARK SMILES IDX 87 56 89 57 43 58 92 59 86 60 85 61 44 63 74 64 55 65 73 66
REMARK SMILES IDX 56 67 59 68 72 69 90 70 57 71 58 72 71 74 91 75 60 76 45 77
REMARK SMILES IDX 46 78 54 79 47 80 53 81 48 82 49 83 50 84 51 85 52 86 75 87
REMARK SMILES IDX 76 88 84 89 77 90 83 91 78 92 79 93 80 94 81 95 82 96 61 97
REMARK SMILES IDX 62 98 70 99 63 100 69 101 64 102 65 103 66 104 67 105 68 106
REMARK H PARENT 26 7 20 16 11 29 33 43 89 62 59 73
REMARK Flexibility Score: inf
ROOT
ATOM      1  C   UNL A   1      46.391  24.698  34.721  1.00  0.00     0.002 C 
ENDROOT
BRANCH   1   2
ATOM      2  C   UNL A   1      46.118  25.745  33.632  1.00  0.00     0.021 C 
BRANCH   2   3
ATOM      3  C   UNL A   1      46.844  25.469  32.312  1.00  0.00     0.116 C 
BRANCH   3   4
ATOM      4  N   UNL A   1      47.947  26.395  32.111  1.00  0.00    -0.352 N 
ATOM      5  C   UNL A   1      48.150  27.442  31.242  1.00  0.00     0.251 C 
ATOM      6  O   UNL A   1      49.154  28.133  31.424  1.00  0.00    -0.269 OA
ATOM      7  H   UNL A   1      48.703  26.240  32.723  1.00  0.00     0.163 HD
BRANCH   5   8
ATOM      8  C   UNL A   1      47.194  27.820  30.158  1.00  0.00     0.041 A 
ATOM      9  C   UNL A   1      43.447  27.524  26.648  1.00  0.00     0.138 A 
ATOM     10  C   UNL A   1      43.141  26.643  27.627  1.00  0.00     0.092 A 
ATOM     11  C   UNL A   1      44.687  28.337  26.766  1.00  0.00     0.205 A 
ATOM     12  N   UNL A   1      43.998  26.489  28.722  1.00  0.00    -0.349 N 
ATOM     13  C   UNL A   1      45.478  28.245  28.002  1.00  0.00     0.046 A 
ATOM     14  O   UNL A   1      45.122  28.990  25.820  1.00  0.00    -0.288 OA
ATOM     15  C   UNL A   1      45.144  27.262  28.931  1.00  0.00     0.051 A 
ATOM     16  H   UNL A   1      43.782  25.795  29.386  1.00  0.00     0.167 HD
ATOM     17  C   UNL A   1      46.569  29.089  28.196  1.00  0.00     0.015 A 
ATOM     18  C   UNL A   1      46.032  27.029  29.991  1.00  0.00     0.040 A 
ATOM     19  C   UNL A   1      47.388  28.909  29.306  1.00  0.00     0.015 A 
BRANCH   9  20
ATOM     20  C   UNL A   1      42.706  27.726  25.409  1.00  0.00     0.344 C 
ATOM     21  O   UNL A   1      42.632  26.886  24.519  1.00  0.00    -0.246 OA
BRANCH  20  22
ATOM     22  O   UNL A   1      42.053  28.913  25.438  1.00  0.00    -0.465 OA
ATOM     23  C   UNL A   1      40.885  28.897  26.259  1.00  0.00     0.282 C 
ENDBRANCH  20  22
ENDBRANCH   9  20
BRANCH  10  24
ATOM     24  S   UNL A   1      41.801  25.506  27.574  1.00  0.00    -0.098 SA
BRANCH  24  25
ATOM     25  C   UNL A   1      42.189  24.003  26.668  1.00  0.00     0.176 C 
BRANCH  25  26
ATOM     26  C   UNL A   1      42.768  22.768  27.332  1.00  0.00     0.234 C 
ATOM     27  O   UNL A   1      42.023  21.793  27.512  1.00  0.00    -0.274 OA
ATOM     28  N   UNL A   1      44.107  22.578  27.546  1.00  0.00    -0.325 N 
ATOM     29  H   UNL A   1      44.412  22.223  28.412  1.00  0.00     0.169 HD
BRANCH  28  30
ATOM     30  C   UNL A   1      45.053  22.879  26.553  1.00  0.00     0.044 A 
ATOM     31  C   UNL A   1      45.743  24.085  26.637  1.00  0.00     0.029 A 
ATOM     32  C   UNL A   1      45.270  22.013  25.470  1.00  0.00    -0.027 A 
ATOM     33  C   UNL A   1      46.520  24.545  25.576  1.00  0.00    -0.049 A 
ATOM     34  C   UNL A   1      46.114  22.446  24.435  1.00  0.00     0.006 A 
ATOM     35  C   UNL A   1      44.644  20.651  25.348  1.00  0.00     0.046 C 
ATOM     36  C   UNL A   1      47.127  25.912  25.634  1.00  0.00     0.044 C 
ATOM     37  C   UNL A   1      46.708  23.712  24.472  1.00  0.00     0.004 A 
ENDBRANCH  28  30
ENDBRANCH  25  26
ENDBRANCH  24  25
ENDBRANCH  10  24
ENDBRANCH   5   8
ENDBRANCH   3   4
ENDBRANCH   2   3
ENDBRANCH   1   2
BRANCH   1  38
ATOM     38  C   UNL A   1      45.450  23.477  34.752  1.00  0.00     0.002 C 
BRANCH  38  39
ATOM     39  C   UNL A   1      44.106  23.597  34.016  1.00  0.00     0.021 C 
BRANCH  39  40
ATOM     40  C   UNL A   1      42.903  23.661  34.939  1.00  0.00     0.116 C 
BRANCH  40  41
ATOM     41  N   UNL A   1      43.217  24.198  36.273  1.00  0.00    -0.352 N 
ATOM     42  C   UNL A   1      43.088  25.466  36.823  1.00  0.00     0.251 C 
ATOM     43  H   UNL A   1      43.590  23.531  36.893  1.00  0.00     0.163 HD
ATOM     44  O   UNL A   1      43.666  25.734  37.872  1.00  0.00    -0.269 OA
BRANCH  42  45
ATOM     45  C   UNL A   1      42.224  26.478  36.181  1.00  0.00     0.039 A 
ATOM     46  C   UNL A   1      41.489  26.248  35.013  1.00  0.00     0.014 A 
ATOM     47  C   UNL A   1      42.459  27.798  36.509  1.00  0.00     0.014 A 
ATOM     48  C   UNL A   1      41.181  27.364  34.213  1.00  0.00     0.010 A 
ATOM     49  C   UNL A   1      41.578  28.726  36.093  1.00  0.00     0.010 A 
ATOM     50  C   UNL A   1      41.452  28.630  34.736  1.00  0.00    -0.014 A 
BRANCH  50  51
ATOM     51  C   UNL A   1      41.312  29.906  34.074  1.00  0.00     0.031 A 
ATOM     52  C   UNL A   1      42.387  30.096  33.081  1.00  0.00     0.074 A 
ATOM     53  C   UNL A   1      40.178  30.641  34.067  1.00  0.00     0.049 A 
ATOM     54  N   UNL A   1      43.538  30.627  33.321  1.00  0.00    -0.248 NA
ATOM     55  C   UNL A   1      42.332  29.327  31.819  1.00  0.00     0.031 C 
ATOM     56  C   UNL A   1      38.864  30.376  34.662  1.00  0.00     0.029 A 
ATOM     57  N   UNL A   1      39.967  31.814  33.417  1.00  0.00    -0.354 N 
ATOM     58  C   UNL A   1      44.229  30.510  32.129  1.00  0.00     0.074 A 
ATOM     59  C   UNL A   1      43.604  29.423  31.425  1.00  0.00     0.031 C 
ATOM     60  C   UNL A   1      37.955  31.260  34.170  1.00  0.00     0.029 A 
ATOM     61  C   UNL A   1      38.644  32.234  33.336  1.00  0.00     0.049 A 
ATOM     62  H   UNL A   1      40.705  32.335  33.026  1.00  0.00     0.167 HD
ATOM     63  C   UNL A   1      44.974  31.541  31.645  1.00  0.00     0.031 A 
ATOM     64  C   UNL A   1      38.181  33.283  32.599  1.00  0.00     0.031 A 
ATOM     65  C   UNL A   1      45.074  32.604  32.620  1.00  0.00     0.049 A 
ATOM     66  C   UNL A   1      39.359  34.148  32.306  1.00  0.00     0.074 A 
ATOM     67  C   UNL A   1      45.544  32.695  33.916  1.00  0.00     0.029 A 
ATOM     68  N   UNL A   1      44.216  33.670  32.448  1.00  0.00    -0.354 N 
ATOM     69  N   UNL A   1      40.033  34.773  33.233  1.00  0.00    -0.248 NA
ATOM     70  C   UNL A   1      40.091  33.899  31.072  1.00  0.00     0.031 C 
ATOM     71  C   UNL A   1      44.604  33.529  34.592  1.00  0.00     0.029 A 
ATOM     72  C   UNL A   1      43.662  33.982  33.664  1.00  0.00     0.049 A 
ATOM     73  H   UNL A   1      44.032  34.130  31.596  1.00  0.00     0.167 HD
ATOM     74  C   UNL A   1      41.367  34.603  32.886  1.00  0.00     0.074 A 
ATOM     75  C   UNL A   1      41.337  34.128  31.502  1.00  0.00     0.031 C 
ATOM     76  C   UNL A   1      42.349  34.573  33.837  1.00  0.00     0.031 A 
BRANCH  63  77
ATOM     77  C   UNL A   1      45.201  31.795  30.176  1.00  0.00    -0.014 A 
ATOM     78  C   UNL A   1      46.373  32.476  29.801  1.00  0.00     0.010 A 
ATOM     79  C   UNL A   1      44.217  31.620  29.182  1.00  0.00     0.010 A 
ATOM     80  C   UNL A   1      46.510  33.029  28.524  1.00  0.00     0.020 A 
ATOM     81  C   UNL A   1      44.360  32.130  27.894  1.00  0.00     0.020 A 
ATOM     82  C   UNL A   1      45.494  32.864  27.585  1.00  0.00     0.054 A 
BRANCH  82  83
ATOM     83  S   UNL A   1      45.634  33.673  25.977  1.00  0.00     0.124 S 
ATOM     84  O   UNL A   1      44.956  32.720  25.105  1.00  0.00    -0.237 OA
ATOM     85  O   UNL A   1      44.935  34.934  26.209  1.00  0.00    -0.237 OA
ATOM     86  O   UNL A   1      47.077  33.792  25.778  1.00  0.00    -0.744 OA
ENDBRANCH  82  83
ENDBRANCH  63  77
BRANCH  64  87
ATOM     87  C   UNL A   1      36.901  33.401  31.841  1.00  0.00    -0.014 A 
ATOM     88  C   UNL A   1      35.805  34.142  32.334  1.00  0.00     0.010 A 
ATOM     89  C   UNL A   1      36.862  33.023  30.484  1.00  0.00     0.010 A 
ATOM     90  C   UNL A   1      34.738  34.523  31.491  1.00  0.00     0.020 A 
ATOM     91  C   UNL A   1      35.807  33.400  29.639  1.00  0.00     0.020 A 
ATOM     92  C   UNL A   1      34.756  34.164  30.141  1.00  0.00     0.054 A 
BRANCH  92  93
ATOM     93  S   UNL A   1      33.457  34.774  29.018  1.00  0.00     0.124 S 
ATOM     94  O   UNL A   1      34.113  35.897  28.357  1.00  0.00    -0.237 OA
ATOM     95  O   UNL A   1      33.194  33.612  28.173  1.00  0.00    -0.237 OA
ATOM     96  O   UNL A   1      32.367  35.144  29.920  1.00  0.00    -0.744 OA
ENDBRANCH  92  93
ENDBRANCH  64  87
BRANCH  76  97
ATOM     97  C   UNL A   1      42.003  35.011  35.246  1.00  0.00    -0.014 A 
ATOM     98  C   UNL A   1      41.424  34.173  36.221  1.00  0.00     0.010 A 
ATOM     99  C   UNL A   1      42.448  36.284  35.639  1.00  0.00     0.010 A 
ATOM    100  C   UNL A   1      41.285  34.610  37.550  1.00  0.00     0.020 A 
ATOM    101  C   UNL A   1      42.330  36.717  36.960  1.00  0.00     0.020 A 
ATOM    102  C   UNL A   1      41.742  35.883  37.910  1.00  0.00     0.054 A 
BRANCH 102 103
ATOM    103  S   UNL A   1      41.611  36.434  39.635  1.00  0.00     0.124 S 
ATOM    104  O   UNL A   1      42.618  35.617  40.307  1.00  0.00    -0.237 OA
ATOM    105  O   UNL A   1      41.916  37.860  39.546  1.00  0.00    -0.237 OA
ATOM    106  O   UNL A   1      40.227  36.126  39.995  1.00  0.00    -0.744 OA
ENDBRANCH 102 103
ENDBRANCH  76  97
ENDBRANCH  50  51
ENDBRANCH  42  45
ENDBRANCH  40  41
ENDBRANCH  39  40
ENDBRANCH  38  39
ENDBRANCH   1  38
TORSDOF 22
ENDMDL
MODEL 3
REMARK VINA RESULT:      -8.7      9.249     13.929
REMARK SMILES COC(=O)c1c(SCC(=O)Nc2cc(C)ccc2C)[nH]c2cc(C(=O)NCCCCCCNC(=O)c3ccc(-c4c5nc(c(-c6ccc(S(=O)(=O)[O-])cc6)c6ccc([nH]6)c(-c6ccc(S(=O)(=O)[O-])cc6)c6nc(c(-c7ccc(S(=O)(=O)[O-])cc7)c7ccc4[nH]7)C=C6)C=C5)cc3)ccc2c1=O
REMARK SMILES IDX 29 1 28 2 27 3 26 4 24 5 25 6 23 8 5 9 6 10 99 11 20 12
REMARK SMILES IDX 98 13 100 14 21 15 97 17 22 18 96 19 3 20 4 21 2 22 1 23
REMARK SMILES IDX 7 24 8 25 9 26 10 27 11 28 12 30 13 31 18 32 14 33 17 34
REMARK SMILES IDX 19 35 15 36 16 37 30 38 31 39 32 40 33 41 34 42 35 44 36 45
REMARK SMILES IDX 37 46 95 47 38 48 94 49 39 50 40 51 41 52 88 53 42 54 93 55
REMARK SMILES IDX 87 56 89 57 43 58 92 59 86 60 85 61 44 63 74 64 55 65 73 66
REMARK SMILES IDX 56 67 59 68 72 69 90 70 57 71 58 72 71 74 91 75 60 76 45 77
REMARK SMILES IDX 46 78 54 79 47 80 53 81 48 82 49 83 50 84 51 85 52 86 75 87
REMARK SMILES IDX 76 88 84 89 77 90 83 91 78 92 79 93 80 94 81 95 82 96 61 97
REMARK SMILES IDX 62 98 70 99 63 100 69 101 64 102 65 103 66 104 67 105 68 106
REMARK H PARENT 26 7 20 16 11 29 33 43 89 62 59 73
REMARK Flexibility Score: inf
ROOT
ATOM      1  C   UNL A   1      47.780  22.395  35.475  1.00  0.00     0.002 C 
ENDROOT
BRANCH   1   2
ATOM      2  C   UNL A   1      46.331  22.686  35.062  1.00  0.00     0.021 C 
BRANCH   2   3
ATOM      3  C   UNL A   1      45.299  21.783  35.744  1.00  0.00     0.116 C 
BRANCH   3   4
ATOM      4  N   UNL A   1      45.342  20.432  35.212  1.00  0.00    -0.352 N 
ATOM      5  C   UNL A   1      45.714  19.221  35.747  1.00  0.00     0.251 C 
ATOM      6  O   UNL A   1      45.496  18.217  35.066  1.00  0.00    -0.269 OA
ATOM      7  H   UNL A   1      45.042  20.372  34.275  1.00  0.00     0.163 HD
BRANCH   5   8
ATOM      8  C   UNL A   1      46.289  19.059  37.116  1.00  0.00     0.041 A 
ATOM      9  C   UNL A   1      46.643  18.316  42.193  1.00  0.00     0.138 A 
ATOM     10  C   UNL A   1      45.539  17.656  41.773  1.00  0.00     0.092 A 
ATOM     11  C   UNL A   1      47.468  19.054  41.199  1.00  0.00     0.205 A 
ATOM     12  N   UNL A   1      45.174  17.692  40.423  1.00  0.00    -0.349 N 
ATOM     13  C   UNL A   1      47.125  18.943  39.774  1.00  0.00     0.046 A 
ATOM     14  O   UNL A   1      48.349  19.837  41.547  1.00  0.00    -0.288 OA
ATOM     15  C   UNL A   1      45.934  18.310  39.425  1.00  0.00     0.051 A 
ATOM     16  H   UNL A   1      44.332  17.256  40.159  1.00  0.00     0.167 HD
ATOM     17  C   UNL A   1      47.955  19.514  38.811  1.00  0.00     0.015 A 
ATOM     18  C   UNL A   1      45.502  18.407  38.095  1.00  0.00     0.040 A 
ATOM     19  C   UNL A   1      47.558  19.516  37.477  1.00  0.00     0.015 A 
BRANCH   9  20
ATOM     20  C   UNL A   1      47.095  18.447  43.573  1.00  0.00     0.344 C 
ATOM     21  O   UNL A   1      46.792  19.388  44.298  1.00  0.00    -0.246 OA
BRANCH  20  22
ATOM     22  O   UNL A   1      47.800  17.352  43.944  1.00  0.00    -0.465 OA
ATOM     23  C   UNL A   1      48.671  17.587  45.051  1.00  0.00     0.282 C 
ENDBRANCH  20  22
ENDBRANCH   9  20
BRANCH  10  24
ATOM     24  S   UNL A   1      44.380  16.862  42.830  1.00  0.00    -0.098 SA
BRANCH  24  25
ATOM     25  C   UNL A   1      43.528  15.492  42.037  1.00  0.00     0.176 C 
BRANCH  25  26
ATOM     26  C   UNL A   1      42.039  15.248  42.190  1.00  0.00     0.234 C 
ATOM     27  O   UNL A   1      41.329  15.289  41.173  1.00  0.00    -0.274 OA
ATOM     28  N   UNL A   1      41.462  14.772  43.336  1.00  0.00    -0.325 N 
ATOM     29  H   UNL A   1      40.629  15.184  43.664  1.00  0.00     0.169 HD
BRANCH  28  30
ATOM     30  C   UNL A   1      42.033  13.709  44.053  1.00  0.00     0.044 A 
ATOM     31  C   UNL A   1      42.745  13.998  45.214  1.00  0.00     0.029 A 
ATOM     32  C   UNL A   1      41.937  12.387  43.591  1.00  0.00    -0.027 A 
ATOM     33  C   UNL A   1      43.522  13.026  45.841  1.00  0.00    -0.049 A 
ATOM     34  C   UNL A   1      42.661  11.394  44.271  1.00  0.00     0.006 A 
ATOM     35  C   UNL A   1      41.109  11.972  42.405  1.00  0.00     0.046 C 
ATOM     36  C   UNL A   1      44.395  13.402  46.998  1.00  0.00     0.044 C 
ATOM     37  C   UNL A   1      43.471  11.716  45.365  1.00  0.00     0.004 A 
ENDBRANCH  28  30
ENDBRANCH  25  26
ENDBRANCH  24  25
ENDBRANCH  10  24
ENDBRANCH   5   8
ENDBRANCH   3   4
ENDBRANCH   2   3
ENDBRANCH   1   2
BRANCH   1  38
ATOM     38  C   UNL A   1      48.676  21.722  34.416  1.00  0.00     0.002 C 
BRANCH  38  39
ATOM     39  C   UNL A   1      49.911  22.498  33.933  1.00  0.00     0.021 C 
BRANCH  39  40
ATOM     40  C   UNL A   1      50.604  23.292  35.026  1.00  0.00     0.116 C 
BRANCH  40  41
ATOM     41  N   UNL A   1      49.986  24.604  35.277  1.00  0.00    -0.352 N 
ATOM     42  C   UNL A   1      49.638  25.648  34.432  1.00  0.00     0.251 C 
ATOM     43  H   UNL A   1      49.781  24.773  36.224  1.00  0.00     0.163 HD
ATOM     44  O   UNL A   1      49.380  26.751  34.905  1.00  0.00    -0.269 OA
BRANCH  42  45
ATOM     45  C   UNL A   1      49.529  25.431  32.974  1.00  0.00     0.039 A 
ATOM     46  C   UNL A   1      50.621  25.459  32.100  1.00  0.00     0.014 A 
ATOM     47  C   UNL A   1      48.284  25.607  32.408  1.00  0.00     0.014 A 
ATOM     48  C   UNL A   1      50.366  25.799  30.759  1.00  0.00     0.010 A 
ATOM     49  C   UNL A   1      48.108  25.239  31.125  1.00  0.00     0.010 A 
ATOM     50  C   UNL A   1      49.032  25.887  30.355  1.00  0.00    -0.014 A 
BRANCH  50  51
ATOM     51  C   UNL A   1      48.525  26.307  29.070  1.00  0.00     0.031 A 
ATOM     52  C   UNL A   1      47.640  27.479  29.219  1.00  0.00     0.074 A 
ATOM     53  C   UNL A   1      49.064  25.951  27.883  1.00  0.00     0.049 A 
ATOM     54  N   UNL A   1      46.367  27.430  29.428  1.00  0.00    -0.248 NA
ATOM     55  C   UNL A   1      48.247  28.794  29.518  1.00  0.00     0.031 C 
ATOM     56  C   UNL A   1      50.233  25.120  27.576  1.00  0.00     0.029 A 
ATOM     57  N   UNL A   1      48.671  26.360  26.650  1.00  0.00    -0.354 N 
ATOM     58  C   UNL A   1      45.992  28.752  29.586  1.00  0.00     0.074 A 
ATOM     59  C   UNL A   1      47.184  29.447  29.991  1.00  0.00     0.031 C 
ATOM     60  C   UNL A   1      50.560  25.260  26.264  1.00  0.00     0.029 A 
ATOM     61  C   UNL A   1      49.549  26.078  25.609  1.00  0.00     0.049 A 
ATOM     62  H   UNL A   1      47.817  26.827  26.501  1.00  0.00     0.167 HD
ATOM     63  C   UNL A   1      44.864  29.236  28.997  1.00  0.00     0.031 A 
ATOM     64  C   UNL A   1      49.442  26.530  24.328  1.00  0.00     0.031 A 
ATOM     65  C   UNL A   1      44.090  28.165  28.410  1.00  0.00     0.049 A 
ATOM     66  C   UNL A   1      48.024  26.953  24.144  1.00  0.00     0.074 A 
ATOM     67  C   UNL A   1      43.505  27.010  28.891  1.00  0.00     0.029 A 
ATOM     68  N   UNL A   1      44.239  27.982  27.051  1.00  0.00    -0.354 N 
ATOM     69  N   UNL A   1      47.020  26.121  24.199  1.00  0.00    -0.248 NA
ATOM     70  C   UNL A   1      47.691  28.343  24.421  1.00  0.00     0.031 C 
ATOM     71  C   UNL A   1      43.754  26.025  27.889  1.00  0.00     0.029 A 
ATOM     72  C   UNL A   1      44.392  26.641  26.808  1.00  0.00     0.049 A 
ATOM     73  H   UNL A   1      44.236  28.694  26.370  1.00  0.00     0.167 HD
ATOM     74  C   UNL A   1      46.044  26.782  24.935  1.00  0.00     0.074 A 
ATOM     75  C   UNL A   1      46.483  28.177  24.974  1.00  0.00     0.031 C 
ATOM     76  C   UNL A   1      45.139  26.091  25.693  1.00  0.00     0.031 A 
BRANCH  63  77
ATOM     77  C   UNL A   1      44.701  30.665  28.546  1.00  0.00    -0.014 A 
ATOM     78  C   UNL A   1      43.789  30.926  27.507  1.00  0.00     0.010 A 
ATOM     79  C   UNL A   1      45.567  31.715  28.914  1.00  0.00     0.010 A 
ATOM     80  C   UNL A   1      43.807  32.143  26.817  1.00  0.00     0.020 A 
ATOM     81  C   UNL A   1      45.566  32.946  28.263  1.00  0.00     0.020 A 
ATOM     82  C   UNL A   1      44.708  33.138  27.192  1.00  0.00     0.054 A 
BRANCH  82  83
ATOM     83  S   UNL A   1      44.797  34.661  26.227  1.00  0.00     0.124 S 
ATOM     84  O   UNL A   1      43.764  35.475  26.861  1.00  0.00    -0.237 OA
ATOM     85  O   UNL A   1      46.175  35.087  26.456  1.00  0.00    -0.237 OA
ATOM     86  O   UNL A   1      44.503  34.221  24.865  1.00  0.00    -0.744 OA
ENDBRANCH  82  83
ENDBRANCH  63  77
BRANCH  64  87
ATOM     87  C   UNL A   1      50.524  26.954  23.392  1.00  0.00    -0.014 A 
ATOM     88  C   UNL A   1      51.887  26.928  23.761  1.00  0.00     0.010 A 
ATOM     89  C   UNL A   1      50.233  27.108  22.021  1.00  0.00     0.010 A 
ATOM     90  C   UNL A   1      52.911  27.010  22.793  1.00  0.00     0.020 A 
ATOM     91  C   UNL A   1      51.246  27.187  21.053  1.00  0.00     0.020 A 
ATOM     92  C   UNL A   1      52.582  27.121  21.439  1.00  0.00     0.054 A 
BRANCH  92  93
ATOM     93  S   UNL A   1      53.895  27.081  20.176  1.00  0.00     0.124 S 
ATOM     94  O   UNL A   1      53.992  28.483  19.779  1.00  0.00    -0.237 OA
ATOM     95  O   UNL A   1      55.037  26.556  20.919  1.00  0.00    -0.237 OA
ATOM     96  O   UNL A   1      53.359  26.188  19.149  1.00  0.00    -0.744 OA
ENDBRANCH  92  93
ENDBRANCH  64  87
BRANCH  76  97
ATOM     97  C   UNL A   1      45.029  24.593  25.499  1.00  0.00    -0.014 A 
ATOM     98  C   UNL A   1      44.077  23.964  24.670  1.00  0.00     0.010 A 
ATOM     99  C   UNL A   1      46.053  23.807  26.053  1.00  0.00     0.010 A 
ATOM    100  C   UNL A   1      44.147  22.582  24.419  1.00  0.00     0.020 A 
ATOM    101  C   UNL A   1      46.139  22.439  25.794  1.00  0.00     0.020 A 
ATOM    102  C   UNL A   1      45.182  21.829  24.983  1.00  0.00     0.054 A 
BRANCH 102 103
ATOM    103  S   UNL A   1      45.307  20.054  24.622  1.00  0.00     0.124 S 
ATOM    104  O   UNL A   1      46.748  19.855  24.498  1.00  0.00    -0.237 OA
ATOM    105  O   UNL A   1      44.686  19.439  25.793  1.00  0.00    -0.237 OA
ATOM    106  O   UNL A   1      44.553  19.898  23.378  1.00  0.00    -0.744 OA
ENDBRANCH 102 103
ENDBRANCH  76  97
ENDBRANCH  50  51
ENDBRANCH  42  45
ENDBRANCH  40  41
ENDBRANCH  39  40
ENDBRANCH  38  39
ENDBRANCH   1  38
TORSDOF 22
ENDMDL
