MODEL 1
REMARK VINA RESULT:     -10.3      0.000      0.000
REMARK SMILES COc1ccc2cc([C@@H](O)[C@H](F)C(=O)NCCCCCCNC(=O)c3ccc(-c4c5nc(c(-c6ccc(S(=O)(=O)[O-])cc6)c6ccc([nH]6)c(-c6ccc(S(=O)(=O)[O-])cc6)c6nc(c(-c7ccc(S(=O)(=O)[O-])cc7)c7ccc4[nH]7)C=C6)C=C5)cc3)ccc2c1
REMARK SMILES IDX 18 1 17 2 16 3 15 4 13 5 14 6 11 8 12 9 9 10 8 11 3 12 4 13
REMARK SMILES IDX 88 14 5 15 87 16 6 17 86 18 7 19 85 20 2 21 1 22 10 23 19 25
REMARK SMILES IDX 20 26 21 27 22 28 23 29 24 31 25 32 26 33 84 34 27 35 83 36
REMARK SMILES IDX 28 37 29 38 30 39 77 40 31 41 82 42 76 43 78 44 32 45 81 46
REMARK SMILES IDX 75 47 74 48 33 50 63 51 44 52 62 53 45 54 48 55 61 56 79 57
REMARK SMILES IDX 46 58 47 59 60 61 80 62 49 63 34 64 35 65 43 66 36 67 42 68
REMARK SMILES IDX 37 69 38 70 39 71 40 72 41 73 64 74 65 75 73 76 66 77 72 78
REMARK SMILES IDX 67 79 68 80 69 81 70 82 71 83 50 84 51 85 59 86 52 87 58 88
REMARK SMILES IDX 53 89 54 90 55 91 56 92 57 93
REMARK H PARENT 15 7 10 24 22 30 78 49 48 60
REMARK Flexibility Score: inf
ROOT
ATOM      1  C   UNL A   1      30.696  27.860  24.481  1.00  0.00     0.002 C 
ENDROOT
BRANCH   1   2
ATOM      2  C   UNL A   1      30.413  26.355  24.474  1.00  0.00     0.021 C 
BRANCH   2   3
ATOM      3  C   UNL A   1      30.110  25.770  25.848  1.00  0.00     0.116 C 
BRANCH   3   4
ATOM      4  N   UNL A   1      30.025  24.321  25.801  1.00  0.00    -0.353 N 
ATOM      5  C   UNL A   1      31.022  23.413  26.009  1.00  0.00     0.257 C 
ATOM      6  O   UNL A   1      30.747  22.214  25.930  1.00  0.00    -0.272 OA
ATOM      7  H   UNL A   1      29.138  23.948  25.592  1.00  0.00     0.163 HD
BRANCH   5   8
ATOM      8  C   UNL A   1      32.409  23.890  26.408  1.00  0.00     0.288 C 
ATOM      9  F   UNL A   1      32.995  23.072  27.332  1.00  0.00    -0.234 F 
BRANCH   8  10
ATOM     10  C   UNL A   1      33.284  24.024  25.139  1.00  0.00     0.188 C 
BRANCH  10  11
ATOM     11  C   UNL A   1      34.592  23.283  25.289  1.00  0.00    -0.015 A 
ATOM     12  C   UNL A   1      39.418  21.984  26.068  1.00  0.00     0.119 A 
ATOM     13  C   UNL A   1      39.291  23.287  26.544  1.00  0.00     0.047 A 
ATOM     14  C   UNL A   1      38.322  21.333  25.501  1.00  0.00     0.055 A 
ATOM     15  C   UNL A   1      38.053  23.928  26.492  1.00  0.00     0.012 A 
ATOM     16  C   UNL A   1      37.072  21.965  25.441  1.00  0.00    -0.015 A 
ATOM     17  C   UNL A   1      36.938  23.277  25.947  1.00  0.00    -0.018 A 
ATOM     18  C   UNL A   1      35.956  21.323  24.882  1.00  0.00     0.009 A 
ATOM     19  C   UNL A   1      35.696  23.917  25.878  1.00  0.00     0.015 A 
ATOM     20  C   UNL A   1      34.728  21.979  24.802  1.00  0.00     0.007 A 
BRANCH  12  21
ATOM     21  O   UNL A   1      40.601  21.298  26.066  1.00  0.00    -0.497 OA
ATOM     22  C   UNL A   1      40.781  20.504  27.236  1.00  0.00     0.278 C 
ENDBRANCH  12  21
ENDBRANCH  10  11
BRANCH  10  23
ATOM     23  O   UNL A   1      32.619  23.558  23.959  1.00  0.00    -0.385 OA
ATOM     24  H   UNL A   1      32.126  22.748  24.164  1.00  0.00     0.211 HD
ENDBRANCH  10  23
ENDBRANCH   8  10
ENDBRANCH   5   8
ENDBRANCH   3   4
ENDBRANCH   2   3
ENDBRANCH   1   2
BRANCH   1  25
ATOM     25  C   UNL A   1      31.750  28.316  25.495  1.00  0.00     0.002 C 
BRANCH  25  26
ATOM     26  C   UNL A   1      33.138  27.701  25.307  1.00  0.00     0.021 C 
BRANCH  26  27
ATOM     27  C   UNL A   1      34.224  28.303  26.190  1.00  0.00     0.116 C 
BRANCH  27  28
ATOM     28  N   UNL A   1      33.982  29.707  26.477  1.00  0.00    -0.352 N 
ATOM     29  C   UNL A   1      34.634  30.536  27.354  1.00  0.00     0.251 C 
ATOM     30  H   UNL A   1      33.246  30.122  25.972  1.00  0.00     0.163 HD
ATOM     31  O   UNL A   1      34.173  31.647  27.608  1.00  0.00    -0.269 OA
BRANCH  29  32
ATOM     32  C   UNL A   1      35.879  30.080  28.006  1.00  0.00     0.039 A 
ATOM     33  C   UNL A   1      37.087  30.201  27.317  1.00  0.00     0.014 A 
ATOM     34  C   UNL A   1      35.855  29.541  29.295  1.00  0.00     0.014 A 
ATOM     35  C   UNL A   1      38.279  29.833  27.944  1.00  0.00     0.010 A 
ATOM     36  C   UNL A   1      37.051  29.251  29.947  1.00  0.00     0.010 A 
ATOM     37  C   UNL A   1      38.275  29.387  29.276  1.00  0.00    -0.014 A 
BRANCH  37  38
ATOM     38  C   UNL A   1      39.541  29.065  29.982  1.00  0.00     0.031 A 
ATOM     39  C   UNL A   1      39.960  29.855  31.192  1.00  0.00     0.074 A 
ATOM     40  C   UNL A   1      40.350  28.106  29.491  1.00  0.00     0.049 A 
ATOM     41  N   UNL A   1      41.048  29.747  31.910  1.00  0.00    -0.248 NA
ATOM     42  C   UNL A   1      39.052  30.925  31.634  1.00  0.00     0.031 C 
ATOM     43  C   UNL A   1      40.085  27.309  28.291  1.00  0.00     0.029 A 
ATOM     44  N   UNL A   1      41.567  27.649  29.931  1.00  0.00    -0.354 N 
ATOM     45  C   UNL A   1      40.965  30.746  32.874  1.00  0.00     0.074 A 
ATOM     46  C   UNL A   1      39.748  31.482  32.612  1.00  0.00     0.031 C 
ATOM     47  C   UNL A   1      41.099  26.450  28.101  1.00  0.00     0.029 A 
ATOM     48  C   UNL A   1      42.105  26.663  29.137  1.00  0.00     0.049 A 
ATOM     49  H   UNL A   1      42.013  27.994  30.738  1.00  0.00     0.167 HD
ATOM     50  C   UNL A   1      41.816  31.016  33.893  1.00  0.00     0.031 A 
ATOM     51  C   UNL A   1      43.282  26.012  29.220  1.00  0.00     0.031 A 
ATOM     52  C   UNL A   1      43.031  30.282  34.142  1.00  0.00     0.049 A 
ATOM     53  C   UNL A   1      44.213  26.322  30.358  1.00  0.00     0.074 A 
ATOM     54  C   UNL A   1      43.926  30.431  35.186  1.00  0.00     0.029 A 
ATOM     55  N   UNL A   1      43.528  29.275  33.330  1.00  0.00    -0.354 N 
ATOM     56  N   UNL A   1      44.074  27.208  31.315  1.00  0.00    -0.248 NA
ATOM     57  C   UNL A   1      45.452  25.537  30.435  1.00  0.00     0.031 C 
ATOM     58  C   UNL A   1      45.000  29.561  34.967  1.00  0.00     0.029 A 
ATOM     59  C   UNL A   1      44.738  28.816  33.828  1.00  0.00     0.049 A 
ATOM     60  H   UNL A   1      43.088  28.934  32.518  1.00  0.00     0.167 HD
ATOM     61  C   UNL A   1      45.199  27.073  32.123  1.00  0.00     0.074 A 
ATOM     62  C   UNL A   1      45.997  26.008  31.549  1.00  0.00     0.031 C 
ATOM     63  C   UNL A   1      45.535  27.767  33.240  1.00  0.00     0.031 A 
BRANCH  50  64
ATOM     64  C   UNL A   1      41.473  32.178  34.792  1.00  0.00    -0.014 A 
ATOM     65  C   UNL A   1      40.636  32.018  35.913  1.00  0.00     0.010 A 
ATOM     66  C   UNL A   1      41.994  33.454  34.511  1.00  0.00     0.010 A 
ATOM     67  C   UNL A   1      40.270  33.121  36.689  1.00  0.00     0.020 A 
ATOM     68  C   UNL A   1      41.661  34.554  35.306  1.00  0.00     0.020 A 
ATOM     69  C   UNL A   1      40.778  34.385  36.375  1.00  0.00     0.054 A 
BRANCH  69  70
ATOM     70  S   UNL A   1      40.270  35.802  37.385  1.00  0.00     0.124 S 
ATOM     71  O   UNL A   1      39.299  35.193  38.291  1.00  0.00    -0.237 OA
ATOM     72  O   UNL A   1      41.525  36.223  38.001  1.00  0.00    -0.237 OA
ATOM     73  O   UNL A   1      39.712  36.739  36.412  1.00  0.00    -0.744 OA
ENDBRANCH  69  70
ENDBRANCH  50  64
BRANCH  51  74
ATOM     74  C   UNL A   1      43.627  25.001  28.183  1.00  0.00    -0.014 A 
ATOM     75  C   UNL A   1      43.127  23.690  28.259  1.00  0.00     0.010 A 
ATOM     76  C   UNL A   1      44.407  25.372  27.072  1.00  0.00     0.010 A 
ATOM     77  C   UNL A   1      43.396  22.770  27.241  1.00  0.00     0.020 A 
ATOM     78  C   UNL A   1      44.654  24.465  26.039  1.00  0.00     0.020 A 
ATOM     79  C   UNL A   1      44.148  23.168  26.131  1.00  0.00     0.054 A 
BRANCH  79  80
ATOM     80  S   UNL A   1      44.399  21.987  24.774  1.00  0.00     0.124 S 
ATOM     81  O   UNL A   1      45.854  21.943  24.674  1.00  0.00    -0.237 OA
ATOM     82  O   UNL A   1      43.762  20.777  25.290  1.00  0.00    -0.237 OA
ATOM     83  O   UNL A   1      43.710  22.611  23.647  1.00  0.00    -0.744 OA
ENDBRANCH  79  80
ENDBRANCH  51  74
BRANCH  63  84
ATOM     84  C   UNL A   1      46.816  27.385  33.935  1.00  0.00    -0.014 A 
ATOM     85  C   UNL A   1      46.848  26.376  34.914  1.00  0.00     0.010 A 
ATOM     86  C   UNL A   1      48.020  28.009  33.558  1.00  0.00     0.010 A 
ATOM     87  C   UNL A   1      48.053  26.020  35.525  1.00  0.00     0.020 A 
ATOM     88  C   UNL A   1      49.232  27.634  34.143  1.00  0.00     0.020 A 
ATOM     89  C   UNL A   1      49.239  26.651  35.133  1.00  0.00     0.054 A 
BRANCH  89  90
ATOM     90  S   UNL A   1      50.796  26.140  35.909  1.00  0.00     0.124 S 
ATOM     91  O   UNL A   1      50.342  25.639  37.203  1.00  0.00    -0.237 OA
ATOM     92  O   UNL A   1      51.297  25.126  34.983  1.00  0.00    -0.237 OA
ATOM     93  O   UNL A   1      51.581  27.371  35.959  1.00  0.00    -0.744 OA
ENDBRANCH  89  90
ENDBRANCH  63  84
ENDBRANCH  37  38
ENDBRANCH  29  32
ENDBRANCH  27  28
ENDBRANCH  26  27
ENDBRANCH  25  26
ENDBRANCH   1  25
TORSDOF 20
ENDMDL
MODEL 2
REMARK VINA RESULT:     -10.3      1.593      2.524
REMARK SMILES COc1ccc2cc([C@@H](O)[C@H](F)C(=O)NCCCCCCNC(=O)c3ccc(-c4c5nc(c(-c6ccc(S(=O)(=O)[O-])cc6)c6ccc([nH]6)c(-c6ccc(S(=O)(=O)[O-])cc6)c6nc(c(-c7ccc(S(=O)(=O)[O-])cc7)c7ccc4[nH]7)C=C6)C=C5)cc3)ccc2c1
REMARK SMILES IDX 18 1 17 2 16 3 15 4 13 5 14 6 11 8 12 9 9 10 8 11 3 12 4 13
REMARK SMILES IDX 88 14 5 15 87 16 6 17 86 18 7 19 85 20 2 21 1 22 10 23 19 25
REMARK SMILES IDX 20 26 21 27 22 28 23 29 24 31 25 32 26 33 84 34 27 35 83 36
REMARK SMILES IDX 28 37 29 38 30 39 77 40 31 41 82 42 76 43 78 44 32 45 81 46
REMARK SMILES IDX 75 47 74 48 33 50 63 51 44 52 62 53 45 54 48 55 61 56 79 57
REMARK SMILES IDX 46 58 47 59 60 61 80 62 49 63 34 64 35 65 43 66 36 67 42 68
REMARK SMILES IDX 37 69 38 70 39 71 40 72 41 73 64 74 65 75 73 76 66 77 72 78
REMARK SMILES IDX 67 79 68 80 69 81 70 82 71 83 50 84 51 85 59 86 52 87 58 88
REMARK SMILES IDX 53 89 54 90 55 91 56 92 57 93
REMARK H PARENT 15 7 10 24 22 30 78 49 48 60
REMARK Flexibility Score: inf
ROOT
ATOM      1  C   UNL A   1      30.532  27.953  24.297  1.00  0.00     0.002 C 
ENDROOT
BRANCH   1   2
ATOM      2  C   UNL A   1      30.395  26.451  24.566  1.00  0.00     0.021 C 
BRANCH   2   3
ATOM      3  C   UNL A   1      30.414  26.077  26.042  1.00  0.00     0.116 C 
BRANCH   3   4
ATOM      4  N   UNL A   1      29.905  24.734  26.255  1.00  0.00    -0.353 N 
ATOM      5  C   UNL A   1      30.607  23.566  26.305  1.00  0.00     0.257 C 
ATOM      6  O   UNL A   1      29.988  22.518  26.504  1.00  0.00    -0.272 OA
ATOM      7  H   UNL A   1      28.930  24.657  26.378  1.00  0.00     0.163 HD
BRANCH   5   8
ATOM      8  C   UNL A   1      32.123  23.589  26.199  1.00  0.00     0.288 C 
ATOM      9  F   UNL A   1      32.720  22.739  27.086  1.00  0.00    -0.234 F 
BRANCH   8  10
ATOM     10  C   UNL A   1      32.534  23.264  24.742  1.00  0.00     0.188 C 
BRANCH  10  11
ATOM     11  C   UNL A   1      33.200  21.911  24.646  1.00  0.00    -0.015 A 
ATOM     12  C   UNL A   1      34.202  16.966  24.288  1.00  0.00     0.119 A 
ATOM     13  C   UNL A   1      32.845  17.102  24.006  1.00  0.00     0.047 A 
ATOM     14  C   UNL A   1      34.970  18.087  24.607  1.00  0.00     0.055 A 
ATOM     15  C   UNL A   1      32.261  18.369  24.000  1.00  0.00     0.012 A 
ATOM     16  C   UNL A   1      34.396  19.366  24.606  1.00  0.00    -0.015 A 
ATOM     17  C   UNL A   1      33.025  19.506  24.294  1.00  0.00    -0.018 A 
ATOM     18  C   UNL A   1      35.154  20.505  24.915  1.00  0.00     0.009 A 
ATOM     19  C   UNL A   1      32.445  20.778  24.305  1.00  0.00     0.015 A 
ATOM     20  C   UNL A   1      34.560  21.767  24.940  1.00  0.00     0.007 A 
BRANCH  12  21
ATOM     21  O   UNL A   1      34.841  15.757  24.333  1.00  0.00    -0.497 OA
ATOM     22  C   UNL A   1      35.767  15.663  25.413  1.00  0.00     0.278 C 
ENDBRANCH  12  21
ENDBRANCH  10  11
BRANCH  10  23
ATOM     23  O   UNL A   1      31.427  23.303  23.835  1.00  0.00    -0.385 OA
ATOM     24  H   UNL A   1      30.999  24.172  23.884  1.00  0.00     0.211 HD
ENDBRANCH  10  23
ENDBRANCH   8  10
ENDBRANCH   5   8
ENDBRANCH   3   4
ENDBRANCH   2   3
ENDBRANCH   1   2
BRANCH   1  25
ATOM     25  C   UNL A   1      31.604  28.665  25.128  1.00  0.00     0.002 C 
BRANCH  25  26
ATOM     26  C   UNL A   1      33.038  28.195  24.872  1.00  0.00     0.021 C 
BRANCH  26  27
ATOM     27  C   UNL A   1      34.062  28.702  25.880  1.00  0.00     0.116 C 
BRANCH  27  28
ATOM     28  N   UNL A   1      33.764  30.051  26.332  1.00  0.00    -0.352 N 
ATOM     29  C   UNL A   1      34.352  30.776  27.338  1.00  0.00     0.251 C 
ATOM     30  H   UNL A   1      33.039  30.509  25.850  1.00  0.00     0.163 HD
ATOM     31  O   UNL A   1      33.846  31.833  27.710  1.00  0.00    -0.269 OA
BRANCH  29  32
ATOM     32  C   UNL A   1      35.581  30.270  27.985  1.00  0.00     0.039 A 
ATOM     33  C   UNL A   1      36.809  30.467  27.351  1.00  0.00     0.014 A 
ATOM     34  C   UNL A   1      35.521  29.610  29.216  1.00  0.00     0.014 A 
ATOM     35  C   UNL A   1      37.984  30.051  27.980  1.00  0.00     0.010 A 
ATOM     36  C   UNL A   1      36.698  29.270  29.876  1.00  0.00     0.010 A 
ATOM     37  C   UNL A   1      37.941  29.479  29.263  1.00  0.00    -0.014 A 
BRANCH  37  38
ATOM     38  C   UNL A   1      39.188  29.102  29.977  1.00  0.00     0.031 A 
ATOM     39  C   UNL A   1      39.612  29.848  31.212  1.00  0.00     0.074 A 
ATOM     40  C   UNL A   1      39.975  28.132  29.472  1.00  0.00     0.049 A 
ATOM     41  N   UNL A   1      40.687  29.690  31.942  1.00  0.00    -0.248 NA
ATOM     42  C   UNL A   1      38.730  30.932  31.669  1.00  0.00     0.031 C 
ATOM     43  C   UNL A   1      39.704  27.375  28.248  1.00  0.00     0.029 A 
ATOM     44  N   UNL A   1      41.173  27.629  29.916  1.00  0.00    -0.354 N 
ATOM     45  C   UNL A   1      40.620  30.665  32.931  1.00  0.00     0.074 A 
ATOM     46  C   UNL A   1      39.428  31.444  32.672  1.00  0.00     0.031 C 
ATOM     47  C   UNL A   1      40.695  26.492  28.049  1.00  0.00     0.029 A 
ATOM     48  C   UNL A   1      41.692  26.648  29.104  1.00  0.00     0.049 A 
ATOM     49  H   UNL A   1      41.617  27.939  30.737  1.00  0.00     0.167 HD
ATOM     50  C   UNL A   1      41.464  30.884  33.967  1.00  0.00     0.031 A 
ATOM     51  C   UNL A   1      42.848  25.961  29.185  1.00  0.00     0.031 A 
ATOM     52  C   UNL A   1      42.653  30.109  34.213  1.00  0.00     0.049 A 
ATOM     53  C   UNL A   1      43.772  26.214  30.343  1.00  0.00     0.074 A 
ATOM     54  C   UNL A   1      43.537  30.204  35.272  1.00  0.00     0.029 A 
ATOM     55  N   UNL A   1      43.132  29.108  33.381  1.00  0.00    -0.354 N 
ATOM     56  N   UNL A   1      43.646  27.078  31.321  1.00  0.00    -0.248 NA
ATOM     57  C   UNL A   1      44.986  25.391  30.416  1.00  0.00     0.031 C 
ATOM     58  C   UNL A   1      44.588  29.309  35.045  1.00  0.00     0.029 A 
ATOM     59  C   UNL A   1      44.321  28.602  33.884  1.00  0.00     0.049 A 
ATOM     60  H   UNL A   1      42.693  28.801  32.555  1.00  0.00     0.167 HD
ATOM     61  C   UNL A   1      44.755  26.890  32.140  1.00  0.00     0.074 A 
ATOM     62  C   UNL A   1      45.529  25.817  31.549  1.00  0.00     0.031 C 
ATOM     63  C   UNL A   1      45.095  27.545  33.278  1.00  0.00     0.031 A 
BRANCH  50  64
ATOM     64  C   UNL A   1      41.142  32.033  34.891  1.00  0.00    -0.014 A 
ATOM     65  C   UNL A   1      41.545  33.349  34.596  1.00  0.00     0.010 A 
ATOM     66  C   UNL A   1      40.424  31.792  36.077  1.00  0.00     0.010 A 
ATOM     67  C   UNL A   1      41.302  34.386  35.500  1.00  0.00     0.020 A 
ATOM     68  C   UNL A   1      40.146  32.833  36.968  1.00  0.00     0.020 A 
ATOM     69  C   UNL A   1      40.612  34.119  36.686  1.00  0.00     0.054 A 
BRANCH  69  70
ATOM     70  S   UNL A   1      40.329  35.478  37.853  1.00  0.00     0.124 S 
ATOM     71  O   UNL A   1      40.158  36.616  36.953  1.00  0.00    -0.237 OA
ATOM     72  O   UNL A   1      39.124  35.050  38.558  1.00  0.00    -0.237 OA
ATOM     73  O   UNL A   1      41.546  35.501  38.661  1.00  0.00    -0.744 OA
ENDBRANCH  69  70
ENDBRANCH  50  64
BRANCH  51  74
ATOM     74  C   UNL A   1      43.179  24.967  28.127  1.00  0.00    -0.014 A 
ATOM     75  C   UNL A   1      43.991  25.318  27.035  1.00  0.00     0.010 A 
ATOM     76  C   UNL A   1      42.734  23.637  28.249  1.00  0.00     0.010 A 
ATOM     77  C   UNL A   1      44.356  24.357  26.088  1.00  0.00     0.020 A 
ATOM     78  C   UNL A   1      43.121  22.668  27.321  1.00  0.00     0.020 A 
ATOM     79  C   UNL A   1      43.929  23.034  26.243  1.00  0.00     0.054 A 
BRANCH  79  80
ATOM     80  S   UNL A   1      44.499  21.784  25.057  1.00  0.00     0.124 S 
ATOM     81  O   UNL A   1      45.889  21.595  25.458  1.00  0.00    -0.237 OA
ATOM     82  O   UNL A   1      43.602  20.663  25.328  1.00  0.00    -0.237 OA
ATOM     83  O   UNL A   1      44.302  22.430  23.761  1.00  0.00    -0.744 OA
ENDBRANCH  79  80
ENDBRANCH  51  74
BRANCH  63  84
ATOM     84  C   UNL A   1      46.355  27.108  33.981  1.00  0.00    -0.014 A 
ATOM     85  C   UNL A   1      47.591  27.725  33.722  1.00  0.00     0.010 A 
ATOM     86  C   UNL A   1      46.286  26.099  34.960  1.00  0.00     0.010 A 
ATOM     87  C   UNL A   1      48.741  27.320  34.407  1.00  0.00     0.020 A 
ATOM     88  C   UNL A   1      47.426  25.715  35.669  1.00  0.00     0.020 A 
ATOM     89  C   UNL A   1      48.650  26.319  35.378  1.00  0.00     0.054 A 
BRANCH  89  90
ATOM     90  S   UNL A   1      50.148  25.843  36.284  1.00  0.00     0.124 S 
ATOM     91  O   UNL A   1      50.746  24.858  35.387  1.00  0.00    -0.237 OA
ATOM     92  O   UNL A   1      50.867  27.109  36.398  1.00  0.00    -0.237 OA
ATOM     93  O   UNL A   1      49.637  25.307  37.543  1.00  0.00    -0.744 OA
ENDBRANCH  89  90
ENDBRANCH  63  84
ENDBRANCH  37  38
ENDBRANCH  29  32
ENDBRANCH  27  28
ENDBRANCH  26  27
ENDBRANCH  25  26
ENDBRANCH   1  25
TORSDOF 20
ENDMDL
MODEL 3
REMARK VINA RESULT:     -10.1      5.097     10.101
REMARK SMILES COc1ccc2cc([C@@H](O)[C@H](F)C(=O)NCCCCCCNC(=O)c3ccc(-c4c5nc(c(-c6ccc(S(=O)(=O)[O-])cc6)c6ccc([nH]6)c(-c6ccc(S(=O)(=O)[O-])cc6)c6nc(c(-c7ccc(S(=O)(=O)[O-])cc7)c7ccc4[nH]7)C=C6)C=C5)cc3)ccc2c1
REMARK SMILES IDX 18 1 17 2 16 3 15 4 13 5 14 6 11 8 12 9 9 10 8 11 3 12 4 13
REMARK SMILES IDX 88 14 5 15 87 16 6 17 86 18 7 19 85 20 2 21 1 22 10 23 19 25
REMARK SMILES IDX 20 26 21 27 22 28 23 29 24 31 25 32 26 33 84 34 27 35 83 36
REMARK SMILES IDX 28 37 29 38 30 39 77 40 31 41 82 42 76 43 78 44 32 45 81 46
REMARK SMILES IDX 75 47 74 48 33 50 63 51 44 52 62 53 45 54 48 55 61 56 79 57
REMARK SMILES IDX 46 58 47 59 60 61 80 62 49 63 34 64 35 65 43 66 36 67 42 68
REMARK SMILES IDX 37 69 38 70 39 71 40 72 41 73 64 74 65 75 73 76 66 77 72 78
REMARK SMILES IDX 67 79 68 80 69 81 70 82 71 83 50 84 51 85 59 86 52 87 58 88
REMARK SMILES IDX 53 89 54 90 55 91 56 92 57 93
REMARK H PARENT 15 7 10 24 22 30 78 49 48 60
REMARK Flexibility Score: inf
ROOT
ATOM      1  C   UNL A   1      36.826  23.016  24.702  1.00  0.00     0.002 C 
ENDROOT
BRANCH   1   2
ATOM      2  C   UNL A   1      36.082  24.033  25.573  1.00  0.00     0.021 C 
BRANCH   2   3
ATOM      3  C   UNL A   1      34.578  23.804  25.655  1.00  0.00     0.116 C 
BRANCH   3   4
ATOM      4  N   UNL A   1      33.839  24.945  25.146  1.00  0.00    -0.353 N 
ATOM      5  C   UNL A   1      33.099  25.026  24.003  1.00  0.00     0.257 C 
ATOM      6  O   UNL A   1      32.536  26.092  23.745  1.00  0.00    -0.272 OA
ATOM      7  H   UNL A   1      33.876  25.762  25.695  1.00  0.00     0.163 HD
BRANCH   5   8
ATOM      8  C   UNL A   1      32.922  23.796  23.127  1.00  0.00     0.288 C 
ATOM      9  F   UNL A   1      34.069  23.059  23.028  1.00  0.00    -0.234 F 
BRANCH   8  10
ATOM     10  C   UNL A   1      31.751  22.946  23.677  1.00  0.00     0.188 C 
BRANCH  10  11
ATOM     11  C   UNL A   1      32.221  21.580  24.120  1.00  0.00    -0.015 A 
ATOM     12  C   UNL A   1      33.369  16.664  24.429  1.00  0.00     0.119 A 
ATOM     13  C   UNL A   1      33.073  16.904  23.089  1.00  0.00     0.047 A 
ATOM     14  C   UNL A   1      33.289  17.697  25.363  1.00  0.00     0.055 A 
ATOM     15  C   UNL A   1      32.737  18.192  22.672  1.00  0.00     0.012 A 
ATOM     16  C   UNL A   1      32.952  18.997  24.958  1.00  0.00    -0.015 A 
ATOM     17  C   UNL A   1      32.677  19.245  23.595  1.00  0.00    -0.018 A 
ATOM     18  C   UNL A   1      32.875  20.051  25.881  1.00  0.00     0.009 A 
ATOM     19  C   UNL A   1      32.327  20.537  23.189  1.00  0.00     0.015 A 
ATOM     20  C   UNL A   1      32.508  21.331  25.466  1.00  0.00     0.007 A 
BRANCH  12  21
ATOM     21  O   UNL A   1      33.686  15.426  24.917  1.00  0.00    -0.497 OA
ATOM     22  C   UNL A   1      32.566  14.756  25.491  1.00  0.00     0.278 C 
ENDBRANCH  12  21
ENDBRANCH  10  11
BRANCH  10  23
ATOM     23  O   UNL A   1      31.075  23.581  24.768  1.00  0.00    -0.385 OA
ATOM     24  H   UNL A   1      30.381  22.992  25.106  1.00  0.00     0.211 HD
ENDBRANCH  10  23
ENDBRANCH   8  10
ENDBRANCH   5   8
ENDBRANCH   3   4
ENDBRANCH   2   3
ENDBRANCH   1   2
BRANCH   1  25
ATOM     25  C   UNL A   1      36.772  21.570  25.205  1.00  0.00     0.002 C 
BRANCH  25  26
ATOM     26  C   UNL A   1      38.053  20.762  24.986  1.00  0.00     0.021 C 
BRANCH  26  27
ATOM     27  C   UNL A   1      39.135  20.992  26.034  1.00  0.00     0.116 C 
BRANCH  27  28
ATOM     28  N   UNL A   1      40.130  19.932  26.035  1.00  0.00    -0.352 N 
ATOM     29  C   UNL A   1      41.498  20.029  26.087  1.00  0.00     0.251 C 
ATOM     30  H   UNL A   1      39.774  19.016  25.993  1.00  0.00     0.163 HD
ATOM     31  O   UNL A   1      42.192  19.035  25.887  1.00  0.00    -0.269 OA
BRANCH  29  32
ATOM     32  C   UNL A   1      42.131  21.336  26.361  1.00  0.00     0.039 A 
ATOM     33  C   UNL A   1      42.393  22.197  25.294  1.00  0.00     0.014 A 
ATOM     34  C   UNL A   1      42.457  21.713  27.667  1.00  0.00     0.014 A 
ATOM     35  C   UNL A   1      42.932  23.461  25.544  1.00  0.00     0.010 A 
ATOM     36  C   UNL A   1      42.918  23.001  27.921  1.00  0.00     0.010 A 
ATOM     37  C   UNL A   1      43.167  23.887  26.862  1.00  0.00    -0.014 A 
BRANCH  37  38
ATOM     38  C   UNL A   1      43.667  25.255  27.149  1.00  0.00     0.031 A 
ATOM     39  C   UNL A   1      45.115  25.598  26.929  1.00  0.00     0.074 A 
ATOM     40  C   UNL A   1      42.830  26.172  27.674  1.00  0.00     0.049 A 
ATOM     41  N   UNL A   1      45.741  26.724  27.163  1.00  0.00    -0.248 NA
ATOM     42  C   UNL A   1      45.979  24.528  26.408  1.00  0.00     0.031 C 
ATOM     43  C   UNL A   1      41.418  25.946  27.989  1.00  0.00     0.029 A 
ATOM     44  N   UNL A   1      43.050  27.473  28.051  1.00  0.00    -0.354 N 
ATOM     45  C   UNL A   1      47.072  26.491  26.837  1.00  0.00     0.074 A 
ATOM     46  C   UNL A   1      47.172  25.102  26.443  1.00  0.00     0.031 C 
ATOM     47  C   UNL A   1      40.894  27.073  28.493  1.00  0.00     0.029 A 
ATOM     48  C   UNL A   1      41.939  28.088  28.579  1.00  0.00     0.049 A 
ATOM     49  H   UNL A   1      43.920  27.924  27.953  1.00  0.00     0.167 HD
ATOM     50  C   UNL A   1      48.114  27.357  26.849  1.00  0.00     0.031 A 
ATOM     51  C   UNL A   1      41.779  29.325  29.091  1.00  0.00     0.031 A 
ATOM     52  C   UNL A   1      48.007  28.737  27.250  1.00  0.00     0.049 A 
ATOM     53  C   UNL A   1      42.944  30.273  29.095  1.00  0.00     0.074 A 
ATOM     54  C   UNL A   1      48.986  29.714  27.233  1.00  0.00     0.029 A 
ATOM     55  N   UNL A   1      46.859  29.328  27.755  1.00  0.00    -0.354 N 
ATOM     56  N   UNL A   1      44.176  30.064  28.696  1.00  0.00    -0.248 NA
ATOM     57  C   UNL A   1      42.695  31.629  29.605  1.00  0.00     0.031 C 
ATOM     58  C   UNL A   1      48.448  30.879  27.793  1.00  0.00     0.029 A 
ATOM     59  C   UNL A   1      47.114  30.649  28.089  1.00  0.00     0.049 A 
ATOM     60  H   UNL A   1      45.990  28.878  27.861  1.00  0.00     0.167 HD
ATOM     61  C   UNL A   1      44.846  31.268  28.886  1.00  0.00     0.074 A 
ATOM     62  C   UNL A   1      43.877  32.203  29.420  1.00  0.00     0.031 C 
ATOM     63  C   UNL A   1      46.146  31.569  28.637  1.00  0.00     0.031 A 
BRANCH  50  64
ATOM     64  C   UNL A   1      49.465  26.820  26.447  1.00  0.00    -0.014 A 
ATOM     65  C   UNL A   1      49.921  26.899  25.117  1.00  0.00     0.010 A 
ATOM     66  C   UNL A   1      50.294  26.224  27.415  1.00  0.00     0.010 A 
ATOM     67  C   UNL A   1      51.144  26.330  24.751  1.00  0.00     0.020 A 
ATOM     68  C   UNL A   1      51.534  25.685  27.060  1.00  0.00     0.020 A 
ATOM     69  C   UNL A   1      51.939  25.717  25.724  1.00  0.00     0.054 A 
BRANCH  69  70
ATOM     70  S   UNL A   1      53.509  24.966  25.218  1.00  0.00     0.124 S 
ATOM     71  O   UNL A   1      53.698  25.534  23.885  1.00  0.00    -0.237 OA
ATOM     72  O   UNL A   1      54.437  25.444  26.240  1.00  0.00    -0.237 OA
ATOM     73  O   UNL A   1      53.236  23.532  25.251  1.00  0.00    -0.744 OA
ENDBRANCH  69  70
ENDBRANCH  50  64
BRANCH  51  74
ATOM     74  C   UNL A   1      40.451  29.718  29.637  1.00  0.00    -0.014 A 
ATOM     75  C   UNL A   1      40.211  29.718  31.021  1.00  0.00     0.010 A 
ATOM     76  C   UNL A   1      39.438  30.165  28.767  1.00  0.00     0.010 A 
ATOM     77  C   UNL A   1      38.986  30.161  31.527  1.00  0.00     0.020 A 
ATOM     78  C   UNL A   1      38.223  30.636  29.270  1.00  0.00     0.020 A 
ATOM     79  C   UNL A   1      38.003  30.629  30.648  1.00  0.00     0.054 A 
BRANCH  79  80
ATOM     80  S   UNL A   1      36.459  31.294  31.334  1.00  0.00     0.124 S 
ATOM     81  O   UNL A   1      35.653  31.493  30.135  1.00  0.00    -0.237 OA
ATOM     82  O   UNL A   1      36.022  30.218  32.221  1.00  0.00    -0.237 OA
ATOM     83  O   UNL A   1      36.886  32.515  32.013  1.00  0.00    -0.744 OA
ENDBRANCH  79  80
ENDBRANCH  51  74
BRANCH  63  84
ATOM     84  C   UNL A   1      46.598  32.979  28.919  1.00  0.00    -0.014 A 
ATOM     85  C   UNL A   1      47.068  33.359  30.189  1.00  0.00     0.010 A 
ATOM     86  C   UNL A   1      46.607  33.924  27.876  1.00  0.00     0.010 A 
ATOM     87  C   UNL A   1      47.509  34.665  30.418  1.00  0.00     0.020 A 
ATOM     88  C   UNL A   1      47.078  35.221  28.092  1.00  0.00     0.020 A 
ATOM     89  C   UNL A   1      47.512  35.588  29.367  1.00  0.00     0.054 A 
BRANCH  89  90
ATOM     90  S   UNL A   1      48.130  37.264  29.679  1.00  0.00     0.124 S 
ATOM     91  O   UNL A   1      48.397  37.228  31.114  1.00  0.00    -0.237 OA
ATOM     92  O   UNL A   1      49.311  37.334  28.821  1.00  0.00    -0.237 OA
ATOM     93  O   UNL A   1      47.022  38.125  29.274  1.00  0.00    -0.744 OA
ENDBRANCH  89  90
ENDBRANCH  63  84
ENDBRANCH  37  38
ENDBRANCH  29  32
ENDBRANCH  27  28
ENDBRANCH  26  27
ENDBRANCH  25  26
ENDBRANCH   1  25
TORSDOF 20
ENDMDL
