MODEL 1
REMARK VINA RESULT:      -9.4      0.000      0.000
REMARK SMILES C[C@@H]1CN(S(=O)(=O)c2cccc(C(=O)N3CCC[C@@H]3C(=O)NCCCCCCNC(=O)c3ccc(-c4c5nc(c(-c6ccc(S(=O)(=O)[O-])cc6)c6ccc([nH]6)c(-c6ccc(S(=O)(=O)[O-])cc6)c6nc(c(-c7ccc(S(=O)(=O)[O-])cc7)c7ccc4[nH]7)C=C6)C=C5)cc3)c2)C[C@H](C)O1
REMARK SMILES IDX 25 1 24 2 23 3 22 4 20 5 21 6 19 8 15 9 16 10 17 11 18 12
REMARK SMILES IDX 13 13 14 14 12 15 8 16 9 17 92 18 10 19 11 20 5 21 6 22 7 23
REMARK SMILES IDX 4 24 1 25 2 26 3 27 96 28 94 29 93 30 95 31 26 32 27 33
REMARK SMILES IDX 28 34 29 35 30 36 31 38 32 39 33 40 91 41 34 42 90 43 35 44
REMARK SMILES IDX 36 45 37 46 84 47 38 48 89 49 83 50 85 51 39 52 88 53 82 54
REMARK SMILES IDX 81 55 40 57 70 58 51 59 69 60 52 61 55 62 68 63 86 64 53 65
REMARK SMILES IDX 54 66 67 68 87 69 56 70 41 71 42 72 50 73 43 74 49 75 44 76
REMARK SMILES IDX 45 77 46 78 47 79 48 80 71 81 72 82 80 83 73 84 79 85 74 86
REMARK SMILES IDX 75 87 76 88 77 89 78 90 57 91 58 92 66 93 59 94 65 95 60 96
REMARK SMILES IDX 61 97 62 98 63 99 64 100
REMARK H PARENT 22 7 29 37 85 56 55 67
REMARK Flexibility Score: inf
ROOT
ATOM      1  C   UNL A   1      41.219  28.040  26.569  1.00  0.00     0.002 C 
ENDROOT
BRANCH   1   2
ATOM      2  C   UNL A   1      41.430  26.786  25.706  1.00  0.00     0.021 C 
BRANCH   2   3
ATOM      3  C   UNL A   1      42.744  26.018  25.888  1.00  0.00     0.116 C 
BRANCH   3   4
ATOM      4  N   UNL A   1      42.743  24.785  25.124  1.00  0.00    -0.354 N 
ATOM      5  C   UNL A   1      43.071  23.507  25.468  1.00  0.00     0.242 C 
ATOM      6  O   UNL A   1      43.226  22.713  24.531  1.00  0.00    -0.273 OA
ATOM      7  H   UNL A   1      42.455  24.890  24.188  1.00  0.00     0.163 HD
BRANCH   5   8
ATOM      8  C   UNL A   1      43.427  23.064  26.904  1.00  0.00     0.174 C 
ATOM      9  N   UNL A   1      42.357  22.923  27.887  1.00  0.00    -0.327 N 
ATOM     10  C   UNL A   1      42.953  23.060  29.206  1.00  0.00     0.121 C 
ATOM     11  C   UNL A   1      43.886  24.236  29.006  1.00  0.00     0.024 C 
ATOM     12  C   UNL A   1      44.416  24.034  27.581  1.00  0.00     0.037 C 
BRANCH   9  13
ATOM     13  C   UNL A   1      41.305  22.065  27.610  1.00  0.00     0.254 C 
ATOM     14  O   UNL A   1      41.432  20.844  27.646  1.00  0.00    -0.269 OA
BRANCH  13  15
ATOM     15  C   UNL A   1      40.064  22.665  27.023  1.00  0.00     0.041 A 
ATOM     16  C   UNL A   1      37.968  22.509  25.807  1.00  0.00     0.083 A 
ATOM     17  C   UNL A   1      37.676  23.841  26.111  1.00  0.00     0.022 A 
ATOM     18  C   UNL A   1      39.141  21.924  26.281  1.00  0.00     0.035 A 
ATOM     19  C   UNL A   1      38.585  24.589  26.863  1.00  0.00     0.002 A 
ATOM     20  C   UNL A   1      39.778  24.009  27.302  1.00  0.00     0.014 A 
BRANCH  16  21
ATOM     21  S   UNL A   1      37.024  21.646  24.567  1.00  0.00     0.243 S 
ATOM     22  O   UNL A   1      37.554  20.300  24.509  1.00  0.00    -0.207 OA
ATOM     23  O   UNL A   1      37.004  22.501  23.400  1.00  0.00    -0.207 OA
BRANCH  21  24
ATOM     24  N   UNL A   1      35.413  21.531  25.137  1.00  0.00    -0.193 NA
ATOM     25  C   UNL A   1      32.857  22.495  27.615  1.00  0.00     0.040 C 
ATOM     26  C   UNL A   1      33.833  21.403  27.194  1.00  0.00     0.130 C 
ATOM     27  C   UNL A   1      35.134  21.964  26.541  1.00  0.00     0.134 C 
ATOM     28  O   UNL A   1      33.075  20.406  26.513  1.00  0.00    -0.373 OA
ATOM     29  C   UNL A   1      33.384  20.165  25.142  1.00  0.00     0.130 C 
ATOM     30  C   UNL A   1      34.884  20.143  24.915  1.00  0.00     0.134 C 
ATOM     31  C   UNL A   1      32.693  21.166  24.227  1.00  0.00     0.040 C 
ENDBRANCH  21  24
ENDBRANCH  16  21
ENDBRANCH  13  15
ENDBRANCH   9  13
ENDBRANCH   5   8
ENDBRANCH   3   4
ENDBRANCH   2   3
ENDBRANCH   1   2
BRANCH   1  32
ATOM     32  C   UNL A   1      40.086  28.015  27.615  1.00  0.00     0.002 C 
BRANCH  32  33
ATOM     33  C   UNL A   1      39.142  29.229  27.693  1.00  0.00     0.021 C 
BRANCH  33  34
ATOM     34  C   UNL A   1      37.696  28.966  28.157  1.00  0.00     0.116 C 
BRANCH  34  35
ATOM     35  N   UNL A   1      37.352  29.666  29.388  1.00  0.00    -0.352 N 
ATOM     36  C   UNL A   1      38.034  29.945  30.554  1.00  0.00     0.251 C 
ATOM     37  H   UNL A   1      36.432  30.016  29.388  1.00  0.00     0.163 HD
ATOM     38  O   UNL A   1      37.391  30.481  31.459  1.00  0.00    -0.269 OA
BRANCH  36  39
ATOM     39  C   UNL A   1      39.469  29.618  30.815  1.00  0.00     0.039 A 
ATOM     40  C   UNL A   1      39.784  28.282  31.111  1.00  0.00     0.014 A 
ATOM     41  C   UNL A   1      40.499  30.560  30.881  1.00  0.00     0.014 A 
ATOM     42  C   UNL A   1      41.103  27.885  31.401  1.00  0.00     0.010 A 
ATOM     43  C   UNL A   1      41.835  30.148  31.103  1.00  0.00     0.010 A 
ATOM     44  C   UNL A   1      42.163  28.803  31.364  1.00  0.00    -0.014 A 
BRANCH  44  45
ATOM     45  C   UNL A   1      43.579  28.351  31.605  1.00  0.00     0.031 A 
ATOM     46  C   UNL A   1      44.109  28.121  33.006  1.00  0.00     0.074 A 
ATOM     47  C   UNL A   1      44.426  28.131  30.573  1.00  0.00     0.049 A 
ATOM     48  N   UNL A   1      45.298  27.714  33.385  1.00  0.00    -0.248 NA
ATOM     49  C   UNL A   1      43.193  28.394  34.121  1.00  0.00     0.031 C 
ATOM     50  C   UNL A   1      44.108  28.312  29.156  1.00  0.00     0.029 A 
ATOM     51  N   UNL A   1      45.735  27.695  30.557  1.00  0.00    -0.354 N 
ATOM     52  C   UNL A   1      45.279  27.702  34.777  1.00  0.00     0.074 A 
ATOM     53  C   UNL A   1      43.970  28.180  35.174  1.00  0.00     0.031 C 
ATOM     54  C   UNL A   1      45.173  27.963  28.413  1.00  0.00     0.029 A 
ATOM     55  C   UNL A   1      46.266  27.557  29.294  1.00  0.00     0.049 A 
ATOM     56  H   UNL A   1      46.246  27.499  31.377  1.00  0.00     0.167 HD
ATOM     57  C   UNL A   1      46.240  27.316  35.653  1.00  0.00     0.031 A 
ATOM     58  C   UNL A   1      47.481  27.147  28.873  1.00  0.00     0.031 A 
ATOM     59  C   UNL A   1      47.539  26.807  35.298  1.00  0.00     0.049 A 
ATOM     60  C   UNL A   1      48.535  26.722  29.862  1.00  0.00     0.074 A 
ATOM     61  C   UNL A   1      48.537  26.340  36.140  1.00  0.00     0.029 A 
ATOM     62  N   UNL A   1      48.026  26.692  34.008  1.00  0.00    -0.354 N 
ATOM     63  N   UNL A   1      48.463  26.667  31.169  1.00  0.00    -0.248 NA
ATOM     64  C   UNL A   1      49.833  26.293  29.314  1.00  0.00     0.031 C 
ATOM     65  C   UNL A   1      49.642  25.980  35.360  1.00  0.00     0.029 A 
ATOM     66  C   UNL A   1      49.315  26.182  34.031  1.00  0.00     0.049 A 
ATOM     67  H   UNL A   1      47.530  26.937  33.193  1.00  0.00     0.167 HD
ATOM     68  C   UNL A   1      49.694  26.173  31.594  1.00  0.00     0.074 A 
ATOM     69  C   UNL A   1      50.489  25.937  30.410  1.00  0.00     0.031 C 
ATOM     70  C   UNL A   1      50.117  25.938  32.860  1.00  0.00     0.031 A 
BRANCH  57  71
ATOM     71  C   UNL A   1      45.921  27.435  37.121  1.00  0.00    -0.014 A 
ATOM     72  C   UNL A   1      46.210  28.614  37.831  1.00  0.00     0.010 A 
ATOM     73  C   UNL A   1      45.283  26.372  37.786  1.00  0.00     0.010 A 
ATOM     74  C   UNL A   1      45.913  28.709  39.192  1.00  0.00     0.020 A 
ATOM     75  C   UNL A   1      44.963  26.473  39.143  1.00  0.00     0.020 A 
ATOM     76  C   UNL A   1      45.300  27.633  39.842  1.00  0.00     0.054 A 
BRANCH  76  77
ATOM     77  S   UNL A   1      44.925  27.780  41.611  1.00  0.00     0.124 S 
ATOM     78  O   UNL A   1      44.193  29.043  41.656  1.00  0.00    -0.237 OA
ATOM     79  O   UNL A   1      44.130  26.583  41.875  1.00  0.00    -0.237 OA
ATOM     80  O   UNL A   1      46.242  27.800  42.242  1.00  0.00    -0.744 OA
ENDBRANCH  76  77
ENDBRANCH  57  71
BRANCH  58  81
ATOM     81  C   UNL A   1      47.783  27.094  27.415  1.00  0.00    -0.014 A 
ATOM     82  C   UNL A   1      48.337  28.211  26.763  1.00  0.00     0.010 A 
ATOM     83  C   UNL A   1      47.498  25.937  26.669  1.00  0.00     0.010 A 
ATOM     84  C   UNL A   1      48.586  28.177  25.388  1.00  0.00     0.020 A 
ATOM     85  C   UNL A   1      47.767  25.891  25.297  1.00  0.00     0.020 A 
ATOM     86  C   UNL A   1      48.298  27.017  24.663  1.00  0.00     0.054 A 
BRANCH  86  87
ATOM     87  S   UNL A   1      48.669  26.977  22.887  1.00  0.00     0.124 S 
ATOM     88  O   UNL A   1      48.371  25.590  22.546  1.00  0.00    -0.237 OA
ATOM     89  O   UNL A   1      47.749  27.975  22.348  1.00  0.00    -0.237 OA
ATOM     90  O   UNL A   1      50.082  27.348  22.827  1.00  0.00    -0.744 OA
ENDBRANCH  86  87
ENDBRANCH  58  81
BRANCH  70  91
ATOM     91  C   UNL A   1      51.498  25.365  33.049  1.00  0.00    -0.014 A 
ATOM     92  C   UNL A   1      52.626  26.198  33.148  1.00  0.00     0.010 A 
ATOM     93  C   UNL A   1      51.664  23.974  33.187  1.00  0.00     0.010 A 
ATOM     94  C   UNL A   1      53.896  25.651  33.360  1.00  0.00     0.020 A 
ATOM     95  C   UNL A   1      52.929  23.424  33.419  1.00  0.00     0.020 A 
ATOM     96  C   UNL A   1      54.040  24.267  33.492  1.00  0.00     0.054 A 
BRANCH  96  97
ATOM     97  S   UNL A   1      55.690  23.581  33.821  1.00  0.00     0.124 S 
ATOM     98  O   UNL A   1      56.326  23.679  32.510  1.00  0.00    -0.237 OA
ATOM     99  O   UNL A   1      56.217  24.482  34.842  1.00  0.00    -0.237 OA
ATOM    100  O   UNL A   1      55.414  22.223  34.282  1.00  0.00    -0.744 OA
ENDBRANCH  96  97
ENDBRANCH  70  91
ENDBRANCH  44  45
ENDBRANCH  36  39
ENDBRANCH  34  35
ENDBRANCH  33  34
ENDBRANCH  32  33
ENDBRANCH   1  32
TORSDOF 20
ENDMDL
MODEL 2
REMARK VINA RESULT:      -9.4      5.352     10.825
REMARK SMILES C[C@@H]1CN(S(=O)(=O)c2cccc(C(=O)N3CCC[C@@H]3C(=O)NCCCCCCNC(=O)c3ccc(-c4c5nc(c(-c6ccc(S(=O)(=O)[O-])cc6)c6ccc([nH]6)c(-c6ccc(S(=O)(=O)[O-])cc6)c6nc(c(-c7ccc(S(=O)(=O)[O-])cc7)c7ccc4[nH]7)C=C6)C=C5)cc3)c2)C[C@H](C)O1
REMARK SMILES IDX 25 1 24 2 23 3 22 4 20 5 21 6 19 8 15 9 16 10 17 11 18 12
REMARK SMILES IDX 13 13 14 14 12 15 8 16 9 17 92 18 10 19 11 20 5 21 6 22 7 23
REMARK SMILES IDX 4 24 1 25 2 26 3 27 96 28 94 29 93 30 95 31 26 32 27 33
REMARK SMILES IDX 28 34 29 35 30 36 31 38 32 39 33 40 91 41 34 42 90 43 35 44
REMARK SMILES IDX 36 45 37 46 84 47 38 48 89 49 83 50 85 51 39 52 88 53 82 54
REMARK SMILES IDX 81 55 40 57 70 58 51 59 69 60 52 61 55 62 68 63 86 64 53 65
REMARK SMILES IDX 54 66 67 68 87 69 56 70 41 71 42 72 50 73 43 74 49 75 44 76
REMARK SMILES IDX 45 77 46 78 47 79 48 80 71 81 72 82 80 83 73 84 79 85 74 86
REMARK SMILES IDX 75 87 76 88 77 89 78 90 57 91 58 92 66 93 59 94 65 95 60 96
REMARK SMILES IDX 61 97 62 98 63 99 64 100
REMARK H PARENT 22 7 29 37 85 56 55 67
REMARK Flexibility Score: inf
ROOT
ATOM      1  C   UNL A   1      34.004  25.932  26.133  1.00  0.00     0.002 C 
ENDROOT
BRANCH   1   2
ATOM      2  C   UNL A   1      33.628  27.415  25.999  1.00  0.00     0.021 C 
BRANCH   2   3
ATOM      3  C   UNL A   1      32.140  27.775  26.074  1.00  0.00     0.116 C 
BRANCH   3   4
ATOM      4  N   UNL A   1      31.949  29.212  26.137  1.00  0.00    -0.354 N 
ATOM      5  C   UNL A   1      31.253  30.068  25.334  1.00  0.00     0.242 C 
ATOM      6  O   UNL A   1      31.493  31.273  25.487  1.00  0.00    -0.273 OA
ATOM      7  H   UNL A   1      32.403  29.647  26.893  1.00  0.00     0.163 HD
BRANCH   5   8
ATOM      8  C   UNL A   1      30.355  29.615  24.162  1.00  0.00     0.174 C 
ATOM      9  N   UNL A   1      30.977  29.251  22.893  1.00  0.00    -0.327 N 
ATOM     10  C   UNL A   1      29.976  29.414  21.852  1.00  0.00     0.121 C 
ATOM     11  C   UNL A   1      29.343  30.736  22.233  1.00  0.00     0.024 C 
ATOM     12  C   UNL A   1      29.330  30.698  23.766  1.00  0.00     0.037 C 
BRANCH   9  13
ATOM     13  C   UNL A   1      31.932  28.248  22.883  1.00  0.00     0.254 C 
ATOM     14  O   UNL A   1      33.103  28.464  22.580  1.00  0.00    -0.269 OA
BRANCH  13  15
ATOM     15  C   UNL A   1      31.449  26.836  23.015  1.00  0.00     0.041 A 
ATOM     16  C   UNL A   1      31.822  24.441  23.177  1.00  0.00     0.083 A 
ATOM     17  C   UNL A   1      30.467  24.235  23.445  1.00  0.00     0.022 A 
ATOM     18  C   UNL A   1      32.308  25.734  22.988  1.00  0.00     0.035 A 
ATOM     19  C   UNL A   1      29.600  25.328  23.487  1.00  0.00     0.002 A 
ATOM     20  C   UNL A   1      30.086  26.619  23.257  1.00  0.00     0.014 A 
BRANCH  16  21
ATOM     21  S   UNL A   1      32.874  23.064  22.762  1.00  0.00     0.243 S 
ATOM     22  O   UNL A   1      34.154  23.624  22.386  1.00  0.00    -0.207 OA
ATOM     23  O   UNL A   1      32.117  22.231  21.854  1.00  0.00    -0.207 OA
BRANCH  21  24
ATOM     24  N   UNL A   1      33.119  22.158  24.195  1.00  0.00    -0.193 NA
ATOM     25  C   UNL A   1      32.708  21.837  27.845  1.00  0.00     0.040 C 
ATOM     26  C   UNL A   1      33.681  22.197  26.730  1.00  0.00     0.130 C 
ATOM     27  C   UNL A   1      32.984  22.867  25.505  1.00  0.00     0.134 C 
ATOM     28  O   UNL A   1      34.525  21.065  26.531  1.00  0.00    -0.373 OA
ATOM     29  C   UNL A   1      34.477  20.424  25.259  1.00  0.00     0.130 C 
ATOM     30  C   UNL A   1      34.437  21.441  24.133  1.00  0.00     0.134 C 
ATOM     31  C   UNL A   1      33.317  19.443  25.169  1.00  0.00     0.040 C 
ENDBRANCH  21  24
ENDBRANCH  16  21
ENDBRANCH  13  15
ENDBRANCH   9  13
ENDBRANCH   5   8
ENDBRANCH   3   4
ENDBRANCH   2   3
ENDBRANCH   1   2
BRANCH   1  32
ATOM     32  C   UNL A   1      35.039  25.356  25.145  1.00  0.00     0.002 C 
BRANCH  32  33
ATOM     33  C   UNL A   1      36.092  24.372  25.686  1.00  0.00     0.021 C 
BRANCH  33  34
ATOM     34  C   UNL A   1      37.003  23.680  24.653  1.00  0.00     0.116 C 
BRANCH  34  35
ATOM     35  N   UNL A   1      37.943  22.743  25.254  1.00  0.00    -0.352 N 
ATOM     36  C   UNL A   1      39.003  22.876  26.125  1.00  0.00     0.251 C 
ATOM     37  H   UNL A   1      37.788  21.811  24.978  1.00  0.00     0.163 HD
ATOM     38  O   UNL A   1      39.668  21.862  26.353  1.00  0.00    -0.269 OA
BRANCH  36  39
ATOM     39  C   UNL A   1      39.428  24.150  26.782  1.00  0.00     0.039 A 
ATOM     40  C   UNL A   1      38.990  24.377  28.097  1.00  0.00     0.014 A 
ATOM     41  C   UNL A   1      40.144  25.169  26.150  1.00  0.00     0.014 A 
ATOM     42  C   UNL A   1      39.314  25.561  28.785  1.00  0.00     0.010 A 
ATOM     43  C   UNL A   1      40.529  26.328  26.867  1.00  0.00     0.010 A 
ATOM     44  C   UNL A   1      40.124  26.545  28.198  1.00  0.00    -0.014 A 
BRANCH  44  45
ATOM     45  C   UNL A   1      40.523  27.773  28.972  1.00  0.00     0.031 A 
ATOM     46  C   UNL A   1      41.889  27.893  29.616  1.00  0.00     0.074 A 
ATOM     47  C   UNL A   1      39.672  28.815  29.114  1.00  0.00     0.049 A 
ATOM     48  N   UNL A   1      42.398  28.892  30.301  1.00  0.00    -0.248 NA
ATOM     49  C   UNL A   1      42.795  26.744  29.484  1.00  0.00     0.031 C 
ATOM     50  C   UNL A   1      38.310  28.882  28.584  1.00  0.00     0.029 A 
ATOM     51  N   UNL A   1      39.831  30.031  29.747  1.00  0.00    -0.354 N 
ATOM     52  C   UNL A   1      43.668  28.484  30.697  1.00  0.00     0.074 A 
ATOM     53  C   UNL A   1      43.837  27.131  30.208  1.00  0.00     0.031 C 
ATOM     54  C   UNL A   1      37.773  30.078  28.882  1.00  0.00     0.029 A 
ATOM     55  C   UNL A   1      38.738  30.862  29.651  1.00  0.00     0.049 A 
ATOM     56  H   UNL A   1      40.656  30.283  30.225  1.00  0.00     0.167 HD
ATOM     57  C   UNL A   1      44.620  29.163  31.386  1.00  0.00     0.031 A 
ATOM     58  C   UNL A   1      38.519  32.112  30.113  1.00  0.00     0.031 A 
ATOM     59  C   UNL A   1      44.501  30.516  31.861  1.00  0.00     0.049 A 
ATOM     60  C   UNL A   1      39.589  32.849  30.875  1.00  0.00     0.074 A 
ATOM     61  C   UNL A   1      45.456  31.284  32.513  1.00  0.00     0.029 A 
ATOM     62  N   UNL A   1      43.374  31.309  31.742  1.00  0.00    -0.354 N 
ATOM     63  N   UNL A   1      40.800  32.455  31.181  1.00  0.00    -0.248 NA
ATOM     64  C   UNL A   1      39.262  34.206  31.344  1.00  0.00     0.031 C 
ATOM     65  C   UNL A   1      44.891  32.526  32.822  1.00  0.00     0.029 A 
ATOM     66  C   UNL A   1      43.600  32.547  32.324  1.00  0.00     0.049 A 
ATOM     67  H   UNL A   1      42.534  31.034  31.307  1.00  0.00     0.167 HD
ATOM     68  C   UNL A   1      41.386  33.526  31.853  1.00  0.00     0.074 A 
ATOM     69  C   UNL A   1      40.403  34.585  31.903  1.00  0.00     0.031 C 
ATOM     70  C   UNL A   1      42.632  33.613  32.378  1.00  0.00     0.031 A 
BRANCH  57  71
ATOM     71  C   UNL A   1      45.907  28.435  31.679  1.00  0.00    -0.014 A 
ATOM     72  C   UNL A   1      46.993  28.500  30.789  1.00  0.00     0.010 A 
ATOM     73  C   UNL A   1      46.045  27.717  32.881  1.00  0.00     0.010 A 
ATOM     74  C   UNL A   1      48.178  27.817  31.071  1.00  0.00     0.020 A 
ATOM     75  C   UNL A   1      47.238  27.052  33.178  1.00  0.00     0.020 A 
ATOM     76  C   UNL A   1      48.289  27.089  32.260  1.00  0.00     0.054 A 
BRANCH  76  77
ATOM     77  S   UNL A   1      49.838  26.209  32.604  1.00  0.00     0.124 S 
ATOM     78  O   UNL A   1      50.111  25.572  31.318  1.00  0.00    -0.237 OA
ATOM     79  O   UNL A   1      50.749  27.289  32.976  1.00  0.00    -0.237 OA
ATOM     80  O   UNL A   1      49.483  25.297  33.689  1.00  0.00    -0.744 OA
ENDBRANCH  76  77
ENDBRANCH  57  71
BRANCH  58  81
ATOM     81  C   UNL A   1      37.213  32.781  29.853  1.00  0.00    -0.014 A 
ATOM     82  C   UNL A   1      37.024  33.541  28.684  1.00  0.00     0.010 A 
ATOM     83  C   UNL A   1      36.161  32.677  30.780  1.00  0.00     0.010 A 
ATOM     84  C   UNL A   1      35.813  34.200  28.457  1.00  0.00     0.020 A 
ATOM     85  C   UNL A   1      34.940  33.316  30.545  1.00  0.00     0.020 A 
ATOM     86  C   UNL A   1      34.778  34.084  29.389  1.00  0.00     0.054 A 
BRANCH  86  87
ATOM     87  S   UNL A   1      33.198  34.911  29.054  1.00  0.00     0.124 S 
ATOM     88  O   UNL A   1      32.592  34.021  28.070  1.00  0.00    -0.237 OA
ATOM     89  O   UNL A   1      32.563  34.928  30.370  1.00  0.00    -0.237 OA
ATOM     90  O   UNL A   1      33.601  36.222  28.550  1.00  0.00    -0.744 OA
ENDBRANCH  86  87
ENDBRANCH  58  81
BRANCH  70  91
ATOM     91  C   UNL A   1      43.035  34.908  33.033  1.00  0.00    -0.014 A 
ATOM     92  C   UNL A   1      42.901  35.097  34.420  1.00  0.00     0.010 A 
ATOM     93  C   UNL A   1      43.609  35.934  32.259  1.00  0.00     0.010 A 
ATOM     94  C   UNL A   1      43.314  36.292  35.017  1.00  0.00     0.020 A 
ATOM     95  C   UNL A   1      44.042  37.123  32.854  1.00  0.00     0.020 A 
ATOM     96  C   UNL A   1      43.880  37.299  34.230  1.00  0.00     0.054 A 
BRANCH  96  97
ATOM     97  S   UNL A   1      44.459  38.823  35.033  1.00  0.00     0.124 S 
ATOM     98  O   UNL A   1      45.883  38.813  34.711  1.00  0.00    -0.237 OA
ATOM     99  O   UNL A   1      43.672  39.858  34.367  1.00  0.00    -0.237 OA
ATOM    100  O   UNL A   1      44.136  38.615  36.442  1.00  0.00    -0.744 OA
ENDBRANCH  96  97
ENDBRANCH  70  91
ENDBRANCH  44  45
ENDBRANCH  36  39
ENDBRANCH  34  35
ENDBRANCH  33  34
ENDBRANCH  32  33
ENDBRANCH   1  32
TORSDOF 20
ENDMDL
MODEL 3
REMARK VINA RESULT:      -9.2      5.508     11.172
REMARK SMILES C[C@@H]1CN(S(=O)(=O)c2cccc(C(=O)N3CCC[C@@H]3C(=O)NCCCCCCNC(=O)c3ccc(-c4c5nc(c(-c6ccc(S(=O)(=O)[O-])cc6)c6ccc([nH]6)c(-c6ccc(S(=O)(=O)[O-])cc6)c6nc(c(-c7ccc(S(=O)(=O)[O-])cc7)c7ccc4[nH]7)C=C6)C=C5)cc3)c2)C[C@H](C)O1
REMARK SMILES IDX 25 1 24 2 23 3 22 4 20 5 21 6 19 8 15 9 16 10 17 11 18 12
REMARK SMILES IDX 13 13 14 14 12 15 8 16 9 17 92 18 10 19 11 20 5 21 6 22 7 23
REMARK SMILES IDX 4 24 1 25 2 26 3 27 96 28 94 29 93 30 95 31 26 32 27 33
REMARK SMILES IDX 28 34 29 35 30 36 31 38 32 39 33 40 91 41 34 42 90 43 35 44
REMARK SMILES IDX 36 45 37 46 84 47 38 48 89 49 83 50 85 51 39 52 88 53 82 54
REMARK SMILES IDX 81 55 40 57 70 58 51 59 69 60 52 61 55 62 68 63 86 64 53 65
REMARK SMILES IDX 54 66 67 68 87 69 56 70 41 71 42 72 50 73 43 74 49 75 44 76
REMARK SMILES IDX 45 77 46 78 47 79 48 80 71 81 72 82 80 83 73 84 79 85 74 86
REMARK SMILES IDX 75 87 76 88 77 89 78 90 57 91 58 92 66 93 59 94 65 95 60 96
REMARK SMILES IDX 61 97 62 98 63 99 64 100
REMARK H PARENT 22 7 29 37 85 56 55 67
REMARK Flexibility Score: inf
ROOT
ATOM      1  C   UNL A   1      33.847  25.415  26.060  1.00  0.00     0.002 C 
ENDROOT
BRANCH   1   2
ATOM      2  C   UNL A   1      33.591  26.926  26.166  1.00  0.00     0.021 C 
BRANCH   2   3
ATOM      3  C   UNL A   1      32.132  27.395  26.165  1.00  0.00     0.116 C 
BRANCH   3   4
ATOM      4  N   UNL A   1      32.046  28.843  26.199  1.00  0.00    -0.354 N 
ATOM      5  C   UNL A   1      31.432  29.733  25.367  1.00  0.00     0.242 C 
ATOM      6  O   UNL A   1      31.756  30.920  25.504  1.00  0.00    -0.273 OA
ATOM      7  H   UNL A   1      32.515  29.259  26.958  1.00  0.00     0.163 HD
BRANCH   5   8
ATOM      8  C   UNL A   1      30.528  29.325  24.183  1.00  0.00     0.174 C 
ATOM      9  N   UNL A   1      31.136  29.077  22.880  1.00  0.00    -0.327 N 
ATOM     10  C   UNL A   1      30.107  29.270  21.872  1.00  0.00     0.121 C 
ATOM     11  C   UNL A   1      29.428  30.533  22.357  1.00  0.00     0.024 C 
ATOM     12  C   UNL A   1      29.451  30.387  23.884  1.00  0.00     0.037 C 
BRANCH   9  13
ATOM     13  C   UNL A   1      32.132  28.119  22.781  1.00  0.00     0.254 C 
ATOM     14  O   UNL A   1      33.270  28.396  22.411  1.00  0.00    -0.269 OA
BRANCH  13  15
ATOM     15  C   UNL A   1      31.721  26.683  22.901  1.00  0.00     0.041 A 
ATOM     16  C   UNL A   1      32.198  24.302  22.904  1.00  0.00     0.083 A 
ATOM     17  C   UNL A   1      30.894  24.027  23.321  1.00  0.00     0.022 A 
ATOM     18  C   UNL A   1      32.610  25.621  22.721  1.00  0.00     0.035 A 
ATOM     19  C   UNL A   1      29.998  25.080  23.517  1.00  0.00     0.002 A 
ATOM     20  C   UNL A   1      30.405  26.399  23.293  1.00  0.00     0.014 A 
BRANCH  16  21
ATOM     21  S   UNL A   1      33.242  22.990  22.303  1.00  0.00     0.243 S 
ATOM     22  O   UNL A   1      34.588  23.522  22.260  1.00  0.00    -0.207 OA
ATOM     23  O   UNL A   1      32.599  22.466  21.118  1.00  0.00    -0.207 OA
BRANCH  21  24
ATOM     24  N   UNL A   1      33.227  21.744  23.479  1.00  0.00    -0.193 NA
ATOM     25  C   UNL A   1      32.795  18.176  24.303  1.00  0.00     0.040 C 
ATOM     26  C   UNL A   1      32.126  19.544  24.310  1.00  0.00     0.130 C 
ATOM     27  C   UNL A   1      32.572  20.449  23.120  1.00  0.00     0.134 C 
ATOM     28  O   UNL A   1      32.207  20.041  25.644  1.00  0.00    -0.373 OA
ATOM     29  C   UNL A   1      32.952  21.238  25.856  1.00  0.00     0.130 C 
ATOM     30  C   UNL A   1      32.666  22.262  24.772  1.00  0.00     0.134 C 
ATOM     31  C   UNL A   1      34.442  20.957  25.982  1.00  0.00     0.040 C 
ENDBRANCH  21  24
ENDBRANCH  16  21
ENDBRANCH  13  15
ENDBRANCH   9  13
ENDBRANCH   5   8
ENDBRANCH   3   4
ENDBRANCH   2   3
ENDBRANCH   1   2
BRANCH   1  32
ATOM     32  C   UNL A   1      35.019  24.941  25.177  1.00  0.00     0.002 C 
BRANCH  32  33
ATOM     33  C   UNL A   1      36.095  24.044  25.816  1.00  0.00     0.021 C 
BRANCH  33  34
ATOM     34  C   UNL A   1      37.161  23.447  24.877  1.00  0.00     0.116 C 
BRANCH  34  35
ATOM     35  N   UNL A   1      38.075  22.535  25.552  1.00  0.00    -0.352 N 
ATOM     36  C   UNL A   1      39.213  22.706  26.311  1.00  0.00     0.251 C 
ATOM     37  H   UNL A   1      37.826  21.589  25.442  1.00  0.00     0.163 HD
ATOM     38  O   UNL A   1      39.815  21.685  26.651  1.00  0.00    -0.269 OA
BRANCH  36  39
ATOM     39  C   UNL A   1      39.788  24.025  26.720  1.00  0.00     0.039 A 
ATOM     40  C   UNL A   1      39.812  24.321  28.093  1.00  0.00     0.014 A 
ATOM     41  C   UNL A   1      40.210  25.017  25.833  1.00  0.00     0.014 A 
ATOM     42  C   UNL A   1      40.306  25.549  28.570  1.00  0.00     0.010 A 
ATOM     43  C   UNL A   1      40.772  26.223  26.318  1.00  0.00     0.010 A 
ATOM     44  C   UNL A   1      40.833  26.511  27.696  1.00  0.00    -0.014 A 
BRANCH  44  45
ATOM     45  C   UNL A   1      41.425  27.789  28.226  1.00  0.00     0.031 A 
ATOM     46  C   UNL A   1      42.916  28.055  28.168  1.00  0.00     0.074 A 
ATOM     47  C   UNL A   1      40.641  28.749  28.770  1.00  0.00     0.049 A 
ATOM     48  N   UNL A   1      43.585  29.113  28.563  1.00  0.00    -0.248 NA
ATOM     49  C   UNL A   1      43.763  26.994  27.605  1.00  0.00     0.031 C 
ATOM     50  C   UNL A   1      39.188  28.672  28.930  1.00  0.00     0.029 A 
ATOM     51  N   UNL A   1      40.958  29.989  29.285  1.00  0.00    -0.354 N 
ATOM     52  C   UNL A   1      44.927  28.838  28.318  1.00  0.00     0.074 A 
ATOM     53  C   UNL A   1      44.979  27.496  27.774  1.00  0.00     0.031 C 
ATOM     54  C   UNL A   1      38.739  29.818  29.471  1.00  0.00     0.029 A 
ATOM     55  C   UNL A   1      39.870  30.709  29.725  1.00  0.00     0.049 A 
ATOM     56  H   UNL A   1      41.882  30.330  29.333  1.00  0.00     0.167 HD
ATOM     57  C   UNL A   1      46.020  29.621  28.504  1.00  0.00     0.031 A 
ATOM     58  C   UNL A   1      39.771  31.942  30.264  1.00  0.00     0.031 A 
ATOM     59  C   UNL A   1      46.006  30.968  29.012  1.00  0.00     0.049 A 
ATOM     60  C   UNL A   1      40.996  32.796  30.463  1.00  0.00     0.074 A 
ATOM     61  C   UNL A   1      47.075  31.837  29.166  1.00  0.00     0.029 A 
ATOM     62  N   UNL A   1      44.881  31.646  29.446  1.00  0.00    -0.354 N 
ATOM     63  N   UNL A   1      42.244  32.527  30.165  1.00  0.00    -0.248 NA
ATOM     64  C   UNL A   1      40.795  34.126  31.062  1.00  0.00     0.031 C 
ATOM     65  C   UNL A   1      46.601  33.027  29.730  1.00  0.00     0.029 A 
ATOM     66  C   UNL A   1      45.232  32.913  29.886  1.00  0.00     0.049 A 
ATOM     67  H   UNL A   1      43.966  31.282  29.443  1.00  0.00     0.167 HD
ATOM     68  C   UNL A   1      42.968  33.664  30.515  1.00  0.00     0.074 A 
ATOM     69  C   UNL A   1      42.024  34.626  31.038  1.00  0.00     0.031 C 
ATOM     70  C   UNL A   1      44.301  33.882  30.406  1.00  0.00     0.031 A 
BRANCH  57  71
ATOM     71  C   UNL A   1      47.360  29.027  28.152  1.00  0.00    -0.014 A 
ATOM     72  C   UNL A   1      48.138  28.372  29.123  1.00  0.00     0.010 A 
ATOM     73  C   UNL A   1      47.824  29.086  26.825  1.00  0.00     0.010 A 
ATOM     74  C   UNL A   1      49.380  27.830  28.784  1.00  0.00     0.020 A 
ATOM     75  C   UNL A   1      49.055  28.524  26.478  1.00  0.00     0.020 A 
ATOM     76  C   UNL A   1      49.835  27.919  27.465  1.00  0.00     0.054 A 
BRANCH  76  77
ATOM     77  S   UNL A   1      51.452  27.209  27.049  1.00  0.00     0.124 S 
ATOM     78  O   UNL A   1      51.694  26.330  28.191  1.00  0.00    -0.237 OA
ATOM     79  O   UNL A   1      51.193  26.532  25.781  1.00  0.00    -0.237 OA
ATOM     80  O   UNL A   1      52.329  28.374  26.962  1.00  0.00    -0.744 OA
ENDBRANCH  76  77
ENDBRANCH  57  71
BRANCH  58  81
ATOM     81  C   UNL A   1      38.436  32.477  30.653  1.00  0.00    -0.014 A 
ATOM     82  C   UNL A   1      37.995  32.388  31.986  1.00  0.00     0.010 A 
ATOM     83  C   UNL A   1      37.592  33.059  29.690  1.00  0.00     0.010 A 
ATOM     84  C   UNL A   1      36.728  32.855  32.345  1.00  0.00     0.020 A 
ATOM     85  C   UNL A   1      36.333  33.549  30.051  1.00  0.00     0.020 A 
ATOM     86  C   UNL A   1      35.904  33.432  31.375  1.00  0.00     0.054 A 
BRANCH  86  87
ATOM     87  S   UNL A   1      34.280  34.072  31.870  1.00  0.00     0.124 S 
ATOM     88  O   UNL A   1      33.702  32.927  32.566  1.00  0.00    -0.237 OA
ATOM     89  O   UNL A   1      34.631  35.214  32.711  1.00  0.00    -0.237 OA
ATOM     90  O   UNL A   1      33.649  34.418  30.598  1.00  0.00    -0.744 OA
ENDBRANCH  86  87
ENDBRANCH  58  81
BRANCH  70  91
ATOM     91  C   UNL A   1      44.835  35.225  30.832  1.00  0.00    -0.014 A 
ATOM     92  C   UNL A   1      45.216  35.471  32.163  1.00  0.00     0.010 A 
ATOM     93  C   UNL A   1      45.013  36.242  29.874  1.00  0.00     0.010 A 
ATOM     94  C   UNL A   1      45.744  36.712  32.532  1.00  0.00     0.020 A 
ATOM     95  C   UNL A   1      45.560  37.477  30.235  1.00  0.00     0.020 A 
ATOM     96  C   UNL A   1      45.911  37.709  31.567  1.00  0.00     0.054 A 
BRANCH  96  97
ATOM     97  S   UNL A   1      46.649  39.295  32.056  1.00  0.00     0.124 S 
ATOM     98  O   UNL A   1      45.517  39.978  32.677  1.00  0.00    -0.237 OA
ATOM     99  O   UNL A   1      47.714  38.888  32.969  1.00  0.00    -0.237 OA
ATOM    100  O   UNL A   1      47.107  39.868  30.793  1.00  0.00    -0.744 OA
ENDBRANCH  96  97
ENDBRANCH  70  91
ENDBRANCH  44  45
ENDBRANCH  36  39
ENDBRANCH  34  35
ENDBRANCH  33  34
ENDBRANCH  32  33
ENDBRANCH   1  32
TORSDOF 20
ENDMDL
