MODEL 1
REMARK VINA RESULT:     -11.7      0.000      0.000
REMARK SMILES CC1=C(C(=O)NCCCCCCNC(=O)c2ccc(-c3c4nc(c(-c5ccc(S(=O)(=O)[O-])cc5)c5ccc([nH]5)c(-c5ccc(S(=O)(=O)[O-])cc5)c5nc(c(-c6ccc(S(=O)(=O)[O-])cc6)c6ccc3[nH]6)C=C5)C=C4)cc2)N2C(=O)[C@H](NC(=O)c3cc(C(F)(F)F)nn3C)[C@@H]2SC1
REMARK SMILES IDX 9 1 8 2 7 3 6 4 4 5 5 6 3 8 1 9 2 10 95 11 76 12 94 13 77 14
REMARK SMILES IDX 93 15 78 16 79 17 80 18 81 19 82 21 83 22 84 23 91 24 85 25
REMARK SMILES IDX 90 26 92 27 86 28 87 29 88 30 89 31 10 32 11 33 12 34 13 35
REMARK SMILES IDX 14 36 15 38 16 39 17 40 75 41 18 42 74 43 19 44 20 45 21 46
REMARK SMILES IDX 68 47 22 48 73 49 67 50 69 51 23 52 72 53 66 54 65 55 24 57
REMARK SMILES IDX 54 58 35 59 53 60 36 61 39 62 52 63 70 64 37 65 38 66 51 68
REMARK SMILES IDX 71 69 40 70 25 71 26 72 34 73 27 74 33 75 28 76 29 77 30 78
REMARK SMILES IDX 31 79 32 80 55 81 56 82 64 83 57 84 63 85 58 86 59 87 60 88
REMARK SMILES IDX 61 89 62 90 41 91 42 92 50 93 43 94 49 95 44 96 45 97 46 98
REMARK SMILES IDX 47 99 48 100
REMARK H PARENT 6 7 80 20 13 37 69 56 39 67
REMARK Flexibility Score: inf
ROOT
ATOM      1  C   UNL A   1      32.820  29.304  25.496  1.00  0.00     0.002 C 
ENDROOT
BRANCH   1   2
ATOM      2  C   UNL A   1      31.666  28.911  26.422  1.00  0.00     0.021 C 
BRANCH   2   3
ATOM      3  C   UNL A   1      31.928  27.645  27.253  1.00  0.00     0.116 C 
BRANCH   3   4
ATOM      4  N   UNL A   1      30.888  26.681  26.962  1.00  0.00    -0.351 N 
ATOM      5  C   UNL A   1      30.320  26.275  25.799  1.00  0.00     0.268 C 
ATOM      6  O   UNL A   1      29.231  25.696  25.873  1.00  0.00    -0.268 OA
ATOM      7  H   UNL A   1      30.523  26.235  27.760  1.00  0.00     0.163 HD
BRANCH   5   8
ATOM      8  C   UNL A   1      30.970  26.407  24.440  1.00  0.00     0.110 C 
ATOM      9  C   UNL A   1      29.466  28.164  23.389  1.00  0.00     0.043 C 
ATOM     10  C   UNL A   1      30.632  27.214  23.403  1.00  0.00    -0.034 C 
ATOM     11  C   UNL A   1      31.354  27.241  22.055  1.00  0.00     0.104 C 
ATOM     12  N   UNL A   1      31.899  25.438  24.207  1.00  0.00    -0.290 N 
ATOM     13  S   UNL A   1      32.787  26.143  21.871  1.00  0.00    -0.129 SA
ATOM     14  C   UNL A   1      32.692  24.606  24.904  1.00  0.00     0.253 C 
ATOM     15  C   UNL A   1      32.083  24.841  22.909  1.00  0.00     0.181 C 
ATOM     16  O   UNL A   1      33.015  24.544  26.071  1.00  0.00    -0.272 OA
ATOM     17  C   UNL A   1      33.062  23.843  23.595  1.00  0.00     0.206 C 
BRANCH  17  18
ATOM     18  N   UNL A   1      34.479  23.898  23.166  1.00  0.00    -0.336 N 
ATOM     19  C   UNL A   1      35.464  22.960  23.343  1.00  0.00     0.270 C 
ATOM     20  H   UNL A   1      34.750  24.716  22.692  1.00  0.00     0.164 HD
ATOM     21  O   UNL A   1      36.603  23.230  22.976  1.00  0.00    -0.268 OA
BRANCH  19  22
ATOM     22  C   UNL A   1      35.129  21.717  23.995  1.00  0.00     0.126 A 
ATOM     23  C   UNL A   1      33.992  20.931  23.925  1.00  0.00     0.069 A 
ATOM     24  N   UNL A   1      35.979  21.027  24.821  1.00  0.00    -0.262 N 
ATOM     25  C   UNL A   1      34.207  19.837  24.805  1.00  0.00     0.167 A 
ATOM     26  N   UNL A   1      35.434  19.912  25.353  1.00  0.00    -0.168 NA
ATOM     27  C   UNL A   1      37.318  21.386  25.230  1.00  0.00     0.174 C 
BRANCH  25  28
ATOM     28  C   UNL A   1      33.236  18.731  25.126  1.00  0.00     0.435 C 
ATOM     29  F   UNL A   1      32.097  18.800  24.388  1.00  0.00    -0.164 F 
ATOM     30  F   UNL A   1      33.769  17.495  24.925  1.00  0.00    -0.164 F 
ATOM     31  F   UNL A   1      32.851  18.769  26.433  1.00  0.00    -0.164 F 
ENDBRANCH  25  28
ENDBRANCH  19  22
ENDBRANCH  17  18
ENDBRANCH   5   8
ENDBRANCH   3   4
ENDBRANCH   2   3
ENDBRANCH   1   2
BRANCH   1  32
ATOM     32  C   UNL A   1      34.181  29.408  26.188  1.00  0.00     0.002 C 
BRANCH  32  33
ATOM     33  C   UNL A   1      34.289  30.501  27.257  1.00  0.00     0.021 C 
BRANCH  33  34
ATOM     34  C   UNL A   1      35.650  30.598  27.942  1.00  0.00     0.116 C 
BRANCH  34  35
ATOM     35  N   UNL A   1      35.522  30.651  29.390  1.00  0.00    -0.352 N 
ATOM     36  C   UNL A   1      36.399  30.222  30.356  1.00  0.00     0.251 C 
ATOM     37  H   UNL A   1      34.687  31.051  29.725  1.00  0.00     0.163 HD
ATOM     38  O   UNL A   1      36.023  30.112  31.519  1.00  0.00    -0.269 OA
BRANCH  36  39
ATOM     39  C   UNL A   1      37.791  29.885  29.990  1.00  0.00     0.039 A 
ATOM     40  C   UNL A   1      38.695  29.536  30.997  1.00  0.00     0.014 A 
ATOM     41  C   UNL A   1      38.210  29.939  28.658  1.00  0.00     0.014 A 
ATOM     42  C   UNL A   1      40.006  29.190  30.661  1.00  0.00     0.010 A 
ATOM     43  C   UNL A   1      39.497  29.529  28.317  1.00  0.00     0.010 A 
ATOM     44  C   UNL A   1      40.411  29.157  29.316  1.00  0.00    -0.014 A 
BRANCH  44  45
ATOM     45  C   UNL A   1      41.784  28.745  28.932  1.00  0.00     0.031 A 
ATOM     46  C   UNL A   1      42.903  29.750  28.934  1.00  0.00     0.074 A 
ATOM     47  C   UNL A   1      42.011  27.483  28.518  1.00  0.00     0.049 A 
ATOM     48  N   UNL A   1      44.152  29.597  28.571  1.00  0.00    -0.248 NA
ATOM     49  C   UNL A   1      42.571  31.112  29.380  1.00  0.00     0.031 C 
ATOM     50  C   UNL A   1      41.004  26.423  28.440  1.00  0.00     0.029 A 
ATOM     51  N   UNL A   1      43.163  26.879  28.079  1.00  0.00    -0.354 N 
ATOM     52  C   UNL A   1      44.747  30.843  28.729  1.00  0.00     0.074 A 
ATOM     53  C   UNL A   1      43.712  31.752  29.171  1.00  0.00     0.031 C 
ATOM     54  C   UNL A   1      41.588  25.292  28.011  1.00  0.00     0.029 A 
ATOM     55  C   UNL A   1      42.998  25.556  27.743  1.00  0.00     0.049 A 
ATOM     56  H   UNL A   1      44.025  27.349  28.011  1.00  0.00     0.167 HD
ATOM     57  C   UNL A   1      46.042  31.197  28.542  1.00  0.00     0.031 A 
ATOM     58  C   UNL A   1      43.882  24.656  27.270  1.00  0.00     0.031 A 
ATOM     59  C   UNL A   1      47.070  30.290  28.107  1.00  0.00     0.049 A 
ATOM     60  C   UNL A   1      45.309  25.074  27.051  1.00  0.00     0.074 A 
ATOM     61  C   UNL A   1      48.420  30.537  27.930  1.00  0.00     0.029 A 
ATOM     62  N   UNL A   1      46.861  28.959  27.776  1.00  0.00    -0.354 N 
ATOM     63  N   UNL A   1      45.865  26.245  27.255  1.00  0.00    -0.248 NA
ATOM     64  C   UNL A   1      46.231  24.046  26.547  1.00  0.00     0.031 C 
ATOM     65  C   UNL A   1      49.019  29.369  27.446  1.00  0.00     0.029 A 
ATOM     66  C   UNL A   1      48.053  28.378  27.374  1.00  0.00     0.049 A 
ATOM     67  H   UNL A   1      45.994  28.495  27.818  1.00  0.00     0.167 HD
ATOM     68  C   UNL A   1      47.208  26.088  26.930  1.00  0.00     0.074 A 
ATOM     69  C   UNL A   1      47.381  24.706  26.526  1.00  0.00     0.031 C 
ATOM     70  C   UNL A   1      48.207  27.003  26.968  1.00  0.00     0.031 A 
BRANCH  57  71
ATOM     71  C   UNL A   1      46.408  32.636  28.800  1.00  0.00    -0.014 A 
ATOM     72  C   UNL A   1      46.817  33.064  30.077  1.00  0.00     0.010 A 
ATOM     73  C   UNL A   1      46.346  33.574  27.754  1.00  0.00     0.010 A 
ATOM     74  C   UNL A   1      47.098  34.412  30.317  1.00  0.00     0.020 A 
ATOM     75  C   UNL A   1      46.656  34.918  27.982  1.00  0.00     0.020 A 
ATOM     76  C   UNL A   1      47.006  35.332  29.269  1.00  0.00     0.054 A 
BRANCH  76  77
ATOM     77  S   UNL A   1      47.362  37.078  29.609  1.00  0.00     0.124 S 
ATOM     78  O   UNL A   1      48.365  37.382  28.591  1.00  0.00    -0.237 OA
ATOM     79  O   UNL A   1      46.062  37.715  29.419  1.00  0.00    -0.237 OA
ATOM     80  O   UNL A   1      47.854  37.069  30.984  1.00  0.00    -0.744 OA
ENDBRANCH  76  77
ENDBRANCH  57  71
BRANCH  58  81
ATOM     81  C   UNL A   1      43.440  23.261  27.002  1.00  0.00    -0.014 A 
ATOM     82  C   UNL A   1      43.462  22.750  25.692  1.00  0.00     0.010 A 
ATOM     83  C   UNL A   1      43.030  22.425  28.056  1.00  0.00     0.010 A 
ATOM     84  C   UNL A   1      43.078  21.431  25.440  1.00  0.00     0.020 A 
ATOM     85  C   UNL A   1      42.669  21.097  27.811  1.00  0.00     0.020 A 
ATOM     86  C   UNL A   1      42.689  20.610  26.503  1.00  0.00     0.054 A 
BRANCH  86  87
ATOM     87  S   UNL A   1      42.265  18.879  26.161  1.00  0.00     0.124 S 
ATOM     88  O   UNL A   1      40.900  18.995  25.659  1.00  0.00    -0.237 OA
ATOM     89  O   UNL A   1      43.273  18.496  25.175  1.00  0.00    -0.237 OA
ATOM     90  O   UNL A   1      42.403  18.231  27.463  1.00  0.00    -0.744 OA
ENDBRANCH  86  87
ENDBRANCH  58  81
BRANCH  70  91
ATOM     91  C   UNL A   1      49.587  26.537  26.590  1.00  0.00    -0.014 A 
ATOM     92  C   UNL A   1      50.467  26.009  27.552  1.00  0.00     0.010 A 
ATOM     93  C   UNL A   1      49.987  26.575  25.242  1.00  0.00     0.010 A 
ATOM     94  C   UNL A   1      51.734  25.554  27.174  1.00  0.00     0.020 A 
ATOM     95  C   UNL A   1      51.241  26.096  24.857  1.00  0.00     0.020 A 
ATOM     96  C   UNL A   1      52.113  25.600  25.829  1.00  0.00     0.054 A 
BRANCH  96  97
ATOM     97  S   UNL A   1      53.743  24.957  25.358  1.00  0.00     0.124 S 
ATOM     98  O   UNL A   1      54.071  25.784  24.201  1.00  0.00    -0.237 OA
ATOM     99  O   UNL A   1      54.543  25.205  26.556  1.00  0.00    -0.237 OA
ATOM    100  O   UNL A   1      53.488  23.548  25.067  1.00  0.00    -0.744 OA
ENDBRANCH  96  97
ENDBRANCH  70  91
ENDBRANCH  44  45
ENDBRANCH  36  39
ENDBRANCH  34  35
ENDBRANCH  33  34
ENDBRANCH  32  33
ENDBRANCH   1  32
TORSDOF 19
ENDMDL
MODEL 2
REMARK VINA RESULT:     -11.6      6.300      8.357
REMARK SMILES CC1=C(C(=O)NCCCCCCNC(=O)c2ccc(-c3c4nc(c(-c5ccc(S(=O)(=O)[O-])cc5)c5ccc([nH]5)c(-c5ccc(S(=O)(=O)[O-])cc5)c5nc(c(-c6ccc(S(=O)(=O)[O-])cc6)c6ccc3[nH]6)C=C5)C=C4)cc2)N2C(=O)[C@H](NC(=O)c3cc(C(F)(F)F)nn3C)[C@@H]2SC1
REMARK SMILES IDX 9 1 8 2 7 3 6 4 4 5 5 6 3 8 1 9 2 10 95 11 76 12 94 13 77 14
REMARK SMILES IDX 93 15 78 16 79 17 80 18 81 19 82 21 83 22 84 23 91 24 85 25
REMARK SMILES IDX 90 26 92 27 86 28 87 29 88 30 89 31 10 32 11 33 12 34 13 35
REMARK SMILES IDX 14 36 15 38 16 39 17 40 75 41 18 42 74 43 19 44 20 45 21 46
REMARK SMILES IDX 68 47 22 48 73 49 67 50 69 51 23 52 72 53 66 54 65 55 24 57
REMARK SMILES IDX 54 58 35 59 53 60 36 61 39 62 52 63 70 64 37 65 38 66 51 68
REMARK SMILES IDX 71 69 40 70 25 71 26 72 34 73 27 74 33 75 28 76 29 77 30 78
REMARK SMILES IDX 31 79 32 80 55 81 56 82 64 83 57 84 63 85 58 86 59 87 60 88
REMARK SMILES IDX 61 89 62 90 41 91 42 92 50 93 43 94 49 95 44 96 45 97 46 98
REMARK SMILES IDX 47 99 48 100
REMARK H PARENT 6 7 80 20 13 37 69 56 39 67
REMARK Flexibility Score: inf
ROOT
ATOM      1  C   UNL A   1      34.098  31.557  28.014  1.00  0.00     0.002 C 
ENDROOT
BRANCH   1   2
ATOM      2  C   UNL A   1      35.202  30.499  27.951  1.00  0.00     0.021 C 
BRANCH   2   3
ATOM      3  C   UNL A   1      34.917  29.347  26.975  1.00  0.00     0.116 C 
BRANCH   3   4
ATOM      4  N   UNL A   1      33.846  28.539  27.517  1.00  0.00    -0.351 N 
ATOM      5  C   UNL A   1      32.542  28.401  27.170  1.00  0.00     0.268 C 
ATOM      6  O   UNL A   1      31.781  27.907  28.010  1.00  0.00    -0.268 OA
ATOM      7  H   UNL A   1      34.114  27.984  28.284  1.00  0.00     0.163 HD
BRANCH   5   8
ATOM      8  C   UNL A   1      31.983  28.730  25.803  1.00  0.00     0.110 C 
ATOM      9  C   UNL A   1      31.060  31.055  26.241  1.00  0.00     0.043 C 
ATOM     10  C   UNL A   1      31.360  29.859  25.381  1.00  0.00    -0.034 C 
ATOM     11  C   UNL A   1      30.809  30.068  23.970  1.00  0.00     0.104 C 
ATOM     12  N   UNL A   1      31.962  27.650  24.972  1.00  0.00    -0.290 N 
ATOM     13  S   UNL A   1      31.059  28.717  22.784  1.00  0.00    -0.129 SA
ATOM     14  C   UNL A   1      32.589  26.469  24.829  1.00  0.00     0.253 C 
ATOM     15  C   UNL A   1      30.895  27.420  24.033  1.00  0.00     0.181 C 
ATOM     16  O   UNL A   1      33.590  25.992  25.318  1.00  0.00    -0.272 OA
ATOM     17  C   UNL A   1      31.553  26.039  23.744  1.00  0.00     0.206 C 
BRANCH  17  18
ATOM     18  N   UNL A   1      32.073  25.821  22.373  1.00  0.00    -0.336 N 
ATOM     19  C   UNL A   1      32.897  24.824  21.919  1.00  0.00     0.270 C 
ATOM     20  H   UNL A   1      31.789  26.480  21.700  1.00  0.00     0.164 HD
ATOM     21  O   UNL A   1      33.276  24.864  20.752  1.00  0.00    -0.268 OA
BRANCH  19  22
ATOM     22  C   UNL A   1      33.322  23.800  22.842  1.00  0.00     0.126 A 
ATOM     23  C   UNL A   1      34.549  23.568  23.441  1.00  0.00     0.069 A 
ATOM     24  N   UNL A   1      32.494  22.839  23.363  1.00  0.00    -0.262 N 
ATOM     25  C   UNL A   1      34.392  22.401  24.234  1.00  0.00     0.167 A 
ATOM     26  N   UNL A   1      33.122  21.961  24.172  1.00  0.00    -0.168 NA
ATOM     27  C   UNL A   1      31.090  22.626  23.093  1.00  0.00     0.174 C 
BRANCH  25  28
ATOM     28  C   UNL A   1      35.460  21.704  25.038  1.00  0.00     0.435 C 
ATOM     29  F   UNL A   1      35.259  20.363  25.128  1.00  0.00    -0.164 F 
ATOM     30  F   UNL A   1      36.704  21.889  24.521  1.00  0.00    -0.164 F 
ATOM     31  F   UNL A   1      35.506  22.172  26.317  1.00  0.00    -0.164 F 
ENDBRANCH  25  28
ENDBRANCH  19  22
ENDBRANCH  17  18
ENDBRANCH   5   8
ENDBRANCH   3   4
ENDBRANCH   2   3
ENDBRANCH   1   2
BRANCH   1  32
ATOM     32  C   UNL A   1      34.589  32.967  28.349  1.00  0.00     0.002 C 
BRANCH  32  33
ATOM     33  C   UNL A   1      33.549  34.079  28.178  1.00  0.00     0.021 C 
BRANCH  33  34
ATOM     34  C   UNL A   1      33.927  35.417  28.810  1.00  0.00     0.116 C 
BRANCH  34  35
ATOM     35  N   UNL A   1      33.005  35.791  29.871  1.00  0.00    -0.352 N 
ATOM     36  C   UNL A   1      32.982  35.389  31.183  1.00  0.00     0.251 C 
ATOM     37  H   UNL A   1      32.298  36.424  29.610  1.00  0.00     0.163 HD
ATOM     38  O   UNL A   1      31.989  35.605  31.872  1.00  0.00    -0.269 OA
BRANCH  36  39
ATOM     39  C   UNL A   1      34.149  34.690  31.761  1.00  0.00     0.039 A 
ATOM     40  C   UNL A   1      33.997  33.382  32.230  1.00  0.00     0.014 A 
ATOM     41  C   UNL A   1      35.386  35.333  31.864  1.00  0.00     0.014 A 
ATOM     42  C   UNL A   1      35.099  32.701  32.753  1.00  0.00     0.010 A 
ATOM     43  C   UNL A   1      36.497  34.631  32.323  1.00  0.00     0.010 A 
ATOM     44  C   UNL A   1      36.364  33.310  32.779  1.00  0.00    -0.014 A 
BRANCH  44  45
ATOM     45  C   UNL A   1      37.559  32.589  33.285  1.00  0.00     0.031 A 
ATOM     46  C   UNL A   1      38.198  33.003  34.582  1.00  0.00     0.074 A 
ATOM     47  C   UNL A   1      38.108  31.605  32.546  1.00  0.00     0.049 A 
ATOM     48  N   UNL A   1      39.281  32.538  35.155  1.00  0.00    -0.248 NA
ATOM     49  C   UNL A   1      37.551  34.098  35.321  1.00  0.00     0.031 C 
ATOM     50  C   UNL A   1      37.601  31.132  31.256  1.00  0.00     0.029 A 
ATOM     51  N   UNL A   1      39.217  30.829  32.771  1.00  0.00    -0.354 N 
ATOM     52  C   UNL A   1      39.451  33.294  36.309  1.00  0.00     0.074 A 
ATOM     53  C   UNL A   1      38.392  34.279  36.328  1.00  0.00     0.031 C 
ATOM     54  C   UNL A   1      38.380  30.128  30.819  1.00  0.00     0.029 A 
ATOM     55  C   UNL A   1      39.462  29.914  31.775  1.00  0.00     0.049 A 
ATOM     56  H   UNL A   1      39.785  30.920  33.571  1.00  0.00     0.167 HD
ATOM     57  C   UNL A   1      40.392  33.168  37.276  1.00  0.00     0.031 A 
ATOM     58  C   UNL A   1      40.448  29.006  31.643  1.00  0.00     0.031 A 
ATOM     59  C   UNL A   1      41.441  32.183  37.257  1.00  0.00     0.049 A 
ATOM     60  C   UNL A   1      41.494  28.895  32.717  1.00  0.00     0.074 A 
ATOM     61  C   UNL A   1      42.416  31.943  38.208  1.00  0.00     0.029 A 
ATOM     62  N   UNL A   1      41.654  31.277  36.229  1.00  0.00    -0.354 N 
ATOM     63  N   UNL A   1      41.608  29.584  33.828  1.00  0.00    -0.248 NA
ATOM     64  C   UNL A   1      42.536  27.878  32.526  1.00  0.00     0.031 C 
ATOM     65  C   UNL A   1      43.248  30.924  37.734  1.00  0.00     0.029 A 
ATOM     66  C   UNL A   1      42.759  30.490  36.512  1.00  0.00     0.049 A 
ATOM     67  H   UNL A   1      41.103  31.203  35.416  1.00  0.00     0.167 HD
ATOM     68  C   UNL A   1      42.721  29.066  34.481  1.00  0.00     0.074 A 
ATOM     69  C   UNL A   1      43.237  27.999  33.646  1.00  0.00     0.031 C 
ATOM     70  C   UNL A   1      43.263  29.437  35.667  1.00  0.00     0.031 A 
BRANCH  57  71
ATOM     71  C   UNL A   1      40.327  34.134  38.431  1.00  0.00    -0.014 A 
ATOM     72  C   UNL A   1      39.364  33.989  39.447  1.00  0.00     0.010 A 
ATOM     73  C   UNL A   1      41.242  35.199  38.507  1.00  0.00     0.010 A 
ATOM     74  C   UNL A   1      39.277  34.924  40.482  1.00  0.00     0.020 A 
ATOM     75  C   UNL A   1      41.179  36.120  39.557  1.00  0.00     0.020 A 
ATOM     76  C   UNL A   1      40.181  35.990  40.524  1.00  0.00     0.054 A 
BRANCH  76  77
ATOM     77  S   UNL A   1      40.039  37.199  41.869  1.00  0.00     0.124 S 
ATOM     78  O   UNL A   1      41.441  37.503  42.146  1.00  0.00    -0.237 OA
ATOM     79  O   UNL A   1      39.273  38.279  41.253  1.00  0.00    -0.237 OA
ATOM     80  O   UNL A   1      39.341  36.465  42.922  1.00  0.00    -0.744 OA
ENDBRANCH  76  77
ENDBRANCH  57  71
BRANCH  58  81
ATOM     81  C   UNL A   1      40.469  28.109  30.455  1.00  0.00    -0.014 A 
ATOM     82  C   UNL A   1      39.446  27.164  30.263  1.00  0.00     0.010 A 
ATOM     83  C   UNL A   1      41.490  28.218  29.494  1.00  0.00     0.010 A 
ATOM     84  C   UNL A   1      39.445  26.341  29.134  1.00  0.00     0.020 A 
ATOM     85  C   UNL A   1      41.479  27.414  28.351  1.00  0.00     0.020 A 
ATOM     86  C   UNL A   1      40.459  26.475  28.181  1.00  0.00     0.054 A 
BRANCH  86  87
ATOM     87  S   UNL A   1      40.397  25.446  26.688  1.00  0.00     0.124 S 
ATOM     88  O   UNL A   1      41.368  24.403  26.998  1.00  0.00    -0.237 OA
ATOM     89  O   UNL A   1      38.999  25.023  26.655  1.00  0.00    -0.237 OA
ATOM     90  O   UNL A   1      40.785  26.369  25.623  1.00  0.00    -0.744 OA
ENDBRANCH  86  87
ENDBRANCH  58  81
BRANCH  70  91
ATOM     91  C   UNL A   1      44.461  28.665  36.151  1.00  0.00    -0.014 A 
ATOM     92  C   UNL A   1      45.770  29.097  35.869  1.00  0.00     0.010 A 
ATOM     93  C   UNL A   1      44.273  27.521  36.948  1.00  0.00     0.010 A 
ATOM     94  C   UNL A   1      46.868  28.381  36.353  1.00  0.00     0.020 A 
ATOM     95  C   UNL A   1      45.368  26.820  37.457  1.00  0.00     0.020 A 
ATOM     96  C   UNL A   1      46.661  27.247  37.145  1.00  0.00     0.054 A 
BRANCH  96  97
ATOM     97  S   UNL A   1      48.103  26.365  37.802  1.00  0.00     0.124 S 
ATOM     98  O   UNL A   1      49.186  27.304  37.523  1.00  0.00    -0.237 OA
ATOM     99  O   UNL A   1      47.762  26.200  39.213  1.00  0.00    -0.237 OA
ATOM    100  O   UNL A   1      48.135  25.127  37.026  1.00  0.00    -0.744 OA
ENDBRANCH  96  97
ENDBRANCH  70  91
ENDBRANCH  44  45
ENDBRANCH  36  39
ENDBRANCH  34  35
ENDBRANCH  33  34
ENDBRANCH  32  33
ENDBRANCH   1  32
TORSDOF 19
ENDMDL
MODEL 3
REMARK VINA RESULT:     -11.4      6.190      8.209
REMARK SMILES CC1=C(C(=O)NCCCCCCNC(=O)c2ccc(-c3c4nc(c(-c5ccc(S(=O)(=O)[O-])cc5)c5ccc([nH]5)c(-c5ccc(S(=O)(=O)[O-])cc5)c5nc(c(-c6ccc(S(=O)(=O)[O-])cc6)c6ccc3[nH]6)C=C5)C=C4)cc2)N2C(=O)[C@H](NC(=O)c3cc(C(F)(F)F)nn3C)[C@@H]2SC1
REMARK SMILES IDX 9 1 8 2 7 3 6 4 4 5 5 6 3 8 1 9 2 10 95 11 76 12 94 13 77 14
REMARK SMILES IDX 93 15 78 16 79 17 80 18 81 19 82 21 83 22 84 23 91 24 85 25
REMARK SMILES IDX 90 26 92 27 86 28 87 29 88 30 89 31 10 32 11 33 12 34 13 35
REMARK SMILES IDX 14 36 15 38 16 39 17 40 75 41 18 42 74 43 19 44 20 45 21 46
REMARK SMILES IDX 68 47 22 48 73 49 67 50 69 51 23 52 72 53 66 54 65 55 24 57
REMARK SMILES IDX 54 58 35 59 53 60 36 61 39 62 52 63 70 64 37 65 38 66 51 68
REMARK SMILES IDX 71 69 40 70 25 71 26 72 34 73 27 74 33 75 28 76 29 77 30 78
REMARK SMILES IDX 31 79 32 80 55 81 56 82 64 83 57 84 63 85 58 86 59 87 60 88
REMARK SMILES IDX 61 89 62 90 41 91 42 92 50 93 43 94 49 95 44 96 45 97 46 98
REMARK SMILES IDX 47 99 48 100
REMARK H PARENT 6 7 80 20 13 37 69 56 39 67
REMARK Flexibility Score: inf
ROOT
ATOM      1  C   UNL A   1      33.529  30.886  27.120  1.00  0.00     0.002 C 
ENDROOT
BRANCH   1   2
ATOM      2  C   UNL A   1      34.165  29.554  27.528  1.00  0.00     0.021 C 
BRANCH   2   3
ATOM      3  C   UNL A   1      33.967  28.422  26.509  1.00  0.00     0.116 C 
BRANCH   3   4
ATOM      4  N   UNL A   1      34.030  28.986  25.177  1.00  0.00    -0.351 N 
ATOM      5  C   UNL A   1      33.379  28.683  24.026  1.00  0.00     0.268 C 
ATOM      6  O   UNL A   1      33.871  29.097  22.971  1.00  0.00    -0.268 OA
ATOM      7  H   UNL A   1      34.667  29.730  25.090  1.00  0.00     0.163 HD
BRANCH   5   8
ATOM      8  C   UNL A   1      32.055  27.955  23.962  1.00  0.00     0.110 C 
ATOM      9  C   UNL A   1      30.454  29.927  23.983  1.00  0.00     0.043 C 
ATOM     10  C   UNL A   1      30.797  28.464  23.929  1.00  0.00    -0.034 C 
ATOM     11  C   UNL A   1      29.522  27.621  23.890  1.00  0.00     0.104 C 
ATOM     12  N   UNL A   1      32.185  26.612  24.149  1.00  0.00    -0.290 N 
ATOM     13  S   UNL A   1      29.732  25.819  23.840  1.00  0.00    -0.129 SA
ATOM     14  C   UNL A   1      33.125  25.658  24.025  1.00  0.00     0.253 C 
ATOM     15  C   UNL A   1      31.214  25.835  24.875  1.00  0.00     0.181 C 
ATOM     16  O   UNL A   1      34.215  25.625  23.494  1.00  0.00    -0.272 OA
ATOM     17  C   UNL A   1      32.201  24.637  24.758  1.00  0.00     0.206 C 
BRANCH  17  18
ATOM     18  N   UNL A   1      31.741  23.468  23.972  1.00  0.00    -0.336 N 
ATOM     19  C   UNL A   1      32.366  22.263  23.785  1.00  0.00     0.270 C 
ATOM     20  H   UNL A   1      30.870  23.571  23.525  1.00  0.00     0.164 HD
ATOM     21  O   UNL A   1      31.849  21.444  23.030  1.00  0.00    -0.268 OA
BRANCH  19  22
ATOM     22  C   UNL A   1      33.628  22.026  24.443  1.00  0.00     0.126 A 
ATOM     23  C   UNL A   1      34.929  22.137  23.981  1.00  0.00     0.069 A 
ATOM     24  N   UNL A   1      33.756  21.674  25.762  1.00  0.00    -0.262 N 
ATOM     25  C   UNL A   1      35.770  21.749  25.059  1.00  0.00     0.167 A 
ATOM     26  N   UNL A   1      35.032  21.463  26.147  1.00  0.00    -0.168 NA
ATOM     27  C   UNL A   1      32.709  21.440  26.732  1.00  0.00     0.174 C 
BRANCH  25  28
ATOM     28  C   UNL A   1      37.273  21.643  25.039  1.00  0.00     0.435 C 
ATOM     29  F   UNL A   1      37.826  22.213  23.937  1.00  0.00    -0.164 F 
ATOM     30  F   UNL A   1      37.849  22.227  26.124  1.00  0.00    -0.164 F 
ATOM     31  F   UNL A   1      37.681  20.343  25.046  1.00  0.00    -0.164 F 
ENDBRANCH  25  28
ENDBRANCH  19  22
ENDBRANCH  17  18
ENDBRANCH   5   8
ENDBRANCH   3   4
ENDBRANCH   2   3
ENDBRANCH   1   2
BRANCH   1  32
ATOM     32  C   UNL A   1      34.081  32.105  27.861  1.00  0.00     0.002 C 
BRANCH  32  33
ATOM     33  C   UNL A   1      33.127  33.302  27.952  1.00  0.00     0.021 C 
BRANCH  33  34
ATOM     34  C   UNL A   1      33.769  34.601  28.436  1.00  0.00     0.116 C 
BRANCH  34  35
ATOM     35  N   UNL A   1      33.008  35.207  29.516  1.00  0.00    -0.352 N 
ATOM     36  C   UNL A   1      33.156  35.059  30.874  1.00  0.00     0.251 C 
ATOM     37  H   UNL A   1      32.284  35.811  29.235  1.00  0.00     0.163 HD
ATOM     38  O   UNL A   1      32.271  35.443  31.632  1.00  0.00    -0.269 OA
BRANCH  36  39
ATOM     39  C   UNL A   1      34.378  34.427  31.417  1.00  0.00     0.039 A 
ATOM     40  C   UNL A   1      34.401  33.043  31.610  1.00  0.00     0.014 A 
ATOM     41  C   UNL A   1      35.488  35.203  31.759  1.00  0.00     0.014 A 
ATOM     42  C   UNL A   1      35.559  32.432  32.097  1.00  0.00     0.010 A 
ATOM     43  C   UNL A   1      36.663  34.586  32.180  1.00  0.00     0.010 A 
ATOM     44  C   UNL A   1      36.709  33.195  32.361  1.00  0.00    -0.014 A 
BRANCH  44  45
ATOM     45  C   UNL A   1      37.966  32.561  32.832  1.00  0.00     0.031 A 
ATOM     46  C   UNL A   1      38.460  32.810  34.231  1.00  0.00     0.074 A 
ATOM     47  C   UNL A   1      38.697  31.814  31.982  1.00  0.00     0.049 A 
ATOM     48  N   UNL A   1      39.563  32.399  34.803  1.00  0.00    -0.248 NA
ATOM     49  C   UNL A   1      37.615  33.653  35.092  1.00  0.00     0.031 C 
ATOM     50  C   UNL A   1      38.343  31.522  30.591  1.00  0.00     0.029 A 
ATOM     51  N   UNL A   1      39.893  31.166  32.161  1.00  0.00    -0.354 N 
ATOM     52  C   UNL A   1      39.552  32.944  36.082  1.00  0.00     0.074 A 
ATOM     53  C   UNL A   1      38.359  33.757  36.183  1.00  0.00     0.031 C 
ATOM     54  C   UNL A   1      39.285  30.731  30.054  1.00  0.00     0.029 A 
ATOM     55  C   UNL A   1      40.329  30.493  31.045  1.00  0.00     0.049 A 
ATOM     56  H   UNL A   1      40.393  31.184  33.010  1.00  0.00     0.167 HD
ATOM     57  C   UNL A   1      40.442  32.770  37.088  1.00  0.00     0.031 A 
ATOM     58  C   UNL A   1      41.445  29.766  30.841  1.00  0.00     0.031 A 
ATOM     59  C   UNL A   1      41.626  31.957  36.986  1.00  0.00     0.049 A 
ATOM     60  C   UNL A   1      42.431  29.602  31.964  1.00  0.00     0.074 A 
ATOM     61  C   UNL A   1      42.568  31.680  37.960  1.00  0.00     0.029 A 
ATOM     62  N   UNL A   1      42.030  31.293  35.837  1.00  0.00    -0.354 N 
ATOM     63  N   UNL A   1      42.377  30.083  33.183  1.00  0.00    -0.248 NA
ATOM     64  C   UNL A   1      43.622  28.787  31.687  1.00  0.00     0.031 C 
ATOM     65  C   UNL A   1      43.568  30.887  37.387  1.00  0.00     0.029 A 
ATOM     66  C   UNL A   1      43.221  30.625  36.071  1.00  0.00     0.049 A 
ATOM     67  H   UNL A   1      41.545  31.297  34.981  1.00  0.00     0.167 HD
ATOM     68  C   UNL A   1      43.514  29.608  33.828  1.00  0.00     0.074 A 
ATOM     69  C   UNL A   1      44.230  28.793  32.866  1.00  0.00     0.031 C 
ATOM     70  C   UNL A   1      43.925  29.823  35.101  1.00  0.00     0.031 A 
BRANCH  57  71
ATOM     71  C   UNL A   1      40.168  33.488  38.384  1.00  0.00    -0.014 A 
ATOM     72  C   UNL A   1      39.241  32.981  39.314  1.00  0.00     0.010 A 
ATOM     73  C   UNL A   1      40.846  34.684  38.681  1.00  0.00     0.010 A 
ATOM     74  C   UNL A   1      38.953  33.687  40.485  1.00  0.00     0.020 A 
ATOM     75  C   UNL A   1      40.584  35.378  39.866  1.00  0.00     0.020 A 
ATOM     76  C   UNL A   1      39.620  34.887  40.749  1.00  0.00     0.054 A 
BRANCH  76  77
ATOM     77  S   UNL A   1      39.218  35.791  42.269  1.00  0.00     0.124 S 
ATOM     78  O   UNL A   1      40.171  35.219  43.218  1.00  0.00    -0.237 OA
ATOM     79  O   UNL A   1      39.465  37.180  41.893  1.00  0.00    -0.237 OA
ATOM     80  O   UNL A   1      37.818  35.453  42.513  1.00  0.00    -0.744 OA
ENDBRANCH  76  77
ENDBRANCH  57  71
BRANCH  58  81
ATOM     81  C   UNL A   1      41.669  29.115  29.521  1.00  0.00    -0.014 A 
ATOM     82  C   UNL A   1      42.344  29.803  28.498  1.00  0.00     0.010 A 
ATOM     83  C   UNL A   1      41.241  27.795  29.293  1.00  0.00     0.010 A 
ATOM     84  C   UNL A   1      42.584  29.185  27.268  1.00  0.00     0.020 A 
ATOM     85  C   UNL A   1      41.501  27.165  28.072  1.00  0.00     0.020 A 
ATOM     86  C   UNL A   1      42.166  27.866  27.064  1.00  0.00     0.054 A 
BRANCH  86  87
ATOM     87  S   UNL A   1      42.552  27.060  25.486  1.00  0.00     0.124 S 
ATOM     88  O   UNL A   1      42.513  28.182  24.554  1.00  0.00    -0.237 OA
ATOM     89  O   UNL A   1      43.874  26.490  25.738  1.00  0.00    -0.237 OA
ATOM     90  O   UNL A   1      41.480  26.079  25.333  1.00  0.00    -0.744 OA
ENDBRANCH  86  87
ENDBRANCH  58  81
BRANCH  70  91
ATOM     91  C   UNL A   1      45.193  29.144  35.543  1.00  0.00    -0.014 A 
ATOM     92  C   UNL A   1      46.439  29.788  35.438  1.00  0.00     0.010 A 
ATOM     93  C   UNL A   1      45.129  27.865  36.124  1.00  0.00     0.010 A 
ATOM     94  C   UNL A   1      47.601  29.151  35.881  1.00  0.00     0.020 A 
ATOM     95  C   UNL A   1      46.285  27.237  36.593  1.00  0.00     0.020 A 
ATOM     96  C   UNL A   1      47.517  27.880  36.457  1.00  0.00     0.054 A 
BRANCH  96  97
ATOM     97  S   UNL A   1      49.034  27.095  37.069  1.00  0.00     0.124 S 
ATOM     98  O   UNL A   1      49.457  26.310  35.914  1.00  0.00    -0.237 OA
ATOM     99  O   UNL A   1      49.879  28.242  37.395  1.00  0.00    -0.237 OA
ATOM    100  O   UNL A   1      48.580  26.317  38.220  1.00  0.00    -0.744 OA
ENDBRANCH  96  97
ENDBRANCH  70  91
ENDBRANCH  44  45
ENDBRANCH  36  39
ENDBRANCH  34  35
ENDBRANCH  33  34
ENDBRANCH  32  33
ENDBRANCH   1  32
TORSDOF 19
ENDMDL
