MODEL 1
REMARK VINA RESULT:     -11.1      0.000      0.000
REMARK SMILES O=C(NCCCCCCNC(=O)c1ccc(-c2c3nc(c(-c4ccc(S(=O)(=O)[O-])cc4)c4ccc([nH]4)c(-c4ccc(S(=O)(=O)[O-])cc4)c4nc(c(-c5ccc(S(=O)(=O)[O-])cc5)c5ccc2[nH]5)C=C4)C=C3)cc1)C1=Cc2c(Cl)cc(Cl)cc2O[C@@H]1C(F)(F)F
REMARK SMILES IDX 7 1 6 2 5 3 4 4 3 5 1 6 2 7 73 9 74 10 84 11 75 12 83 13
REMARK SMILES IDX 76 14 82 15 77 16 78 17 81 18 79 19 80 20 85 21 86 22 87 23
REMARK SMILES IDX 88 24 8 25 9 26 10 27 11 28 12 30 13 31 14 32 72 33 15 34
REMARK SMILES IDX 71 35 16 36 17 37 18 38 65 39 19 40 70 41 64 42 66 43 20 44
REMARK SMILES IDX 69 45 63 46 62 47 21 49 51 50 32 51 50 52 33 53 36 54 49 55
REMARK SMILES IDX 67 56 34 57 35 58 48 60 68 61 37 62 22 63 23 64 31 65 24 66
REMARK SMILES IDX 30 67 25 68 26 69 27 70 28 71 29 72 52 73 53 74 61 75 54 76
REMARK SMILES IDX 60 77 55 78 56 79 57 80 58 81 59 82 38 83 39 84 47 85 40 86
REMARK SMILES IDX 46 87 41 88 42 89 43 90 44 91 45 92
REMARK H PARENT 3 8 10 29 66 48 36 59
REMARK Flexibility Score: inf
ROOT
ATOM      1  C   UNL A   1      34.317  22.614  24.914  1.00  0.00     0.002 C 
ENDROOT
BRANCH   1   2
ATOM      2  C   UNL A   1      32.811  22.814  24.692  1.00  0.00     0.002 C 
BRANCH   2   3
ATOM      3  C   UNL A   1      31.937  22.948  25.942  1.00  0.00     0.021 C 
BRANCH   3   4
ATOM      4  C   UNL A   1      30.798  23.963  25.858  1.00  0.00     0.116 C 
BRANCH   4   5
ATOM      5  N   UNL A   1      31.117  25.291  26.388  1.00  0.00    -0.352 N 
ATOM      6  O   UNL A   1      31.128  27.565  26.421  1.00  0.00    -0.270 OA
ATOM      7  C   UNL A   1      31.003  26.522  25.781  1.00  0.00     0.251 C 
ATOM      8  H   UNL A   1      31.463  25.306  27.310  1.00  0.00     0.163 HD
BRANCH   7   9
ATOM      9  C   UNL A   1      30.591  26.559  24.362  1.00  0.00     0.067 C 
ATOM     10  C   UNL A   1      29.297  26.682  24.035  1.00  0.00     0.027 C 
ATOM     11  C   UNL A   1      31.667  26.794  23.350  1.00  0.00     0.314 C 
ATOM     12  C   UNL A   1      29.059  27.831  23.126  1.00  0.00     0.036 A 
ATOM     13  O   UNL A   1      31.471  28.044  22.652  1.00  0.00    -0.475 OA
ATOM     14  C   UNL A   1      27.817  28.501  23.126  1.00  0.00     0.053 A 
ATOM     15  C   UNL A   1      30.177  28.507  22.583  1.00  0.00     0.130 A 
ATOM     16  Cl  UNL A   1      26.401  27.830  23.865  1.00  0.00    -0.083 Cl
ATOM     17  C   UNL A   1      27.717  29.816  22.659  1.00  0.00     0.042 A 
ATOM     18  C   UNL A   1      30.065  29.810  22.094  1.00  0.00     0.067 A 
ATOM     19  C   UNL A   1      28.842  30.467  22.163  1.00  0.00     0.046 A 
ATOM     20  Cl  UNL A   1      28.742  32.124  21.720  1.00  0.00    -0.084 Cl
BRANCH  11  21
ATOM     21  C   UNL A   1      31.770  25.619  22.360  1.00  0.00     0.429 C 
ATOM     22  F   UNL A   1      31.442  26.008  21.103  1.00  0.00    -0.167 F 
ATOM     23  F   UNL A   1      33.026  25.119  22.297  1.00  0.00    -0.167 F 
ATOM     24  F   UNL A   1      30.948  24.593  22.686  1.00  0.00    -0.167 F 
ENDBRANCH  11  21
ENDBRANCH   7   9
ENDBRANCH   4   5
ENDBRANCH   3   4
ENDBRANCH   2   3
ENDBRANCH   1   2
BRANCH   1  25
ATOM     25  C   UNL A   1      35.045  23.662  25.765  1.00  0.00     0.021 C 
BRANCH  25  26
ATOM     26  C   UNL A   1      36.442  24.073  25.296  1.00  0.00     0.116 C 
BRANCH  26  27
ATOM     27  N   UNL A   1      37.423  23.013  25.442  1.00  0.00    -0.352 N 
ATOM     28  C   UNL A   1      38.660  23.025  26.035  1.00  0.00     0.251 C 
ATOM     29  H   UNL A   1      37.159  22.148  25.054  1.00  0.00     0.163 HD
ATOM     30  O   UNL A   1      39.384  22.031  25.924  1.00  0.00    -0.269 OA
BRANCH  28  31
ATOM     31  C   UNL A   1      39.152  24.204  26.787  1.00  0.00     0.039 A 
ATOM     32  C   UNL A   1      39.986  25.114  26.127  1.00  0.00     0.014 A 
ATOM     33  C   UNL A   1      38.856  24.395  28.139  1.00  0.00     0.014 A 
ATOM     34  C   UNL A   1      40.481  26.232  26.805  1.00  0.00     0.010 A 
ATOM     35  C   UNL A   1      39.305  25.542  28.799  1.00  0.00     0.010 A 
ATOM     36  C   UNL A   1      40.127  26.470  28.141  1.00  0.00    -0.014 A 
BRANCH  36  37
ATOM     37  C   UNL A   1      40.611  27.681  28.858  1.00  0.00     0.031 A 
ATOM     38  C   UNL A   1      41.997  27.720  29.446  1.00  0.00     0.074 A 
ATOM     39  C   UNL A   1      39.786  28.735  29.018  1.00  0.00     0.049 A 
ATOM     40  N   UNL A   1      42.578  28.677  30.124  1.00  0.00    -0.248 NA
ATOM     41  C   UNL A   1      42.831  26.522  29.265  1.00  0.00     0.031 C 
ATOM     42  C   UNL A   1      38.412  28.818  28.521  1.00  0.00     0.029 A 
ATOM     43  N   UNL A   1      39.985  29.940  29.648  1.00  0.00    -0.354 N 
ATOM     44  C   UNL A   1      43.835  28.192  30.468  1.00  0.00     0.074 A 
ATOM     45  C   UNL A   1      43.917  26.841  29.955  1.00  0.00     0.031 C 
ATOM     46  C   UNL A   1      37.901  30.019  28.838  1.00  0.00     0.029 A 
ATOM     47  C   UNL A   1      38.894  30.778  29.593  1.00  0.00     0.049 A 
ATOM     48  H   UNL A   1      40.827  30.181  30.095  1.00  0.00     0.167 HD
ATOM     49  C   UNL A   1      44.834  28.815  31.140  1.00  0.00     0.031 A 
ATOM     50  C   UNL A   1      38.711  32.014  30.094  1.00  0.00     0.031 A 
ATOM     51  C   UNL A   1      44.758  30.163  31.639  1.00  0.00     0.049 A 
ATOM     52  C   UNL A   1      39.829  32.680  30.848  1.00  0.00     0.074 A 
ATOM     53  C   UNL A   1      45.743  30.903  32.270  1.00  0.00     0.029 A 
ATOM     54  N   UNL A   1      43.634  30.972  31.569  1.00  0.00    -0.354 N 
ATOM     55  N   UNL A   1      41.034  32.228  31.104  1.00  0.00    -0.248 NA
ATOM     56  C   UNL A   1      39.565  34.026  31.375  1.00  0.00     0.031 C 
ATOM     57  C   UNL A   1      45.198  32.140  32.631  1.00  0.00     0.029 A 
ATOM     58  C   UNL A   1      43.890  32.192  32.174  1.00  0.00     0.049 A 
ATOM     59  H   UNL A   1      42.779  30.717  31.152  1.00  0.00     0.167 HD
ATOM     60  C   UNL A   1      41.681  33.247  31.796  1.00  0.00     0.074 A 
ATOM     61  C   UNL A   1      40.737  34.340  31.910  1.00  0.00     0.031 C 
ATOM     62  C   UNL A   1      42.945  33.273  32.286  1.00  0.00     0.031 A 
BRANCH  49  63
ATOM     63  C   UNL A   1      46.096  28.032  31.394  1.00  0.00    -0.014 A 
ATOM     64  C   UNL A   1      46.271  27.290  32.577  1.00  0.00     0.010 A 
ATOM     65  C   UNL A   1      47.109  28.009  30.418  1.00  0.00     0.010 A 
ATOM     66  C   UNL A   1      47.453  26.580  32.800  1.00  0.00     0.020 A 
ATOM     67  C   UNL A   1      48.283  27.278  30.625  1.00  0.00     0.020 A 
ATOM     68  C   UNL A   1      48.456  26.585  31.824  1.00  0.00     0.054 A 
BRANCH  68  69
ATOM     69  S   UNL A   1      49.979  25.650  32.134  1.00  0.00     0.124 S 
ATOM     70  O   UNL A   1      50.847  26.675  32.710  1.00  0.00    -0.237 OA
ATOM     71  O   UNL A   1      49.536  24.610  33.060  1.00  0.00    -0.237 OA
ATOM     72  O   UNL A   1      50.371  25.176  30.811  1.00  0.00    -0.744 OA
ENDBRANCH  68  69
ENDBRANCH  49  63
BRANCH  50  73
ATOM     73  C   UNL A   1      37.417  32.717  29.878  1.00  0.00    -0.014 A 
ATOM     74  C   UNL A   1      37.193  33.441  28.694  1.00  0.00     0.010 A 
ATOM     75  C   UNL A   1      36.397  32.654  30.845  1.00  0.00     0.010 A 
ATOM     76  C   UNL A   1      35.977  34.097  28.484  1.00  0.00     0.020 A 
ATOM     77  C   UNL A   1      35.171  33.288  30.628  1.00  0.00     0.020 A 
ATOM     78  C   UNL A   1      34.972  34.014  29.452  1.00  0.00     0.054 A 
BRANCH  78  79
ATOM     79  S   UNL A   1      33.381  34.825  29.133  1.00  0.00     0.124 S 
ATOM     80  O   UNL A   1      32.783  34.855  30.464  1.00  0.00    -0.237 OA
ATOM     81  O   UNL A   1      33.789  36.119  28.592  1.00  0.00    -0.237 OA
ATOM     82  O   UNL A   1      32.732  33.935  28.173  1.00  0.00    -0.744 OA
ENDBRANCH  78  79
ENDBRANCH  50  73
BRANCH  62  83
ATOM     83  C   UNL A   1      43.397  34.537  32.968  1.00  0.00    -0.014 A 
ATOM     84  C   UNL A   1      43.347  34.670  34.366  1.00  0.00     0.010 A 
ATOM     85  C   UNL A   1      43.929  35.588  32.197  1.00  0.00     0.010 A 
ATOM     86  C   UNL A   1      43.793  35.844  34.980  1.00  0.00     0.020 A 
ATOM     87  C   UNL A   1      44.402  36.751  32.810  1.00  0.00     0.020 A 
ATOM     88  C   UNL A   1      44.318  36.877  34.198  1.00  0.00     0.054 A 
BRANCH  88  89
ATOM     89  S   UNL A   1      44.933  38.373  35.020  1.00  0.00     0.124 S 
ATOM     90  O   UNL A   1      44.218  38.336  36.293  1.00  0.00    -0.237 OA
ATOM     91  O   UNL A   1      46.371  38.128  35.100  1.00  0.00    -0.237 OA
ATOM     92  O   UNL A   1      44.541  39.452  34.116  1.00  0.00    -0.744 OA
ENDBRANCH  88  89
ENDBRANCH  62  83
ENDBRANCH  36  37
ENDBRANCH  28  31
ENDBRANCH  26  27
ENDBRANCH  25  26
ENDBRANCH   1  25
TORSDOF 17
ENDMDL
MODEL 2
REMARK VINA RESULT:     -11.0      3.438      9.521
REMARK SMILES O=C(NCCCCCCNC(=O)c1ccc(-c2c3nc(c(-c4ccc(S(=O)(=O)[O-])cc4)c4ccc([nH]4)c(-c4ccc(S(=O)(=O)[O-])cc4)c4nc(c(-c5ccc(S(=O)(=O)[O-])cc5)c5ccc2[nH]5)C=C4)C=C3)cc1)C1=Cc2c(Cl)cc(Cl)cc2O[C@@H]1C(F)(F)F
REMARK SMILES IDX 7 1 6 2 5 3 4 4 3 5 1 6 2 7 73 9 74 10 84 11 75 12 83 13
REMARK SMILES IDX 76 14 82 15 77 16 78 17 81 18 79 19 80 20 85 21 86 22 87 23
REMARK SMILES IDX 88 24 8 25 9 26 10 27 11 28 12 30 13 31 14 32 72 33 15 34
REMARK SMILES IDX 71 35 16 36 17 37 18 38 65 39 19 40 70 41 64 42 66 43 20 44
REMARK SMILES IDX 69 45 63 46 62 47 21 49 51 50 32 51 50 52 33 53 36 54 49 55
REMARK SMILES IDX 67 56 34 57 35 58 48 60 68 61 37 62 22 63 23 64 31 65 24 66
REMARK SMILES IDX 30 67 25 68 26 69 27 70 28 71 29 72 52 73 53 74 61 75 54 76
REMARK SMILES IDX 60 77 55 78 56 79 57 80 58 81 59 82 38 83 39 84 47 85 40 86
REMARK SMILES IDX 46 87 41 88 42 89 43 90 44 91 45 92
REMARK H PARENT 3 8 10 29 66 48 36 59
REMARK Flexibility Score: inf
ROOT
ATOM      1  C   UNL A   1      33.202  28.392  24.459  1.00  0.00     0.002 C 
ENDROOT
BRANCH   1   2
ATOM      2  C   UNL A   1      32.380  27.253  23.840  1.00  0.00     0.002 C 
BRANCH   2   3
ATOM      3  C   UNL A   1      32.963  26.570  22.600  1.00  0.00     0.021 C 
BRANCH   3   4
ATOM      4  C   UNL A   1      32.927  25.043  22.595  1.00  0.00     0.116 C 
BRANCH   4   5
ATOM      5  N   UNL A   1      34.162  24.396  23.047  1.00  0.00    -0.352 N 
ATOM      6  O   UNL A   1      35.442  22.695  23.846  1.00  0.00    -0.270 OA
ATOM      7  C   UNL A   1      34.328  23.197  23.704  1.00  0.00     0.251 C 
ATOM      8  H   UNL A   1      34.992  24.890  22.853  1.00  0.00     0.163 HD
BRANCH   7   9
ATOM      9  C   UNL A   1      33.115  22.460  24.117  1.00  0.00     0.067 C 
ATOM     10  C   UNL A   1      32.532  21.591  23.280  1.00  0.00     0.027 C 
ATOM     11  C   UNL A   1      32.783  22.466  25.575  1.00  0.00     0.314 C 
ATOM     12  C   UNL A   1      32.378  20.247  23.890  1.00  0.00     0.036 A 
ATOM     13  O   UNL A   1      32.861  21.139  26.140  1.00  0.00    -0.475 OA
ATOM     14  C   UNL A   1      32.365  19.089  23.084  1.00  0.00     0.053 A 
ATOM     15  C   UNL A   1      32.665  20.093  25.268  1.00  0.00     0.130 A 
ATOM     16  Cl  UNL A   1      32.143  19.157  21.367  1.00  0.00    -0.083 Cl
ATOM     17  C   UNL A   1      32.688  17.840  23.625  1.00  0.00     0.042 A 
ATOM     18  C   UNL A   1      32.960  18.840  25.807  1.00  0.00     0.067 A 
ATOM     19  C   UNL A   1      33.000  17.726  24.977  1.00  0.00     0.046 A 
ATOM     20  Cl  UNL A   1      33.527  16.216  25.605  1.00  0.00    -0.084 Cl
BRANCH  11  21
ATOM     21  C   UNL A   1      31.400  23.095  25.830  1.00  0.00     0.429 C 
ATOM     22  F   UNL A   1      31.367  23.735  27.025  1.00  0.00    -0.167 F 
ATOM     23  F   UNL A   1      31.080  24.013  24.888  1.00  0.00    -0.167 F 
ATOM     24  F   UNL A   1      30.406  22.174  25.844  1.00  0.00    -0.167 F 
ENDBRANCH  11  21
ENDBRANCH   7   9
ENDBRANCH   4   5
ENDBRANCH   3   4
ENDBRANCH   2   3
ENDBRANCH   1   2
BRANCH   1  25
ATOM     25  C   UNL A   1      34.189  28.021  25.572  1.00  0.00     0.021 C 
BRANCH  25  26
ATOM     26  C   UNL A   1      33.719  28.252  27.009  1.00  0.00     0.116 C 
BRANCH  26  27
ATOM     27  N   UNL A   1      33.594  29.659  27.345  1.00  0.00    -0.352 N 
ATOM     28  C   UNL A   1      34.468  30.498  27.990  1.00  0.00     0.251 C 
ATOM     29  H   UNL A   1      32.748  30.078  27.065  1.00  0.00     0.163 HD
ATOM     30  O   UNL A   1      34.092  31.636  28.286  1.00  0.00    -0.269 OA
BRANCH  28  31
ATOM     31  C   UNL A   1      35.837  30.065  28.353  1.00  0.00     0.039 A 
ATOM     32  C   UNL A   1      36.844  30.153  27.385  1.00  0.00     0.014 A 
ATOM     33  C   UNL A   1      36.132  29.520  29.607  1.00  0.00     0.014 A 
ATOM     34  C   UNL A   1      38.146  29.742  27.684  1.00  0.00     0.010 A 
ATOM     35  C   UNL A   1      37.446  29.163  29.923  1.00  0.00     0.010 A 
ATOM     36  C   UNL A   1      38.466  29.264  28.964  1.00  0.00    -0.014 A 
BRANCH  36  37
ATOM     37  C   UNL A   1      39.858  28.868  29.308  1.00  0.00     0.031 A 
ATOM     38  C   UNL A   1      40.771  29.823  30.029  1.00  0.00     0.074 A 
ATOM     39  C   UNL A   1      40.318  27.658  28.932  1.00  0.00     0.049 A 
ATOM     40  N   UNL A   1      42.020  29.661  30.386  1.00  0.00    -0.248 NA
ATOM     41  C   UNL A   1      40.215  31.140  30.377  1.00  0.00     0.031 C 
ATOM     42  C   UNL A   1      39.548  26.646  28.207  1.00  0.00     0.029 A 
ATOM     43  N   UNL A   1      41.549  27.074  29.108  1.00  0.00    -0.354 N 
ATOM     44  C   UNL A   1      42.406  30.857  30.982  1.00  0.00     0.074 A 
ATOM     45  C   UNL A   1      41.269  31.749  30.904  1.00  0.00     0.031 C 
ATOM     46  C   UNL A   1      40.312  25.557  28.025  1.00  0.00     0.029 A 
ATOM     47  C   UNL A   1      41.637  25.803  28.586  1.00  0.00     0.049 A 
ATOM     48  H   UNL A   1      42.298  27.521  29.564  1.00  0.00     0.167 HD
ATOM     49  C   UNL A   1      43.593  31.180  31.551  1.00  0.00     0.031 A 
ATOM     50  C   UNL A   1      42.666  24.935  28.557  1.00  0.00     0.031 A 
ATOM     51  C   UNL A   1      44.719  30.289  31.641  1.00  0.00     0.049 A 
ATOM     52  C   UNL A   1      43.978  25.323  29.182  1.00  0.00     0.074 A 
ATOM     53  C   UNL A   1      45.938  30.504  32.259  1.00  0.00     0.029 A 
ATOM     54  N   UNL A   1      44.769  29.016  31.092  1.00  0.00    -0.354 N 
ATOM     55  N   UNL A   1      44.300  26.435  29.800  1.00  0.00    -0.248 NA
ATOM     56  C   UNL A   1      45.064  24.334  29.114  1.00  0.00     0.031 C 
ATOM     57  C   UNL A   1      46.746  29.382  32.038  1.00  0.00     0.029 A 
ATOM     58  C   UNL A   1      46.008  28.446  31.330  1.00  0.00     0.049 A 
ATOM     59  H   UNL A   1      44.032  28.582  30.604  1.00  0.00     0.167 HD
ATOM     60  C   UNL A   1      45.616  26.267  30.219  1.00  0.00     0.074 A 
ATOM     61  C   UNL A   1      46.026  24.944  29.793  1.00  0.00     0.031 C 
ATOM     62  C   UNL A   1      46.409  27.130  30.900  1.00  0.00     0.031 A 
BRANCH  49  63
ATOM     63  C   UNL A   1      43.741  32.573  32.106  1.00  0.00    -0.014 A 
ATOM     64  C   UNL A   1      43.401  32.868  33.440  1.00  0.00     0.010 A 
ATOM     65  C   UNL A   1      44.264  33.595  31.293  1.00  0.00     0.010 A 
ATOM     66  C   UNL A   1      43.535  34.168  33.933  1.00  0.00     0.020 A 
ATOM     67  C   UNL A   1      44.425  34.891  31.791  1.00  0.00     0.020 A 
ATOM     68  C   UNL A   1      44.040  35.174  33.103  1.00  0.00     0.054 A 
BRANCH  68  69
ATOM     69  S   UNL A   1      44.211  36.853  33.769  1.00  0.00     0.124 S 
ATOM     70  O   UNL A   1      45.181  37.442  32.849  1.00  0.00    -0.237 OA
ATOM     71  O   UNL A   1      42.852  37.379  33.668  1.00  0.00    -0.237 OA
ATOM     72  O   UNL A   1      44.693  36.639  35.129  1.00  0.00    -0.744 OA
ENDBRANCH  68  69
ENDBRANCH  49  63
BRANCH  50  73
ATOM     73  C   UNL A   1      42.490  23.597  27.931  1.00  0.00    -0.014 A 
ATOM     74  C   UNL A   1      42.811  23.400  26.576  1.00  0.00     0.010 A 
ATOM     75  C   UNL A   1      42.016  22.509  28.687  1.00  0.00     0.010 A 
ATOM     76  C   UNL A   1      42.653  22.143  25.986  1.00  0.00     0.020 A 
ATOM     77  C   UNL A   1      41.880  21.246  28.107  1.00  0.00     0.020 A 
ATOM     78  C   UNL A   1      42.190  21.072  26.756  1.00  0.00     0.054 A 
BRANCH  78  79
ATOM     79  S   UNL A   1      42.048  19.436  25.984  1.00  0.00     0.124 S 
ATOM     80  O   UNL A   1      42.903  19.579  24.810  1.00  0.00    -0.237 OA
ATOM     81  O   UNL A   1      42.550  18.549  27.030  1.00  0.00    -0.237 OA
ATOM     82  O   UNL A   1      40.618  19.314  25.708  1.00  0.00    -0.744 OA
ENDBRANCH  78  79
ENDBRANCH  50  73
BRANCH  62  83
ATOM     83  C   UNL A   1      47.795  26.664  31.256  1.00  0.00    -0.014 A 
ATOM     84  C   UNL A   1      48.041  25.942  32.438  1.00  0.00     0.010 A 
ATOM     85  C   UNL A   1      48.859  26.907  30.368  1.00  0.00     0.010 A 
ATOM     86  C   UNL A   1      49.332  25.498  32.739  1.00  0.00     0.020 A 
ATOM     87  C   UNL A   1      50.146  26.441  30.652  1.00  0.00     0.020 A 
ATOM     88  C   UNL A   1      50.376  25.751  31.844  1.00  0.00     0.054 A 
BRANCH  88  89
ATOM     89  S   UNL A   1      52.034  25.126  32.233  1.00  0.00     0.124 S 
ATOM     90  O   UNL A   1      51.829  23.680  32.202  1.00  0.00    -0.237 OA
ATOM     91  O   UNL A   1      52.846  25.669  31.148  1.00  0.00    -0.237 OA
ATOM     92  O   UNL A   1      52.315  25.686  33.554  1.00  0.00    -0.744 OA
ENDBRANCH  88  89
ENDBRANCH  62  83
ENDBRANCH  36  37
ENDBRANCH  28  31
ENDBRANCH  26  27
ENDBRANCH  25  26
ENDBRANCH   1  25
TORSDOF 17
ENDMDL
MODEL 3
REMARK VINA RESULT:     -11.0      2.112      2.617
REMARK SMILES O=C(NCCCCCCNC(=O)c1ccc(-c2c3nc(c(-c4ccc(S(=O)(=O)[O-])cc4)c4ccc([nH]4)c(-c4ccc(S(=O)(=O)[O-])cc4)c4nc(c(-c5ccc(S(=O)(=O)[O-])cc5)c5ccc2[nH]5)C=C4)C=C3)cc1)C1=Cc2c(Cl)cc(Cl)cc2O[C@@H]1C(F)(F)F
REMARK SMILES IDX 7 1 6 2 5 3 4 4 3 5 1 6 2 7 73 9 74 10 84 11 75 12 83 13
REMARK SMILES IDX 76 14 82 15 77 16 78 17 81 18 79 19 80 20 85 21 86 22 87 23
REMARK SMILES IDX 88 24 8 25 9 26 10 27 11 28 12 30 13 31 14 32 72 33 15 34
REMARK SMILES IDX 71 35 16 36 17 37 18 38 65 39 19 40 70 41 64 42 66 43 20 44
REMARK SMILES IDX 69 45 63 46 62 47 21 49 51 50 32 51 50 52 33 53 36 54 49 55
REMARK SMILES IDX 67 56 34 57 35 58 48 60 68 61 37 62 22 63 23 64 31 65 24 66
REMARK SMILES IDX 30 67 25 68 26 69 27 70 28 71 29 72 52 73 53 74 61 75 54 76
REMARK SMILES IDX 60 77 55 78 56 79 57 80 58 81 59 82 38 83 39 84 47 85 40 86
REMARK SMILES IDX 46 87 41 88 42 89 43 90 44 91 45 92
REMARK H PARENT 3 8 10 29 66 48 36 59
REMARK Flexibility Score: inf
ROOT
ATOM      1  C   UNL A   1      34.168  23.790  25.703  1.00  0.00     0.002 C 
ENDROOT
BRANCH   1   2
ATOM      2  C   UNL A   1      32.959  23.251  26.480  1.00  0.00     0.002 C 
BRANCH   2   3
ATOM      3  C   UNL A   1      31.645  23.109  25.707  1.00  0.00     0.021 C 
BRANCH   3   4
ATOM      4  C   UNL A   1      30.528  24.074  26.102  1.00  0.00     0.116 C 
BRANCH   4   5
ATOM      5  N   UNL A   1      30.983  25.395  26.545  1.00  0.00    -0.352 N 
ATOM      6  O   UNL A   1      31.225  27.653  26.427  1.00  0.00    -0.270 OA
ATOM      7  C   UNL A   1      30.991  26.588  25.857  1.00  0.00     0.251 C 
ATOM      8  H   UNL A   1      31.332  25.435  27.464  1.00  0.00     0.163 HD
BRANCH   7   9
ATOM      9  C   UNL A   1      30.579  26.573  24.438  1.00  0.00     0.067 C 
ATOM     10  C   UNL A   1      29.286  26.699  24.106  1.00  0.00     0.027 C 
ATOM     11  C   UNL A   1      31.657  26.754  23.417  1.00  0.00     0.314 C 
ATOM     12  C   UNL A   1      29.062  27.814  23.152  1.00  0.00     0.036 A 
ATOM     13  O   UNL A   1      31.476  27.977  22.670  1.00  0.00    -0.475 OA
ATOM     14  C   UNL A   1      27.829  28.499  23.126  1.00  0.00     0.053 A 
ATOM     15  C   UNL A   1      30.189  28.453  22.582  1.00  0.00     0.130 A 
ATOM     16  Cl  UNL A   1      26.405  27.876  23.892  1.00  0.00    -0.083 Cl
ATOM     17  C   UNL A   1      27.744  29.795  22.606  1.00  0.00     0.042 A 
ATOM     18  C   UNL A   1      30.092  29.736  22.041  1.00  0.00     0.067 A 
ATOM     19  C   UNL A   1      28.878  30.411  22.084  1.00  0.00     0.046 A 
ATOM     20  Cl  UNL A   1      28.798  32.050  21.574  1.00  0.00    -0.084 Cl
BRANCH  11  21
ATOM     21  C   UNL A   1      31.744  25.539  22.475  1.00  0.00     0.429 C 
ATOM     22  F   UNL A   1      32.982  24.986  22.504  1.00  0.00    -0.167 F 
ATOM     23  F   UNL A   1      30.874  24.563  22.827  1.00  0.00    -0.167 F 
ATOM     24  F   UNL A   1      31.482  25.862  21.186  1.00  0.00    -0.167 F 
ENDBRANCH  11  21
ENDBRANCH   7   9
ENDBRANCH   4   5
ENDBRANCH   3   4
ENDBRANCH   2   3
ENDBRANCH   1   2
BRANCH   1  25
ATOM     25  C   UNL A   1      35.356  22.840  25.506  1.00  0.00     0.021 C 
BRANCH  25  26
ATOM     26  C   UNL A   1      36.707  23.314  26.041  1.00  0.00     0.116 C 
BRANCH  26  27
ATOM     27  N   UNL A   1      37.719  22.273  26.030  1.00  0.00    -0.352 N 
ATOM     28  C   UNL A   1      39.068  22.343  26.272  1.00  0.00     0.251 C 
ATOM     29  H   UNL A   1      37.383  21.373  25.815  1.00  0.00     0.163 HD
ATOM     30  O   UNL A   1      39.761  21.341  26.076  1.00  0.00    -0.269 OA
BRANCH  28  31
ATOM     31  C   UNL A   1      39.710  23.592  26.743  1.00  0.00     0.039 A 
ATOM     32  C   UNL A   1      39.792  24.674  25.859  1.00  0.00     0.014 A 
ATOM     33  C   UNL A   1      40.282  23.696  28.015  1.00  0.00     0.014 A 
ATOM     34  C   UNL A   1      40.403  25.866  26.260  1.00  0.00     0.010 A 
ATOM     35  C   UNL A   1      40.841  24.906  28.434  1.00  0.00     0.010 A 
ATOM     36  C   UNL A   1      40.913  26.002  27.560  1.00  0.00    -0.014 A 
BRANCH  36  37
ATOM     37  C   UNL A   1      41.523  27.282  28.013  1.00  0.00     0.031 A 
ATOM     38  C   UNL A   1      43.013  27.483  27.952  1.00  0.00     0.074 A 
ATOM     39  C   UNL A   1      40.736  28.252  28.522  1.00  0.00     0.049 A 
ATOM     40  N   UNL A   1      43.722  28.519  28.326  1.00  0.00    -0.248 NA
ATOM     41  C   UNL A   1      43.814  26.370  27.419  1.00  0.00     0.031 C 
ATOM     42  C   UNL A   1      39.281  28.176  28.661  1.00  0.00     0.029 A 
ATOM     43  N   UNL A   1      41.053  29.493  29.018  1.00  0.00    -0.354 N 
ATOM     44  C   UNL A   1      45.050  28.177  28.095  1.00  0.00     0.074 A 
ATOM     45  C   UNL A   1      45.050  26.823  27.582  1.00  0.00     0.031 C 
ATOM     46  C   UNL A   1      38.828  29.330  29.178  1.00  0.00     0.029 A 
ATOM     47  C   UNL A   1      39.960  30.213  29.443  1.00  0.00     0.049 A 
ATOM     48  H   UNL A   1      41.974  29.835  29.065  1.00  0.00     0.167 HD
ATOM     49  C   UNL A   1      46.166  28.923  28.281  1.00  0.00     0.031 A 
ATOM     50  C   UNL A   1      39.876  31.442  29.988  1.00  0.00     0.031 A 
ATOM     51  C   UNL A   1      46.165  30.274  28.778  1.00  0.00     0.049 A 
ATOM     52  C   UNL A   1      41.130  32.245  30.197  1.00  0.00     0.074 A 
ATOM     53  C   UNL A   1      47.239  31.133  28.934  1.00  0.00     0.029 A 
ATOM     54  N   UNL A   1      45.039  30.961  29.204  1.00  0.00    -0.354 N 
ATOM     55  N   UNL A   1      42.370  31.928  29.908  1.00  0.00    -0.248 NA
ATOM     56  C   UNL A   1      40.973  33.576  30.800  1.00  0.00     0.031 C 
ATOM     57  C   UNL A   1      46.770  32.321  29.507  1.00  0.00     0.029 A 
ATOM     58  C   UNL A   1      45.395  32.222  29.653  1.00  0.00     0.049 A 
ATOM     59  H   UNL A   1      44.121  30.606  29.190  1.00  0.00     0.167 HD
ATOM     60  C   UNL A   1      43.136  33.032  30.267  1.00  0.00     0.074 A 
ATOM     61  C   UNL A   1      42.219  34.028  30.786  1.00  0.00     0.031 C 
ATOM     62  C   UNL A   1      44.478  33.205  30.171  1.00  0.00     0.031 A 
BRANCH  49  63
ATOM     63  C   UNL A   1      47.492  28.283  27.962  1.00  0.00    -0.014 A 
ATOM     64  C   UNL A   1      48.203  27.553  28.933  1.00  0.00     0.010 A 
ATOM     65  C   UNL A   1      48.018  28.381  26.661  1.00  0.00     0.010 A 
ATOM     66  C   UNL A   1      49.438  26.976  28.622  1.00  0.00     0.020 A 
ATOM     67  C   UNL A   1      49.239  27.783  26.339  1.00  0.00     0.020 A 
ATOM     68  C   UNL A   1      49.952  27.102  27.327  1.00  0.00     0.054 A 
BRANCH  68  69
ATOM     69  S   UNL A   1      51.553  26.338  26.946  1.00  0.00     0.124 S 
ATOM     70  O   UNL A   1      51.803  26.829  25.593  1.00  0.00    -0.237 OA
ATOM     71  O   UNL A   1      52.425  26.885  27.983  1.00  0.00    -0.237 OA
ATOM     72  O   UNL A   1      51.289  24.907  27.049  1.00  0.00    -0.744 OA
ENDBRANCH  68  69
ENDBRANCH  49  63
BRANCH  50  73
ATOM     73  C   UNL A   1      38.546  32.001  30.353  1.00  0.00    -0.014 A 
ATOM     74  C   UNL A   1      37.959  31.684  31.590  1.00  0.00     0.010 A 
ATOM     75  C   UNL A   1      37.868  32.866  29.475  1.00  0.00     0.010 A 
ATOM     76  C   UNL A   1      36.713  32.212  31.939  1.00  0.00     0.020 A 
ATOM     77  C   UNL A   1      36.634  33.416  29.831  1.00  0.00     0.020 A 
ATOM     78  C   UNL A   1      36.059  33.077  31.058  1.00  0.00     0.054 A 
BRANCH  78  79
ATOM     79  S   UNL A   1      34.470  33.797  31.556  1.00  0.00     0.124 S 
ATOM     80  O   UNL A   1      33.907  32.741  32.392  1.00  0.00    -0.237 OA
ATOM     81  O   UNL A   1      34.880  35.011  32.259  1.00  0.00    -0.237 OA
ATOM     82  O   UNL A   1      33.785  34.024  30.286  1.00  0.00    -0.744 OA
ENDBRANCH  78  79
ENDBRANCH  50  73
BRANCH  62  83
ATOM     83  C   UNL A   1      45.038  34.532  30.606  1.00  0.00    -0.014 A 
ATOM     84  C   UNL A   1      45.487  34.739  31.922  1.00  0.00     0.010 A 
ATOM     85  C   UNL A   1      45.165  35.573  29.667  1.00  0.00     0.010 A 
ATOM     86  C   UNL A   1      46.025  35.973  32.299  1.00  0.00     0.020 A 
ATOM     87  C   UNL A   1      45.728  36.798  30.033  1.00  0.00     0.020 A 
ATOM     88  C   UNL A   1      46.142  36.995  31.352  1.00  0.00     0.054 A 
BRANCH  88  89
ATOM     89  S   UNL A   1      46.885  38.572  31.853  1.00  0.00     0.124 S 
ATOM     90  O   UNL A   1      45.715  39.344  32.261  1.00  0.00    -0.237 OA
ATOM     91  O   UNL A   1      47.784  38.176  32.933  1.00  0.00    -0.237 OA
ATOM     92  O   UNL A   1      47.550  39.043  30.639  1.00  0.00    -0.744 OA
ENDBRANCH  88  89
ENDBRANCH  62  83
ENDBRANCH  36  37
ENDBRANCH  28  31
ENDBRANCH  26  27
ENDBRANCH  25  26
ENDBRANCH   1  25
TORSDOF 17
ENDMDL
