MODEL 1
REMARK VINA RESULT:      -9.3      0.000      0.000
REMARK SMILES CSCC[C@@H](C(=O)NCCCCCCNC(=O)c1ccc(-c2c3nc(c(-c4ccc(S(=O)(=O)[O-])cc4)c4ccc([nH]4)c(-c4ccc(S(=O)(=O)[O-])cc4)c4nc(c(-c5ccc(S(=O)(=O)[O-])cc5)c5ccc2[nH]5)C=C4)C=C3)cc1)N1C(=O)/C(=C/c2ccc(-c3ccccc3Cl)o2)SC1=S
REMARK SMILES IDX 11 1 10 2 9 3 8 4 6 5 7 6 5 8 4 9 3 10 2 11 1 12 78 13 79 14
REMARK SMILES IDX 96 15 80 16 81 17 95 18 97 19 82 20 83 21 84 22 94 23 85 24
REMARK SMILES IDX 86 25 87 26 88 27 92 28 89 29 91 30 93 31 90 32 12 33 13 34
REMARK SMILES IDX 14 35 15 36 16 37 17 39 18 40 19 41 77 42 20 43 76 44 21 45
REMARK SMILES IDX 22 46 23 47 70 48 24 49 75 50 69 51 71 52 25 53 74 54 68 55
REMARK SMILES IDX 67 56 26 58 56 59 37 60 55 61 38 62 41 63 54 64 72 65 39 66
REMARK SMILES IDX 40 67 53 69 73 70 42 71 27 72 28 73 36 74 29 75 35 76 30 77
REMARK SMILES IDX 31 78 32 79 33 80 34 81 57 82 58 83 66 84 59 85 65 86 60 87
REMARK SMILES IDX 61 88 62 89 63 90 64 91 43 92 44 93 52 94 45 95 51 96 46 97
REMARK SMILES IDX 47 98 48 99 49 100 50 101
REMARK H PARENT 8 7 15 38 71 57 41 68
REMARK Flexibility Score: inf
ROOT
ATOM      1  C   UNL A   1      44.954  38.810  26.602  1.00  0.00     0.002 C 
ENDROOT
BRANCH   1   2
ATOM      2  C   UNL A   1      46.417  38.533  26.242  1.00  0.00     0.021 C 
BRANCH   2   3
ATOM      3  C   UNL A   1      47.230  39.798  26.007  1.00  0.00     0.116 C 
BRANCH   3   4
ATOM      4  N   UNL A   1      47.120  40.755  27.075  1.00  0.00    -0.354 N 
ATOM      5  C   UNL A   1      47.008  42.107  27.006  1.00  0.00     0.243 C 
ATOM      6  O   UNL A   1      46.366  42.628  27.929  1.00  0.00    -0.273 OA
ATOM      7  H   UNL A   1      47.127  40.376  27.984  1.00  0.00     0.163 HD
BRANCH   5   8
ATOM      8  C   UNL A   1      47.544  42.969  25.821  1.00  0.00     0.182 C 
BRANCH   8   9
ATOM      9  C   UNL A   1      48.257  44.314  26.054  1.00  0.00     0.046 C 
BRANCH   9  10
ATOM     10  C   UNL A   1      49.517  44.417  26.929  1.00  0.00     0.072 C 
BRANCH  10  11
ATOM     11  S   UNL A   1      49.375  44.628  28.740  1.00  0.00    -0.165 SA
ATOM     12  C   UNL A   1      50.142  46.238  29.086  1.00  0.00     0.085 C 
ENDBRANCH  10  11
ENDBRANCH   9  10
ENDBRANCH   8   9
BRANCH   8  13
ATOM     13  N   UNL A   1      46.381  43.218  24.914  1.00  0.00    -0.280 N 
ATOM     14  C   UNL A   1      46.331  42.532  23.711  1.00  0.00     0.267 C 
ATOM     15  C   UNL A   1      45.440  44.222  25.073  1.00  0.00     0.149 C 
ATOM     16  O   UNL A   1      47.153  41.711  23.314  1.00  0.00    -0.268 OA
ATOM     17  C   UNL A   1      45.197  43.012  22.881  1.00  0.00     0.084 C 
ATOM     18  S   UNL A   1      44.250  44.121  23.787  1.00  0.00    -0.054 SA
ATOM     19  S   UNL A   1      45.355  45.443  26.210  1.00  0.00    -0.052 S 
ATOM     20  C   UNL A   1      45.029  42.625  21.608  1.00  0.00     0.068 C 
BRANCH  20  21
ATOM     21  C   UNL A   1      43.966  43.100  20.793  1.00  0.00     0.128 A 
ATOM     22  C   UNL A   1      42.723  42.536  20.519  1.00  0.00     0.051 A 
ATOM     23  O   UNL A   1      44.045  44.281  20.092  1.00  0.00    -0.457 OA
ATOM     24  C   UNL A   1      42.081  43.347  19.560  1.00  0.00     0.051 A 
ATOM     25  C   UNL A   1      42.943  44.387  19.301  1.00  0.00     0.136 A 
BRANCH  25  26
ATOM     26  C   UNL A   1      42.888  45.514  18.381  1.00  0.00     0.036 A 
ATOM     27  C   UNL A   1      41.902  45.501  17.378  1.00  0.00     0.013 A 
ATOM     28  C   UNL A   1      43.820  46.566  18.387  1.00  0.00     0.052 A 
ATOM     29  C   UNL A   1      41.856  46.494  16.396  1.00  0.00     0.001 A 
ATOM     30  C   UNL A   1      43.770  47.560  17.401  1.00  0.00     0.021 A 
ATOM     31  Cl  UNL A   1      45.114  46.674  19.534  1.00  0.00    -0.084 Cl
ATOM     32  C   UNL A   1      42.796  47.519  16.404  1.00  0.00     0.002 A 
ENDBRANCH  25  26
ENDBRANCH  20  21
ENDBRANCH   8  13
ENDBRANCH   5   8
ENDBRANCH   3   4
ENDBRANCH   2   3
ENDBRANCH   1   2
BRANCH   1  33
ATOM     33  C   UNL A   1      44.348  37.841  27.626  1.00  0.00     0.002 C 
BRANCH  33  34
ATOM     34  C   UNL A   1      44.267  38.371  29.062  1.00  0.00     0.021 C 
BRANCH  34  35
ATOM     35  C   UNL A   1      45.174  37.650  30.054  1.00  0.00     0.116 C 
BRANCH  35  36
ATOM     36  N   UNL A   1      46.580  37.921  29.795  1.00  0.00    -0.352 N 
ATOM     37  C   UNL A   1      47.590  37.054  29.472  1.00  0.00     0.251 C 
ATOM     38  H   UNL A   1      46.843  38.867  29.861  1.00  0.00     0.163 HD
ATOM     39  O   UNL A   1      48.759  37.425  29.532  1.00  0.00    -0.269 OA
BRANCH  37  40
ATOM     40  C   UNL A   1      47.267  35.673  29.059  1.00  0.00     0.039 A 
ATOM     41  C   UNL A   1      47.008  35.411  27.711  1.00  0.00     0.014 A 
ATOM     42  C   UNL A   1      47.199  34.646  30.004  1.00  0.00     0.014 A 
ATOM     43  C   UNL A   1      46.730  34.106  27.305  1.00  0.00     0.010 A 
ATOM     44  C   UNL A   1      46.997  33.335  29.586  1.00  0.00     0.010 A 
ATOM     45  C   UNL A   1      46.750  33.052  28.234  1.00  0.00    -0.014 A 
BRANCH  45  46
ATOM     46  C   UNL A   1      46.509  31.650  27.813  1.00  0.00     0.031 A 
ATOM     47  C   UNL A   1      45.127  31.061  27.903  1.00  0.00     0.074 A 
ATOM     48  C   UNL A   1      47.545  30.891  27.405  1.00  0.00     0.049 A 
ATOM     49  N   UNL A   1      44.731  29.844  27.633  1.00  0.00    -0.248 NA
ATOM     50  C   UNL A   1      44.054  31.948  28.385  1.00  0.00     0.031 C 
ATOM     51  C   UNL A   1      48.937  31.338  27.309  1.00  0.00     0.029 A 
ATOM     52  N   UNL A   1      47.590  29.581  26.997  1.00  0.00    -0.354 N 
ATOM     53  C   UNL A   1      43.372  29.815  27.924  1.00  0.00     0.074 A 
ATOM     54  C   UNL A   1      43.022  31.119  28.443  1.00  0.00     0.031 C 
ATOM     55  C   UNL A   1      49.693  30.329  26.845  1.00  0.00     0.029 A 
ATOM     56  C   UNL A   1      48.851  29.153  26.653  1.00  0.00     0.049 A 
ATOM     57  H   UNL A   1      46.794  29.002  26.956  1.00  0.00     0.167 HD
ATOM     58  C   UNL A   1      42.490  28.801  27.756  1.00  0.00     0.031 A 
ATOM     59  C   UNL A   1      49.283  27.947  26.238  1.00  0.00     0.031 A 
ATOM     60  C   UNL A   1      42.844  27.508  27.234  1.00  0.00     0.049 A 
ATOM     61  C   UNL A   1      48.288  26.829  26.079  1.00  0.00     0.074 A 
ATOM     62  C   UNL A   1      42.016  26.428  26.975  1.00  0.00     0.029 A 
ATOM     63  N   UNL A   1      44.130  27.115  26.895  1.00  0.00    -0.354 N 
ATOM     64  N   UNL A   1      46.994  26.841  26.295  1.00  0.00    -0.248 NA
ATOM     65  C   UNL A   1      48.809  25.539  25.607  1.00  0.00     0.031 C 
ATOM     66  C   UNL A   1      42.810  25.364  26.539  1.00  0.00     0.029 A 
ATOM     67  C   UNL A   1      44.123  25.801  26.457  1.00  0.00     0.049 A 
ATOM     68  H   UNL A   1      44.930  27.685  26.956  1.00  0.00     0.167 HD
ATOM     69  C   UNL A   1      46.542  25.571  25.957  1.00  0.00     0.074 A 
ATOM     70  C   UNL A   1      47.699  24.822  25.508  1.00  0.00     0.031 C 
ATOM     71  C   UNL A   1      45.283  25.069  26.013  1.00  0.00     0.031 A 
BRANCH  58  72
ATOM     72  C   UNL A   1      41.056  29.048  28.150  1.00  0.00    -0.014 A 
ATOM     73  C   UNL A   1      40.067  29.305  27.183  1.00  0.00     0.010 A 
ATOM     74  C   UNL A   1      40.683  28.982  29.506  1.00  0.00     0.010 A 
ATOM     75  C   UNL A   1      38.743  29.533  27.564  1.00  0.00     0.020 A 
ATOM     76  C   UNL A   1      39.353  29.178  29.889  1.00  0.00     0.020 A 
ATOM     77  C   UNL A   1      38.394  29.469  28.917  1.00  0.00     0.054 A 
BRANCH  77  78
ATOM     78  S   UNL A   1      36.662  29.746  29.381  1.00  0.00     0.124 S 
ATOM     79  O   UNL A   1      36.590  29.084  30.682  1.00  0.00    -0.237 OA
ATOM     80  O   UNL A   1      36.570  31.203  29.412  1.00  0.00    -0.237 OA
ATOM     81  O   UNL A   1      35.907  29.098  28.312  1.00  0.00    -0.744 OA
ENDBRANCH  77  78
ENDBRANCH  58  72
BRANCH  59  82
ATOM     82  C   UNL A   1      50.726  27.738  25.934  1.00  0.00    -0.014 A 
ATOM     83  C   UNL A   1      51.234  28.012  24.652  1.00  0.00     0.010 A 
ATOM     84  C   UNL A   1      51.603  27.272  26.930  1.00  0.00     0.010 A 
ATOM     85  C   UNL A   1      52.588  27.807  24.367  1.00  0.00     0.020 A 
ATOM     86  C   UNL A   1      52.963  27.096  26.658  1.00  0.00     0.020 A 
ATOM     87  C   UNL A   1      53.445  27.353  25.373  1.00  0.00     0.054 A 
BRANCH  87  88
ATOM     88  S   UNL A   1      55.206  27.140  24.993  1.00  0.00     0.124 S 
ATOM     89  O   UNL A   1      55.291  25.705  24.744  1.00  0.00    -0.237 OA
ATOM     90  O   UNL A   1      55.380  27.998  23.824  1.00  0.00    -0.237 OA
ATOM     91  O   UNL A   1      55.876  27.607  26.205  1.00  0.00    -0.744 OA
ENDBRANCH  87  88
ENDBRANCH  59  82
BRANCH  71  92
ATOM     92  C   UNL A   1      45.078  23.654  25.538  1.00  0.00    -0.014 A 
ATOM     93  C   UNL A   1      44.789  23.367  24.192  1.00  0.00     0.010 A 
ATOM     94  C   UNL A   1      45.238  22.590  26.445  1.00  0.00     0.010 A 
ATOM     95  C   UNL A   1      44.629  22.045  23.771  1.00  0.00     0.020 A 
ATOM     96  C   UNL A   1      45.112  21.266  26.021  1.00  0.00     0.020 A 
ATOM     97  C   UNL A   1      44.794  21.002  24.688  1.00  0.00     0.054 A 
BRANCH  97  98
ATOM     98  S   UNL A   1      44.627  19.293  24.105  1.00  0.00     0.124 S 
ATOM     99  O   UNL A   1      44.443  19.478  22.668  1.00  0.00    -0.237 OA
ATOM    100  O   UNL A   1      45.899  18.693  24.504  1.00  0.00    -0.237 OA
ATOM    101  O   UNL A   1      43.457  18.792  24.824  1.00  0.00    -0.744 OA
ENDBRANCH  97  98
ENDBRANCH  71  92
ENDBRANCH  45  46
ENDBRANCH  37  40
ENDBRANCH  35  36
ENDBRANCH  34  35
ENDBRANCH  33  34
ENDBRANCH   1  33
TORSDOF 22
ENDMDL
MODEL 2
REMARK VINA RESULT:      -8.8      1.574      7.890
REMARK SMILES CSCC[C@@H](C(=O)NCCCCCCNC(=O)c1ccc(-c2c3nc(c(-c4ccc(S(=O)(=O)[O-])cc4)c4ccc([nH]4)c(-c4ccc(S(=O)(=O)[O-])cc4)c4nc(c(-c5ccc(S(=O)(=O)[O-])cc5)c5ccc2[nH]5)C=C4)C=C3)cc1)N1C(=O)/C(=C/c2ccc(-c3ccccc3Cl)o2)SC1=S
REMARK SMILES IDX 11 1 10 2 9 3 8 4 6 5 7 6 5 8 4 9 3 10 2 11 1 12 78 13 79 14
REMARK SMILES IDX 96 15 80 16 81 17 95 18 97 19 82 20 83 21 84 22 94 23 85 24
REMARK SMILES IDX 86 25 87 26 88 27 92 28 89 29 91 30 93 31 90 32 12 33 13 34
REMARK SMILES IDX 14 35 15 36 16 37 17 39 18 40 19 41 77 42 20 43 76 44 21 45
REMARK SMILES IDX 22 46 23 47 70 48 24 49 75 50 69 51 71 52 25 53 74 54 68 55
REMARK SMILES IDX 67 56 26 58 56 59 37 60 55 61 38 62 41 63 54 64 72 65 39 66
REMARK SMILES IDX 40 67 53 69 73 70 42 71 27 72 28 73 36 74 29 75 35 76 30 77
REMARK SMILES IDX 31 78 32 79 33 80 34 81 57 82 58 83 66 84 59 85 65 86 60 87
REMARK SMILES IDX 61 88 62 89 63 90 64 91 43 92 44 93 52 94 45 95 51 96 46 97
REMARK SMILES IDX 47 98 48 99 49 100 50 101
REMARK H PARENT 8 7 15 38 71 57 41 68
REMARK Flexibility Score: inf
ROOT
ATOM      1  C   UNL A   1      42.833  38.829  27.370  1.00  0.00     0.002 C 
ENDROOT
BRANCH   1   2
ATOM      2  C   UNL A   1      42.264  40.213  27.043  1.00  0.00     0.021 C 
BRANCH   2   3
ATOM      3  C   UNL A   1      43.291  41.159  26.438  1.00  0.00     0.116 C 
BRANCH   3   4
ATOM      4  N   UNL A   1      43.868  42.064  27.397  1.00  0.00    -0.354 N 
ATOM      5  C   UNL A   1      45.001  42.808  27.299  1.00  0.00     0.243 C 
ATOM      6  O   UNL A   1      44.982  43.878  27.923  1.00  0.00    -0.273 OA
ATOM      7  H   UNL A   1      43.371  42.156  28.242  1.00  0.00     0.163 HD
BRANCH   5   8
ATOM      8  C   UNL A   1      46.220  42.430  26.400  1.00  0.00     0.182 C 
BRANCH   8   9
ATOM      9  C   UNL A   1      47.670  42.588  26.892  1.00  0.00     0.046 C 
BRANCH   9  10
ATOM     10  C   UNL A   1      47.989  43.012  28.335  1.00  0.00     0.072 C 
BRANCH  10  11
ATOM     11  S   UNL A   1      49.542  42.476  29.138  1.00  0.00    -0.165 SA
ATOM     12  C   UNL A   1      50.832  43.535  28.422  1.00  0.00     0.085 C 
ENDBRANCH  10  11
ENDBRANCH   9  10
ENDBRANCH   8   9
BRANCH   8  13
ATOM     13  N   UNL A   1      46.076  43.217  25.135  1.00  0.00    -0.280 N 
ATOM     14  C   UNL A   1      45.755  42.534  23.973  1.00  0.00     0.267 C 
ATOM     15  C   UNL A   1      46.429  44.547  24.974  1.00  0.00     0.149 C 
ATOM     16  O   UNL A   1      45.555  41.326  23.878  1.00  0.00    -0.268 OA
ATOM     17  C   UNL A   1      45.803  43.444  22.801  1.00  0.00     0.084 C 
ATOM     18  S   UNL A   1      46.066  45.055  23.333  1.00  0.00    -0.054 SA
ATOM     19  S   UNL A   1      47.150  45.604  26.048  1.00  0.00    -0.052 S 
ATOM     20  C   UNL A   1      45.692  42.995  21.542  1.00  0.00     0.068 C 
BRANCH  20  21
ATOM     21  C   UNL A   1      45.767  43.851  20.410  1.00  0.00     0.128 A 
ATOM     22  C   UNL A   1      46.877  44.365  19.746  1.00  0.00     0.051 A 
ATOM     23  O   UNL A   1      44.647  44.338  19.778  1.00  0.00    -0.457 OA
ATOM     24  C   UNL A   1      46.414  45.255  18.754  1.00  0.00     0.051 A 
ATOM     25  C   UNL A   1      45.041  45.234  18.833  1.00  0.00     0.136 A 
BRANCH  25  26
ATOM     26  C   UNL A   1      43.997  45.962  18.126  1.00  0.00     0.036 A 
ATOM     27  C   UNL A   1      42.684  45.460  18.188  1.00  0.00     0.013 A 
ATOM     28  C   UNL A   1      44.245  47.083  17.317  1.00  0.00     0.052 A 
ATOM     29  C   UNL A   1      41.651  46.043  17.449  1.00  0.00     0.001 A 
ATOM     30  C   UNL A   1      43.207  47.666  16.578  1.00  0.00     0.021 A 
ATOM     31  Cl  UNL A   1      45.823  47.768  17.112  1.00  0.00    -0.084 Cl
ATOM     32  C   UNL A   1      41.916  47.142  16.638  1.00  0.00     0.002 A 
ENDBRANCH  25  26
ENDBRANCH  20  21
ENDBRANCH   8  13
ENDBRANCH   5   8
ENDBRANCH   3   4
ENDBRANCH   2   3
ENDBRANCH   1   2
BRANCH   1  33
ATOM     33  C   UNL A   1      43.765  38.786  28.590  1.00  0.00     0.002 C 
BRANCH  33  34
ATOM     34  C   UNL A   1      45.200  38.333  28.303  1.00  0.00     0.021 C 
BRANCH  34  35
ATOM     35  C   UNL A   1      45.981  37.889  29.536  1.00  0.00     0.116 C 
BRANCH  35  36
ATOM     36  N   UNL A   1      47.415  37.879  29.290  1.00  0.00    -0.352 N 
ATOM     37  C   UNL A   1      48.268  36.815  29.145  1.00  0.00     0.251 C 
ATOM     38  H   UNL A   1      47.834  38.766  29.218  1.00  0.00     0.163 HD
ATOM     39  O   UNL A   1      49.481  36.993  29.190  1.00  0.00    -0.269 OA
BRANCH  37  40
ATOM     40  C   UNL A   1      47.719  35.460  28.939  1.00  0.00     0.039 A 
ATOM     41  C   UNL A   1      47.188  35.124  27.691  1.00  0.00     0.014 A 
ATOM     42  C   UNL A   1      47.710  34.531  29.983  1.00  0.00     0.014 A 
ATOM     43  C   UNL A   1      46.694  33.837  27.476  1.00  0.00     0.010 A 
ATOM     44  C   UNL A   1      47.288  33.227  29.745  1.00  0.00     0.010 A 
ATOM     45  C   UNL A   1      46.765  32.869  28.493  1.00  0.00    -0.014 A 
BRANCH  45  46
ATOM     46  C   UNL A   1      46.294  31.481  28.267  1.00  0.00     0.031 A 
ATOM     47  C   UNL A   1      47.206  30.468  27.629  1.00  0.00     0.074 A 
ATOM     48  C   UNL A   1      45.027  31.149  28.583  1.00  0.00     0.049 A 
ATOM     49  N   UNL A   1      46.958  29.225  27.303  1.00  0.00    -0.248 NA
ATOM     50  C   UNL A   1      48.567  30.917  27.288  1.00  0.00     0.031 C 
ATOM     51  C   UNL A   1      44.036  32.053  29.173  1.00  0.00     0.029 A 
ATOM     52  N   UNL A   1      44.352  29.961  28.449  1.00  0.00    -0.354 N 
ATOM     53  C   UNL A   1      48.122  28.750  26.708  1.00  0.00     0.074 A 
ATOM     54  C   UNL A   1      49.057  29.853  26.669  1.00  0.00     0.031 C 
ATOM     55  C   UNL A   1      42.892  31.381  29.375  1.00  0.00     0.029 A 
ATOM     56  C   UNL A   1      43.050  30.014  28.889  1.00  0.00     0.049 A 
ATOM     57  H   UNL A   1      44.761  29.149  28.071  1.00  0.00     0.167 HD
ATOM     58  C   UNL A   1      48.394  27.503  26.255  1.00  0.00     0.031 A 
ATOM     59  C   UNL A   1      42.088  29.071  28.894  1.00  0.00     0.031 A 
ATOM     60  C   UNL A   1      47.460  26.410  26.303  1.00  0.00     0.049 A 
ATOM     61  C   UNL A   1      42.409  27.698  28.366  1.00  0.00     0.074 A 
ATOM     62  C   UNL A   1      47.656  25.094  25.917  1.00  0.00     0.029 A 
ATOM     63  N   UNL A   1      46.154  26.503  26.759  1.00  0.00    -0.354 N 
ATOM     64  N   UNL A   1      43.537  27.250  27.869  1.00  0.00    -0.248 NA
ATOM     65  C   UNL A   1      41.330  26.702  28.410  1.00  0.00     0.031 C 
ATOM     66  C   UNL A   1      46.449  24.408  26.082  1.00  0.00     0.029 A 
ATOM     67  C   UNL A   1      45.522  25.277  26.638  1.00  0.00     0.049 A 
ATOM     68  H   UNL A   1      45.736  27.320  27.116  1.00  0.00     0.167 HD
ATOM     69  C   UNL A   1      43.313  25.911  27.570  1.00  0.00     0.074 A 
ATOM     70  C   UNL A   1      41.946  25.620  27.955  1.00  0.00     0.031 C 
ATOM     71  C   UNL A   1      44.161  25.003  27.026  1.00  0.00     0.031 A 
BRANCH  58  72
ATOM     72  C   UNL A   1      49.757  27.259  25.657  1.00  0.00    -0.014 A 
ATOM     73  C   UNL A   1      50.878  27.022  26.473  1.00  0.00     0.010 A 
ATOM     74  C   UNL A   1      49.910  27.223  24.259  1.00  0.00     0.010 A 
ATOM     75  C   UNL A   1      52.135  26.798  25.904  1.00  0.00     0.020 A 
ATOM     76  C   UNL A   1      51.159  26.968  23.685  1.00  0.00     0.020 A 
ATOM     77  C   UNL A   1      52.267  26.773  24.512  1.00  0.00     0.054 A 
BRANCH  77  78
ATOM     78  S   UNL A   1      53.906  26.456  23.802  1.00  0.00     0.124 S 
ATOM     79  O   UNL A   1      54.642  27.655  24.197  1.00  0.00    -0.237 OA
ATOM     80  O   UNL A   1      54.310  25.223  24.471  1.00  0.00    -0.237 OA
ATOM     81  O   UNL A   1      53.646  26.330  22.370  1.00  0.00    -0.744 OA
ENDBRANCH  77  78
ENDBRANCH  58  72
BRANCH  59  82
ATOM     82  C   UNL A   1      40.736  29.390  29.428  1.00  0.00    -0.014 A 
ATOM     83  C   UNL A   1      39.717  29.846  28.573  1.00  0.00     0.010 A 
ATOM     84  C   UNL A   1      40.455  29.229  30.798  1.00  0.00     0.010 A 
ATOM     85  C   UNL A   1      38.450  30.152  29.080  1.00  0.00     0.020 A 
ATOM     86  C   UNL A   1      39.181  29.504  31.303  1.00  0.00     0.020 A 
ATOM     87  C   UNL A   1      38.189  29.976  30.441  1.00  0.00     0.054 A 
BRANCH  87  88
ATOM     88  S   UNL A   1      36.524  30.334  31.066  1.00  0.00     0.124 S 
ATOM     89  O   UNL A   1      36.378  31.751  30.745  1.00  0.00    -0.237 OA
ATOM     90  O   UNL A   1      35.694  29.420  30.289  1.00  0.00    -0.237 OA
ATOM     91  O   UNL A   1      36.619  30.021  32.490  1.00  0.00    -0.744 OA
ENDBRANCH  87  88
ENDBRANCH  59  82
BRANCH  71  92
ATOM     92  C   UNL A   1      43.653  23.596  26.851  1.00  0.00    -0.014 A 
ATOM     93  C   UNL A   1      43.423  22.757  27.956  1.00  0.00     0.010 A 
ATOM     94  C   UNL A   1      43.345  23.127  25.561  1.00  0.00     0.010 A 
ATOM     95  C   UNL A   1      42.927  21.464  27.770  1.00  0.00     0.020 A 
ATOM     96  C   UNL A   1      42.817  21.848  25.373  1.00  0.00     0.020 A 
ATOM     97  C   UNL A   1      42.625  21.018  26.479  1.00  0.00     0.054 A 
BRANCH  97  98
ATOM     98  S   UNL A   1      41.938  19.354  26.269  1.00  0.00     0.124 S 
ATOM     99  O   UNL A   1      42.727  18.837  25.154  1.00  0.00    -0.237 OA
ATOM    100  O   UNL A   1      42.200  18.733  27.566  1.00  0.00    -0.237 OA
ATOM    101  O   UNL A   1      40.527  19.594  25.975  1.00  0.00    -0.744 OA
ENDBRANCH  97  98
ENDBRANCH  71  92
ENDBRANCH  45  46
ENDBRANCH  37  40
ENDBRANCH  35  36
ENDBRANCH  34  35
ENDBRANCH  33  34
ENDBRANCH   1  33
TORSDOF 22
ENDMDL
MODEL 3
REMARK VINA RESULT:      -8.7      7.378     13.919
REMARK SMILES CSCC[C@@H](C(=O)NCCCCCCNC(=O)c1ccc(-c2c3nc(c(-c4ccc(S(=O)(=O)[O-])cc4)c4ccc([nH]4)c(-c4ccc(S(=O)(=O)[O-])cc4)c4nc(c(-c5ccc(S(=O)(=O)[O-])cc5)c5ccc2[nH]5)C=C4)C=C3)cc1)N1C(=O)/C(=C/c2ccc(-c3ccccc3Cl)o2)SC1=S
REMARK SMILES IDX 11 1 10 2 9 3 8 4 6 5 7 6 5 8 4 9 3 10 2 11 1 12 78 13 79 14
REMARK SMILES IDX 96 15 80 16 81 17 95 18 97 19 82 20 83 21 84 22 94 23 85 24
REMARK SMILES IDX 86 25 87 26 88 27 92 28 89 29 91 30 93 31 90 32 12 33 13 34
REMARK SMILES IDX 14 35 15 36 16 37 17 39 18 40 19 41 77 42 20 43 76 44 21 45
REMARK SMILES IDX 22 46 23 47 70 48 24 49 75 50 69 51 71 52 25 53 74 54 68 55
REMARK SMILES IDX 67 56 26 58 56 59 37 60 55 61 38 62 41 63 54 64 72 65 39 66
REMARK SMILES IDX 40 67 53 69 73 70 42 71 27 72 28 73 36 74 29 75 35 76 30 77
REMARK SMILES IDX 31 78 32 79 33 80 34 81 57 82 58 83 66 84 59 85 65 86 60 87
REMARK SMILES IDX 61 88 62 89 63 90 64 91 43 92 44 93 52 94 45 95 51 96 46 97
REMARK SMILES IDX 47 98 48 99 49 100 50 101
REMARK H PARENT 8 7 15 38 71 57 41 68
REMARK Flexibility Score: inf
ROOT
ATOM      1  C   UNL A   1      46.236  25.266  34.289  1.00  0.00     0.002 C 
ENDROOT
BRANCH   1   2
ATOM      2  C   UNL A   1      46.263  26.244  33.111  1.00  0.00     0.021 C 
BRANCH   2   3
ATOM      3  C   UNL A   1      46.802  25.627  31.828  1.00  0.00     0.116 C 
BRANCH   3   4
ATOM      4  N   UNL A   1      45.808  25.496  30.796  1.00  0.00    -0.354 N 
ATOM      5  C   UNL A   1      45.899  25.799  29.475  1.00  0.00     0.243 C 
ATOM      6  O   UNL A   1      45.204  25.098  28.726  1.00  0.00    -0.273 OA
ATOM      7  H   UNL A   1      44.940  25.135  31.090  1.00  0.00     0.163 HD
BRANCH   5   8
ATOM      8  C   UNL A   1      46.868  26.873  28.889  1.00  0.00     0.182 C 
BRANCH   8   9
ATOM      9  C   UNL A   1      48.204  27.219  29.572  1.00  0.00     0.046 C 
BRANCH   9  10
ATOM     10  C   UNL A   1      49.537  27.160  28.808  1.00  0.00     0.072 C 
BRANCH  10  11
ATOM     11  S   UNL A   1      50.041  28.536  27.715  1.00  0.00    -0.165 SA
ATOM     12  C   UNL A   1      49.031  28.340  26.218  1.00  0.00     0.085 C 
ENDBRANCH  10  11
ENDBRANCH   9  10
ENDBRANCH   8   9
BRANCH   8  13
ATOM     13  N   UNL A   1      46.077  28.137  28.763  1.00  0.00    -0.280 N 
ATOM     14  C   UNL A   1      45.904  28.917  29.895  1.00  0.00     0.267 C 
ATOM     15  C   UNL A   1      45.329  28.508  27.657  1.00  0.00     0.149 C 
ATOM     16  O   UNL A   1      46.358  28.680  31.010  1.00  0.00    -0.268 OA
ATOM     17  C   UNL A   1      44.975  30.042  29.619  1.00  0.00     0.084 C 
ATOM     18  S   UNL A   1      44.590  30.073  27.946  1.00  0.00    -0.054 SA
ATOM     19  S   UNL A   1      45.029  27.679  26.237  1.00  0.00    -0.052 S 
ATOM     20  C   UNL A   1      44.517  30.845  30.590  1.00  0.00     0.068 C 
BRANCH  20  21
ATOM     21  C   UNL A   1      43.603  31.907  30.344  1.00  0.00     0.128 A 
ATOM     22  C   UNL A   1      42.288  32.074  30.766  1.00  0.00     0.051 A 
ATOM     23  O   UNL A   1      43.931  32.997  29.572  1.00  0.00    -0.457 OA
ATOM     24  C   UNL A   1      41.783  33.242  30.157  1.00  0.00     0.051 A 
ATOM     25  C   UNL A   1      42.814  33.757  29.405  1.00  0.00     0.136 A 
BRANCH  25  26
ATOM     26  C   UNL A   1      42.914  34.903  28.513  1.00  0.00     0.036 A 
ATOM     27  C   UNL A   1      44.191  35.273  28.052  1.00  0.00     0.013 A 
ATOM     28  C   UNL A   1      41.818  35.709  28.162  1.00  0.00     0.052 A 
ATOM     29  C   UNL A   1      44.376  36.423  27.281  1.00  0.00     0.001 A 
ATOM     30  C   UNL A   1      42.008  36.862  27.388  1.00  0.00     0.021 A 
ATOM     31  Cl  UNL A   1      40.203  35.397  28.706  1.00  0.00    -0.084 Cl
ATOM     32  C   UNL A   1      43.284  37.222  26.956  1.00  0.00     0.002 A 
ENDBRANCH  25  26
ENDBRANCH  20  21
ENDBRANCH   8  13
ENDBRANCH   5   8
ENDBRANCH   3   4
ENDBRANCH   2   3
ENDBRANCH   1   2
BRANCH   1  33
ATOM     33  C   UNL A   1      47.614  24.922  34.873  1.00  0.00     0.002 C 
BRANCH  33  34
ATOM     34  C   UNL A   1      47.593  24.067  36.144  1.00  0.00     0.021 C 
BRANCH  34  35
ATOM     35  C   UNL A   1      46.702  24.611  37.257  1.00  0.00     0.116 C 
BRANCH  35  36
ATOM     36  N   UNL A   1      47.381  25.631  38.040  1.00  0.00    -0.352 N 
ATOM     37  C   UNL A   1      47.272  26.996  37.976  1.00  0.00     0.251 C 
ATOM     38  H   UNL A   1      48.012  25.291  38.714  1.00  0.00     0.163 HD
ATOM     39  O   UNL A   1      48.101  27.704  38.540  1.00  0.00    -0.269 OA
BRANCH  37  40
ATOM     40  C   UNL A   1      46.157  27.607  37.224  1.00  0.00     0.039 A 
ATOM     41  C   UNL A   1      44.847  27.221  37.518  1.00  0.00     0.014 A 
ATOM     42  C   UNL A   1      46.408  28.543  36.217  1.00  0.00     0.014 A 
ATOM     43  C   UNL A   1      43.785  27.813  36.834  1.00  0.00     0.010 A 
ATOM     44  C   UNL A   1      45.346  29.187  35.591  1.00  0.00     0.010 A 
ATOM     45  C   UNL A   1      44.023  28.822  35.885  1.00  0.00    -0.014 A 
BRANCH  45  46
ATOM     46  C   UNL A   1      42.905  29.500  35.186  1.00  0.00     0.031 A 
ATOM     47  C   UNL A   1      42.198  30.657  35.839  1.00  0.00     0.074 A 
ATOM     48  C   UNL A   1      42.489  29.038  33.991  1.00  0.00     0.049 A 
ATOM     49  N   UNL A   1      41.168  31.342  35.411  1.00  0.00    -0.248 NA
ATOM     50  C   UNL A   1      42.695  31.085  37.158  1.00  0.00     0.031 C 
ATOM     51  C   UNL A   1      43.071  27.900  33.273  1.00  0.00     0.029 A 
ATOM     52  N   UNL A   1      41.476  29.464  33.168  1.00  0.00    -0.354 N 
ATOM     53  C   UNL A   1      40.887  32.267  36.409  1.00  0.00     0.074 A 
ATOM     54  C   UNL A   1      41.818  32.022  37.488  1.00  0.00     0.031 C 
ATOM     55  C   UNL A   1      42.425  27.738  32.107  1.00  0.00     0.029 A 
ATOM     56  C   UNL A   1      41.356  28.727  32.013  1.00  0.00     0.049 A 
ATOM     57  H   UNL A   1      40.890  30.225  33.385  1.00  0.00     0.167 HD
ATOM     58  C   UNL A   1      39.951  33.246  36.419  1.00  0.00     0.031 A 
ATOM     59  C   UNL A   1      40.478  28.829  30.997  1.00  0.00     0.031 A 
ATOM     60  C   UNL A   1      39.031  33.488  35.339  1.00  0.00     0.049 A 
ATOM     61  C   UNL A   1      39.434  29.912  31.040  1.00  0.00     0.074 A 
ATOM     62  C   UNL A   1      38.079  34.487  35.227  1.00  0.00     0.029 A 
ATOM     63  N   UNL A   1      38.943  32.722  34.186  1.00  0.00    -0.354 N 
ATOM     64  N   UNL A   1      39.227  30.821  31.962  1.00  0.00    -0.248 NA
ATOM     65  C   UNL A   1      38.513  29.990  29.898  1.00  0.00     0.031 C 
ATOM     66  C   UNL A   1      37.374  34.287  34.036  1.00  0.00     0.029 A 
ATOM     67  C   UNL A   1      37.934  33.207  33.371  1.00  0.00     0.049 A 
ATOM     68  H   UNL A   1      39.513  31.946  33.978  1.00  0.00     0.167 HD
ATOM     69  C   UNL A   1      38.172  31.598  31.498  1.00  0.00     0.074 A 
ATOM     70  C   UNL A   1      37.794  31.061  30.206  1.00  0.00     0.031 C 
ATOM     71  C   UNL A   1      37.570  32.661  32.088  1.00  0.00     0.031 A 
BRANCH  58  72
ATOM     72  C   UNL A   1      39.870  34.124  37.642  1.00  0.00    -0.014 A 
ATOM     73  C   UNL A   1      40.632  35.302  37.745  1.00  0.00     0.010 A 
ATOM     74  C   UNL A   1      38.987  33.789  38.685  1.00  0.00     0.010 A 
ATOM     75  C   UNL A   1      40.546  36.105  38.886  1.00  0.00     0.020 A 
ATOM     76  C   UNL A   1      38.874  34.606  39.813  1.00  0.00     0.020 A 
ATOM     77  C   UNL A   1      39.667  35.751  39.914  1.00  0.00     0.054 A 
BRANCH  77  78
ATOM     78  S   UNL A   1      39.559  36.824  41.372  1.00  0.00     0.124 S 
ATOM     79  O   UNL A   1      38.707  36.039  42.261  1.00  0.00    -0.237 OA
ATOM     80  O   UNL A   1      40.956  36.942  41.785  1.00  0.00    -0.237 OA
ATOM     81  O   UNL A   1      38.957  38.051  40.857  1.00  0.00    -0.744 OA
ENDBRANCH  77  78
ENDBRANCH  58  72
BRANCH  59  82
ATOM     82  C   UNL A   1      40.558  27.886  29.847  1.00  0.00    -0.014 A 
ATOM     83  C   UNL A   1      41.575  28.015  28.884  1.00  0.00     0.010 A 
ATOM     84  C   UNL A   1      39.622  26.844  29.715  1.00  0.00     0.010 A 
ATOM     85  C   UNL A   1      41.641  27.132  27.802  1.00  0.00     0.020 A 
ATOM     86  C   UNL A   1      39.704  25.941  28.651  1.00  0.00     0.020 A 
ATOM     87  C   UNL A   1      40.707  26.099  27.694  1.00  0.00     0.054 A 
BRANCH  87  88
ATOM     88  S   UNL A   1      40.844  24.937  26.307  1.00  0.00     0.124 S 
ATOM     89  O   UNL A   1      39.495  24.383  26.242  1.00  0.00    -0.237 OA
ATOM     90  O   UNL A   1      41.223  25.812  25.201  1.00  0.00    -0.237 OA
ATOM     91  O   UNL A   1      41.883  24.007  26.741  1.00  0.00    -0.744 OA
ENDBRANCH  87  88
ENDBRANCH  59  82
BRANCH  71  92
ATOM     92  C   UNL A   1      36.465  33.344  31.325  1.00  0.00    -0.014 A 
ATOM     93  C   UNL A   1      35.201  33.561  31.901  1.00  0.00     0.010 A 
ATOM     94  C   UNL A   1      36.719  33.830  30.028  1.00  0.00     0.010 A 
ATOM     95  C   UNL A   1      34.201  34.220  31.181  1.00  0.00     0.020 A 
ATOM     96  C   UNL A   1      35.733  34.519  29.319  1.00  0.00     0.020 A 
ATOM     97  C   UNL A   1      34.474  34.697  29.896  1.00  0.00     0.054 A 
BRANCH  97  98
ATOM     98  S   UNL A   1      33.174  35.590  29.002  1.00  0.00     0.124 S 
ATOM     99  O   UNL A   1      32.559  34.525  28.213  1.00  0.00    -0.237 OA
ATOM    100  O   UNL A   1      32.350  36.125  30.085  1.00  0.00    -0.237 OA
ATOM    101  O   UNL A   1      33.906  36.593  28.231  1.00  0.00    -0.744 OA
ENDBRANCH  97  98
ENDBRANCH  71  92
ENDBRANCH  45  46
ENDBRANCH  37  40
ENDBRANCH  35  36
ENDBRANCH  34  35
ENDBRANCH  33  34
ENDBRANCH   1  33
TORSDOF 22
ENDMDL
