MODEL 1
REMARK VINA RESULT:     -12.2      0.000      0.000
REMARK SMILES O=C(NCCCCCCNC(=O)[C@H](c1c[nH]c2ccc(Cl)cc12)[NH+]1CCN(c2cccc(Cl)c2)CC1)c1ccc(-c2c3nc(c(-c4ccc(S(=O)(=O)[O-])cc4)c4ccc([nH]4)c(-c4ccc(S(=O)(=O)[O-])cc4)c4nc(c(-c5ccc(S(=O)(=O)[O-])cc5)c5ccc2[nH]5)C=C4)C=C3)cc1
REMARK SMILES IDX 6 1 5 2 4 3 3 4 1 5 2 6 37 8 38 9 96 10 39 11 95 12 40 13
REMARK SMILES IDX 41 14 42 15 89 16 43 17 94 18 88 19 90 20 44 21 93 22 87 23
REMARK SMILES IDX 86 24 45 26 75 27 56 28 74 29 57 30 60 31 73 32 91 33 58 34
REMARK SMILES IDX 59 35 72 37 92 38 61 39 46 40 47 41 55 42 48 43 54 44 49 45
REMARK SMILES IDX 50 46 51 47 52 48 53 49 76 50 77 51 85 52 78 53 84 54 79 55
REMARK SMILES IDX 80 56 81 57 82 58 83 59 62 60 63 61 71 62 64 63 70 64 65 65
REMARK SMILES IDX 66 66 67 67 68 68 69 69 7 70 8 71 9 72 10 73 11 74 12 76
REMARK SMILES IDX 13 77 24 78 25 79 36 80 26 82 35 83 27 84 28 85 29 86 34 87
REMARK SMILES IDX 30 88 32 89 31 90 33 91 14 92 15 93 23 94 16 95 17 96 22 97
REMARK SMILES IDX 18 99 20 100 19 101 21 102
REMARK H PARENT 3 7 90 25 60 36 10 75 24 81 16 98
REMARK Flexibility Score: inf
ROOT
ATOM      1  C   UNL A   1      33.537  30.519  27.269  1.00  0.00     0.002 C 
ENDROOT
BRANCH   1   2
ATOM      2  C   UNL A   1      35.006  30.191  27.550  1.00  0.00     0.021 C 
BRANCH   2   3
ATOM      3  C   UNL A   1      35.757  31.302  28.270  1.00  0.00     0.116 C 
BRANCH   3   4
ATOM      4  N   UNL A   1      35.570  31.217  29.707  1.00  0.00    -0.352 N 
ATOM      5  O   UNL A   1      35.946  30.377  31.763  1.00  0.00    -0.269 OA
ATOM      6  C   UNL A   1      36.366  30.598  30.635  1.00  0.00     0.251 C 
ATOM      7  H   UNL A   1      34.766  31.663  30.061  1.00  0.00     0.163 HD
BRANCH   6   8
ATOM      8  C   UNL A   1      37.733  30.197  30.248  1.00  0.00     0.039 A 
ATOM      9  C   UNL A   1      38.661  29.824  31.228  1.00  0.00     0.014 A 
ATOM     10  C   UNL A   1      38.083  30.191  28.898  1.00  0.00     0.014 A 
ATOM     11  C   UNL A   1      39.972  29.543  30.864  1.00  0.00     0.010 A 
ATOM     12  C   UNL A   1      39.378  29.834  28.530  1.00  0.00     0.010 A 
ATOM     13  C   UNL A   1      40.337  29.524  29.510  1.00  0.00    -0.014 A 
BRANCH  13  14
ATOM     14  C   UNL A   1      41.703  29.114  29.111  1.00  0.00     0.031 A 
ATOM     15  C   UNL A   1      42.818  30.117  29.057  1.00  0.00     0.074 A 
ATOM     16  C   UNL A   1      41.916  27.836  28.745  1.00  0.00     0.049 A 
ATOM     17  N   UNL A   1      44.043  29.962  28.627  1.00  0.00    -0.248 NA
ATOM     18  C   UNL A   1      42.514  31.473  29.540  1.00  0.00     0.031 C 
ATOM     19  C   UNL A   1      40.907  26.774  28.766  1.00  0.00     0.029 A 
ATOM     20  N   UNL A   1      43.043  27.216  28.272  1.00  0.00    -0.354 N 
ATOM     21  C   UNL A   1      44.651  31.205  28.757  1.00  0.00     0.074 A 
ATOM     22  C   UNL A   1      43.650  32.109  29.286  1.00  0.00     0.031 C 
ATOM     23  C   UNL A   1      41.462  25.633  28.333  1.00  0.00     0.029 A 
ATOM     24  C   UNL A   1      42.841  25.898  27.937  1.00  0.00     0.049 A 
ATOM     25  H   UNL A   1      43.912  27.669  28.181  1.00  0.00     0.167 HD
ATOM     26  C   UNL A   1      45.923  31.558  28.456  1.00  0.00     0.031 A 
ATOM     27  C   UNL A   1      43.655  25.010  27.337  1.00  0.00     0.031 A 
ATOM     28  C   UNL A   1      46.899  30.651  27.909  1.00  0.00     0.049 A 
ATOM     29  C   UNL A   1      45.044  25.434  26.962  1.00  0.00     0.074 A 
ATOM     30  C   UNL A   1      48.223  30.899  27.593  1.00  0.00     0.029 A 
ATOM     31  N   UNL A   1      46.652  29.325  27.578  1.00  0.00    -0.354 N 
ATOM     32  N   UNL A   1      45.614  26.604  27.120  1.00  0.00    -0.248 NA
ATOM     33  C   UNL A   1      45.903  24.420  26.338  1.00  0.00     0.031 C 
ATOM     34  C   UNL A   1      48.757  29.744  27.014  1.00  0.00     0.029 A 
ATOM     35  C   UNL A   1      47.789  28.751  27.039  1.00  0.00     0.049 A 
ATOM     36  H   UNL A   1      45.792  28.862  27.710  1.00  0.00     0.167 HD
ATOM     37  C   UNL A   1      46.911  26.461  26.644  1.00  0.00     0.074 A 
ATOM     38  C   UNL A   1      47.041  25.089  26.194  1.00  0.00     0.031 C 
ATOM     39  C   UNL A   1      47.906  27.381  26.599  1.00  0.00     0.031 A 
BRANCH  26  40
ATOM     40  C   UNL A   1      46.311  33.001  28.661  1.00  0.00    -0.014 A 
ATOM     41  C   UNL A   1      46.141  33.962  27.648  1.00  0.00     0.010 A 
ATOM     42  C   UNL A   1      46.854  33.404  29.896  1.00  0.00     0.010 A 
ATOM     43  C   UNL A   1      46.568  35.279  27.841  1.00  0.00     0.020 A 
ATOM     44  C   UNL A   1      47.251  34.728  30.106  1.00  0.00     0.020 A 
ATOM     45  C   UNL A   1      47.131  35.650  29.066  1.00  0.00     0.054 A 
BRANCH  45  46
ATOM     46  S   UNL A   1      47.703  37.358  29.279  1.00  0.00     0.124 S 
ATOM     47  O   UNL A   1      48.971  37.342  28.553  1.00  0.00    -0.237 OA
ATOM     48  O   UNL A   1      46.634  38.135  28.657  1.00  0.00    -0.237 OA
ATOM     49  O   UNL A   1      47.818  37.508  30.728  1.00  0.00    -0.744 OA
ENDBRANCH  45  46
ENDBRANCH  26  40
BRANCH  27  50
ATOM     50  C   UNL A   1      43.146  23.641  27.054  1.00  0.00    -0.014 A 
ATOM     51  C   UNL A   1      42.897  23.230  25.735  1.00  0.00     0.010 A 
ATOM     52  C   UNL A   1      42.994  22.713  28.103  1.00  0.00     0.010 A 
ATOM     53  C   UNL A   1      42.511  21.913  25.467  1.00  0.00     0.020 A 
ATOM     54  C   UNL A   1      42.636  21.389  27.837  1.00  0.00     0.020 A 
ATOM     55  C   UNL A   1      42.394  20.999  26.519  1.00  0.00     0.054 A 
BRANCH  55  56
ATOM     56  S   UNL A   1      41.987  19.273  26.132  1.00  0.00     0.124 S 
ATOM     57  O   UNL A   1      42.401  18.583  27.349  1.00  0.00    -0.237 OA
ATOM     58  O   UNL A   1      40.546  19.336  25.899  1.00  0.00    -0.237 OA
ATOM     59  O   UNL A   1      42.791  18.989  24.945  1.00  0.00    -0.744 OA
ENDBRANCH  55  56
ENDBRANCH  27  50
BRANCH  39  60
ATOM     60  C   UNL A   1      49.252  26.930  26.097  1.00  0.00    -0.014 A 
ATOM     61  C   UNL A   1      49.661  27.161  24.773  1.00  0.00     0.010 A 
ATOM     62  C   UNL A   1      50.162  26.356  27.006  1.00  0.00     0.010 A 
ATOM     63  C   UNL A   1      50.954  26.816  24.365  1.00  0.00     0.020 A 
ATOM     64  C   UNL A   1      51.462  26.038  26.610  1.00  0.00     0.020 A 
ATOM     65  C   UNL A   1      51.848  26.265  25.289  1.00  0.00     0.054 A 
BRANCH  65  66
ATOM     66  S   UNL A   1      53.547  25.913  24.758  1.00  0.00     0.124 S 
ATOM     67  O   UNL A   1      53.641  26.676  23.517  1.00  0.00    -0.237 OA
ATOM     68  O   UNL A   1      54.342  26.422  25.872  1.00  0.00    -0.237 OA
ATOM     69  O   UNL A   1      53.566  24.461  24.598  1.00  0.00    -0.744 OA
ENDBRANCH  65  66
ENDBRANCH  39  60
ENDBRANCH  13  14
ENDBRANCH   6   8
ENDBRANCH   3   4
ENDBRANCH   2   3
ENDBRANCH   1   2
BRANCH   1  70
ATOM     70  C   UNL A   1      32.611  29.299  27.213  1.00  0.00     0.002 C 
BRANCH  70  71
ATOM     71  C   UNL A   1      32.809  28.401  25.989  1.00  0.00     0.021 C 
BRANCH  71  72
ATOM     72  C   UNL A   1      33.501  27.086  26.314  1.00  0.00     0.116 C 
BRANCH  72  73
ATOM     73  N   UNL A   1      34.085  26.492  25.142  1.00  0.00    -0.351 N 
ATOM     74  C   UNL A   1      33.830  25.330  24.495  1.00  0.00     0.283 C 
ATOM     75  H   UNL A   1      34.803  27.028  24.735  1.00  0.00     0.163 HD
ATOM     76  O   UNL A   1      34.158  25.409  23.299  1.00  0.00    -0.268 OA
BRANCH  74  77
ATOM     77  C   UNL A   1      33.120  24.054  25.107  1.00  0.00     0.307 C 
BRANCH  77  78
ATOM     78  N   UNL A   1      31.676  23.855  24.729  1.00  0.00    -0.318 N 
ATOM     79  C   UNL A   1      30.662  24.495  25.596  1.00  0.00     0.284 C 
ATOM     80  C   UNL A   1      31.220  23.989  23.333  1.00  0.00     0.284 C 
ATOM     81  H   UNL A   1      31.731  22.851  24.896  1.00  0.00     0.349 HD
ATOM     82  C   UNL A   1      30.416  25.987  25.249  1.00  0.00     0.178 C 
ATOM     83  C   UNL A   1      30.768  25.400  22.858  1.00  0.00     0.178 C 
ATOM     84  N   UNL A   1      29.932  26.062  23.868  1.00  0.00    -0.360 N 
BRANCH  84  85
ATOM     85  C   UNL A   1      29.101  27.099  23.491  1.00  0.00     0.038 A 
ATOM     86  C   UNL A   1      27.747  27.041  23.847  1.00  0.00     0.026 A 
ATOM     87  C   UNL A   1      29.564  28.243  22.831  1.00  0.00     0.046 A 
ATOM     88  C   UNL A   1      26.885  28.111  23.602  1.00  0.00     0.004 A 
ATOM     89  C   UNL A   1      28.697  29.306  22.566  1.00  0.00     0.043 A 
ATOM     90  C   UNL A   1      27.363  29.251  22.963  1.00  0.00     0.020 A 
ATOM     91  Cl  UNL A   1      29.283  30.710  21.760  1.00  0.00    -0.084 Cl
ENDBRANCH  84  85
ENDBRANCH  77  78
BRANCH  77  92
ATOM     92  C   UNL A   1      33.944  22.769  25.099  1.00  0.00     0.044 A 
ATOM     93  C   UNL A   1      33.589  21.517  24.618  1.00  0.00     0.094 A 
ATOM     94  C   UNL A   1      35.346  22.652  25.456  1.00  0.00     0.011 A 
ATOM     95  N   UNL A   1      34.650  20.662  24.742  1.00  0.00    -0.361 N 
ATOM     96  C   UNL A   1      35.763  21.356  25.144  1.00  0.00     0.046 A 
ATOM     97  C   UNL A   1      36.330  23.578  25.877  1.00  0.00     0.031 A 
ATOM     98  H   UNL A   1      34.620  19.694  24.570  1.00  0.00     0.166 HD
ATOM     99  C   UNL A   1      37.098  20.939  25.207  1.00  0.00     0.028 A 
ATOM    100  C   UNL A   1      37.674  23.186  25.897  1.00  0.00     0.041 A 
ATOM    101  C   UNL A   1      38.055  21.891  25.565  1.00  0.00     0.022 A 
ATOM    102  Cl  UNL A   1      38.884  24.352  26.275  1.00  0.00    -0.084 Cl
ENDBRANCH  77  92
ENDBRANCH  74  77
ENDBRANCH  72  73
ENDBRANCH  71  72
ENDBRANCH  70  71
ENDBRANCH   1  70
TORSDOF 19
ENDMDL
MODEL 2
REMARK VINA RESULT:     -12.2      1.335      9.023
REMARK SMILES O=C(NCCCCCCNC(=O)[C@H](c1c[nH]c2ccc(Cl)cc12)[NH+]1CCN(c2cccc(Cl)c2)CC1)c1ccc(-c2c3nc(c(-c4ccc(S(=O)(=O)[O-])cc4)c4ccc([nH]4)c(-c4ccc(S(=O)(=O)[O-])cc4)c4nc(c(-c5ccc(S(=O)(=O)[O-])cc5)c5ccc2[nH]5)C=C4)C=C3)cc1
REMARK SMILES IDX 6 1 5 2 4 3 3 4 1 5 2 6 37 8 38 9 96 10 39 11 95 12 40 13
REMARK SMILES IDX 41 14 42 15 89 16 43 17 94 18 88 19 90 20 44 21 93 22 87 23
REMARK SMILES IDX 86 24 45 26 75 27 56 28 74 29 57 30 60 31 73 32 91 33 58 34
REMARK SMILES IDX 59 35 72 37 92 38 61 39 46 40 47 41 55 42 48 43 54 44 49 45
REMARK SMILES IDX 50 46 51 47 52 48 53 49 76 50 77 51 85 52 78 53 84 54 79 55
REMARK SMILES IDX 80 56 81 57 82 58 83 59 62 60 63 61 71 62 64 63 70 64 65 65
REMARK SMILES IDX 66 66 67 67 68 68 69 69 7 70 8 71 9 72 10 73 11 74 12 76
REMARK SMILES IDX 13 77 24 78 25 79 36 80 26 82 35 83 27 84 28 85 29 86 34 87
REMARK SMILES IDX 30 88 32 89 31 90 33 91 14 92 15 93 23 94 16 95 17 96 22 97
REMARK SMILES IDX 18 99 20 100 19 101 21 102
REMARK H PARENT 3 7 90 25 60 36 10 75 24 81 16 98
REMARK Flexibility Score: inf
ROOT
ATOM      1  C   UNL A   1      34.460  31.060  27.644  1.00  0.00     0.002 C 
ENDROOT
BRANCH   1   2
ATOM      2  C   UNL A   1      34.752  32.072  28.755  1.00  0.00     0.021 C 
BRANCH   2   3
ATOM      3  C   UNL A   1      36.111  31.883  29.416  1.00  0.00     0.116 C 
BRANCH   3   4
ATOM      4  N   UNL A   1      35.980  31.231  30.706  1.00  0.00    -0.352 N 
ATOM      5  O   UNL A   1      36.367  29.603  32.214  1.00  0.00    -0.269 OA
ATOM      6  C   UNL A   1      36.756  30.236  31.242  1.00  0.00     0.251 C 
ATOM      7  H   UNL A   1      35.238  31.547  31.272  1.00  0.00     0.163 HD
BRANCH   6   8
ATOM      8  C   UNL A   1      38.061  29.937  30.621  1.00  0.00     0.039 A 
ATOM      9  C   UNL A   1      39.175  29.658  31.422  1.00  0.00     0.014 A 
ATOM     10  C   UNL A   1      38.166  29.931  29.230  1.00  0.00     0.014 A 
ATOM     11  C   UNL A   1      40.419  29.475  30.833  1.00  0.00     0.010 A 
ATOM     12  C   UNL A   1      39.401  29.670  28.640  1.00  0.00     0.010 A 
ATOM     13  C   UNL A   1      40.540  29.457  29.436  1.00  0.00    -0.014 A 
BRANCH  13  14
ATOM     14  C   UNL A   1      41.843  29.149  28.803  1.00  0.00     0.031 A 
ATOM     15  C   UNL A   1      42.146  27.766  28.309  1.00  0.00     0.074 A 
ATOM     16  C   UNL A   1      42.772  30.120  28.726  1.00  0.00     0.049 A 
ATOM     17  N   UNL A   1      43.266  27.289  27.831  1.00  0.00    -0.248 NA
ATOM     18  C   UNL A   1      41.049  26.785  28.368  1.00  0.00     0.031 C 
ATOM     19  C   UNL A   1      42.584  31.504  29.169  1.00  0.00     0.029 A 
ATOM     20  N   UNL A   1      44.063  30.090  28.265  1.00  0.00    -0.354 N 
ATOM     21  C   UNL A   1      43.024  25.948  27.561  1.00  0.00     0.074 A 
ATOM     22  C   UNL A   1      41.654  25.682  27.949  1.00  0.00     0.031 C 
ATOM     23  C   UNL A   1      43.714  32.192  28.950  1.00  0.00     0.029 A 
ATOM     24  C   UNL A   1      44.725  31.284  28.422  1.00  0.00     0.049 A 
ATOM     25  H   UNL A   1      44.474  29.293  27.860  1.00  0.00     0.167 HD
ATOM     26  C   UNL A   1      43.869  25.026  27.043  1.00  0.00     0.031 A 
ATOM     27  C   UNL A   1      46.014  31.607  28.208  1.00  0.00     0.031 A 
ATOM     28  C   UNL A   1      45.236  25.303  26.683  1.00  0.00     0.049 A 
ATOM     29  C   UNL A   1      46.950  30.558  27.684  1.00  0.00     0.074 A 
ATOM     30  C   UNL A   1      46.170  24.448  26.126  1.00  0.00     0.029 A 
ATOM     31  N   UNL A   1      45.871  26.525  26.864  1.00  0.00    -0.354 N 
ATOM     32  N   UNL A   1      46.698  29.302  27.404  1.00  0.00    -0.248 NA
ATOM     33  C   UNL A   1      48.338  30.968  27.438  1.00  0.00     0.031 C 
ATOM     34  C   UNL A   1      47.385  25.132  26.029  1.00  0.00     0.029 A 
ATOM     35  C   UNL A   1      47.190  26.439  26.453  1.00  0.00     0.049 A 
ATOM     36  H   UNL A   1      45.445  27.334  27.229  1.00  0.00     0.167 HD
ATOM     37  C   UNL A   1      47.889  28.777  26.917  1.00  0.00     0.074 A 
ATOM     38  C   UNL A   1      48.860  29.852  26.941  1.00  0.00     0.031 C 
ATOM     39  C   UNL A   1      48.146  27.520  26.478  1.00  0.00     0.031 A 
BRANCH  26  40
ATOM     40  C   UNL A   1      43.351  23.618  26.888  1.00  0.00    -0.014 A 
ATOM     41  C   UNL A   1      43.334  22.715  27.967  1.00  0.00     0.010 A 
ATOM     42  C   UNL A   1      42.870  23.190  25.636  1.00  0.00     0.010 A 
ATOM     43  C   UNL A   1      42.908  21.397  27.782  1.00  0.00     0.020 A 
ATOM     44  C   UNL A   1      42.411  21.882  25.454  1.00  0.00     0.020 A 
ATOM     45  C   UNL A   1      42.460  20.986  26.522  1.00  0.00     0.054 A 
BRANCH  45  46
ATOM     46  S   UNL A   1      41.942  19.262  26.303  1.00  0.00     0.124 S 
ATOM     47  O   UNL A   1      42.895  18.788  25.301  1.00  0.00    -0.237 OA
ATOM     48  O   UNL A   1      42.110  18.703  27.642  1.00  0.00    -0.237 OA
ATOM     49  O   UNL A   1      40.560  19.369  25.843  1.00  0.00    -0.744 OA
ENDBRANCH  45  46
ENDBRANCH  26  40
BRANCH  27  50
ATOM     50  C   UNL A   1      46.472  32.990  28.510  1.00  0.00    -0.014 A 
ATOM     51  C   UNL A   1      47.040  33.298  29.756  1.00  0.00     0.010 A 
ATOM     52  C   UNL A   1      46.420  33.985  27.514  1.00  0.00     0.010 A 
ATOM     53  C   UNL A   1      47.555  34.575  30.001  1.00  0.00     0.020 A 
ATOM     54  C   UNL A   1      46.960  35.252  27.745  1.00  0.00     0.020 A 
ATOM     55  C   UNL A   1      47.522  35.540  28.990  1.00  0.00     0.054 A 
BRANCH  55  56
ATOM     56  S   UNL A   1      48.286  37.156  29.302  1.00  0.00     0.124 S 
ATOM     57  O   UNL A   1      49.638  36.781  29.701  1.00  0.00    -0.237 OA
ATOM     58  O   UNL A   1      48.168  37.814  28.003  1.00  0.00    -0.237 OA
ATOM     59  O   UNL A   1      47.456  37.729  30.360  1.00  0.00    -0.744 OA
ENDBRANCH  55  56
ENDBRANCH  27  50
BRANCH  39  60
ATOM     60  C   UNL A   1      49.519  27.239  25.928  1.00  0.00    -0.014 A 
ATOM     61  C   UNL A   1      50.508  26.606  26.700  1.00  0.00     0.010 A 
ATOM     62  C   UNL A   1      49.783  27.526  24.575  1.00  0.00     0.010 A 
ATOM     63  C   UNL A   1      51.741  26.273  26.129  1.00  0.00     0.020 A 
ATOM     64  C   UNL A   1      51.002  27.169  23.995  1.00  0.00     0.020 A 
ATOM     65  C   UNL A   1      51.976  26.549  24.778  1.00  0.00     0.054 A 
BRANCH  65  66
ATOM     66  S   UNL A   1      53.547  26.024  24.039  1.00  0.00     0.124 S 
ATOM     67  O   UNL A   1      54.444  27.107  24.433  1.00  0.00    -0.237 OA
ATOM     68  O   UNL A   1      53.791  24.738  24.687  1.00  0.00    -0.237 OA
ATOM     69  O   UNL A   1      53.252  25.950  22.611  1.00  0.00    -0.744 OA
ENDBRANCH  65  66
ENDBRANCH  39  60
ENDBRANCH  13  14
ENDBRANCH   6   8
ENDBRANCH   3   4
ENDBRANCH   2   3
ENDBRANCH   1   2
BRANCH   1  70
ATOM     70  C   UNL A   1      32.984  30.964  27.242  1.00  0.00     0.002 C 
BRANCH  70  71
ATOM     71  C   UNL A   1      32.651  29.800  26.303  1.00  0.00     0.021 C 
BRANCH  71  72
ATOM     72  C   UNL A   1      33.394  28.518  26.647  1.00  0.00     0.116 C 
BRANCH  72  73
ATOM     73  N   UNL A   1      32.488  27.421  26.856  1.00  0.00    -0.351 N 
ATOM     74  C   UNL A   1      31.842  26.606  25.989  1.00  0.00     0.283 C 
ATOM     75  H   UNL A   1      32.303  27.228  27.802  1.00  0.00     0.163 HD
ATOM     76  O   UNL A   1      31.580  25.515  26.521  1.00  0.00    -0.268 OA
BRANCH  74  77
ATOM     77  C   UNL A   1      31.531  26.916  24.468  1.00  0.00     0.307 C 
BRANCH  77  78
ATOM     78  N   UNL A   1      32.400  26.212  23.458  1.00  0.00    -0.318 N 
ATOM     79  C   UNL A   1      33.833  26.060  23.799  1.00  0.00     0.284 C 
ATOM     80  C   UNL A   1      31.963  24.968  22.798  1.00  0.00     0.284 C 
ATOM     81  H   UNL A   1      32.257  26.946  22.766  1.00  0.00     0.349 HD
ATOM     82  C   UNL A   1      34.118  24.836  24.709  1.00  0.00     0.178 C 
ATOM     83  C   UNL A   1      32.318  23.623  23.495  1.00  0.00     0.178 C 
ATOM     84  N   UNL A   1      33.698  23.627  23.995  1.00  0.00    -0.360 N 
BRANCH  84  85
ATOM     85  C   UNL A   1      34.333  22.428  24.252  1.00  0.00     0.038 A 
ATOM     86  C   UNL A   1      35.720  22.429  24.457  1.00  0.00     0.026 A 
ATOM     87  C   UNL A   1      33.645  21.217  24.390  1.00  0.00     0.046 A 
ATOM     88  C   UNL A   1      36.398  21.272  24.839  1.00  0.00     0.004 A 
ATOM     89  C   UNL A   1      34.327  20.053  24.752  1.00  0.00     0.043 A 
ATOM     90  C   UNL A   1      35.699  20.079  24.992  1.00  0.00     0.020 A 
ATOM     91  Cl  UNL A   1      33.465  18.572  24.925  1.00  0.00    -0.084 Cl
ENDBRANCH  84  85
ENDBRANCH  77  78
BRANCH  77  92
ATOM     92  C   UNL A   1      30.053  26.956  24.088  1.00  0.00     0.044 A 
ATOM     93  C   UNL A   1      29.067  26.017  24.351  1.00  0.00     0.094 A 
ATOM     94  C   UNL A   1      29.353  28.086  23.504  1.00  0.00     0.011 A 
ATOM     95  N   UNL A   1      27.862  26.480  23.894  1.00  0.00    -0.361 N 
ATOM     96  C   UNL A   1      27.991  27.780  23.478  1.00  0.00     0.046 A 
ATOM     97  C   UNL A   1      29.743  29.395  23.136  1.00  0.00     0.031 A 
ATOM     98  H   UNL A   1      27.029  25.958  23.868  1.00  0.00     0.166 HD
ATOM     99  C   UNL A   1      27.000  28.705  23.127  1.00  0.00     0.028 A 
ATOM    100  C   UNL A   1      28.758  30.342  22.831  1.00  0.00     0.041 A 
ATOM    101  C   UNL A   1      27.408  30.007  22.829  1.00  0.00     0.022 A 
ATOM    102  Cl  UNL A   1      29.225  31.970  22.518  1.00  0.00    -0.084 Cl
ENDBRANCH  77  92
ENDBRANCH  74  77
ENDBRANCH  72  73
ENDBRANCH  71  72
ENDBRANCH  70  71
ENDBRANCH   1  70
TORSDOF 19
ENDMDL
MODEL 3
REMARK VINA RESULT:     -12.1      1.010      4.698
REMARK SMILES O=C(NCCCCCCNC(=O)[C@H](c1c[nH]c2ccc(Cl)cc12)[NH+]1CCN(c2cccc(Cl)c2)CC1)c1ccc(-c2c3nc(c(-c4ccc(S(=O)(=O)[O-])cc4)c4ccc([nH]4)c(-c4ccc(S(=O)(=O)[O-])cc4)c4nc(c(-c5ccc(S(=O)(=O)[O-])cc5)c5ccc2[nH]5)C=C4)C=C3)cc1
REMARK SMILES IDX 6 1 5 2 4 3 3 4 1 5 2 6 37 8 38 9 96 10 39 11 95 12 40 13
REMARK SMILES IDX 41 14 42 15 89 16 43 17 94 18 88 19 90 20 44 21 93 22 87 23
REMARK SMILES IDX 86 24 45 26 75 27 56 28 74 29 57 30 60 31 73 32 91 33 58 34
REMARK SMILES IDX 59 35 72 37 92 38 61 39 46 40 47 41 55 42 48 43 54 44 49 45
REMARK SMILES IDX 50 46 51 47 52 48 53 49 76 50 77 51 85 52 78 53 84 54 79 55
REMARK SMILES IDX 80 56 81 57 82 58 83 59 62 60 63 61 71 62 64 63 70 64 65 65
REMARK SMILES IDX 66 66 67 67 68 68 69 69 7 70 8 71 9 72 10 73 11 74 12 76
REMARK SMILES IDX 13 77 24 78 25 79 36 80 26 82 35 83 27 84 28 85 29 86 34 87
REMARK SMILES IDX 30 88 32 89 31 90 33 91 14 92 15 93 23 94 16 95 17 96 22 97
REMARK SMILES IDX 18 99 20 100 19 101 21 102
REMARK H PARENT 3 7 90 25 60 36 10 75 24 81 16 98
REMARK Flexibility Score: inf
ROOT
ATOM      1  C   UNL A   1      33.309  29.707  26.722  1.00  0.00     0.002 C 
ENDROOT
BRANCH   1   2
ATOM      2  C   UNL A   1      34.466  28.957  27.388  1.00  0.00     0.021 C 
BRANCH   2   3
ATOM      3  C   UNL A   1      35.624  29.855  27.799  1.00  0.00     0.116 C 
BRANCH   3   4
ATOM      4  N   UNL A   1      35.509  30.256  29.189  1.00  0.00    -0.352 N 
ATOM      5  O   UNL A   1      36.063  30.217  31.373  1.00  0.00    -0.269 OA
ATOM      6  C   UNL A   1      36.408  30.069  30.208  1.00  0.00     0.251 C 
ATOM      7  H   UNL A   1      34.679  30.726  29.432  1.00  0.00     0.163 HD
BRANCH   6   8
ATOM      8  C   UNL A   1      37.792  29.680  29.875  1.00  0.00     0.039 A 
ATOM      9  C   UNL A   1      38.565  28.967  30.800  1.00  0.00     0.014 A 
ATOM     10  C   UNL A   1      38.314  30.025  28.629  1.00  0.00     0.014 A 
ATOM     11  C   UNL A   1      39.897  28.691  30.518  1.00  0.00     0.010 A 
ATOM     12  C   UNL A   1      39.628  29.678  28.319  1.00  0.00     0.010 A 
ATOM     13  C   UNL A   1      40.434  29.024  29.267  1.00  0.00    -0.014 A 
BRANCH  13  14
ATOM     14  C   UNL A   1      41.819  28.629  28.920  1.00  0.00     0.031 A 
ATOM     15  C   UNL A   1      42.920  29.647  28.892  1.00  0.00     0.074 A 
ATOM     16  C   UNL A   1      42.063  27.350  28.578  1.00  0.00     0.049 A 
ATOM     17  N   UNL A   1      44.162  29.506  28.506  1.00  0.00    -0.248 NA
ATOM     18  C   UNL A   1      42.580  31.005  29.346  1.00  0.00     0.031 C 
ATOM     19  C   UNL A   1      41.068  26.273  28.578  1.00  0.00     0.029 A 
ATOM     20  N   UNL A   1      43.214  26.741  28.152  1.00  0.00    -0.354 N 
ATOM     21  C   UNL A   1      44.746  30.759  28.641  1.00  0.00     0.074 A 
ATOM     22  C   UNL A   1      43.715  31.654  29.124  1.00  0.00     0.031 C 
ATOM     23  C   UNL A   1      41.654  25.136  28.178  1.00  0.00     0.029 A 
ATOM     24  C   UNL A   1      43.042  25.417  27.826  1.00  0.00     0.049 A 
ATOM     25  H   UNL A   1      44.079  27.205  28.085  1.00  0.00     0.167 HD
ATOM     26  C   UNL A   1      46.023  31.127  28.379  1.00  0.00     0.031 A 
ATOM     27  C   UNL A   1      43.888  24.533  27.267  1.00  0.00     0.031 A 
ATOM     28  C   UNL A   1      47.030  30.227  27.878  1.00  0.00     0.049 A 
ATOM     29  C   UNL A   1      45.283  24.972  26.934  1.00  0.00     0.074 A 
ATOM     30  C   UNL A   1      48.361  30.491  27.605  1.00  0.00     0.029 A 
ATOM     31  N   UNL A   1      46.813  28.894  27.556  1.00  0.00    -0.354 N 
ATOM     32  N   UNL A   1      45.831  26.153  27.096  1.00  0.00    -0.248 NA
ATOM     33  C   UNL A   1      46.178  23.964  26.353  1.00  0.00     0.031 C 
ATOM     34  C   UNL A   1      48.931  29.337  27.058  1.00  0.00     0.029 A 
ATOM     35  C   UNL A   1      47.977  28.330  27.063  1.00  0.00     0.049 A 
ATOM     36  H   UNL A   1      45.957  28.420  27.664  1.00  0.00     0.167 HD
ATOM     37  C   UNL A   1      47.146  26.023  26.667  1.00  0.00     0.074 A 
ATOM     38  C   UNL A   1      47.310  24.648  26.239  1.00  0.00     0.031 C 
ATOM     39  C   UNL A   1      48.129  26.956  26.645  1.00  0.00     0.031 A 
BRANCH  26  40
ATOM     40  C   UNL A   1      46.383  32.577  28.580  1.00  0.00    -0.014 A 
ATOM     41  C   UNL A   1      46.892  33.049  29.804  1.00  0.00     0.010 A 
ATOM     42  C   UNL A   1      46.212  33.487  27.519  1.00  0.00     0.010 A 
ATOM     43  C   UNL A   1      47.158  34.410  29.984  1.00  0.00     0.020 A 
ATOM     44  C   UNL A   1      46.509  34.843  27.684  1.00  0.00     0.020 A 
ATOM     45  C   UNL A   1      46.953  35.300  28.925  1.00  0.00     0.054 A 
BRANCH  45  46
ATOM     46  S   UNL A   1      47.277  37.064  29.196  1.00  0.00     0.124 S 
ATOM     47  O   UNL A   1      46.332  37.687  28.272  1.00  0.00    -0.237 OA
ATOM     48  O   UNL A   1      46.973  37.232  30.614  1.00  0.00    -0.237 OA
ATOM     49  O   UNL A   1      48.686  37.217  28.840  1.00  0.00    -0.744 OA
ENDBRANCH  45  46
ENDBRANCH  26  40
BRANCH  27  50
ATOM     50  C   UNL A   1      43.409  23.153  26.984  1.00  0.00    -0.014 A 
ATOM     51  C   UNL A   1      43.359  22.670  25.666  1.00  0.00     0.010 A 
ATOM     52  C   UNL A   1      43.084  22.286  28.046  1.00  0.00     0.010 A 
ATOM     53  C   UNL A   1      42.999  21.343  25.414  1.00  0.00     0.020 A 
ATOM     54  C   UNL A   1      42.753  20.952  27.800  1.00  0.00     0.020 A 
ATOM     55  C   UNL A   1      42.709  20.490  26.484  1.00  0.00     0.054 A 
BRANCH  55  56
ATOM     56  S   UNL A   1      42.341  18.748  26.133  1.00  0.00     0.124 S 
ATOM     57  O   UNL A   1      40.960  18.816  25.669  1.00  0.00    -0.237 OA
ATOM     58  O   UNL A   1      43.336  18.416  25.116  1.00  0.00    -0.237 OA
ATOM     59  O   UNL A   1      42.538  18.090  27.424  1.00  0.00    -0.744 OA
ENDBRANCH  55  56
ENDBRANCH  27  50
BRANCH  39  60
ATOM     60  C   UNL A   1      49.497  26.520  26.195  1.00  0.00    -0.014 A 
ATOM     61  C   UNL A   1      49.967  26.784  24.897  1.00  0.00     0.010 A 
ATOM     62  C   UNL A   1      50.364  25.923  27.131  1.00  0.00     0.010 A 
ATOM     63  C   UNL A   1      51.278  26.451  24.542  1.00  0.00     0.020 A 
ATOM     64  C   UNL A   1      51.682  25.615  26.788  1.00  0.00     0.020 A 
ATOM     65  C   UNL A   1      52.129  25.877  25.493  1.00  0.00     0.054 A 
BRANCH  65  66
ATOM     66  S   UNL A   1      53.852  25.539  25.033  1.00  0.00     0.124 S 
ATOM     67  O   UNL A   1      53.964  24.109  25.307  1.00  0.00    -0.237 OA
ATOM     68  O   UNL A   1      53.885  25.914  23.622  1.00  0.00    -0.237 OA
ATOM     69  O   UNL A   1      54.624  26.405  25.921  1.00  0.00    -0.744 OA
ENDBRANCH  65  66
ENDBRANCH  39  60
ENDBRANCH  13  14
ENDBRANCH   6   8
ENDBRANCH   3   4
ENDBRANCH   2   3
ENDBRANCH   1   2
BRANCH   1  70
ATOM     70  C   UNL A   1      31.919  29.329  27.246  1.00  0.00     0.002 C 
BRANCH  70  71
ATOM     71  C   UNL A   1      31.668  27.823  27.367  1.00  0.00     0.021 C 
BRANCH  71  72
ATOM     72  C   UNL A   1      31.427  27.143  26.028  1.00  0.00     0.116 C 
BRANCH  72  73
ATOM     73  N   UNL A   1      32.405  27.539  25.050  1.00  0.00    -0.351 N 
ATOM     74  C   UNL A   1      32.355  27.606  23.699  1.00  0.00     0.283 C 
ATOM     75  H   UNL A   1      33.269  27.811  25.434  1.00  0.00     0.163 HD
ATOM     76  O   UNL A   1      33.167  28.441  23.268  1.00  0.00    -0.268 OA
BRANCH  74  77
ATOM     77  C   UNL A   1      31.349  26.823  22.760  1.00  0.00     0.307 C 
BRANCH  77  78
ATOM     78  N   UNL A   1      31.702  25.391  22.459  1.00  0.00    -0.318 N 
ATOM     79  C   UNL A   1      33.042  25.140  21.881  1.00  0.00     0.284 C 
ATOM     80  C   UNL A   1      31.419  24.308  23.419  1.00  0.00     0.284 C 
ATOM     81  H   UNL A   1      30.971  25.318  21.752  1.00  0.00     0.349 HD
ATOM     82  C   UNL A   1      34.163  25.059  22.951  1.00  0.00     0.178 C 
ATOM     83  C   UNL A   1      32.518  23.974  24.469  1.00  0.00     0.178 C 
ATOM     84  N   UNL A   1      33.853  23.950  23.857  1.00  0.00    -0.360 N 
BRANCH  84  85
ATOM     85  C   UNL A   1      34.880  23.278  24.489  1.00  0.00     0.038 A 
ATOM     86  C   UNL A   1      34.865  21.876  24.498  1.00  0.00     0.026 A 
ATOM     87  C   UNL A   1      35.978  23.931  25.062  1.00  0.00     0.046 A 
ATOM     88  C   UNL A   1      35.933  21.142  25.014  1.00  0.00     0.004 A 
ATOM     89  C   UNL A   1      37.038  23.197  25.597  1.00  0.00     0.043 A 
ATOM     90  C   UNL A   1      37.027  21.804  25.562  1.00  0.00     0.020 A 
ATOM     91  Cl  UNL A   1      38.385  24.015  26.291  1.00  0.00    -0.084 Cl
ENDBRANCH  84  85
ENDBRANCH  77  78
BRANCH  77  92
ATOM     92  C   UNL A   1      29.865  27.045  23.048  1.00  0.00     0.044 A 
ATOM     93  C   UNL A   1      28.979  26.210  23.710  1.00  0.00     0.094 A 
ATOM     94  C   UNL A   1      29.126  28.273  22.815  1.00  0.00     0.011 A 
ATOM     95  N   UNL A   1      27.760  26.825  23.809  1.00  0.00    -0.361 N 
ATOM     96  C   UNL A   1      27.855  28.122  23.374  1.00  0.00     0.046 A 
ATOM     97  C   UNL A   1      29.479  29.548  22.311  1.00  0.00     0.031 A 
ATOM     98  H   UNL A   1      26.937  26.400  24.143  1.00  0.00     0.166 HD
ATOM     99  C   UNL A   1      26.929  29.166  23.477  1.00  0.00     0.028 A 
ATOM    100  C   UNL A   1      28.579  30.611  22.453  1.00  0.00     0.041 A 
ATOM    101  C   UNL A   1      27.327  30.428  23.029  1.00  0.00     0.022 A 
ATOM    102  Cl  UNL A   1      29.062  32.191  21.966  1.00  0.00    -0.084 Cl
ENDBRANCH  77  92
ENDBRANCH  74  77
ENDBRANCH  72  73
ENDBRANCH  71  72
ENDBRANCH  70  71
ENDBRANCH   1  70
TORSDOF 19
ENDMDL
