MODEL 1
REMARK VINA RESULT:     -10.3      0.000      0.000
REMARK SMILES C[C@H]1[C@@H](C(=O)NCCCCCCNC(=O)c2ccc(-c3c4nc(c(-c5ccc(S(=O)(=O)[O-])cc5)c5ccc([nH]5)c(-c5ccc(S(=O)(=O)[O-])cc5)c5nc(c(-c6ccc(S(=O)(=O)[O-])cc6)c6ccc3[nH]6)C=C5)C=C4)cc2)CC[N@@H+]1CC(=O)NNC(=O)c1cccs1
REMARK SMILES IDX 9 1 8 2 7 3 6 4 4 5 5 6 3 8 1 9 2 10 78 11 76 12 77 13 79 15
REMARK SMILES IDX 80 16 81 17 82 18 83 20 84 21 85 23 86 24 87 25 90 26 88 27
REMARK SMILES IDX 89 28 10 29 11 30 12 31 13 32 14 33 15 35 16 36 17 37 75 38
REMARK SMILES IDX 18 39 74 40 19 41 20 42 21 43 68 44 22 45 73 46 67 47 69 48
REMARK SMILES IDX 23 49 72 50 66 51 65 52 24 54 54 55 35 56 53 57 36 58 39 59
REMARK SMILES IDX 52 60 70 61 37 62 38 63 51 65 71 66 40 67 25 68 26 69 34 70
REMARK SMILES IDX 27 71 33 72 28 73 29 74 30 75 31 76 32 77 55 78 56 79 64 80
REMARK SMILES IDX 57 81 63 82 58 83 59 84 60 85 61 86 62 87 41 88 42 89 50 90
REMARK SMILES IDX 43 91 49 92 44 93 45 94 46 95 47 96 48 97
REMARK H PARENT 6 7 78 14 82 19 83 22 13 34 69 53 39 64
REMARK Flexibility Score: inf
ROOT
ATOM      1  C   UNL A   1      39.563  22.152  26.469  1.00  0.00     0.002 C 
ENDROOT
BRANCH   1   2
ATOM      2  C   UNL A   1      38.700  21.336  25.509  1.00  0.00     0.021 C 
BRANCH   2   3
ATOM      3  C   UNL A   1      37.196  21.607  25.612  1.00  0.00     0.116 C 
BRANCH   3   4
ATOM      4  N   UNL A   1      36.486  20.442  25.131  1.00  0.00    -0.356 N 
ATOM      5  C   UNL A   1      35.151  20.240  24.969  1.00  0.00     0.229 C 
ATOM      6  O   UNL A   1      34.791  19.065  24.852  1.00  0.00    -0.275 OA
ATOM      7  H   UNL A   1      37.057  19.679  24.883  1.00  0.00     0.163 HD
BRANCH   5   8
ATOM      8  C   UNL A   1      34.186  21.414  24.773  1.00  0.00     0.142 C 
ATOM      9  C   UNL A   1      33.883  21.762  27.394  1.00  0.00     0.076 C 
ATOM     10  C   UNL A   1      33.630  22.223  25.967  1.00  0.00     0.194 C 
ATOM     11  N   UNL A   1      32.169  22.243  25.827  1.00  0.00    -0.324 N 
ATOM     12  C   UNL A   1      32.927  20.969  24.004  1.00  0.00     0.081 C 
ATOM     13  C   UNL A   1      31.795  21.105  25.000  1.00  0.00     0.263 C 
ATOM     14  H   UNL A   1      31.743  22.130  26.748  1.00  0.00     0.348 HD
BRANCH  11  15
ATOM     15  C   UNL A   1      31.559  23.537  25.497  1.00  0.00     0.365 C 
BRANCH  15  16
ATOM     16  C   UNL A   1      30.459  24.010  26.444  1.00  0.00     0.293 C 
ATOM     17  O   UNL A   1      30.269  23.462  27.535  1.00  0.00    -0.267 OA
ATOM     18  N   UNL A   1      29.657  25.072  26.112  1.00  0.00    -0.262 N 
ATOM     19  H   UNL A   1      29.034  25.399  26.801  1.00  0.00     0.191 HD
BRANCH  18  20
ATOM     20  N   UNL A   1      29.648  25.732  24.882  1.00  0.00    -0.263 N 
ATOM     21  C   UNL A   1      30.283  26.950  24.674  1.00  0.00     0.279 C 
ATOM     22  H   UNL A   1      29.171  25.315  24.128  1.00  0.00     0.191 HD
ATOM     23  O   UNL A   1      29.787  27.718  23.845  1.00  0.00    -0.266 OA
BRANCH  21  24
ATOM     24  C   UNL A   1      31.495  27.233  25.427  1.00  0.00     0.094 A 
ATOM     25  C   UNL A   1      32.807  26.897  25.138  1.00  0.00     0.026 A 
ATOM     26  S   UNL A   1      31.403  28.190  26.847  1.00  0.00    -0.139 S 
ATOM     27  C   UNL A   1      33.728  27.394  26.105  1.00  0.00     0.012 A 
ATOM     28  C   UNL A   1      33.096  28.123  27.087  1.00  0.00     0.065 A 
ENDBRANCH  21  24
ENDBRANCH  18  20
ENDBRANCH  15  16
ENDBRANCH  11  15
ENDBRANCH   5   8
ENDBRANCH   3   4
ENDBRANCH   2   3
ENDBRANCH   1   2
BRANCH   1  29
ATOM     29  C   UNL A   1      40.715  21.366  27.094  1.00  0.00     0.002 C 
BRANCH  29  30
ATOM     30  C   UNL A   1      40.940  19.968  26.507  1.00  0.00     0.021 C 
BRANCH  30  31
ATOM     31  C   UNL A   1      42.236  19.289  26.946  1.00  0.00     0.116 C 
BRANCH  31  32
ATOM     32  N   UNL A   1      43.079  18.958  25.809  1.00  0.00    -0.352 N 
ATOM     33  C   UNL A   1      43.775  19.791  24.971  1.00  0.00     0.251 C 
ATOM     34  H   UNL A   1      43.163  17.997  25.613  1.00  0.00     0.163 HD
ATOM     35  O   UNL A   1      44.212  19.369  23.907  1.00  0.00    -0.269 OA
BRANCH  33  36
ATOM     36  C   UNL A   1      43.988  21.201  25.357  1.00  0.00     0.039 A 
ATOM     37  C   UNL A   1      44.559  21.486  26.600  1.00  0.00     0.014 A 
ATOM     38  C   UNL A   1      43.608  22.239  24.501  1.00  0.00     0.014 A 
ATOM     39  C   UNL A   1      44.794  22.813  26.962  1.00  0.00     0.010 A 
ATOM     40  C   UNL A   1      43.911  23.556  24.832  1.00  0.00     0.010 A 
ATOM     41  C   UNL A   1      44.500  23.858  26.070  1.00  0.00    -0.014 A 
BRANCH  41  42
ATOM     42  C   UNL A   1      44.800  25.271  26.416  1.00  0.00     0.031 A 
ATOM     43  C   UNL A   1      46.203  25.800  26.288  1.00  0.00     0.074 A 
ATOM     44  C   UNL A   1      43.819  26.061  26.892  1.00  0.00     0.049 A 
ATOM     45  N   UNL A   1      46.664  26.990  26.577  1.00  0.00    -0.248 NA
ATOM     46  C   UNL A   1      47.227  24.864  25.795  1.00  0.00     0.031 C 
ATOM     47  C   UNL A   1      42.426  25.653  27.095  1.00  0.00     0.029 A 
ATOM     48  N   UNL A   1      43.841  27.373  27.295  1.00  0.00    -0.354 N 
ATOM     49  C   UNL A   1      48.028  26.943  26.313  1.00  0.00     0.074 A 
ATOM     50  C   UNL A   1      48.330  25.592  25.894  1.00  0.00     0.031 C 
ATOM     51  C   UNL A   1      41.723  26.701  27.553  1.00  0.00     0.029 A 
ATOM     52  C   UNL A   1      42.620  27.840  27.720  1.00  0.00     0.049 A 
ATOM     53  H   UNL A   1      44.654  27.927  27.280  1.00  0.00     0.167 HD
ATOM     54  C   UNL A   1      48.943  27.938  26.394  1.00  0.00     0.031 A 
ATOM     55  C   UNL A   1      42.262  29.048  28.198  1.00  0.00     0.031 A 
ATOM     56  C   UNL A   1      48.636  29.281  26.811  1.00  0.00     0.049 A 
ATOM     57  C   UNL A   1      43.301  30.130  28.303  1.00  0.00     0.074 A 
ATOM     58  C   UNL A   1      49.480  30.375  26.877  1.00  0.00     0.029 A 
ATOM     59  N   UNL A   1      47.389  29.713  27.238  1.00  0.00    -0.354 N 
ATOM     60  N   UNL A   1      44.572  30.086  27.983  1.00  0.00    -0.248 NA
ATOM     61  C   UNL A   1      42.855  31.430  28.823  1.00  0.00     0.031 C 
ATOM     62  C   UNL A   1      48.760  31.452  27.403  1.00  0.00     0.029 A 
ATOM     63  C   UNL A   1      47.449  31.048  27.600  1.00  0.00     0.049 A 
ATOM     64  H   UNL A   1      46.581  29.152  27.279  1.00  0.00     0.167 HD
ATOM     65  C   UNL A   1      45.072  31.358  28.239  1.00  0.00     0.074 A 
ATOM     66  C   UNL A   1      43.962  32.153  28.722  1.00  0.00     0.031 C 
ATOM     67  C   UNL A   1      46.335  31.826  28.086  1.00  0.00     0.031 A 
BRANCH  54  68
ATOM     68  C   UNL A   1      50.369  27.606  26.031  1.00  0.00    -0.014 A 
ATOM     69  C   UNL A   1      51.292  27.191  27.009  1.00  0.00     0.010 A 
ATOM     70  C   UNL A   1      50.784  27.675  24.689  1.00  0.00     0.010 A 
ATOM     71  C   UNL A   1      52.613  26.896  26.658  1.00  0.00     0.020 A 
ATOM     72  C   UNL A   1      52.095  27.349  24.329  1.00  0.00     0.020 A 
ATOM     73  C   UNL A   1      53.006  26.980  25.320  1.00  0.00     0.054 A 
BRANCH  73  74
ATOM     74  S   UNL A   1      54.721  26.574  24.892  1.00  0.00     0.124 S 
ATOM     75  O   UNL A   1      55.426  27.789  25.292  1.00  0.00    -0.237 OA
ATOM     76  O   UNL A   1      54.985  25.396  25.714  1.00  0.00    -0.237 OA
ATOM     77  O   UNL A   1      54.672  26.329  23.453  1.00  0.00    -0.744 OA
ENDBRANCH  73  74
ENDBRANCH  54  68
BRANCH  55  78
ATOM     78  C   UNL A   1      40.850  29.298  28.603  1.00  0.00    -0.014 A 
ATOM     79  C   UNL A   1      40.506  29.419  29.961  1.00  0.00     0.010 A 
ATOM     80  C   UNL A   1      39.843  29.433  27.629  1.00  0.00     0.010 A 
ATOM     81  C   UNL A   1      39.180  29.651  30.339  1.00  0.00     0.020 A 
ATOM     82  C   UNL A   1      38.522  29.695  28.001  1.00  0.00     0.020 A 
ATOM     83  C   UNL A   1      38.196  29.791  29.356  1.00  0.00     0.054 A 
BRANCH  83  84
ATOM     84  S   UNL A   1      36.491  30.143  29.867  1.00  0.00     0.124 S 
ATOM     85  O   UNL A   1      36.533  31.585  30.090  1.00  0.00    -0.237 OA
ATOM     86  O   UNL A   1      35.720  29.702  28.708  1.00  0.00    -0.237 OA
ATOM     87  O   UNL A   1      36.319  29.328  31.067  1.00  0.00    -0.744 OA
ENDBRANCH  83  84
ENDBRANCH  55  78
BRANCH  67  88
ATOM     88  C   UNL A   1      46.584  33.274  28.418  1.00  0.00    -0.014 A 
ATOM     89  C   UNL A   1      47.008  33.668  29.699  1.00  0.00     0.010 A 
ATOM     90  C   UNL A   1      46.444  34.250  27.414  1.00  0.00     0.010 A 
ATOM     91  C   UNL A   1      47.256  35.014  29.979  1.00  0.00     0.020 A 
ATOM     92  C   UNL A   1      46.722  35.593  27.680  1.00  0.00     0.020 A 
ATOM     93  C   UNL A   1      47.112  35.968  28.966  1.00  0.00     0.054 A 
BRANCH  93  94
ATOM     94  S   UNL A   1      47.485  37.702  29.344  1.00  0.00     0.124 S 
ATOM     95  O   UNL A   1      46.588  38.411  28.435  1.00  0.00    -0.237 OA
ATOM     96  O   UNL A   1      47.150  37.800  30.762  1.00  0.00    -0.237 OA
ATOM     97  O   UNL A   1      48.908  37.826  29.036  1.00  0.00    -0.744 OA
ENDBRANCH  93  94
ENDBRANCH  67  88
ENDBRANCH  41  42
ENDBRANCH  33  36
ENDBRANCH  31  32
ENDBRANCH  30  31
ENDBRANCH  29  30
ENDBRANCH   1  29
TORSDOF 20
ENDMDL
MODEL 2
REMARK VINA RESULT:     -10.1      6.880     11.371
REMARK SMILES C[C@H]1[C@@H](C(=O)NCCCCCCNC(=O)c2ccc(-c3c4nc(c(-c5ccc(S(=O)(=O)[O-])cc5)c5ccc([nH]5)c(-c5ccc(S(=O)(=O)[O-])cc5)c5nc(c(-c6ccc(S(=O)(=O)[O-])cc6)c6ccc3[nH]6)C=C5)C=C4)cc2)CC[N@@H+]1CC(=O)NNC(=O)c1cccs1
REMARK SMILES IDX 9 1 8 2 7 3 6 4 4 5 5 6 3 8 1 9 2 10 78 11 76 12 77 13 79 15
REMARK SMILES IDX 80 16 81 17 82 18 83 20 84 21 85 23 86 24 87 25 90 26 88 27
REMARK SMILES IDX 89 28 10 29 11 30 12 31 13 32 14 33 15 35 16 36 17 37 75 38
REMARK SMILES IDX 18 39 74 40 19 41 20 42 21 43 68 44 22 45 73 46 67 47 69 48
REMARK SMILES IDX 23 49 72 50 66 51 65 52 24 54 54 55 35 56 53 57 36 58 39 59
REMARK SMILES IDX 52 60 70 61 37 62 38 63 51 65 71 66 40 67 25 68 26 69 34 70
REMARK SMILES IDX 27 71 33 72 28 73 29 74 30 75 31 76 32 77 55 78 56 79 64 80
REMARK SMILES IDX 57 81 63 82 58 83 59 84 60 85 61 86 62 87 41 88 42 89 50 90
REMARK SMILES IDX 43 91 49 92 44 93 45 94 46 95 47 96 48 97
REMARK H PARENT 6 7 78 14 82 19 83 22 13 34 69 53 39 64
REMARK Flexibility Score: inf
ROOT
ATOM      1  C   UNL A   1      35.316  31.482  28.638  1.00  0.00     0.002 C 
ENDROOT
BRANCH   1   2
ATOM      2  C   UNL A   1      35.172  30.373  27.600  1.00  0.00     0.021 C 
BRANCH   2   3
ATOM      3  C   UNL A   1      33.782  30.265  26.966  1.00  0.00     0.116 C 
BRANCH   3   4
ATOM      4  N   UNL A   1      33.066  29.187  27.611  1.00  0.00    -0.356 N 
ATOM      5  C   UNL A   1      32.124  28.342  27.110  1.00  0.00     0.229 C 
ATOM      6  O   UNL A   1      31.447  27.731  27.943  1.00  0.00    -0.275 OA
ATOM      7  H   UNL A   1      33.295  29.041  28.558  1.00  0.00     0.163 HD
BRANCH   5   8
ATOM      8  C   UNL A   1      32.037  28.048  25.610  1.00  0.00     0.142 C 
ATOM      9  C   UNL A   1      30.356  26.019  25.979  1.00  0.00     0.076 C 
ATOM     10  C   UNL A   1      31.097  26.960  25.043  1.00  0.00     0.194 C 
ATOM     11  N   UNL A   1      31.915  26.085  24.194  1.00  0.00    -0.324 N 
ATOM     12  C   UNL A   1      33.422  27.678  25.040  1.00  0.00     0.081 C 
ATOM     13  C   UNL A   1      33.297  26.227  24.628  1.00  0.00     0.263 C 
ATOM     14  H   UNL A   1      31.628  25.116  24.335  1.00  0.00     0.348 HD
BRANCH  11  15
ATOM     15  C   UNL A   1      31.659  26.147  22.750  1.00  0.00     0.365 C 
BRANCH  15  16
ATOM     16  C   UNL A   1      32.797  25.659  21.856  1.00  0.00     0.293 C 
ATOM     17  O   UNL A   1      33.553  26.452  21.286  1.00  0.00    -0.267 OA
ATOM     18  N   UNL A   1      33.019  24.317  21.675  1.00  0.00    -0.262 N 
ATOM     19  H   UNL A   1      33.826  24.059  21.174  1.00  0.00     0.191 HD
BRANCH  18  20
ATOM     20  N   UNL A   1      32.201  23.287  22.140  1.00  0.00    -0.263 N 
ATOM     21  C   UNL A   1      32.669  22.258  22.948  1.00  0.00     0.279 C 
ATOM     22  H   UNL A   1      31.250  23.288  21.884  1.00  0.00     0.191 HD
ATOM     23  O   UNL A   1      32.126  21.155  22.840  1.00  0.00    -0.266 OA
BRANCH  21  24
ATOM     24  C   UNL A   1      33.748  22.549  23.879  1.00  0.00     0.094 A 
ATOM     25  C   UNL A   1      35.069  22.871  23.619  1.00  0.00     0.026 A 
ATOM     26  S   UNL A   1      33.419  22.611  25.561  1.00  0.00    -0.139 S 
ATOM     27  C   UNL A   1      35.816  23.131  24.804  1.00  0.00     0.012 A 
ATOM     28  C   UNL A   1      35.035  23.031  25.933  1.00  0.00     0.065 A 
ENDBRANCH  21  24
ENDBRANCH  18  20
ENDBRANCH  15  16
ENDBRANCH  11  15
ENDBRANCH   5   8
ENDBRANCH   3   4
ENDBRANCH   2   3
ENDBRANCH   1   2
BRANCH   1  29
ATOM     29  C   UNL A   1      35.889  32.786  28.084  1.00  0.00     0.002 C 
BRANCH  29  30
ATOM     30  C   UNL A   1      34.913  33.967  28.066  1.00  0.00     0.021 C 
BRANCH  30  31
ATOM     31  C   UNL A   1      33.492  33.632  28.516  1.00  0.00     0.116 C 
BRANCH  31  32
ATOM     32  N   UNL A   1      32.949  34.661  29.388  1.00  0.00    -0.352 N 
ATOM     33  C   UNL A   1      33.230  34.921  30.704  1.00  0.00     0.251 C 
ATOM     34  H   UNL A   1      32.284  35.257  28.973  1.00  0.00     0.163 HD
ATOM     35  O   UNL A   1      32.490  35.645  31.360  1.00  0.00    -0.269 OA
BRANCH  33  36
ATOM     36  C   UNL A   1      34.426  34.318  31.327  1.00  0.00     0.039 A 
ATOM     37  C   UNL A   1      34.316  33.065  31.933  1.00  0.00     0.014 A 
ATOM     38  C   UNL A   1      35.648  34.998  31.329  1.00  0.00     0.014 A 
ATOM     39  C   UNL A   1      35.447  32.471  32.497  1.00  0.00     0.010 A 
ATOM     40  C   UNL A   1      36.788  34.373  31.824  1.00  0.00     0.010 A 
ATOM     41  C   UNL A   1      36.698  33.106  32.422  1.00  0.00    -0.014 A 
BRANCH  41  42
ATOM     42  C   UNL A   1      37.921  32.460  32.963  1.00  0.00     0.031 A 
ATOM     43  C   UNL A   1      38.585  31.342  32.205  1.00  0.00     0.074 A 
ATOM     44  C   UNL A   1      38.403  32.847  34.159  1.00  0.00     0.049 A 
ATOM     45  N   UNL A   1      39.635  30.634  32.535  1.00  0.00    -0.248 NA
ATOM     46  C   UNL A   1      37.978  30.953  30.922  1.00  0.00     0.031 C 
ATOM     47  C   UNL A   1      37.826  33.895  35.006  1.00  0.00     0.029 A 
ATOM     48  N   UNL A   1      39.486  32.404  34.876  1.00  0.00    -0.354 N 
ATOM     49  C   UNL A   1      39.807  29.711  31.510  1.00  0.00     0.074 A 
ATOM     50  C   UNL A   1      38.721  29.911  30.576  1.00  0.00     0.031 C 
ATOM     51  C   UNL A   1      38.579  34.035  36.108  1.00  0.00     0.029 A 
ATOM     52  C   UNL A   1      39.663  33.059  36.071  1.00  0.00     0.049 A 
ATOM     53  H   UNL A   1      40.081  31.685  34.561  1.00  0.00     0.167 HD
ATOM     54  C   UNL A   1      40.789  28.792  31.351  1.00  0.00     0.031 A 
ATOM     55  C   UNL A   1      40.590  32.889  37.035  1.00  0.00     0.031 A 
ATOM     56  C   UNL A   1      41.868  28.597  32.284  1.00  0.00     0.049 A 
ATOM     57  C   UNL A   1      41.656  31.844  36.848  1.00  0.00     0.074 A 
ATOM     58  C   UNL A   1      42.941  27.729  32.190  1.00  0.00     0.029 A 
ATOM     59  N   UNL A   1      42.008  29.277  33.485  1.00  0.00    -0.354 N 
ATOM     60  N   UNL A   1      41.841  31.027  35.839  1.00  0.00    -0.248 NA
ATOM     61  C   UNL A   1      42.645  31.706  37.926  1.00  0.00     0.031 C 
ATOM     62  C   UNL A   1      43.695  27.838  33.362  1.00  0.00     0.029 A 
ATOM     63  C   UNL A   1      43.132  28.824  34.157  1.00  0.00     0.049 A 
ATOM     64  H   UNL A   1      41.398  29.977  33.814  1.00  0.00     0.167 HD
ATOM     65  C   UNL A   1      42.982  30.295  36.149  1.00  0.00     0.074 A 
ATOM     66  C   UNL A   1      43.454  30.780  37.430  1.00  0.00     0.031 C 
ATOM     67  C   UNL A   1      43.586  29.313  35.436  1.00  0.00     0.031 A 
BRANCH  54  68
ATOM     68  C   UNL A   1      40.735  27.918  30.123  1.00  0.00    -0.014 A 
ATOM     69  C   UNL A   1      41.762  27.947  29.162  1.00  0.00     0.010 A 
ATOM     70  C   UNL A   1      39.660  27.028  29.944  1.00  0.00     0.010 A 
ATOM     71  C   UNL A   1      41.693  27.137  28.024  1.00  0.00     0.020 A 
ATOM     72  C   UNL A   1      39.603  26.193  28.825  1.00  0.00     0.020 A 
ATOM     73  C   UNL A   1      40.611  26.268  27.862  1.00  0.00     0.054 A 
BRANCH  73  74
ATOM     74  S   UNL A   1      40.556  25.216  26.385  1.00  0.00     0.124 S 
ATOM     75  O   UNL A   1      39.149  24.828  26.345  1.00  0.00    -0.237 OA
ATOM     76  O   UNL A   1      40.985  26.128  25.328  1.00  0.00    -0.237 OA
ATOM     77  O   UNL A   1      41.491  24.137  26.691  1.00  0.00    -0.744 OA
ENDBRANCH  73  74
ENDBRANCH  54  68
BRANCH  55  78
ATOM     78  C   UNL A   1      40.553  33.738  38.258  1.00  0.00    -0.014 A 
ATOM     79  C   UNL A   1      41.253  34.957  38.303  1.00  0.00     0.010 A 
ATOM     80  C   UNL A   1      39.805  33.338  39.381  1.00  0.00     0.010 A 
ATOM     81  C   UNL A   1      41.219  35.752  39.453  1.00  0.00     0.020 A 
ATOM     82  C   UNL A   1      39.745  34.144  40.521  1.00  0.00     0.020 A 
ATOM     83  C   UNL A   1      40.462  35.342  40.554  1.00  0.00     0.054 A 
BRANCH  83  84
ATOM     84  S   UNL A   1      40.392  36.413  42.017  1.00  0.00     0.124 S 
ATOM     85  O   UNL A   1      40.949  35.549  43.053  1.00  0.00    -0.237 OA
ATOM     86  O   UNL A   1      41.227  37.543  41.618  1.00  0.00    -0.237 OA
ATOM     87  O   UNL A   1      38.970  36.716  42.151  1.00  0.00    -0.744 OA
ENDBRANCH  83  84
ENDBRANCH  55  78
BRANCH  67  88
ATOM     88  C   UNL A   1      44.842  28.710  36.010  1.00  0.00    -0.014 A 
ATOM     89  C   UNL A   1      44.797  27.573  36.835  1.00  0.00     0.010 A 
ATOM     90  C   UNL A   1      46.092  29.261  35.671  1.00  0.00     0.010 A 
ATOM     91  C   UNL A   1      45.976  27.017  37.337  1.00  0.00     0.020 A 
ATOM     92  C   UNL A   1      47.276  28.690  36.145  1.00  0.00     0.020 A 
ATOM     93  C   UNL A   1      47.209  27.579  36.987  1.00  0.00     0.054 A 
BRANCH  93  94
ATOM     94  S   UNL A   1      48.726  26.810  37.615  1.00  0.00     0.124 S 
ATOM     95  O   UNL A   1      49.700  27.887  37.460  1.00  0.00    -0.237 OA
ATOM     96  O   UNL A   1      48.370  26.477  38.992  1.00  0.00    -0.237 OA
ATOM     97  O   UNL A   1      48.924  25.661  36.733  1.00  0.00    -0.744 OA
ENDBRANCH  93  94
ENDBRANCH  67  88
ENDBRANCH  41  42
ENDBRANCH  33  36
ENDBRANCH  31  32
ENDBRANCH  30  31
ENDBRANCH  29  30
ENDBRANCH   1  29
TORSDOF 20
ENDMDL
MODEL 3
REMARK VINA RESULT:     -10.1      6.547     12.281
REMARK SMILES C[C@H]1[C@@H](C(=O)NCCCCCCNC(=O)c2ccc(-c3c4nc(c(-c5ccc(S(=O)(=O)[O-])cc5)c5ccc([nH]5)c(-c5ccc(S(=O)(=O)[O-])cc5)c5nc(c(-c6ccc(S(=O)(=O)[O-])cc6)c6ccc3[nH]6)C=C5)C=C4)cc2)CC[N@@H+]1CC(=O)NNC(=O)c1cccs1
REMARK SMILES IDX 9 1 8 2 7 3 6 4 4 5 5 6 3 8 1 9 2 10 78 11 76 12 77 13 79 15
REMARK SMILES IDX 80 16 81 17 82 18 83 20 84 21 85 23 86 24 87 25 90 26 88 27
REMARK SMILES IDX 89 28 10 29 11 30 12 31 13 32 14 33 15 35 16 36 17 37 75 38
REMARK SMILES IDX 18 39 74 40 19 41 20 42 21 43 68 44 22 45 73 46 67 47 69 48
REMARK SMILES IDX 23 49 72 50 66 51 65 52 24 54 54 55 35 56 53 57 36 58 39 59
REMARK SMILES IDX 52 60 70 61 37 62 38 63 51 65 71 66 40 67 25 68 26 69 34 70
REMARK SMILES IDX 27 71 33 72 28 73 29 74 30 75 31 76 32 77 55 78 56 79 64 80
REMARK SMILES IDX 57 81 63 82 58 83 59 84 60 85 61 86 62 87 41 88 42 89 50 90
REMARK SMILES IDX 43 91 49 92 44 93 45 94 46 95 47 96 48 97
REMARK H PARENT 6 7 78 14 82 19 83 22 13 34 69 53 39 64
REMARK Flexibility Score: inf
ROOT
ATOM      1  C   UNL A   1      32.682  29.792  27.157  1.00  0.00     0.002 C 
ENDROOT
BRANCH   1   2
ATOM      2  C   UNL A   1      32.081  28.447  27.560  1.00  0.00     0.021 C 
BRANCH   2   3
ATOM      3  C   UNL A   1      32.353  27.304  26.576  1.00  0.00     0.116 C 
BRANCH   3   4
ATOM      4  N   UNL A   1      31.084  26.799  26.100  1.00  0.00    -0.356 N 
ATOM      5  C   UNL A   1      30.815  25.947  25.073  1.00  0.00     0.229 C 
ATOM      6  O   UNL A   1      29.646  25.931  24.676  1.00  0.00    -0.275 OA
ATOM      7  H   UNL A   1      30.295  27.119  26.594  1.00  0.00     0.163 HD
BRANCH   5   8
ATOM      8  C   UNL A   1      31.865  24.954  24.566  1.00  0.00     0.142 C 
ATOM      9  C   UNL A   1      31.920  23.642  26.880  1.00  0.00     0.076 C 
ATOM     10  C   UNL A   1      32.346  23.763  25.426  1.00  0.00     0.194 C 
ATOM     11  N   UNL A   1      33.812  23.824  25.462  1.00  0.00    -0.324 N 
ATOM     12  C   UNL A   1      33.167  25.682  24.175  1.00  0.00     0.081 C 
ATOM     13  C   UNL A   1      34.197  25.198  25.173  1.00  0.00     0.263 C 
ATOM     14  H   UNL A   1      34.134  23.587  26.402  1.00  0.00     0.348 HD
BRANCH  11  15
ATOM     15  C   UNL A   1      34.531  22.765  24.745  1.00  0.00     0.365 C 
BRANCH  15  16
ATOM     16  C   UNL A   1      34.937  21.556  25.585  1.00  0.00     0.293 C 
ATOM     17  O   UNL A   1      35.976  21.556  26.252  1.00  0.00    -0.267 OA
ATOM     18  N   UNL A   1      34.144  20.438  25.634  1.00  0.00    -0.262 N 
ATOM     19  H   UNL A   1      34.400  19.731  26.270  1.00  0.00     0.191 HD
BRANCH  18  20
ATOM     20  N   UNL A   1      33.004  20.215  24.860  1.00  0.00    -0.263 N 
ATOM     21  C   UNL A   1      32.852  19.100  24.044  1.00  0.00     0.279 C 
ATOM     22  H   UNL A   1      32.275  20.876  24.893  1.00  0.00     0.191 HD
ATOM     23  O   UNL A   1      32.181  19.231  23.017  1.00  0.00    -0.266 OA
BRANCH  21  24
ATOM     24  C   UNL A   1      33.473  17.852  24.460  1.00  0.00     0.094 A 
ATOM     25  C   UNL A   1      34.770  17.409  24.268  1.00  0.00     0.026 A 
ATOM     26  S   UNL A   1      32.576  16.738  25.407  1.00  0.00    -0.139 S 
ATOM     27  C   UNL A   1      35.013  16.138  24.865  1.00  0.00     0.012 A 
ATOM     28  C   UNL A   1      33.902  15.663  25.525  1.00  0.00     0.065 A 
ENDBRANCH  21  24
ENDBRANCH  18  20
ENDBRANCH  15  16
ENDBRANCH  11  15
ENDBRANCH   5   8
ENDBRANCH   3   4
ENDBRANCH   2   3
ENDBRANCH   1   2
BRANCH   1  29
ATOM     29  C   UNL A   1      31.746  30.670  26.327  1.00  0.00     0.002 C 
BRANCH  29  30
ATOM     30  C   UNL A   1      31.678  32.137  26.762  1.00  0.00     0.021 C 
BRANCH  30  31
ATOM     31  C   UNL A   1      32.875  32.621  27.579  1.00  0.00     0.116 C 
BRANCH  31  32
ATOM     32  N   UNL A   1      32.860  34.064  27.750  1.00  0.00    -0.352 N 
ATOM     33  C   UNL A   1      33.520  34.837  28.671  1.00  0.00     0.251 C 
ATOM     34  H   UNL A   1      32.294  34.558  27.113  1.00  0.00     0.163 HD
ATOM     35  O   UNL A   1      33.185  36.002  28.848  1.00  0.00    -0.269 OA
BRANCH  33  36
ATOM     36  C   UNL A   1      34.630  34.253  29.451  1.00  0.00     0.039 A 
ATOM     37  C   UNL A   1      34.334  33.441  30.549  1.00  0.00     0.014 A 
ATOM     38  C   UNL A   1      35.959  34.522  29.110  1.00  0.00     0.014 A 
ATOM     39  C   UNL A   1      35.374  32.858  31.274  1.00  0.00     0.010 A 
ATOM     40  C   UNL A   1      36.991  33.880  29.787  1.00  0.00     0.010 A 
ATOM     41  C   UNL A   1      36.711  33.048  30.882  1.00  0.00    -0.014 A 
BRANCH  41  42
ATOM     42  C   UNL A   1      37.825  32.386  31.606  1.00  0.00     0.031 A 
ATOM     43  C   UNL A   1      38.267  32.900  32.950  1.00  0.00     0.074 A 
ATOM     44  C   UNL A   1      38.472  31.354  31.030  1.00  0.00     0.049 A 
ATOM     45  N   UNL A   1      39.242  32.477  33.714  1.00  0.00    -0.248 NA
ATOM     46  C   UNL A   1      37.534  34.053  33.497  1.00  0.00     0.031 C 
ATOM     47  C   UNL A   1      38.161  30.789  29.714  1.00  0.00     0.029 A 
ATOM     48  N   UNL A   1      39.527  30.598  31.473  1.00  0.00    -0.354 N 
ATOM     49  C   UNL A   1      39.247  33.316  34.822  1.00  0.00     0.074 A 
ATOM     50  C   UNL A   1      38.215  34.307  34.605  1.00  0.00     0.031 C 
ATOM     51  C   UNL A   1      38.984  29.757  29.473  1.00  0.00     0.029 A 
ATOM     52  C   UNL A   1      39.910  29.615  30.591  1.00  0.00     0.049 A 
ATOM     53  H   UNL A   1      39.968  30.745  32.341  1.00  0.00     0.167 HD
ATOM     54  C   UNL A   1      40.027  33.257  35.928  1.00  0.00     0.031 A 
ATOM     55  C   UNL A   1      40.901  28.705  30.671  1.00  0.00     0.031 A 
ATOM     56  C   UNL A   1      41.051  32.268  36.138  1.00  0.00     0.049 A 
ATOM     57  C   UNL A   1      41.771  28.675  31.897  1.00  0.00     0.074 A 
ATOM     58  C   UNL A   1      41.861  32.090  37.245  1.00  0.00     0.029 A 
ATOM     59  N   UNL A   1      41.412  31.294  35.219  1.00  0.00    -0.354 N 
ATOM     60  N   UNL A   1      41.715  29.434  32.965  1.00  0.00    -0.248 NA
ATOM     61  C   UNL A   1      42.831  27.658  31.934  1.00  0.00     0.031 C 
ATOM     62  C   UNL A   1      42.753  31.049  36.972  1.00  0.00     0.029 A 
ATOM     63  C   UNL A   1      42.454  30.532  35.722  1.00  0.00     0.049 A 
ATOM     64  H   UNL A   1      40.990  31.163  34.339  1.00  0.00     0.167 HD
ATOM     65  C   UNL A   1      42.716  28.970  33.813  1.00  0.00     0.074 A 
ATOM     66  C   UNL A   1      43.347  27.853  33.140  1.00  0.00     0.031 C 
ATOM     67  C   UNL A   1      43.077  29.426  35.037  1.00  0.00     0.031 A 
BRANCH  54  68
ATOM     68  C   UNL A   1      39.806  34.301  36.994  1.00  0.00    -0.014 A 
ATOM     69  C   UNL A   1      40.309  35.607  36.849  1.00  0.00     0.010 A 
ATOM     70  C   UNL A   1      39.054  33.983  38.140  1.00  0.00     0.010 A 
ATOM     71  C   UNL A   1      40.104  36.561  37.851  1.00  0.00     0.020 A 
ATOM     72  C   UNL A   1      38.819  34.943  39.129  1.00  0.00     0.020 A 
ATOM     73  C   UNL A   1      39.363  36.221  38.985  1.00  0.00     0.054 A 
BRANCH  73  74
ATOM     74  S   UNL A   1      39.097  37.484  40.260  1.00  0.00     0.124 S 
ATOM     75  O   UNL A   1      38.452  36.711  41.319  1.00  0.00    -0.237 OA
ATOM     76  O   UNL A   1      40.456  37.934  40.551  1.00  0.00    -0.237 OA
ATOM     77  O   UNL A   1      38.245  38.470  39.602  1.00  0.00    -0.744 OA
ENDBRANCH  73  74
ENDBRANCH  54  68
BRANCH  55  78
ATOM     78  C   UNL A   1      41.114  27.740  29.556  1.00  0.00    -0.014 A 
ATOM     79  C   UNL A   1      42.220  27.871  28.697  1.00  0.00     0.010 A 
ATOM     80  C   UNL A   1      40.217  26.674  29.356  1.00  0.00     0.010 A 
ATOM     81  C   UNL A   1      42.416  26.965  27.650  1.00  0.00     0.020 A 
ATOM     82  C   UNL A   1      40.426  25.749  28.329  1.00  0.00     0.020 A 
ATOM     83  C   UNL A   1      41.520  25.908  27.475  1.00  0.00     0.054 A 
BRANCH  83  84
ATOM     84  S   UNL A   1      41.822  24.715  26.141  1.00  0.00     0.124 S 
ATOM     85  O   UNL A   1      42.993  23.998  26.635  1.00  0.00    -0.237 OA
ATOM     86  O   UNL A   1      40.577  23.953  26.113  1.00  0.00    -0.237 OA
ATOM     87  O   UNL A   1      42.053  25.561  24.972  1.00  0.00    -0.744 OA
ENDBRANCH  83  84
ENDBRANCH  55  78
BRANCH  67  88
ATOM     88  C   UNL A   1      44.191  28.701  35.747  1.00  0.00    -0.014 A 
ATOM     89  C   UNL A   1      45.534  29.083  35.581  1.00  0.00     0.010 A 
ATOM     90  C   UNL A   1      43.882  27.656  36.637  1.00  0.00     0.010 A 
ATOM     91  C   UNL A   1      46.549  28.412  36.266  1.00  0.00     0.020 A 
ATOM     92  C   UNL A   1      44.891  27.003  37.349  1.00  0.00     0.020 A 
ATOM     93  C   UNL A   1      46.220  27.376  37.148  1.00  0.00     0.054 A 
BRANCH  93  94
ATOM     94  S   UNL A   1      47.554  26.554  38.061  1.00  0.00     0.124 S 
ATOM     95  O   UNL A   1      47.173  26.806  39.448  1.00  0.00    -0.237 OA
ATOM     96  O   UNL A   1      47.436  25.167  37.619  1.00  0.00    -0.237 OA
ATOM     97  O   UNL A   1      48.760  27.245  37.611  1.00  0.00    -0.744 OA
ENDBRANCH  93  94
ENDBRANCH  67  88
ENDBRANCH  41  42
ENDBRANCH  33  36
ENDBRANCH  31  32
ENDBRANCH  30  31
ENDBRANCH  29  30
ENDBRANCH   1  29
TORSDOF 20
ENDMDL
