MODEL 1
REMARK VINA RESULT:     -11.5      0.000      0.000
REMARK SMILES CC(C)c1nc(C(=O)NCCCCCCNC(=O)c2ccc(-c3c4nc(c(-c5ccc(S(=O)(=O)[O-])cc5)c5ccc([nH]5)c(-c5ccc(S(=O)(=O)[O-])cc5)c5nc(c(-c6ccc(S(=O)(=O)[O-])cc6)c6ccc3[nH]6)C=C5)C=C4)cc2)nn1-c1ccccc1F
REMARK SMILES IDX 13 1 12 2 11 3 10 4 9 5 7 6 8 7 6 9 4 10 5 11 80 12 79 13
REMARK SMILES IDX 2 14 1 15 3 16 81 17 82 18 86 19 83 20 85 21 87 22 84 23
REMARK SMILES IDX 14 24 15 25 16 26 17 27 18 29 19 30 20 31 78 32 21 33 77 34
REMARK SMILES IDX 22 35 23 36 24 37 71 38 25 39 76 40 70 41 72 42 26 43 75 44
REMARK SMILES IDX 69 45 68 46 27 48 57 49 38 50 56 51 39 52 42 53 55 54 73 55
REMARK SMILES IDX 40 56 41 57 54 59 74 60 43 61 28 62 29 63 37 64 30 65 36 66
REMARK SMILES IDX 31 67 32 68 33 69 34 70 35 71 58 72 59 73 67 74 60 75 66 76
REMARK SMILES IDX 61 77 62 78 63 79 64 80 65 81 44 82 45 83 53 84 46 85 52 86
REMARK SMILES IDX 47 87 48 88 49 89 50 90 51 91
REMARK H PARENT 9 8 16 28 72 47 42 58
REMARK Flexibility Score: inf
ROOT
ATOM      1  C   UNL A   1      41.118  21.763  27.800  1.00  0.00     0.002 C 
ENDROOT
BRANCH   1   2
ATOM      2  C   UNL A   1      40.406  22.593  26.721  1.00  0.00     0.002 C 
BRANCH   2   3
ATOM      3  C   UNL A   1      38.944  22.246  26.441  1.00  0.00     0.021 C 
BRANCH   3   4
ATOM      4  C   UNL A   1      38.016  23.427  26.173  1.00  0.00     0.116 C 
BRANCH   4   5
ATOM      5  N   UNL A   1      37.767  23.650  24.759  1.00  0.00    -0.349 N 
ATOM      6  C   UNL A   1      36.751  23.152  23.955  1.00  0.00     0.290 C 
ATOM      7  O   UNL A   1      36.777  23.456  22.760  1.00  0.00    -0.266 OA
ATOM      8  H   UNL A   1      38.413  24.238  24.304  1.00  0.00     0.163 HD
BRANCH   6   9
ATOM      9  C   UNL A   1      35.703  22.280  24.535  1.00  0.00     0.239 A 
ATOM     10  C   UNL A   1      33.841  21.672  25.391  1.00  0.00     0.136 A 
ATOM     11  N   UNL A   1      34.554  22.758  25.137  1.00  0.00    -0.207 NA
ATOM     12  N   UNL A   1      34.503  20.590  24.828  1.00  0.00    -0.214 N 
ATOM     13  N   UNL A   1      35.787  20.940  24.592  1.00  0.00    -0.140 NA
BRANCH  10  14
ATOM     14  C   UNL A   1      32.690  21.622  26.364  1.00  0.00     0.051 C 
ATOM     15  C   UNL A   1      33.015  22.164  27.750  1.00  0.00     0.016 C 
ATOM     16  C   UNL A   1      31.395  22.222  25.815  1.00  0.00     0.016 C 
ENDBRANCH  10  14
BRANCH  12  17
ATOM     17  C   UNL A   1      34.073  19.294  24.497  1.00  0.00     0.102 A 
ATOM     18  C   UNL A   1      34.913  18.200  24.752  1.00  0.00     0.031 A 
ATOM     19  C   UNL A   1      32.864  19.099  23.837  1.00  0.00     0.148 A 
ATOM     20  C   UNL A   1      34.484  16.912  24.426  1.00  0.00     0.002 A 
ATOM     21  C   UNL A   1      32.443  17.817  23.500  1.00  0.00     0.041 A 
ATOM     22  F   UNL A   1      32.141  20.139  23.411  1.00  0.00    -0.205 F 
ATOM     23  C   UNL A   1      33.245  16.719  23.811  1.00  0.00     0.003 A 
ENDBRANCH  12  17
ENDBRANCH   6   9
ENDBRANCH   4   5
ENDBRANCH   3   4
ENDBRANCH   2   3
ENDBRANCH   1   2
BRANCH   1  24
ATOM     24  C   UNL A   1      41.911  20.533  27.335  1.00  0.00     0.021 C 
BRANCH  24  25
ATOM     25  C   UNL A   1      41.996  20.365  25.826  1.00  0.00     0.116 C 
BRANCH  25  26
ATOM     26  N   UNL A   1      43.357  20.115  25.347  1.00  0.00    -0.352 N 
ATOM     27  C   UNL A   1      44.341  21.044  25.041  1.00  0.00     0.251 C 
ATOM     28  H   UNL A   1      43.603  19.170  25.225  1.00  0.00     0.163 HD
ATOM     29  O   UNL A   1      45.280  20.749  24.324  1.00  0.00    -0.269 OA
BRANCH  27  30
ATOM     30  C   UNL A   1      44.219  22.402  25.608  1.00  0.00     0.039 A 
ATOM     31  C   UNL A   1      43.464  23.402  24.987  1.00  0.00     0.014 A 
ATOM     32  C   UNL A   1      44.856  22.647  26.818  1.00  0.00     0.014 A 
ATOM     33  C   UNL A   1      43.287  24.620  25.646  1.00  0.00     0.010 A 
ATOM     34  C   UNL A   1      44.528  23.760  27.543  1.00  0.00     0.010 A 
ATOM     35  C   UNL A   1      43.809  24.785  26.938  1.00  0.00    -0.014 A 
BRANCH  35  36
ATOM     36  C   UNL A   1      43.575  25.999  27.714  1.00  0.00     0.031 A 
ATOM     37  C   UNL A   1      44.584  27.081  27.546  1.00  0.00     0.074 A 
ATOM     38  C   UNL A   1      42.397  26.240  28.332  1.00  0.00     0.049 A 
ATOM     39  N   UNL A   1      45.389  27.562  28.435  1.00  0.00    -0.248 NA
ATOM     40  C   UNL A   1      44.794  27.632  26.197  1.00  0.00     0.031 C 
ATOM     41  C   UNL A   1      41.170  25.428  28.308  1.00  0.00     0.029 A 
ATOM     42  N   UNL A   1      41.998  27.352  29.001  1.00  0.00    -0.354 N 
ATOM     43  C   UNL A   1      46.071  28.610  27.821  1.00  0.00     0.074 A 
ATOM     44  C   UNL A   1      45.790  28.495  26.411  1.00  0.00     0.031 C 
ATOM     45  C   UNL A   1      40.119  26.184  28.690  1.00  0.00     0.029 A 
ATOM     46  C   UNL A   1      40.622  27.455  29.172  1.00  0.00     0.049 A 
ATOM     47  H   UNL A   1      42.629  28.028  29.336  1.00  0.00     0.167 HD
ATOM     48  C   UNL A   1      46.638  29.622  28.538  1.00  0.00     0.031 A 
ATOM     49  C   UNL A   1      39.939  28.523  29.651  1.00  0.00     0.031 A 
ATOM     50  C   UNL A   1      46.692  29.314  29.944  1.00  0.00     0.049 A 
ATOM     51  C   UNL A   1      40.912  29.350  30.406  1.00  0.00     0.074 A 
ATOM     52  C   UNL A   1      47.288  28.326  30.700  1.00  0.00     0.029 A 
ATOM     53  N   UNL A   1      45.716  29.864  30.742  1.00  0.00    -0.354 N 
ATOM     54  N   UNL A   1      41.506  28.942  31.492  1.00  0.00    -0.248 NA
ATOM     55  C   UNL A   1      41.570  30.444  29.711  1.00  0.00     0.031 C 
ATOM     56  C   UNL A   1      46.326  28.005  31.704  1.00  0.00     0.029 A 
ATOM     57  C   UNL A   1      45.234  28.864  31.547  1.00  0.00     0.049 A 
ATOM     58  H   UNL A   1      45.420  30.803  30.738  1.00  0.00     0.167 HD
ATOM     59  C   UNL A   1      42.808  29.412  31.385  1.00  0.00     0.074 A 
ATOM     60  C   UNL A   1      42.757  30.416  30.324  1.00  0.00     0.031 C 
ATOM     61  C   UNL A   1      43.852  28.751  31.970  1.00  0.00     0.031 A 
BRANCH  48  62
ATOM     62  C   UNL A   1      46.802  31.037  28.033  1.00  0.00    -0.014 A 
ATOM     63  C   UNL A   1      45.650  31.823  27.816  1.00  0.00     0.010 A 
ATOM     64  C   UNL A   1      48.015  31.528  27.512  1.00  0.00     0.010 A 
ATOM     65  C   UNL A   1      45.700  32.997  27.052  1.00  0.00     0.020 A 
ATOM     66  C   UNL A   1      48.085  32.722  26.788  1.00  0.00     0.020 A 
ATOM     67  C   UNL A   1      46.919  33.429  26.530  1.00  0.00     0.054 A 
BRANCH  67  68
ATOM     68  S   UNL A   1      46.960  34.879  25.448  1.00  0.00     0.124 S 
ATOM     69  O   UNL A   1      46.738  35.967  26.396  1.00  0.00    -0.237 OA
ATOM     70  O   UNL A   1      48.300  34.802  24.874  1.00  0.00    -0.237 OA
ATOM     71  O   UNL A   1      45.868  34.634  24.508  1.00  0.00    -0.744 OA
ENDBRANCH  67  68
ENDBRANCH  48  62
BRANCH  49  72
ATOM     72  C   UNL A   1      38.605  29.014  29.231  1.00  0.00    -0.014 A 
ATOM     73  C   UNL A   1      37.544  29.103  30.149  1.00  0.00     0.010 A 
ATOM     74  C   UNL A   1      38.453  29.664  27.988  1.00  0.00     0.010 A 
ATOM     75  C   UNL A   1      36.401  29.870  29.862  1.00  0.00     0.020 A 
ATOM     76  C   UNL A   1      37.316  30.427  27.692  1.00  0.00     0.020 A 
ATOM     77  C   UNL A   1      36.306  30.547  28.643  1.00  0.00     0.054 A 
BRANCH  77  78
ATOM     78  S   UNL A   1      34.922  31.693  28.363  1.00  0.00     0.124 S 
ATOM     79  O   UNL A   1      35.530  32.710  27.509  1.00  0.00    -0.237 OA
ATOM     80  O   UNL A   1      33.928  30.839  27.720  1.00  0.00    -0.237 OA
ATOM     81  O   UNL A   1      34.570  32.142  29.708  1.00  0.00    -0.744 OA
ENDBRANCH  77  78
ENDBRANCH  49  72
BRANCH  61  82
ATOM     82  C   UNL A   1      43.545  27.646  32.960  1.00  0.00    -0.014 A 
ATOM     83  C   UNL A   1      43.822  26.284  32.727  1.00  0.00     0.010 A 
ATOM     84  C   UNL A   1      43.108  28.027  34.241  1.00  0.00     0.010 A 
ATOM     85  C   UNL A   1      43.640  25.329  33.741  1.00  0.00     0.020 A 
ATOM     86  C   UNL A   1      42.943  27.085  35.259  1.00  0.00     0.020 A 
ATOM     87  C   UNL A   1      43.200  25.738  35.002  1.00  0.00     0.054 A 
BRANCH  87  88
ATOM     88  S   UNL A   1      43.008  24.510  36.326  1.00  0.00     0.124 S 
ATOM     89  O   UNL A   1      43.578  23.306  35.728  1.00  0.00    -0.237 OA
ATOM     90  O   UNL A   1      43.778  25.092  37.424  1.00  0.00    -0.237 OA
ATOM     91  O   UNL A   1      41.564  24.463  36.551  1.00  0.00    -0.744 OA
ENDBRANCH  87  88
ENDBRANCH  61  82
ENDBRANCH  35  36
ENDBRANCH  27  30
ENDBRANCH  25  26
ENDBRANCH  24  25
ENDBRANCH   1  24
TORSDOF 18
ENDMDL
MODEL 2
REMARK VINA RESULT:     -11.4      3.053      4.672
REMARK SMILES CC(C)c1nc(C(=O)NCCCCCCNC(=O)c2ccc(-c3c4nc(c(-c5ccc(S(=O)(=O)[O-])cc5)c5ccc([nH]5)c(-c5ccc(S(=O)(=O)[O-])cc5)c5nc(c(-c6ccc(S(=O)(=O)[O-])cc6)c6ccc3[nH]6)C=C5)C=C4)cc2)nn1-c1ccccc1F
REMARK SMILES IDX 13 1 12 2 11 3 10 4 9 5 7 6 8 7 6 9 4 10 5 11 80 12 79 13
REMARK SMILES IDX 2 14 1 15 3 16 81 17 82 18 86 19 83 20 85 21 87 22 84 23
REMARK SMILES IDX 14 24 15 25 16 26 17 27 18 29 19 30 20 31 78 32 21 33 77 34
REMARK SMILES IDX 22 35 23 36 24 37 71 38 25 39 76 40 70 41 72 42 26 43 75 44
REMARK SMILES IDX 69 45 68 46 27 48 57 49 38 50 56 51 39 52 42 53 55 54 73 55
REMARK SMILES IDX 40 56 41 57 54 59 74 60 43 61 28 62 29 63 37 64 30 65 36 66
REMARK SMILES IDX 31 67 32 68 33 69 34 70 35 71 58 72 59 73 67 74 60 75 66 76
REMARK SMILES IDX 61 77 62 78 63 79 64 80 65 81 44 82 45 83 53 84 46 85 52 86
REMARK SMILES IDX 47 87 48 88 49 89 50 90 51 91
REMARK H PARENT 9 8 16 28 72 47 42 58
REMARK Flexibility Score: inf
ROOT
ATOM      1  C   UNL A   1      36.644  23.283  25.510  1.00  0.00     0.002 C 
ENDROOT
BRANCH   1   2
ATOM      2  C   UNL A   1      35.449  22.566  26.157  1.00  0.00     0.002 C 
BRANCH   2   3
ATOM      3  C   UNL A   1      34.135  23.345  26.225  1.00  0.00     0.021 C 
BRANCH   3   4
ATOM      4  C   UNL A   1      33.061  22.932  25.223  1.00  0.00     0.116 C 
BRANCH   4   5
ATOM      5  N   UNL A   1      33.548  22.869  23.855  1.00  0.00    -0.349 N 
ATOM      6  C   UNL A   1      33.427  23.801  22.834  1.00  0.00     0.290 C 
ATOM      7  O   UNL A   1      33.894  23.498  21.734  1.00  0.00    -0.266 OA
ATOM      8  H   UNL A   1      34.033  22.045  23.617  1.00  0.00     0.163 HD
BRANCH   6   9
ATOM      9  C   UNL A   1      32.742  25.093  23.083  1.00  0.00     0.239 A 
ATOM     10  C   UNL A   1      31.197  26.568  23.153  1.00  0.00     0.136 A 
ATOM     11  N   UNL A   1      31.484  25.399  22.600  1.00  0.00    -0.207 NA
ATOM     12  N   UNL A   1      32.214  26.875  24.044  1.00  0.00    -0.214 N 
ATOM     13  N   UNL A   1      33.296  26.120  23.749  1.00  0.00    -0.140 NA
BRANCH  10  14
ATOM     14  C   UNL A   1      30.116  27.496  22.659  1.00  0.00     0.051 C 
ATOM     15  C   UNL A   1      28.862  27.517  23.524  1.00  0.00     0.016 C 
ATOM     16  C   UNL A   1      30.613  28.910  22.356  1.00  0.00     0.016 C 
ENDBRANCH  10  14
BRANCH  12  17
ATOM     17  C   UNL A   1      32.282  27.780  25.117  1.00  0.00     0.102 A 
ATOM     18  C   UNL A   1      31.532  27.537  26.277  1.00  0.00     0.031 A 
ATOM     19  C   UNL A   1      33.012  28.958  25.000  1.00  0.00     0.148 A 
ATOM     20  C   UNL A   1      31.602  28.434  27.343  1.00  0.00     0.002 A 
ATOM     21  C   UNL A   1      33.072  29.860  26.058  1.00  0.00     0.041 A 
ATOM     22  F   UNL A   1      33.574  29.304  23.838  1.00  0.00    -0.205 F 
ATOM     23  C   UNL A   1      32.381  29.589  27.239  1.00  0.00     0.003 A 
ENDBRANCH  12  17
ENDBRANCH   6   9
ENDBRANCH   4   5
ENDBRANCH   3   4
ENDBRANCH   2   3
ENDBRANCH   1   2
BRANCH   1  24
ATOM     24  C   UNL A   1      37.932  22.471  25.314  1.00  0.00     0.021 C 
BRANCH  24  25
ATOM     25  C   UNL A   1      38.949  22.614  26.435  1.00  0.00     0.116 C 
BRANCH  25  26
ATOM     26  N   UNL A   1      40.268  22.076  26.093  1.00  0.00    -0.352 N 
ATOM     27  C   UNL A   1      41.446  22.776  25.876  1.00  0.00     0.251 C 
ATOM     28  H   UNL A   1      40.325  21.098  26.006  1.00  0.00     0.163 HD
ATOM     29  O   UNL A   1      42.367  22.274  25.257  1.00  0.00    -0.269 OA
BRANCH  27  30
ATOM     30  C   UNL A   1      41.555  24.146  26.414  1.00  0.00     0.039 A 
ATOM     31  C   UNL A   1      40.996  25.248  25.760  1.00  0.00     0.014 A 
ATOM     32  C   UNL A   1      42.206  24.303  27.631  1.00  0.00     0.014 A 
ATOM     33  C   UNL A   1      41.024  26.493  26.392  1.00  0.00     0.010 A 
ATOM     34  C   UNL A   1      42.066  25.472  28.328  1.00  0.00     0.010 A 
ATOM     35  C   UNL A   1      41.546  26.593  27.690  1.00  0.00    -0.014 A 
BRANCH  35  36
ATOM     36  C   UNL A   1      41.516  27.847  28.438  1.00  0.00     0.031 A 
ATOM     37  C   UNL A   1      42.612  28.808  28.138  1.00  0.00     0.074 A 
ATOM     38  C   UNL A   1      40.434  28.229  29.152  1.00  0.00     0.049 A 
ATOM     39  N   UNL A   1      43.544  29.224  28.931  1.00  0.00    -0.248 NA
ATOM     40  C   UNL A   1      42.750  29.295  26.756  1.00  0.00     0.031 C 
ATOM     41  C   UNL A   1      39.132  27.554  29.272  1.00  0.00     0.029 A 
ATOM     42  N   UNL A   1      40.219  29.396  29.812  1.00  0.00    -0.354 N 
ATOM     43  C   UNL A   1      44.270  30.174  28.217  1.00  0.00     0.074 A 
ATOM     44  C   UNL A   1      43.845  30.052  26.845  1.00  0.00     0.031 C 
ATOM     45  C   UNL A   1      38.207  28.430  29.719  1.00  0.00     0.029 A 
ATOM     46  C   UNL A   1      38.884  29.652  30.105  1.00  0.00     0.049 A 
ATOM     47  H   UNL A   1      40.946  30.010  30.063  1.00  0.00     0.167 HD
ATOM     48  C   UNL A   1      45.006  31.139  28.841  1.00  0.00     0.031 A 
ATOM     49  C   UNL A   1      38.366  30.800  30.604  1.00  0.00     0.031 A 
ATOM     50  C   UNL A   1      45.161  30.866  30.247  1.00  0.00     0.049 A 
ATOM     51  C   UNL A   1      39.487  31.538  31.235  1.00  0.00     0.074 A 
ATOM     52  C   UNL A   1      45.720  29.841  30.982  1.00  0.00     0.029 A 
ATOM     53  N   UNL A   1      44.329  31.540  31.110  1.00  0.00    -0.354 N 
ATOM     54  N   UNL A   1      40.136  31.098  32.277  1.00  0.00    -0.248 NA
ATOM     55  C   UNL A   1      40.187  32.535  30.442  1.00  0.00     0.031 C 
ATOM     56  C   UNL A   1      44.829  29.653  32.081  1.00  0.00     0.029 A 
ATOM     57  C   UNL A   1      43.824  30.620  31.992  1.00  0.00     0.049 A 
ATOM     58  H   UNL A   1      44.133  32.505  31.098  1.00  0.00     0.167 HD
ATOM     59  C   UNL A   1      41.464  31.422  32.034  1.00  0.00     0.074 A 
ATOM     60  C   UNL A   1      41.418  32.396  30.944  1.00  0.00     0.031 C 
ATOM     61  C   UNL A   1      42.484  30.668  32.544  1.00  0.00     0.031 A 
BRANCH  48  62
ATOM     62  C   UNL A   1      45.268  32.514  28.271  1.00  0.00    -0.014 A 
ATOM     63  C   UNL A   1      46.585  33.021  28.288  1.00  0.00     0.010 A 
ATOM     64  C   UNL A   1      44.238  33.427  27.971  1.00  0.00     0.010 A 
ATOM     65  C   UNL A   1      46.845  34.384  28.089  1.00  0.00     0.020 A 
ATOM     66  C   UNL A   1      44.490  34.780  27.724  1.00  0.00     0.020 A 
ATOM     67  C   UNL A   1      45.790  35.257  27.824  1.00  0.00     0.054 A 
BRANCH  67  68
ATOM     68  S   UNL A   1      46.116  37.031  27.685  1.00  0.00     0.124 S 
ATOM     69  O   UNL A   1      47.165  37.222  28.683  1.00  0.00    -0.237 OA
ATOM     70  O   UNL A   1      46.533  37.164  26.293  1.00  0.00    -0.237 OA
ATOM     71  O   UNL A   1      44.828  37.642  28.006  1.00  0.00    -0.744 OA
ENDBRANCH  67  68
ENDBRANCH  48  62
BRANCH  49  72
ATOM     72  C   UNL A   1      37.056  31.420  30.291  1.00  0.00    -0.014 A 
ATOM     73  C   UNL A   1      36.423  32.279  31.206  1.00  0.00     0.010 A 
ATOM     74  C   UNL A   1      36.562  31.390  28.969  1.00  0.00     0.010 A 
ATOM     75  C   UNL A   1      35.379  33.128  30.799  1.00  0.00     0.020 A 
ATOM     76  C   UNL A   1      35.518  32.229  28.556  1.00  0.00     0.020 A 
ATOM     77  C   UNL A   1      34.949  33.113  29.469  1.00  0.00     0.054 A 
BRANCH  77  78
ATOM     78  S   UNL A   1      33.740  34.349  28.907  1.00  0.00     0.124 S 
ATOM     79  O   UNL A   1      34.597  35.402  28.372  1.00  0.00    -0.237 OA
ATOM     80  O   UNL A   1      32.961  33.605  27.921  1.00  0.00    -0.237 OA
ATOM     81  O   UNL A   1      33.013  34.699  30.127  1.00  0.00    -0.744 OA
ENDBRANCH  77  78
ENDBRANCH  49  72
BRANCH  61  82
ATOM     82  C   UNL A   1      42.158  29.631  33.599  1.00  0.00    -0.014 A 
ATOM     83  C   UNL A   1      41.659  28.345  33.308  1.00  0.00     0.010 A 
ATOM     84  C   UNL A   1      42.528  29.917  34.925  1.00  0.00     0.010 A 
ATOM     85  C   UNL A   1      41.510  27.384  34.322  1.00  0.00     0.020 A 
ATOM     86  C   UNL A   1      42.399  28.960  35.935  1.00  0.00     0.020 A 
ATOM     87  C   UNL A   1      41.882  27.701  35.631  1.00  0.00     0.054 A 
BRANCH  87  88
ATOM     88  S   UNL A   1      41.731  26.444  36.934  1.00  0.00     0.124 S 
ATOM     89  O   UNL A   1      40.462  26.792  37.565  1.00  0.00    -0.237 OA
ATOM     90  O   UNL A   1      41.738  25.192  36.180  1.00  0.00    -0.237 OA
ATOM     91  O   UNL A   1      42.914  26.662  37.766  1.00  0.00    -0.744 OA
ENDBRANCH  87  88
ENDBRANCH  61  82
ENDBRANCH  35  36
ENDBRANCH  27  30
ENDBRANCH  25  26
ENDBRANCH  24  25
ENDBRANCH   1  24
TORSDOF 18
ENDMDL
MODEL 3
REMARK VINA RESULT:     -11.3      2.816      9.354
REMARK SMILES CC(C)c1nc(C(=O)NCCCCCCNC(=O)c2ccc(-c3c4nc(c(-c5ccc(S(=O)(=O)[O-])cc5)c5ccc([nH]5)c(-c5ccc(S(=O)(=O)[O-])cc5)c5nc(c(-c6ccc(S(=O)(=O)[O-])cc6)c6ccc3[nH]6)C=C5)C=C4)cc2)nn1-c1ccccc1F
REMARK SMILES IDX 13 1 12 2 11 3 10 4 9 5 7 6 8 7 6 9 4 10 5 11 80 12 79 13
REMARK SMILES IDX 2 14 1 15 3 16 81 17 82 18 86 19 83 20 85 21 87 22 84 23
REMARK SMILES IDX 14 24 15 25 16 26 17 27 18 29 19 30 20 31 78 32 21 33 77 34
REMARK SMILES IDX 22 35 23 36 24 37 71 38 25 39 76 40 70 41 72 42 26 43 75 44
REMARK SMILES IDX 69 45 68 46 27 48 57 49 38 50 56 51 39 52 42 53 55 54 73 55
REMARK SMILES IDX 40 56 41 57 54 59 74 60 43 61 28 62 29 63 37 64 30 65 36 66
REMARK SMILES IDX 31 67 32 68 33 69 34 70 35 71 58 72 59 73 67 74 60 75 66 76
REMARK SMILES IDX 61 77 62 78 63 79 64 80 65 81 44 82 45 83 53 84 46 85 52 86
REMARK SMILES IDX 47 87 48 88 49 89 50 90 51 91
REMARK H PARENT 9 8 16 28 72 47 42 58
REMARK Flexibility Score: inf
ROOT
ATOM      1  C   UNL A   1      31.840  29.412  25.786  1.00  0.00     0.002 C 
ENDROOT
BRANCH   1   2
ATOM      2  C   UNL A   1      31.154  28.189  25.159  1.00  0.00     0.002 C 
BRANCH   2   3
ATOM      3  C   UNL A   1      31.057  26.935  26.027  1.00  0.00     0.021 C 
BRANCH   3   4
ATOM      4  C   UNL A   1      30.113  25.847  25.526  1.00  0.00     0.116 C 
BRANCH   4   5
ATOM      5  N   UNL A   1      29.796  24.853  26.538  1.00  0.00    -0.349 N 
ATOM      6  C   UNL A   1      30.342  23.593  26.737  1.00  0.00     0.290 C 
ATOM      7  O   UNL A   1      29.873  22.910  27.650  1.00  0.00    -0.266 OA
ATOM      8  H   UNL A   1      29.090  25.110  27.175  1.00  0.00     0.163 HD
BRANCH   6   9
ATOM      9  C   UNL A   1      31.434  23.109  25.858  1.00  0.00     0.239 A 
ATOM     10  C   UNL A   1      32.576  22.737  24.089  1.00  0.00     0.136 A 
ATOM     11  N   UNL A   1      31.368  23.116  24.478  1.00  0.00    -0.207 NA
ATOM     12  N   UNL A   1      33.372  22.636  25.221  1.00  0.00    -0.214 N 
ATOM     13  N   UNL A   1      32.574  22.557  26.309  1.00  0.00    -0.140 NA
BRANCH  10  14
ATOM     14  C   UNL A   1      32.901  22.231  22.707  1.00  0.00     0.051 C 
ATOM     15  C   UNL A   1      31.951  21.159  22.189  1.00  0.00     0.016 C 
ATOM     16  C   UNL A   1      33.106  23.345  21.679  1.00  0.00     0.016 C 
ENDBRANCH  10  14
BRANCH  12  17
ATOM     17  C   UNL A   1      34.766  22.606  25.390  1.00  0.00     0.102 A 
ATOM     18  C   UNL A   1      35.456  23.793  25.673  1.00  0.00     0.031 A 
ATOM     19  C   UNL A   1      35.475  21.426  25.185  1.00  0.00     0.148 A 
ATOM     20  C   UNL A   1      36.841  23.761  25.844  1.00  0.00     0.002 A 
ATOM     21  C   UNL A   1      36.856  21.397  25.342  1.00  0.00     0.041 A 
ATOM     22  F   UNL A   1      34.863  20.331  24.724  1.00  0.00    -0.205 F 
ATOM     23  C   UNL A   1      37.540  22.562  25.690  1.00  0.00     0.003 A 
ENDBRANCH  12  17
ENDBRANCH   6   9
ENDBRANCH   4   5
ENDBRANCH   3   4
ENDBRANCH   2   3
ENDBRANCH   1   2
BRANCH   1  24
ATOM     24  C   UNL A   1      32.740  29.168  27.006  1.00  0.00     0.021 C 
BRANCH  24  25
ATOM     25  C   UNL A   1      34.095  29.856  26.943  1.00  0.00     0.116 C 
BRANCH  25  26
ATOM     26  N   UNL A   1      34.071  31.230  27.448  1.00  0.00    -0.352 N 
ATOM     27  C   UNL A   1      34.844  31.784  28.459  1.00  0.00     0.251 C 
ATOM     28  H   UNL A   1      33.426  31.836  27.018  1.00  0.00     0.163 HD
ATOM     29  O   UNL A   1      34.494  32.803  29.027  1.00  0.00    -0.269 OA
BRANCH  27  30
ATOM     30  C   UNL A   1      36.101  31.105  28.829  1.00  0.00     0.039 A 
ATOM     31  C   UNL A   1      36.261  29.720  28.713  1.00  0.00     0.014 A 
ATOM     32  C   UNL A   1      37.152  31.902  29.264  1.00  0.00     0.014 A 
ATOM     33  C   UNL A   1      37.518  29.164  28.956  1.00  0.00     0.010 A 
ATOM     34  C   UNL A   1      38.418  31.386  29.315  1.00  0.00     0.010 A 
ATOM     35  C   UNL A   1      38.601  30.010  29.239  1.00  0.00    -0.014 A 
BRANCH  35  36
ATOM     36  C   UNL A   1      39.957  29.495  29.407  1.00  0.00     0.031 A 
ATOM     37  C   UNL A   1      40.411  29.312  30.814  1.00  0.00     0.074 A 
ATOM     38  C   UNL A   1      40.657  28.968  28.378  1.00  0.00     0.049 A 
ATOM     39  N   UNL A   1      41.369  29.926  31.425  1.00  0.00    -0.248 NA
ATOM     40  C   UNL A   1      39.643  28.402  31.679  1.00  0.00     0.031 C 
ATOM     41  C   UNL A   1      40.220  28.756  26.989  1.00  0.00     0.029 A 
ATOM     42  N   UNL A   1      41.875  28.368  28.396  1.00  0.00    -0.354 N 
ATOM     43  C   UNL A   1      41.461  29.347  32.689  1.00  0.00     0.074 A 
ATOM     44  C   UNL A   1      40.275  28.542  32.846  1.00  0.00     0.031 C 
ATOM     45  C   UNL A   1      41.030  27.856  26.392  1.00  0.00     0.029 A 
ATOM     46  C   UNL A   1      42.145  27.587  27.278  1.00  0.00     0.049 A 
ATOM     47  H   UNL A   1      42.512  28.476  29.137  1.00  0.00     0.167 HD
ATOM     48  C   UNL A   1      42.608  29.398  33.426  1.00  0.00     0.031 A 
ATOM     49  C   UNL A   1      43.198  26.753  27.104  1.00  0.00     0.031 A 
ATOM     50  C   UNL A   1      43.553  30.337  32.877  1.00  0.00     0.049 A 
ATOM     51  C   UNL A   1      44.245  27.177  28.065  1.00  0.00     0.074 A 
ATOM     52  C   UNL A   1      43.543  31.696  32.635  1.00  0.00     0.029 A 
ATOM     53  N   UNL A   1      44.571  29.823  32.108  1.00  0.00    -0.354 N 
ATOM     54  N   UNL A   1      44.845  28.333  28.005  1.00  0.00    -0.248 NA
ATOM     55  C   UNL A   1      44.301  26.514  29.358  1.00  0.00     0.031 C 
ATOM     56  C   UNL A   1      44.209  31.847  31.381  1.00  0.00     0.029 A 
ATOM     57  C   UNL A   1      44.649  30.585  30.971  1.00  0.00     0.049 A 
ATOM     58  H   UNL A   1      45.140  29.052  32.334  1.00  0.00     0.167 HD
ATOM     59  C   UNL A   1      44.970  28.740  29.326  1.00  0.00     0.074 A 
ATOM     60  C   UNL A   1      44.715  27.535  30.114  1.00  0.00     0.031 C 
ATOM     61  C   UNL A   1      44.993  30.065  29.662  1.00  0.00     0.031 A 
BRANCH  48  62
ATOM     62  C   UNL A   1      43.034  28.340  34.417  1.00  0.00    -0.014 A 
ATOM     63  C   UNL A   1      43.490  28.740  35.690  1.00  0.00     0.010 A 
ATOM     64  C   UNL A   1      43.258  26.997  34.053  1.00  0.00     0.010 A 
ATOM     65  C   UNL A   1      44.198  27.861  36.522  1.00  0.00     0.020 A 
ATOM     66  C   UNL A   1      43.922  26.099  34.893  1.00  0.00     0.020 A 
ATOM     67  C   UNL A   1      44.423  26.548  36.107  1.00  0.00     0.054 A 
BRANCH  67  68
ATOM     68  S   UNL A   1      45.438  25.453  37.130  1.00  0.00     0.124 S 
ATOM     69  O   UNL A   1      46.204  24.727  36.121  1.00  0.00    -0.237 OA
ATOM     70  O   UNL A   1      46.195  26.400  37.943  1.00  0.00    -0.237 OA
ATOM     71  O   UNL A   1      44.453  24.659  37.861  1.00  0.00    -0.744 OA
ENDBRANCH  67  68
ENDBRANCH  48  62
BRANCH  49  72
ATOM     72  C   UNL A   1      43.221  25.450  26.396  1.00  0.00    -0.014 A 
ATOM     73  C   UNL A   1      43.951  25.285  25.206  1.00  0.00     0.010 A 
ATOM     74  C   UNL A   1      42.754  24.288  27.046  1.00  0.00     0.010 A 
ATOM     75  C   UNL A   1      44.261  24.003  24.719  1.00  0.00     0.020 A 
ATOM     76  C   UNL A   1      43.053  23.007  26.565  1.00  0.00     0.020 A 
ATOM     77  C   UNL A   1      43.829  22.871  25.416  1.00  0.00     0.054 A 
BRANCH  77  78
ATOM     78  S   UNL A   1      44.400  21.226  24.892  1.00  0.00     0.124 S 
ATOM     79  O   UNL A   1      45.678  21.105  25.586  1.00  0.00    -0.237 OA
ATOM     80  O   UNL A   1      43.334  20.352  25.373  1.00  0.00    -0.237 OA
ATOM     81  O   UNL A   1      44.491  21.341  23.437  1.00  0.00    -0.744 OA
ENDBRANCH  77  78
ENDBRANCH  49  72
BRANCH  61  82
ATOM     82  C   UNL A   1      45.150  31.089  28.557  1.00  0.00    -0.014 A 
ATOM     83  C   UNL A   1      44.067  31.699  27.893  1.00  0.00     0.010 A 
ATOM     84  C   UNL A   1      46.446  31.567  28.295  1.00  0.00     0.010 A 
ATOM     85  C   UNL A   1      44.279  32.741  26.975  1.00  0.00     0.020 A 
ATOM     86  C   UNL A   1      46.663  32.615  27.397  1.00  0.00     0.020 A 
ATOM     87  C   UNL A   1      45.580  33.192  26.733  1.00  0.00     0.054 A 
BRANCH  87  88
ATOM     88  S   UNL A   1      45.851  34.568  25.581  1.00  0.00     0.124 S 
ATOM     89  O   UNL A   1      45.010  34.201  24.445  1.00  0.00    -0.237 OA
ATOM     90  O   UNL A   1      45.402  35.728  26.347  1.00  0.00    -0.237 OA
ATOM     91  O   UNL A   1      47.290  34.527  25.322  1.00  0.00    -0.744 OA
ENDBRANCH  87  88
ENDBRANCH  61  82
ENDBRANCH  35  36
ENDBRANCH  27  30
ENDBRANCH  25  26
ENDBRANCH  24  25
ENDBRANCH   1  24
TORSDOF 18
ENDMDL
