MODEL 1
REMARK VINA RESULT:     -12.1      0.000      0.000
REMARK SMILES C[C@@H](C(=O)NCCCCCCNC(=O)c1ccc(-c2c3nc(c(-c4ccc(S(=O)(=O)[O-])cc4)c4ccc([nH]4)c(-c4ccc(S(=O)(=O)[O-])cc4)c4nc(c(-c5ccc(S(=O)(=O)[O-])cc5)c5ccc2[nH]5)C=C4)C=C3)cc1)n1ccc(C(=O)N2CC[NH+](Cc3cccc(F)c3)CC2)n1
REMARK SMILES IDX 8 1 7 2 6 3 5 4 3 5 4 6 2 8 1 9 75 10 76 11 95 12 77 13
REMARK SMILES IDX 78 14 79 15 80 16 81 17 82 18 94 19 83 20 93 21 84 22 85 24
REMARK SMILES IDX 86 25 87 26 92 27 88 28 90 29 89 30 91 31 9 32 10 33 11 34
REMARK SMILES IDX 12 35 13 36 14 38 15 39 16 40 74 41 17 42 73 43 18 44 19 45
REMARK SMILES IDX 20 46 67 47 21 48 72 49 66 50 68 51 22 52 71 53 65 54 64 55
REMARK SMILES IDX 23 57 53 58 34 59 52 60 35 61 38 62 51 63 69 64 36 65 37 66
REMARK SMILES IDX 50 68 70 69 39 70 24 71 25 72 33 73 26 74 32 75 27 76 28 77
REMARK SMILES IDX 29 78 30 79 31 80 54 81 55 82 63 83 56 84 62 85 57 86 58 87
REMARK SMILES IDX 59 88 60 89 61 90 40 91 41 92 49 93 42 94 48 95 43 96 44 97
REMARK SMILES IDX 45 98 46 99 47 100
REMARK H PARENT 5 7 84 23 12 37 68 56 38 67
REMARK Flexibility Score: inf
ROOT
ATOM      1  C   UNL A   1      40.373  21.189  26.400  1.00  0.00     0.002 C 
ENDROOT
BRANCH   1   2
ATOM      2  C   UNL A   1      39.491  22.428  26.605  1.00  0.00     0.021 C 
BRANCH   2   3
ATOM      3  C   UNL A   1      38.223  22.455  25.750  1.00  0.00     0.116 C 
BRANCH   3   4
ATOM      4  N   UNL A   1      37.741  21.111  25.489  1.00  0.00    -0.354 N 
ATOM      5  C   UNL A   1      36.552  20.690  24.961  1.00  0.00     0.244 C 
ATOM      6  O   UNL A   1      36.334  19.476  24.975  1.00  0.00    -0.273 OA
ATOM      7  H   UNL A   1      38.368  20.390  25.728  1.00  0.00     0.163 HD
BRANCH   5   8
ATOM      8  C   UNL A   1      35.567  21.710  24.398  1.00  0.00     0.193 C 
ATOM      9  C   UNL A   1      36.270  22.850  23.664  1.00  0.00     0.044 C 
BRANCH   8  10
ATOM     10  N   UNL A   1      34.687  22.215  25.455  1.00  0.00    -0.260 N 
ATOM     11  C   UNL A   1      34.805  22.027  26.803  1.00  0.00     0.110 A 
ATOM     12  N   UNL A   1      33.684  23.053  25.123  1.00  0.00    -0.167 NA
ATOM     13  C   UNL A   1      33.835  22.806  27.382  1.00  0.00     0.056 A 
ATOM     14  C   UNL A   1      33.137  23.411  26.302  1.00  0.00     0.150 A 
BRANCH  14  15
ATOM     15  C   UNL A   1      32.035  24.378  26.415  1.00  0.00     0.274 C 
ATOM     16  O   UNL A   1      31.079  24.140  27.164  1.00  0.00    -0.267 OA
ATOM     17  N   UNL A   1      32.082  25.550  25.647  1.00  0.00    -0.326 N 
ATOM     18  C   UNL A   1      31.018  26.520  25.874  1.00  0.00     0.181 C 
ATOM     19  C   UNL A   1      32.752  25.602  24.343  1.00  0.00     0.181 C 
ATOM     20  C   UNL A   1      31.304  27.917  25.303  1.00  0.00     0.284 C 
ATOM     21  C   UNL A   1      32.974  27.025  23.799  1.00  0.00     0.284 C 
ATOM     22  N   UNL A   1      31.854  27.959  23.945  1.00  0.00    -0.328 N 
ATOM     23  H   UNL A   1      32.252  28.892  23.832  1.00  0.00     0.348 HD
BRANCH  22  24
ATOM     24  C   UNL A   1      30.890  28.011  22.847  1.00  0.00     0.299 C 
BRANCH  24  25
ATOM     25  C   UNL A   1      29.636  28.831  23.039  1.00  0.00     0.009 A 
ATOM     26  C   UNL A   1      29.699  30.231  23.127  1.00  0.00     0.010 A 
ATOM     27  C   UNL A   1      28.383  28.210  23.147  1.00  0.00     0.048 A 
ATOM     28  C   UNL A   1      28.536  30.995  23.265  1.00  0.00     0.004 A 
ATOM     29  C   UNL A   1      27.230  28.979  23.279  1.00  0.00     0.123 A 
ATOM     30  C   UNL A   1      27.295  30.366  23.330  1.00  0.00     0.039 A 
ATOM     31  F   UNL A   1      26.039  28.372  23.348  1.00  0.00    -0.207 F 
ENDBRANCH  24  25
ENDBRANCH  22  24
ENDBRANCH  14  15
ENDBRANCH   8  10
ENDBRANCH   5   8
ENDBRANCH   3   4
ENDBRANCH   2   3
ENDBRANCH   1   2
BRANCH   1  32
ATOM     32  C   UNL A   1      41.883  21.443  26.447  1.00  0.00     0.002 C 
BRANCH  32  33
ATOM     33  C   UNL A   1      42.418  21.999  27.770  1.00  0.00     0.021 C 
BRANCH  33  34
ATOM     34  C   UNL A   1      42.971  23.421  27.705  1.00  0.00     0.116 C 
BRANCH  34  35
ATOM     35  N   UNL A   1      42.753  24.046  26.411  1.00  0.00    -0.352 N 
ATOM     36  C   UNL A   1      42.231  25.283  26.130  1.00  0.00     0.251 C 
ATOM     37  H   UNL A   1      43.016  23.509  25.630  1.00  0.00     0.163 HD
ATOM     38  O   UNL A   1      41.981  25.591  24.962  1.00  0.00    -0.269 OA
BRANCH  36  39
ATOM     39  C   UNL A   1      41.940  26.237  27.221  1.00  0.00     0.039 A 
ATOM     40  C   UNL A   1      40.873  25.969  28.084  1.00  0.00     0.014 A 
ATOM     41  C   UNL A   1      42.699  27.400  27.384  1.00  0.00     0.014 A 
ATOM     42  C   UNL A   1      40.601  26.838  29.145  1.00  0.00     0.010 A 
ATOM     43  C   UNL A   1      42.451  28.246  28.465  1.00  0.00     0.010 A 
ATOM     44  C   UNL A   1      41.401  27.971  29.355  1.00  0.00    -0.014 A 
BRANCH  44  45
ATOM     45  C   UNL A   1      41.160  28.874  30.508  1.00  0.00     0.031 A 
ATOM     46  C   UNL A   1      41.999  28.760  31.750  1.00  0.00     0.074 A 
ATOM     47  C   UNL A   1      40.141  29.753  30.464  1.00  0.00     0.049 A 
ATOM     48  N   UNL A   1      41.888  29.409  32.881  1.00  0.00    -0.248 NA
ATOM     49  C   UNL A   1      43.091  27.774  31.723  1.00  0.00     0.031 C 
ATOM     50  C   UNL A   1      39.227  29.935  29.334  1.00  0.00     0.029 A 
ATOM     51  N   UNL A   1      39.695  30.649  31.402  1.00  0.00    -0.354 N 
ATOM     52  C   UNL A   1      42.875  28.893  33.710  1.00  0.00     0.074 A 
ATOM     53  C   UNL A   1      43.564  27.866  32.959  1.00  0.00     0.031 C 
ATOM     54  C   UNL A   1      38.335  30.891  29.643  1.00  0.00     0.029 A 
ATOM     55  C   UNL A   1      38.599  31.373  30.995  1.00  0.00     0.049 A 
ATOM     56  H   UNL A   1      40.120  30.765  32.282  1.00  0.00     0.167 HD
ATOM     57  C   UNL A   1      43.186  29.247  34.981  1.00  0.00     0.031 A 
ATOM     58  C   UNL A   1      37.883  32.312  31.639  1.00  0.00     0.031 A 
ATOM     59  C   UNL A   1      42.521  30.283  35.724  1.00  0.00     0.049 A 
ATOM     60  C   UNL A   1      38.273  32.719  33.031  1.00  0.00     0.074 A 
ATOM     61  C   UNL A   1      42.801  30.745  36.999  1.00  0.00     0.029 A 
ATOM     62  N   UNL A   1      41.446  31.023  35.258  1.00  0.00    -0.354 N 
ATOM     63  N   UNL A   1      39.238  32.249  33.783  1.00  0.00    -0.248 NA
ATOM     64  C   UNL A   1      37.483  33.790  33.655  1.00  0.00     0.031 C 
ATOM     65  C   UNL A   1      41.881  31.752  37.311  1.00  0.00     0.029 A 
ATOM     66  C   UNL A   1      41.046  31.933  36.221  1.00  0.00     0.049 A 
ATOM     67  H   UNL A   1      41.029  30.916  34.373  1.00  0.00     0.167 HD
ATOM     68  C   UNL A   1      39.181  32.977  34.965  1.00  0.00     0.074 A 
ATOM     69  C   UNL A   1      38.094  33.923  34.826  1.00  0.00     0.031 C 
ATOM     70  C   UNL A   1      39.962  32.868  36.068  1.00  0.00     0.031 A 
BRANCH  57  71
ATOM     71  C   UNL A   1      44.297  28.487  35.649  1.00  0.00    -0.014 A 
ATOM     72  C   UNL A   1      44.042  27.278  36.320  1.00  0.00     0.010 A 
ATOM     73  C   UNL A   1      45.612  28.981  35.595  1.00  0.00     0.010 A 
ATOM     74  C   UNL A   1      45.078  26.598  36.964  1.00  0.00     0.020 A 
ATOM     75  C   UNL A   1      46.654  28.295  36.222  1.00  0.00     0.020 A 
ATOM     76  C   UNL A   1      46.376  27.117  36.922  1.00  0.00     0.054 A 
BRANCH  76  77
ATOM     77  S   UNL A   1      47.711  26.224  37.765  1.00  0.00     0.124 S 
ATOM     78  O   UNL A   1      48.024  25.174  36.799  1.00  0.00    -0.237 OA
ATOM     79  O   UNL A   1      48.738  27.250  37.931  1.00  0.00    -0.237 OA
ATOM     80  O   UNL A   1      47.088  25.767  39.005  1.00  0.00    -0.744 OA
ENDBRANCH  76  77
ENDBRANCH  57  71
BRANCH  58  81
ATOM     81  C   UNL A   1      36.728  32.948  30.956  1.00  0.00    -0.014 A 
ATOM     82  C   UNL A   1      35.452  32.909  31.541  1.00  0.00     0.010 A 
ATOM     83  C   UNL A   1      36.910  33.627  29.739  1.00  0.00     0.010 A 
ATOM     84  C   UNL A   1      34.371  33.540  30.918  1.00  0.00     0.020 A 
ATOM     85  C   UNL A   1      35.835  34.271  29.121  1.00  0.00     0.020 A 
ATOM     86  C   UNL A   1      34.571  34.218  29.712  1.00  0.00     0.054 A 
BRANCH  86  87
ATOM     87  S   UNL A   1      33.178  35.103  28.955  1.00  0.00     0.124 S 
ATOM     88  O   UNL A   1      33.823  36.314  28.458  1.00  0.00    -0.237 OA
ATOM     89  O   UNL A   1      32.717  34.165  27.933  1.00  0.00    -0.237 OA
ATOM     90  O   UNL A   1      32.255  35.292  30.073  1.00  0.00    -0.744 OA
ENDBRANCH  86  87
ENDBRANCH  58  81
BRANCH  70  91
ATOM     91  C   UNL A   1      39.679  33.809  37.204  1.00  0.00    -0.014 A 
ATOM     92  C   UNL A   1      38.929  33.391  38.315  1.00  0.00     0.010 A 
ATOM     93  C   UNL A   1      40.211  35.110  37.178  1.00  0.00     0.010 A 
ATOM     94  C   UNL A   1      38.695  34.269  39.377  1.00  0.00     0.020 A 
ATOM     95  C   UNL A   1      39.990  35.985  38.245  1.00  0.00     0.020 A 
ATOM     96  C   UNL A   1      39.222  35.563  39.332  1.00  0.00     0.054 A 
BRANCH  96  97
ATOM     97  S   UNL A   1      38.948  36.677  40.738  1.00  0.00     0.124 S 
ATOM     98  O   UNL A   1      38.358  37.843  40.089  1.00  0.00    -0.237 OA
ATOM     99  O   UNL A   1      38.046  35.909  41.594  1.00  0.00    -0.237 OA
ATOM    100  O   UNL A   1      40.290  36.875  41.282  1.00  0.00    -0.744 OA
ENDBRANCH  96  97
ENDBRANCH  70  91
ENDBRANCH  44  45
ENDBRANCH  36  39
ENDBRANCH  34  35
ENDBRANCH  33  34
ENDBRANCH  32  33
ENDBRANCH   1  32
TORSDOF 20
ENDMDL
MODEL 2
REMARK VINA RESULT:     -11.9      3.606      6.302
REMARK SMILES C[C@@H](C(=O)NCCCCCCNC(=O)c1ccc(-c2c3nc(c(-c4ccc(S(=O)(=O)[O-])cc4)c4ccc([nH]4)c(-c4ccc(S(=O)(=O)[O-])cc4)c4nc(c(-c5ccc(S(=O)(=O)[O-])cc5)c5ccc2[nH]5)C=C4)C=C3)cc1)n1ccc(C(=O)N2CC[NH+](Cc3cccc(F)c3)CC2)n1
REMARK SMILES IDX 8 1 7 2 6 3 5 4 3 5 4 6 2 8 1 9 75 10 76 11 95 12 77 13
REMARK SMILES IDX 78 14 79 15 80 16 81 17 82 18 94 19 83 20 93 21 84 22 85 24
REMARK SMILES IDX 86 25 87 26 92 27 88 28 90 29 89 30 91 31 9 32 10 33 11 34
REMARK SMILES IDX 12 35 13 36 14 38 15 39 16 40 74 41 17 42 73 43 18 44 19 45
REMARK SMILES IDX 20 46 67 47 21 48 72 49 66 50 68 51 22 52 71 53 65 54 64 55
REMARK SMILES IDX 23 57 53 58 34 59 52 60 35 61 38 62 51 63 69 64 36 65 37 66
REMARK SMILES IDX 50 68 70 69 39 70 24 71 25 72 33 73 26 74 32 75 27 76 28 77
REMARK SMILES IDX 29 78 30 79 31 80 54 81 55 82 63 83 56 84 62 85 57 86 58 87
REMARK SMILES IDX 59 88 60 89 61 90 40 91 41 92 49 93 42 94 48 95 43 96 44 97
REMARK SMILES IDX 45 98 46 99 47 100
REMARK H PARENT 5 7 84 23 12 37 68 56 38 67
REMARK Flexibility Score: inf
ROOT
ATOM      1  C   UNL A   1      34.172  26.161  24.355  1.00  0.00     0.002 C 
ENDROOT
BRANCH   1   2
ATOM      2  C   UNL A   1      34.261  27.592  24.901  1.00  0.00     0.021 C 
BRANCH   2   3
ATOM      3  C   UNL A   1      33.578  28.648  24.030  1.00  0.00     0.116 C 
BRANCH   3   4
ATOM      4  N   UNL A   1      32.731  29.515  24.830  1.00  0.00    -0.354 N 
ATOM      5  C   UNL A   1      31.439  29.913  24.626  1.00  0.00     0.244 C 
ATOM      6  O   UNL A   1      30.993  30.773  25.390  1.00  0.00    -0.273 OA
ATOM      7  H   UNL A   1      33.152  29.871  25.645  1.00  0.00     0.163 HD
BRANCH   5   8
ATOM      8  C   UNL A   1      30.625  29.299  23.491  1.00  0.00     0.193 C 
ATOM      9  C   UNL A   1      29.549  30.251  22.970  1.00  0.00     0.044 C 
BRANCH   8  10
ATOM     10  N   UNL A   1      30.054  28.015  23.900  1.00  0.00    -0.260 N 
ATOM     11  C   UNL A   1      28.953  27.386  23.389  1.00  0.00     0.110 A 
ATOM     12  N   UNL A   1      30.707  27.274  24.819  1.00  0.00    -0.167 NA
ATOM     13  C   UNL A   1      28.902  26.156  23.994  1.00  0.00     0.056 A 
ATOM     14  C   UNL A   1      29.997  26.131  24.900  1.00  0.00     0.150 A 
BRANCH  14  15
ATOM     15  C   UNL A   1      30.394  24.998  25.749  1.00  0.00     0.274 C 
ATOM     16  O   UNL A   1      30.309  25.090  26.980  1.00  0.00    -0.267 OA
ATOM     17  N   UNL A   1      30.884  23.835  25.139  1.00  0.00    -0.326 N 
ATOM     18  C   UNL A   1      31.165  22.708  26.019  1.00  0.00     0.181 C 
ATOM     19  C   UNL A   1      31.607  23.868  23.863  1.00  0.00     0.181 C 
ATOM     20  C   UNL A   1      31.338  21.365  25.291  1.00  0.00     0.284 C 
ATOM     21  C   UNL A   1      31.789  22.491  23.199  1.00  0.00     0.284 C 
ATOM     22  N   UNL A   1      32.172  21.388  24.086  1.00  0.00    -0.328 N 
ATOM     23  H   UNL A   1      31.951  20.532  23.577  1.00  0.00     0.348 HD
BRANCH  22  24
ATOM     24  C   UNL A   1      33.603  21.156  24.272  1.00  0.00     0.299 C 
BRANCH  24  25
ATOM     25  C   UNL A   1      34.091  19.727  24.329  1.00  0.00     0.009 A 
ATOM     26  C   UNL A   1      35.374  19.425  24.813  1.00  0.00     0.010 A 
ATOM     27  C   UNL A   1      33.277  18.674  23.887  1.00  0.00     0.048 A 
ATOM     28  C   UNL A   1      35.813  18.101  24.905  1.00  0.00     0.004 A 
ATOM     29  C   UNL A   1      33.721  17.359  23.987  1.00  0.00     0.123 A 
ATOM     30  C   UNL A   1      34.977  17.062  24.499  1.00  0.00     0.039 A 
ATOM     31  F   UNL A   1      32.919  16.363  23.590  1.00  0.00    -0.207 F 
ENDBRANCH  24  25
ENDBRANCH  22  24
ENDBRANCH  14  15
ENDBRANCH   8  10
ENDBRANCH   5   8
ENDBRANCH   3   4
ENDBRANCH   2   3
ENDBRANCH   1   2
BRANCH   1  32
ATOM     32  C   UNL A   1      34.413  25.050  25.382  1.00  0.00     0.002 C 
BRANCH  32  33
ATOM     33  C   UNL A   1      35.664  24.196  25.149  1.00  0.00     0.021 C 
BRANCH  33  34
ATOM     34  C   UNL A   1      36.154  23.410  26.363  1.00  0.00     0.116 C 
BRANCH  34  35
ATOM     35  N   UNL A   1      37.320  22.595  26.065  1.00  0.00    -0.352 N 
ATOM     36  C   UNL A   1      38.648  22.913  26.194  1.00  0.00     0.251 C 
ATOM     37  H   UNL A   1      37.131  21.690  25.725  1.00  0.00     0.163 HD
ATOM     38  O   UNL A   1      39.506  22.145  25.752  1.00  0.00    -0.269 OA
BRANCH  36  39
ATOM     39  C   UNL A   1      39.053  24.182  26.834  1.00  0.00     0.039 A 
ATOM     40  C   UNL A   1      38.673  24.421  28.158  1.00  0.00     0.014 A 
ATOM     41  C   UNL A   1      39.787  25.143  26.131  1.00  0.00     0.014 A 
ATOM     42  C   UNL A   1      39.076  25.598  28.797  1.00  0.00     0.010 A 
ATOM     43  C   UNL A   1      40.221  26.299  26.780  1.00  0.00     0.010 A 
ATOM     44  C   UNL A   1      39.870  26.534  28.118  1.00  0.00    -0.014 A 
BRANCH  44  45
ATOM     45  C   UNL A   1      40.351  27.763  28.798  1.00  0.00     0.031 A 
ATOM     46  C   UNL A   1      41.724  27.804  29.409  1.00  0.00     0.074 A 
ATOM     47  C   UNL A   1      39.527  28.820  28.925  1.00  0.00     0.049 A 
ATOM     48  N   UNL A   1      42.287  28.759  30.104  1.00  0.00    -0.248 NA
ATOM     49  C   UNL A   1      42.564  26.610  29.231  1.00  0.00     0.031 C 
ATOM     50  C   UNL A   1      38.156  28.894  28.414  1.00  0.00     0.029 A 
ATOM     51  N   UNL A   1      39.719  30.032  29.538  1.00  0.00    -0.354 N 
ATOM     52  C   UNL A   1      43.535  28.273  30.471  1.00  0.00     0.074 A 
ATOM     53  C   UNL A   1      43.640  26.932  29.936  1.00  0.00     0.031 C 
ATOM     54  C   UNL A   1      37.636  30.091  28.727  1.00  0.00     0.029 A 
ATOM     55  C   UNL A   1      38.624  30.860  29.478  1.00  0.00     0.049 A 
ATOM     56  H   UNL A   1      40.562  30.286  29.979  1.00  0.00     0.167 HD
ATOM     57  C   UNL A   1      44.510  28.889  31.183  1.00  0.00     0.031 A 
ATOM     58  C   UNL A   1      38.432  32.096  29.975  1.00  0.00     0.031 A 
ATOM     59  C   UNL A   1      44.421  30.228  31.697  1.00  0.00     0.049 A 
ATOM     60  C   UNL A   1      39.542  32.776  30.724  1.00  0.00     0.074 A 
ATOM     61  C   UNL A   1      45.379  30.953  32.386  1.00  0.00     0.029 A 
ATOM     62  N   UNL A   1      43.311  31.049  31.573  1.00  0.00    -0.354 N 
ATOM     63  N   UNL A   1      40.732  32.314  31.023  1.00  0.00    -0.248 NA
ATOM     64  C   UNL A   1      39.286  34.145  31.192  1.00  0.00     0.031 C 
ATOM     65  C   UNL A   1      44.839  32.207  32.697  1.00  0.00     0.029 A 
ATOM     66  C   UNL A   1      43.556  32.270  32.178  1.00  0.00     0.049 A 
ATOM     67  H   UNL A   1      42.473  30.800  31.121  1.00  0.00     0.167 HD
ATOM     68  C   UNL A   1      41.373  33.343  31.703  1.00  0.00     0.074 A 
ATOM     69  C   UNL A   1      40.444  34.452  31.764  1.00  0.00     0.031 C 
ATOM     70  C   UNL A   1      42.622  33.364  32.230  1.00  0.00     0.031 A 
BRANCH  57  71
ATOM     71  C   UNL A   1      45.759  28.099  31.456  1.00  0.00    -0.014 A 
ATOM     72  C   UNL A   1      45.869  27.298  32.607  1.00  0.00     0.010 A 
ATOM     73  C   UNL A   1      46.829  28.148  30.545  1.00  0.00     0.010 A 
ATOM     74  C   UNL A   1      47.048  26.594  32.865  1.00  0.00     0.020 A 
ATOM     75  C   UNL A   1      48.002  27.431  30.790  1.00  0.00     0.020 A 
ATOM     76  C   UNL A   1      48.112  26.675  31.961  1.00  0.00     0.054 A 
BRANCH  76  77
ATOM     77  S   UNL A   1      49.637  25.757  32.310  1.00  0.00     0.124 S 
ATOM     78  O   UNL A   1      50.538  26.826  32.733  1.00  0.00    -0.237 OA
ATOM     79  O   UNL A   1      49.227  24.829  33.363  1.00  0.00    -0.237 OA
ATOM     80  O   UNL A   1      49.963  25.133  31.030  1.00  0.00    -0.744 OA
ENDBRANCH  76  77
ENDBRANCH  57  71
BRANCH  58  81
ATOM     81  C   UNL A   1      37.131  32.778  29.759  1.00  0.00    -0.014 A 
ATOM     82  C   UNL A   1      36.213  32.900  30.815  1.00  0.00     0.010 A 
ATOM     83  C   UNL A   1      36.825  33.341  28.508  1.00  0.00     0.010 A 
ATOM     84  C   UNL A   1      35.004  33.574  30.624  1.00  0.00     0.020 A 
ATOM     85  C   UNL A   1      35.624  34.029  28.318  1.00  0.00     0.020 A 
ATOM     86  C   UNL A   1      34.718  34.136  29.376  1.00  0.00     0.054 A 
BRANCH  86  87
ATOM     87  S   UNL A   1      33.182  35.081  29.164  1.00  0.00     0.124 S 
ATOM     88  O   UNL A   1      33.687  36.402  28.803  1.00  0.00    -0.237 OA
ATOM     89  O   UNL A   1      32.499  34.351  28.099  1.00  0.00    -0.237 OA
ATOM     90  O   UNL A   1      32.547  34.986  30.477  1.00  0.00    -0.744 OA
ENDBRANCH  86  87
ENDBRANCH  58  81
BRANCH  70  91
ATOM     91  C   UNL A   1      43.061  34.633  32.902  1.00  0.00    -0.014 A 
ATOM     92  C   UNL A   1      42.880  34.816  34.284  1.00  0.00     0.010 A 
ATOM     93  C   UNL A   1      43.704  35.632  32.151  1.00  0.00     0.010 A 
ATOM     94  C   UNL A   1      43.317  35.991  34.901  1.00  0.00     0.020 A 
ATOM     95  C   UNL A   1      44.154  36.802  32.768  1.00  0.00     0.020 A 
ATOM     96  C   UNL A   1      43.946  36.979  34.137  1.00  0.00     0.054 A 
BRANCH  96  97
ATOM     97  S   UNL A   1      44.548  38.481  34.961  1.00  0.00     0.124 S 
ATOM     98  O   UNL A   1      43.928  39.533  34.162  1.00  0.00    -0.237 OA
ATOM     99  O   UNL A   1      44.034  38.337  36.321  1.00  0.00    -0.237 OA
ATOM    100  O   UNL A   1      46.001  38.376  34.839  1.00  0.00    -0.744 OA
ENDBRANCH  96  97
ENDBRANCH  70  91
ENDBRANCH  44  45
ENDBRANCH  36  39
ENDBRANCH  34  35
ENDBRANCH  33  34
ENDBRANCH  32  33
ENDBRANCH   1  32
TORSDOF 20
ENDMDL
MODEL 3
REMARK VINA RESULT:     -11.7      5.070      7.835
REMARK SMILES C[C@@H](C(=O)NCCCCCCNC(=O)c1ccc(-c2c3nc(c(-c4ccc(S(=O)(=O)[O-])cc4)c4ccc([nH]4)c(-c4ccc(S(=O)(=O)[O-])cc4)c4nc(c(-c5ccc(S(=O)(=O)[O-])cc5)c5ccc2[nH]5)C=C4)C=C3)cc1)n1ccc(C(=O)N2CC[NH+](Cc3cccc(F)c3)CC2)n1
REMARK SMILES IDX 8 1 7 2 6 3 5 4 3 5 4 6 2 8 1 9 75 10 76 11 95 12 77 13
REMARK SMILES IDX 78 14 79 15 80 16 81 17 82 18 94 19 83 20 93 21 84 22 85 24
REMARK SMILES IDX 86 25 87 26 92 27 88 28 90 29 89 30 91 31 9 32 10 33 11 34
REMARK SMILES IDX 12 35 13 36 14 38 15 39 16 40 74 41 17 42 73 43 18 44 19 45
REMARK SMILES IDX 20 46 67 47 21 48 72 49 66 50 68 51 22 52 71 53 65 54 64 55
REMARK SMILES IDX 23 57 53 58 34 59 52 60 35 61 38 62 51 63 69 64 36 65 37 66
REMARK SMILES IDX 50 68 70 69 39 70 24 71 25 72 33 73 26 74 32 75 27 76 28 77
REMARK SMILES IDX 29 78 30 79 31 80 54 81 55 82 63 83 56 84 62 85 57 86 58 87
REMARK SMILES IDX 59 88 60 89 61 90 40 91 41 92 49 93 42 94 48 95 43 96 44 97
REMARK SMILES IDX 45 98 46 99 47 100
REMARK H PARENT 5 7 84 23 12 37 68 56 38 67
REMARK Flexibility Score: inf
ROOT
ATOM      1  C   UNL A   1      33.987  26.403  24.113  1.00  0.00     0.002 C 
ENDROOT
BRANCH   1   2
ATOM      2  C   UNL A   1      34.355  27.865  24.398  1.00  0.00     0.021 C 
BRANCH   2   3
ATOM      3  C   UNL A   1      33.464  28.893  23.700  1.00  0.00     0.116 C 
BRANCH   3   4
ATOM      4  N   UNL A   1      32.736  29.695  24.667  1.00  0.00    -0.354 N 
ATOM      5  C   UNL A   1      31.427  30.088  24.676  1.00  0.00     0.244 C 
ATOM      6  O   UNL A   1      31.091  30.891  25.550  1.00  0.00    -0.273 OA
ATOM      7  H   UNL A   1      33.268  30.002  25.437  1.00  0.00     0.163 HD
BRANCH   5   8
ATOM      8  C   UNL A   1      30.462  29.540  23.629  1.00  0.00     0.193 C 
ATOM      9  C   UNL A   1      29.270  30.466  23.399  1.00  0.00     0.044 C 
BRANCH   8  10
ATOM     10  N   UNL A   1      30.030  28.186  23.985  1.00  0.00    -0.260 N 
ATOM     11  C   UNL A   1      29.052  27.437  23.393  1.00  0.00     0.110 A 
ATOM     12  N   UNL A   1      30.709  27.514  24.936  1.00  0.00    -0.167 NA
ATOM     13  C   UNL A   1      29.115  26.198  23.979  1.00  0.00     0.056 A 
ATOM     14  C   UNL A   1      30.143  26.290  24.956  1.00  0.00     0.150 A 
BRANCH  14  15
ATOM     15  C   UNL A   1      30.621  25.198  25.817  1.00  0.00     0.274 C 
ATOM     16  O   UNL A   1      30.799  25.397  27.025  1.00  0.00    -0.267 OA
ATOM     17  N   UNL A   1      30.889  23.949  25.239  1.00  0.00    -0.326 N 
ATOM     18  C   UNL A   1      31.262  22.876  26.152  1.00  0.00     0.181 C 
ATOM     19  C   UNL A   1      31.336  23.813  23.848  1.00  0.00     0.181 C 
ATOM     20  C   UNL A   1      31.183  21.469  25.539  1.00  0.00     0.284 C 
ATOM     21  C   UNL A   1      31.277  22.376  23.299  1.00  0.00     0.284 C 
ATOM     22  N   UNL A   1      31.751  21.318  24.197  1.00  0.00    -0.328 N 
ATOM     23  H   UNL A   1      31.368  20.447  23.827  1.00  0.00     0.348 HD
BRANCH  22  24
ATOM     24  C   UNL A   1      33.169  20.972  24.118  1.00  0.00     0.299 C 
BRANCH  24  25
ATOM     25  C   UNL A   1      33.541  19.510  24.029  1.00  0.00     0.009 A 
ATOM     26  C   UNL A   1      32.728  18.602  23.331  1.00  0.00     0.010 A 
ATOM     27  C   UNL A   1      34.700  19.026  24.654  1.00  0.00     0.048 A 
ATOM     28  C   UNL A   1      33.091  17.257  23.214  1.00  0.00     0.004 A 
ATOM     29  C   UNL A   1      35.055  17.687  24.527  1.00  0.00     0.123 A 
ATOM     30  C   UNL A   1      34.266  16.800  23.806  1.00  0.00     0.039 A 
ATOM     31  F   UNL A   1      36.182  17.248  25.103  1.00  0.00    -0.207 F 
ENDBRANCH  24  25
ENDBRANCH  22  24
ENDBRANCH  14  15
ENDBRANCH   8  10
ENDBRANCH   5   8
ENDBRANCH   3   4
ENDBRANCH   2   3
ENDBRANCH   1   2
BRANCH   1  32
ATOM     32  C   UNL A   1      34.198  25.432  25.279  1.00  0.00     0.002 C 
BRANCH  32  33
ATOM     33  C   UNL A   1      35.299  24.387  25.077  1.00  0.00     0.021 C 
BRANCH  33  34
ATOM     34  C   UNL A   1      36.072  23.999  26.336  1.00  0.00     0.116 C 
BRANCH  34  35
ATOM     35  N   UNL A   1      36.975  22.882  26.114  1.00  0.00    -0.352 N 
ATOM     36  C   UNL A   1      38.344  22.857  26.180  1.00  0.00     0.251 C 
ATOM     37  H   UNL A   1      36.545  22.027  25.885  1.00  0.00     0.163 HD
ATOM     38  O   UNL A   1      38.956  21.850  25.815  1.00  0.00    -0.269 OA
BRANCH  36  39
ATOM     39  C   UNL A   1      39.091  24.038  26.660  1.00  0.00     0.039 A 
ATOM     40  C   UNL A   1      39.790  24.817  25.731  1.00  0.00     0.014 A 
ATOM     41  C   UNL A   1      39.123  24.371  28.018  1.00  0.00     0.014 A 
ATOM     42  C   UNL A   1      40.474  25.960  26.156  1.00  0.00     0.010 A 
ATOM     43  C   UNL A   1      39.774  25.532  28.435  1.00  0.00     0.010 A 
ATOM     44  C   UNL A   1      40.453  26.337  27.507  1.00  0.00    -0.014 A 
BRANCH  44  45
ATOM     45  C   UNL A   1      41.128  27.576  27.966  1.00  0.00     0.031 A 
ATOM     46  C   UNL A   1      42.624  27.697  27.891  1.00  0.00     0.074 A 
ATOM     47  C   UNL A   1      40.401  28.567  28.514  1.00  0.00     0.049 A 
ATOM     48  N   UNL A   1      43.394  28.669  28.310  1.00  0.00    -0.248 NA
ATOM     49  C   UNL A   1      43.350  26.571  27.282  1.00  0.00     0.031 C 
ATOM     50  C   UNL A   1      38.946  28.558  28.684  1.00  0.00     0.029 A 
ATOM     51  N   UNL A   1      40.790  29.771  29.044  1.00  0.00    -0.354 N 
ATOM     52  C   UNL A   1      44.695  28.263  28.043  1.00  0.00     0.074 A 
ATOM     53  C   UNL A   1      44.612  26.949  27.441  1.00  0.00     0.031 C 
ATOM     54  C   UNL A   1      38.565  29.705  29.268  1.00  0.00     0.029 A 
ATOM     55  C   UNL A   1      39.747  30.521  29.534  1.00  0.00     0.049 A 
ATOM     56  H   UNL A   1      41.727  30.072  29.069  1.00  0.00     0.167 HD
ATOM     57  C   UNL A   1      45.854  28.925  28.272  1.00  0.00     0.031 A 
ATOM     58  C   UNL A   1      39.741  31.724  30.136  1.00  0.00     0.031 A 
ATOM     59  C   UNL A   1      45.942  30.239  28.848  1.00  0.00     0.049 A 
ATOM     60  C   UNL A   1      41.035  32.459  30.339  1.00  0.00     0.074 A 
ATOM     61  C   UNL A   1      47.071  31.010  29.071  1.00  0.00     0.029 A 
ATOM     62  N   UNL A   1      44.858  30.982  29.288  1.00  0.00    -0.354 N 
ATOM     63  N   UNL A   1      42.252  32.076  30.040  1.00  0.00    -0.248 NA
ATOM     64  C   UNL A   1      40.951  33.792  30.953  1.00  0.00     0.031 C 
ATOM     65  C   UNL A   1      46.670  32.212  29.665  1.00  0.00     0.029 A 
ATOM     66  C   UNL A   1      45.290  32.199  29.788  1.00  0.00     0.049 A 
ATOM     67  H   UNL A   1      43.920  30.687  29.251  1.00  0.00     0.167 HD
ATOM     68  C   UNL A   1      43.080  33.126  30.416  1.00  0.00     0.074 A 
ATOM     69  C   UNL A   1      42.225  34.164  30.955  1.00  0.00     0.031 C 
ATOM     70  C   UNL A   1      44.429  33.221  30.321  1.00  0.00     0.031 A 
BRANCH  57  71
ATOM     71  C   UNL A   1      47.128  28.218  27.903  1.00  0.00    -0.014 A 
ATOM     72  C   UNL A   1      47.676  28.344  26.614  1.00  0.00     0.010 A 
ATOM     73  C   UNL A   1      47.791  27.429  28.860  1.00  0.00     0.010 A 
ATOM     74  C   UNL A   1      48.843  27.656  26.275  1.00  0.00     0.020 A 
ATOM     75  C   UNL A   1      48.968  26.754  28.530  1.00  0.00     0.020 A 
ATOM     76  C   UNL A   1      49.476  26.855  27.231  1.00  0.00     0.054 A 
BRANCH  76  77
ATOM     77  S   UNL A   1      50.989  25.966  26.774  1.00  0.00     0.124 S 
ATOM     78  O   UNL A   1      52.021  26.800  27.387  1.00  0.00    -0.237 OA
ATOM     79  O   UNL A   1      50.797  24.654  27.388  1.00  0.00    -0.237 OA
ATOM     80  O   UNL A   1      50.965  25.975  25.313  1.00  0.00    -0.744 OA
ENDBRANCH  76  77
ENDBRANCH  57  71
BRANCH  58  81
ATOM     81  C   UNL A   1      38.452  32.318  30.573  1.00  0.00    -0.014 A 
ATOM     82  C   UNL A   1      37.719  33.138  29.698  1.00  0.00     0.010 A 
ATOM     83  C   UNL A   1      37.936  32.032  31.848  1.00  0.00     0.010 A 
ATOM     84  C   UNL A   1      36.487  33.666  30.095  1.00  0.00     0.020 A 
ATOM     85  C   UNL A   1      36.697  32.546  32.241  1.00  0.00     0.020 A 
ATOM     86  C   UNL A   1      35.984  33.365  31.363  1.00  0.00     0.054 A 
BRANCH  86  87
ATOM     87  S   UNL A   1      34.345  33.990  31.835  1.00  0.00     0.124 S 
ATOM     88  O   UNL A   1      34.685  35.200  32.576  1.00  0.00    -0.237 OA
ATOM     89  O   UNL A   1      33.695  34.198  30.543  1.00  0.00    -0.237 OA
ATOM     90  O   UNL A   1      33.789  32.897  32.632  1.00  0.00    -0.744 OA
ENDBRANCH  86  87
ENDBRANCH  58  81
BRANCH  70  91
ATOM     91  C   UNL A   1      45.061  34.498  30.794  1.00  0.00    -0.014 A 
ATOM     92  C   UNL A   1      45.513  34.630  32.118  1.00  0.00     0.010 A 
ATOM     93  C   UNL A   1      45.248  35.559  29.891  1.00  0.00     0.010 A 
ATOM     94  C   UNL A   1      46.123  35.814  32.539  1.00  0.00     0.020 A 
ATOM     95  C   UNL A   1      45.870  36.739  30.305  1.00  0.00     0.020 A 
ATOM     96  C   UNL A   1      46.293  36.864  31.631  1.00  0.00     0.054 A 
BRANCH  96  97
ATOM     97  S   UNL A   1      47.128  38.379  32.179  1.00  0.00     0.124 S 
ATOM     98  O   UNL A   1      48.287  38.422  31.294  1.00  0.00    -0.237 OA
ATOM     99  O   UNL A   1      46.120  39.411  31.947  1.00  0.00    -0.237 OA
ATOM    100  O   UNL A   1      47.424  38.115  33.586  1.00  0.00    -0.744 OA
ENDBRANCH  96  97
ENDBRANCH  70  91
ENDBRANCH  44  45
ENDBRANCH  36  39
ENDBRANCH  34  35
ENDBRANCH  33  34
ENDBRANCH  32  33
ENDBRANCH   1  32
TORSDOF 20
ENDMDL
