MODEL 1
REMARK VINA RESULT:     -10.6      0.000      0.000
REMARK SMILES C[C@@H](NC(=O)[C@@H]1CC[C@@H]2CCCC[C@@H]2[NH2+]1)C(=O)NCCCCCCNC(=O)c1ccc(-c2c3nc(c(-c4ccc(S(=O)(=O)[O-])cc4)c4ccc([nH]4)c(-c4ccc(S(=O)(=O)[O-])cc4)c4nc(c(-c5ccc(S(=O)(=O)[O-])cc5)c5ccc2[nH]5)C=C4)C=C3)cc1
REMARK SMILES IDX 22 1 21 2 20 3 19 4 18 5 16 6 17 7 2 9 1 10 3 11 4 12 5 14
REMARK SMILES IDX 6 15 7 16 15 17 8 18 14 19 9 22 13 23 10 24 12 25 11 26
REMARK SMILES IDX 23 27 24 28 25 29 26 30 27 32 28 33 29 34 87 35 30 36 86 37
REMARK SMILES IDX 31 38 32 39 33 40 80 41 34 42 85 43 79 44 81 45 35 46 84 47
REMARK SMILES IDX 78 48 77 49 36 51 66 52 47 53 65 54 48 55 51 56 64 57 82 58
REMARK SMILES IDX 49 59 50 60 63 62 83 63 52 64 37 65 38 66 46 67 39 68 45 69
REMARK SMILES IDX 40 70 41 71 42 72 43 73 44 74 67 75 68 76 76 77 69 78 75 79
REMARK SMILES IDX 70 80 71 81 72 82 73 83 74 84 53 85 54 86 62 87 55 88 61 89
REMARK SMILES IDX 56 90 57 91 58 92 59 93 60 94
REMARK H PARENT 18 8 3 13 15 20 15 21 25 31 81 50 51 61
REMARK Flexibility Score: inf
ROOT
ATOM      1  C   UNL A   1      31.566  28.817  25.838  1.00  0.00     0.002 C 
ENDROOT
BRANCH   1   2
ATOM      2  C   UNL A   1      31.608  28.705  24.311  1.00  0.00     0.002 C 
BRANCH   2   3
ATOM      3  C   UNL A   1      32.976  28.970  23.672  1.00  0.00     0.021 C 
BRANCH   3   4
ATOM      4  C   UNL A   1      33.609  27.740  23.040  1.00  0.00     0.116 C 
BRANCH   4   5
ATOM      5  N   UNL A   1      32.862  27.332  21.870  1.00  0.00    -0.354 N 
ATOM      6  C   UNL A   1      32.068  26.246  21.701  1.00  0.00     0.242 C 
ATOM      7  O   UNL A   1      31.578  26.051  20.585  1.00  0.00    -0.273 OA
ATOM      8  H   UNL A   1      32.942  27.924  21.088  1.00  0.00     0.163 HD
BRANCH   6   9
ATOM      9  C   UNL A   1      31.845  25.230  22.825  1.00  0.00     0.168 C 
ATOM     10  C   UNL A   1      30.421  25.389  23.363  1.00  0.00     0.041 C 
BRANCH   9  11
ATOM     11  N   UNL A   1      32.125  23.829  22.513  1.00  0.00    -0.339 N 
ATOM     12  C   UNL A   1      33.052  22.980  23.054  1.00  0.00     0.278 C 
ATOM     13  H   UNL A   1      31.563  23.439  21.805  1.00  0.00     0.164 HD
ATOM     14  O   UNL A   1      32.758  21.781  23.018  1.00  0.00    -0.268 OA
BRANCH  12  15
ATOM     15  C   UNL A   1      34.447  23.469  23.521  1.00  0.00     0.272 C 
ATOM     16  C   UNL A   1      35.328  22.304  24.009  1.00  0.00     0.076 C 
ATOM     17  N   UNL A   1      34.439  24.548  24.514  1.00  0.00    -0.333 N 
ATOM     18  C   UNL A   1      34.951  21.826  25.411  1.00  0.00     0.016 C 
ATOM     19  C   UNL A   1      34.103  24.189  25.883  1.00  0.00     0.186 C 
ATOM     20  H   UNL A   1      33.761  25.245  24.204  1.00  0.00     0.347 HD
ATOM     21  H   UNL A   1      35.404  24.873  24.557  1.00  0.00     0.347 HD
ATOM     22  C   UNL A   1      34.928  23.001  26.394  1.00  0.00     0.048 C 
ATOM     23  C   UNL A   1      32.591  24.116  26.161  1.00  0.00     0.065 C 
ATOM     24  C   UNL A   1      34.431  22.613  27.785  1.00  0.00     0.010 C 
ATOM     25  C   UNL A   1      32.073  22.822  26.775  1.00  0.00     0.006 C 
ATOM     26  C   UNL A   1      32.980  22.150  27.801  1.00  0.00     0.001 C 
ENDBRANCH  12  15
ENDBRANCH   9  11
ENDBRANCH   6   9
ENDBRANCH   4   5
ENDBRANCH   3   4
ENDBRANCH   2   3
ENDBRANCH   1   2
BRANCH   1  27
ATOM     27  C   UNL A   1      32.437  27.813  26.595  1.00  0.00     0.021 C 
BRANCH  27  28
ATOM     28  C   UNL A   1      33.658  28.409  27.288  1.00  0.00     0.116 C 
BRANCH  28  29
ATOM     29  N   UNL A   1      33.507  29.820  27.595  1.00  0.00    -0.352 N 
ATOM     30  C   UNL A   1      34.438  30.676  28.131  1.00  0.00     0.251 C 
ATOM     31  H   UNL A   1      32.626  30.211  27.395  1.00  0.00     0.163 HD
ATOM     32  O   UNL A   1      34.133  31.821  28.426  1.00  0.00    -0.269 OA
BRANCH  30  33
ATOM     33  C   UNL A   1      35.807  30.174  28.379  1.00  0.00     0.039 A 
ATOM     34  C   UNL A   1      36.742  30.245  27.347  1.00  0.00     0.014 A 
ATOM     35  C   UNL A   1      36.170  29.679  29.636  1.00  0.00     0.014 A 
ATOM     36  C   UNL A   1      38.064  29.869  27.591  1.00  0.00     0.010 A 
ATOM     37  C   UNL A   1      37.501  29.370  29.895  1.00  0.00     0.010 A 
ATOM     38  C   UNL A   1      38.460  29.459  28.874  1.00  0.00    -0.014 A 
BRANCH  38  39
ATOM     39  C   UNL A   1      39.875  29.114  29.165  1.00  0.00     0.031 A 
ATOM     40  C   UNL A   1      40.781  30.130  29.802  1.00  0.00     0.074 A 
ATOM     41  C   UNL A   1      40.353  27.905  28.810  1.00  0.00     0.049 A 
ATOM     42  N   UNL A   1      42.053  30.033  30.093  1.00  0.00    -0.248 NA
ATOM     43  C   UNL A   1      40.187  31.434  30.139  1.00  0.00     0.031 C 
ATOM     44  C   UNL A   1      39.580  26.846  28.156  1.00  0.00     0.029 A 
ATOM     45  N   UNL A   1      41.605  27.362  28.950  1.00  0.00    -0.354 N 
ATOM     46  C   UNL A   1      42.412  31.260  30.633  1.00  0.00     0.074 A 
ATOM     47  C   UNL A   1      41.239  32.105  30.582  1.00  0.00     0.031 C 
ATOM     48  C   UNL A   1      40.367  25.771  27.982  1.00  0.00     0.029 A 
ATOM     49  C   UNL A   1      41.706  26.077  28.474  1.00  0.00     0.049 A 
ATOM     50  H   UNL A   1      42.360  27.847  29.355  1.00  0.00     0.167 HD
ATOM     51  C   UNL A   1      43.605  31.645  31.147  1.00  0.00     0.031 A 
ATOM     52  C   UNL A   1      42.760  25.238  28.435  1.00  0.00     0.031 A 
ATOM     53  C   UNL A   1      44.768  30.799  31.203  1.00  0.00     0.049 A 
ATOM     54  C   UNL A   1      44.080  25.693  28.995  1.00  0.00     0.074 A 
ATOM     55  C   UNL A   1      46.011  31.081  31.740  1.00  0.00     0.029 A 
ATOM     56  N   UNL A   1      44.830  29.506  30.707  1.00  0.00    -0.354 N 
ATOM     57  N   UNL A   1      44.387  26.843  29.546  1.00  0.00    -0.248 NA
ATOM     58  C   UNL A   1      45.191  24.734  28.938  1.00  0.00     0.031 C 
ATOM     59  C   UNL A   1      46.840  29.974  31.527  1.00  0.00     0.029 A 
ATOM     60  C   UNL A   1      46.095  28.982  30.909  1.00  0.00     0.049 A 
ATOM     61  H   UNL A   1      44.084  29.030  30.276  1.00  0.00     0.167 HD
ATOM     62  C   UNL A   1      45.720  26.736  29.925  1.00  0.00     0.074 A 
ATOM     63  C   UNL A   1      46.156  25.405  29.553  1.00  0.00     0.031 C 
ATOM     64  C   UNL A   1      46.512  27.655  30.530  1.00  0.00     0.031 A 
BRANCH  51  65
ATOM     65  C   UNL A   1      43.708  33.046  31.689  1.00  0.00    -0.014 A 
ATOM     66  C   UNL A   1      44.152  34.106  30.878  1.00  0.00     0.010 A 
ATOM     67  C   UNL A   1      43.325  33.315  33.016  1.00  0.00     0.010 A 
ATOM     68  C   UNL A   1      44.255  35.399  31.396  1.00  0.00     0.020 A 
ATOM     69  C   UNL A   1      43.398  34.614  33.529  1.00  0.00     0.020 A 
ATOM     70  C   UNL A   1      43.880  35.644  32.720  1.00  0.00     0.054 A 
BRANCH  70  71
ATOM     71  S   UNL A   1      44.006  37.337  33.359  1.00  0.00     0.124 S 
ATOM     72  O   UNL A   1      43.887  38.128  32.137  1.00  0.00    -0.237 OA
ATOM     73  O   UNL A   1      42.871  37.420  34.275  1.00  0.00    -0.237 OA
ATOM     74  O   UNL A   1      45.320  37.370  33.996  1.00  0.00    -0.744 OA
ENDBRANCH  70  71
ENDBRANCH  51  65
BRANCH  52  75
ATOM     75  C   UNL A   1      42.600  23.871  27.867  1.00  0.00    -0.014 A 
ATOM     76  C   UNL A   1      42.215  22.799  28.690  1.00  0.00     0.010 A 
ATOM     77  C   UNL A   1      42.815  23.638  26.496  1.00  0.00     0.010 A 
ATOM     78  C   UNL A   1      42.060  21.516  28.158  1.00  0.00     0.020 A 
ATOM     79  C   UNL A   1      42.636  22.362  25.955  1.00  0.00     0.020 A 
ATOM     80  C   UNL A   1      42.269  21.306  26.792  1.00  0.00     0.054 A 
BRANCH  80  81
ATOM     81  S   UNL A   1      42.008  19.644  26.112  1.00  0.00     0.124 S 
ATOM     82  O   UNL A   1      42.884  19.653  24.944  1.00  0.00    -0.237 OA
ATOM     83  O   UNL A   1      42.431  18.784  27.214  1.00  0.00    -0.237 OA
ATOM     84  O   UNL A   1      40.576  19.615  25.823  1.00  0.00    -0.744 OA
ENDBRANCH  80  81
ENDBRANCH  52  75
BRANCH  64  85
ATOM     85  C   UNL A   1      47.922  27.246  30.859  1.00  0.00    -0.014 A 
ATOM     86  C   UNL A   1      48.977  27.478  29.959  1.00  0.00     0.010 A 
ATOM     87  C   UNL A   1      48.204  26.676  32.115  1.00  0.00     0.010 A 
ATOM     88  C   UNL A   1      50.285  27.119  30.296  1.00  0.00     0.020 A 
ATOM     89  C   UNL A   1      49.513  26.340  32.466  1.00  0.00     0.020 A 
ATOM     90  C   UNL A   1      50.544  26.551  31.549  1.00  0.00     0.054 A 
BRANCH  90  91
ATOM     91  S   UNL A   1      52.256  26.140  31.983  1.00  0.00     0.124 S 
ATOM     92  O   UNL A   1      52.856  25.913  30.671  1.00  0.00    -0.237 OA
ATOM     93  O   UNL A   1      52.708  27.341  32.681  1.00  0.00    -0.237 OA
ATOM     94  O   UNL A   1      52.125  24.951  32.823  1.00  0.00    -0.744 OA
ENDBRANCH  90  91
ENDBRANCH  64  85
ENDBRANCH  38  39
ENDBRANCH  30  33
ENDBRANCH  28  29
ENDBRANCH  27  28
ENDBRANCH   1  27
TORSDOF 18
ENDMDL
MODEL 2
REMARK VINA RESULT:     -10.2      2.942      3.700
REMARK SMILES C[C@@H](NC(=O)[C@@H]1CC[C@@H]2CCCC[C@@H]2[NH2+]1)C(=O)NCCCCCCNC(=O)c1ccc(-c2c3nc(c(-c4ccc(S(=O)(=O)[O-])cc4)c4ccc([nH]4)c(-c4ccc(S(=O)(=O)[O-])cc4)c4nc(c(-c5ccc(S(=O)(=O)[O-])cc5)c5ccc2[nH]5)C=C4)C=C3)cc1
REMARK SMILES IDX 22 1 21 2 20 3 19 4 18 5 16 6 17 7 2 9 1 10 3 11 4 12 5 14
REMARK SMILES IDX 6 15 7 16 15 17 8 18 14 19 9 22 13 23 10 24 12 25 11 26
REMARK SMILES IDX 23 27 24 28 25 29 26 30 27 32 28 33 29 34 87 35 30 36 86 37
REMARK SMILES IDX 31 38 32 39 33 40 80 41 34 42 85 43 79 44 81 45 35 46 84 47
REMARK SMILES IDX 78 48 77 49 36 51 66 52 47 53 65 54 48 55 51 56 64 57 82 58
REMARK SMILES IDX 49 59 50 60 63 62 83 63 52 64 37 65 38 66 46 67 39 68 45 69
REMARK SMILES IDX 40 70 41 71 42 72 43 73 44 74 67 75 68 76 76 77 69 78 75 79
REMARK SMILES IDX 70 80 71 81 72 82 73 83 74 84 53 85 54 86 62 87 55 88 61 89
REMARK SMILES IDX 56 90 57 91 58 92 59 93 60 94
REMARK H PARENT 18 8 3 13 15 20 15 21 25 31 81 50 51 61
REMARK Flexibility Score: inf
ROOT
ATOM      1  C   UNL A   1      33.175  29.733  26.972  1.00  0.00     0.002 C 
ENDROOT
BRANCH   1   2
ATOM      2  C   UNL A   1      32.411  29.856  25.649  1.00  0.00     0.002 C 
BRANCH   2   3
ATOM      3  C   UNL A   1      31.349  28.777  25.403  1.00  0.00     0.021 C 
BRANCH   3   4
ATOM      4  C   UNL A   1      31.085  28.500  23.931  1.00  0.00     0.116 C 
BRANCH   4   5
ATOM      5  N   UNL A   1      32.288  28.701  23.155  1.00  0.00    -0.354 N 
ATOM      6  C   UNL A   1      33.038  27.787  22.492  1.00  0.00     0.242 C 
ATOM      7  O   UNL A   1      34.077  28.170  21.946  1.00  0.00    -0.273 OA
ATOM      8  H   UNL A   1      32.609  29.630  23.101  1.00  0.00     0.163 HD
BRANCH   6   9
ATOM      9  C   UNL A   1      32.670  26.300  22.481  1.00  0.00     0.168 C 
ATOM     10  C   UNL A   1      31.651  26.048  21.368  1.00  0.00     0.041 C 
BRANCH   9  11
ATOM     11  N   UNL A   1      33.777  25.348  22.393  1.00  0.00    -0.339 N 
ATOM     12  C   UNL A   1      34.340  24.567  23.366  1.00  0.00     0.278 C 
ATOM     13  H   UNL A   1      34.179  25.256  21.499  1.00  0.00     0.164 HD
ATOM     14  O   UNL A   1      34.861  23.519  22.970  1.00  0.00    -0.268 OA
BRANCH  12  15
ATOM     15  C   UNL A   1      34.469  25.044  24.836  1.00  0.00     0.272 C 
ATOM     16  C   UNL A   1      35.674  24.396  25.543  1.00  0.00     0.076 C 
ATOM     17  N   UNL A   1      33.263  24.899  25.657  1.00  0.00    -0.333 N 
ATOM     18  C   UNL A   1      35.406  22.952  25.964  1.00  0.00     0.016 C 
ATOM     19  C   UNL A   1      32.929  23.560  26.117  1.00  0.00     0.186 C 
ATOM     20  H   UNL A   1      32.474  25.239  25.105  1.00  0.00     0.347 HD
ATOM     21  H   UNL A   1      33.457  25.428  26.506  1.00  0.00     0.347 HD
ATOM     22  C   UNL A   1      34.117  22.861  26.789  1.00  0.00     0.048 C 
ATOM     23  C   UNL A   1      32.158  22.714  25.088  1.00  0.00     0.065 C 
ATOM     24  C   UNL A   1      33.721  21.427  27.131  1.00  0.00     0.010 C 
ATOM     25  C   UNL A   1      32.742  21.349  24.752  1.00  0.00     0.006 C 
ATOM     26  C   UNL A   1      33.382  20.585  25.907  1.00  0.00     0.001 C 
ENDBRANCH  12  15
ENDBRANCH   9  11
ENDBRANCH   6   9
ENDBRANCH   4   5
ENDBRANCH   3   4
ENDBRANCH   2   3
ENDBRANCH   1   2
BRANCH   1  27
ATOM     27  C   UNL A   1      34.551  29.072  26.876  1.00  0.00     0.021 C 
BRANCH  27  28
ATOM     28  C   UNL A   1      35.673  29.807  27.600  1.00  0.00     0.116 C 
BRANCH  28  29
ATOM     29  N   UNL A   1      35.470  29.888  29.035  1.00  0.00    -0.352 N 
ATOM     30  C   UNL A   1      36.401  29.739  30.034  1.00  0.00     0.251 C 
ATOM     31  H   UNL A   1      34.548  30.071  29.329  1.00  0.00     0.163 HD
ATOM     32  O   UNL A   1      36.061  29.736  31.207  1.00  0.00    -0.269 OA
BRANCH  30  33
ATOM     33  C   UNL A   1      37.819  29.543  29.661  1.00  0.00     0.039 A 
ATOM     34  C   UNL A   1      38.725  29.164  30.652  1.00  0.00     0.014 A 
ATOM     35  C   UNL A   1      38.236  29.690  28.335  1.00  0.00     0.014 A 
ATOM     36  C   UNL A   1      40.045  28.878  30.303  1.00  0.00     0.010 A 
ATOM     37  C   UNL A   1      39.534  29.339  27.978  1.00  0.00     0.010 A 
ATOM     38  C   UNL A   1      40.452  28.932  28.960  1.00  0.00    -0.014 A 
BRANCH  38  39
ATOM     39  C   UNL A   1      41.837  28.572  28.564  1.00  0.00     0.031 A 
ATOM     40  C   UNL A   1      42.909  29.625  28.534  1.00  0.00     0.074 A 
ATOM     41  C   UNL A   1      42.114  27.308  28.185  1.00  0.00     0.049 A 
ATOM     42  N   UNL A   1      44.162  29.515  28.175  1.00  0.00    -0.248 NA
ATOM     43  C   UNL A   1      42.518  30.985  28.942  1.00  0.00     0.031 C 
ATOM     44  C   UNL A   1      41.151  26.205  28.140  1.00  0.00     0.029 A 
ATOM     45  N   UNL A   1      43.290  26.739  27.765  1.00  0.00    -0.354 N 
ATOM     46  C   UNL A   1      44.704  30.787  28.302  1.00  0.00     0.074 A 
ATOM     47  C   UNL A   1      43.633  31.665  28.719  1.00  0.00     0.031 C 
ATOM     48  C   UNL A   1      41.783  25.086  27.748  1.00  0.00     0.029 A 
ATOM     49  C   UNL A   1      43.182  25.399  27.476  1.00  0.00     0.049 A 
ATOM     50  H   UNL A   1      44.132  27.242  27.680  1.00  0.00     0.167 HD
ATOM     51  C   UNL A   1      45.984  31.187  28.110  1.00  0.00     0.031 A 
ATOM     52  C   UNL A   1      44.105  24.521  27.038  1.00  0.00     0.031 A 
ATOM     53  C   UNL A   1      47.049  30.310  27.702  1.00  0.00     0.049 A 
ATOM     54  C   UNL A   1      45.516  24.992  26.814  1.00  0.00     0.074 A 
ATOM     55  C   UNL A   1      48.387  30.609  27.519  1.00  0.00     0.029 A 
ATOM     56  N   UNL A   1      46.898  28.962  27.416  1.00  0.00    -0.354 N 
ATOM     57  N   UNL A   1      46.021  26.191  26.986  1.00  0.00    -0.248 NA
ATOM     58  C   UNL A   1      46.484  23.990  26.348  1.00  0.00     0.031 C 
ATOM     59  C   UNL A   1      49.037  29.452  27.077  1.00  0.00     0.029 A 
ATOM     60  C   UNL A   1      48.114  28.419  27.040  1.00  0.00     0.049 A 
ATOM     61  H   UNL A   1      46.051  28.464  27.473  1.00  0.00     0.167 HD
ATOM     62  C   UNL A   1      47.371  26.081  26.674  1.00  0.00     0.074 A 
ATOM     63  C   UNL A   1      47.606  24.696  26.317  1.00  0.00     0.031 C 
ATOM     64  C   UNL A   1      48.331  27.038  26.686  1.00  0.00     0.031 A 
BRANCH  51  65
ATOM     65  C   UNL A   1      46.298  32.642  28.341  1.00  0.00    -0.014 A 
ATOM     66  C   UNL A   1      46.721  33.101  29.602  1.00  0.00     0.010 A 
ATOM     67  C   UNL A   1      46.201  33.558  27.277  1.00  0.00     0.010 A 
ATOM     68  C   UNL A   1      46.998  34.454  29.807  1.00  0.00     0.020 A 
ATOM     69  C   UNL A   1      46.506  34.909  27.471  1.00  0.00     0.020 A 
ATOM     70  C   UNL A   1      46.885  35.351  28.740  1.00  0.00     0.054 A 
BRANCH  70  71
ATOM     71  S   UNL A   1      47.269  37.099  29.031  1.00  0.00     0.124 S 
ATOM     72  O   UNL A   1      46.031  37.752  28.612  1.00  0.00    -0.237 OA
ATOM     73  O   UNL A   1      47.543  37.134  30.465  1.00  0.00    -0.237 OA
ATOM     74  O   UNL A   1      48.425  37.348  28.173  1.00  0.00    -0.744 OA
ENDBRANCH  70  71
ENDBRANCH  51  65
BRANCH  52  75
ATOM     75  C   UNL A   1      43.727  23.099  26.808  1.00  0.00    -0.014 A 
ATOM     76  C   UNL A   1      43.049  22.374  27.803  1.00  0.00     0.010 A 
ATOM     77  C   UNL A   1      44.027  22.470  25.587  1.00  0.00     0.010 A 
ATOM     78  C   UNL A   1      42.690  21.040  27.587  1.00  0.00     0.020 A 
ATOM     79  C   UNL A   1      43.646  21.145  25.357  1.00  0.00     0.020 A 
ATOM     80  C   UNL A   1      42.989  20.435  26.363  1.00  0.00     0.054 A 
BRANCH  80  81
ATOM     81  S   UNL A   1      42.463  18.720  26.085  1.00  0.00     0.124 S 
ATOM     82  O   UNL A   1      42.675  18.121  27.400  1.00  0.00    -0.237 OA
ATOM     83  O   UNL A   1      41.070  18.880  25.679  1.00  0.00    -0.237 OA
ATOM     84  O   UNL A   1      43.362  18.255  25.031  1.00  0.00    -0.744 OA
ENDBRANCH  80  81
ENDBRANCH  52  75
BRANCH  64  85
ATOM     85  C   UNL A   1      49.732  26.619  26.333  1.00  0.00    -0.014 A 
ATOM     86  C   UNL A   1      50.585  26.046  27.293  1.00  0.00     0.010 A 
ATOM     87  C   UNL A   1      50.180  26.748  25.005  1.00  0.00     0.010 A 
ATOM     88  C   UNL A   1      51.872  25.635  26.937  1.00  0.00     0.020 A 
ATOM     89  C   UNL A   1      51.456  26.314  24.640  1.00  0.00     0.020 A 
ATOM     90  C   UNL A   1      52.299  25.772  25.612  1.00  0.00     0.054 A 
BRANCH  90  91
ATOM     91  S   UNL A   1      53.957  25.185  25.165  1.00  0.00     0.124 S 
ATOM     92  O   UNL A   1      54.260  26.000  23.991  1.00  0.00    -0.237 OA
ATOM     93  O   UNL A   1      54.739  25.490  26.361  1.00  0.00    -0.237 OA
ATOM     94  O   UNL A   1      53.761  23.761  24.901  1.00  0.00    -0.744 OA
ENDBRANCH  90  91
ENDBRANCH  64  85
ENDBRANCH  38  39
ENDBRANCH  30  33
ENDBRANCH  28  29
ENDBRANCH  27  28
ENDBRANCH   1  27
TORSDOF 18
ENDMDL
MODEL 3
REMARK VINA RESULT:     -10.1      4.741      7.515
REMARK SMILES C[C@@H](NC(=O)[C@@H]1CC[C@@H]2CCCC[C@@H]2[NH2+]1)C(=O)NCCCCCCNC(=O)c1ccc(-c2c3nc(c(-c4ccc(S(=O)(=O)[O-])cc4)c4ccc([nH]4)c(-c4ccc(S(=O)(=O)[O-])cc4)c4nc(c(-c5ccc(S(=O)(=O)[O-])cc5)c5ccc2[nH]5)C=C4)C=C3)cc1
REMARK SMILES IDX 22 1 21 2 20 3 19 4 18 5 16 6 17 7 2 9 1 10 3 11 4 12 5 14
REMARK SMILES IDX 6 15 7 16 15 17 8 18 14 19 9 22 13 23 10 24 12 25 11 26
REMARK SMILES IDX 23 27 24 28 25 29 26 30 27 32 28 33 29 34 87 35 30 36 86 37
REMARK SMILES IDX 31 38 32 39 33 40 80 41 34 42 85 43 79 44 81 45 35 46 84 47
REMARK SMILES IDX 78 48 77 49 36 51 66 52 47 53 65 54 48 55 51 56 64 57 82 58
REMARK SMILES IDX 49 59 50 60 63 62 83 63 52 64 37 65 38 66 46 67 39 68 45 69
REMARK SMILES IDX 40 70 41 71 42 72 43 73 44 74 67 75 68 76 76 77 69 78 75 79
REMARK SMILES IDX 70 80 71 81 72 82 73 83 74 84 53 85 54 86 62 87 55 88 61 89
REMARK SMILES IDX 56 90 57 91 58 92 59 93 60 94
REMARK H PARENT 18 8 3 13 15 20 15 21 25 31 81 50 51 61
REMARK Flexibility Score: inf
ROOT
ATOM      1  C   UNL A   1      34.108  32.113  28.044  1.00  0.00     0.002 C 
ENDROOT
BRANCH   1   2
ATOM      2  C   UNL A   1      35.168  33.218  27.996  1.00  0.00     0.002 C 
BRANCH   2   3
ATOM      3  C   UNL A   1      35.519  33.849  29.349  1.00  0.00     0.021 C 
BRANCH   3   4
ATOM      4  C   UNL A   1      34.382  34.645  29.970  1.00  0.00     0.116 C 
BRANCH   4   5
ATOM      5  N   UNL A   1      33.846  33.948  31.118  1.00  0.00    -0.354 N 
ATOM      6  C   UNL A   1      34.082  34.167  32.435  1.00  0.00     0.242 C 
ATOM      7  O   UNL A   1      33.569  33.400  33.255  1.00  0.00    -0.273 OA
ATOM      8  H   UNL A   1      33.225  33.211  30.917  1.00  0.00     0.163 HD
BRANCH   6   9
ATOM      9  C   UNL A   1      35.027  35.276  32.910  1.00  0.00     0.168 C 
ATOM     10  C   UNL A   1      34.207  36.532  33.210  1.00  0.00     0.041 C 
BRANCH   9  11
ATOM     11  N   UNL A   1      35.909  34.954  34.031  1.00  0.00    -0.339 N 
ATOM     12  C   UNL A   1      36.914  34.029  34.117  1.00  0.00     0.278 C 
ATOM     13  H   UNL A   1      35.757  35.483  34.847  1.00  0.00     0.164 HD
ATOM     14  O   UNL A   1      37.814  34.296  34.920  1.00  0.00    -0.268 OA
BRANCH  12  15
ATOM     15  C   UNL A   1      36.842  32.661  33.390  1.00  0.00     0.272 C 
ATOM     16  C   UNL A   1      37.622  31.570  34.146  1.00  0.00     0.076 C 
ATOM     17  N   UNL A   1      37.233  32.676  31.976  1.00  0.00    -0.333 N 
ATOM     18  C   UNL A   1      39.133  31.675  33.943  1.00  0.00     0.016 C 
ATOM     19  C   UNL A   1      38.655  32.762  31.681  1.00  0.00     0.186 C 
ATOM     20  H   UNL A   1      36.780  33.480  31.541  1.00  0.00     0.347 HD
ATOM     21  H   UNL A   1      36.944  31.768  31.614  1.00  0.00     0.347 HD
ATOM     22  C   UNL A   1      39.475  31.719  32.450  1.00  0.00     0.048 C 
ATOM     23  C   UNL A   1      39.217  34.194  31.703  1.00  0.00     0.065 C 
ATOM     24  C   UNL A   1      40.959  31.955  32.179  1.00  0.00     0.010 C 
ATOM     25  C   UNL A   1      40.427  34.439  32.594  1.00  0.00     0.006 C 
ATOM     26  C   UNL A   1      41.453  33.312  32.664  1.00  0.00     0.001 C 
ENDBRANCH  12  15
ENDBRANCH   9  11
ENDBRANCH   6   9
ENDBRANCH   4   5
ENDBRANCH   3   4
ENDBRANCH   2   3
ENDBRANCH   1   2
BRANCH   1  27
ATOM     27  C   UNL A   1      34.483  30.812  27.333  1.00  0.00     0.021 C 
BRANCH  27  28
ATOM     28  C   UNL A   1      35.511  29.952  28.058  1.00  0.00     0.116 C 
BRANCH  28  29
ATOM     29  N   UNL A   1      35.450  30.086  29.502  1.00  0.00    -0.352 N 
ATOM     30  C   UNL A   1      36.419  29.775  30.425  1.00  0.00     0.251 C 
ATOM     31  H   UNL A   1      34.608  30.446  29.865  1.00  0.00     0.163 HD
ATOM     32  O   UNL A   1      36.186  29.851  31.622  1.00  0.00    -0.269 OA
BRANCH  30  33
ATOM     33  C   UNL A   1      37.737  29.307  29.943  1.00  0.00     0.039 A 
ATOM     34  C   UNL A   1      38.136  29.652  28.652  1.00  0.00     0.014 A 
ATOM     35  C   UNL A   1      38.585  28.575  30.779  1.00  0.00     0.014 A 
ATOM     36  C   UNL A   1      39.416  29.306  28.214  1.00  0.00     0.010 A 
ATOM     37  C   UNL A   1      39.883  28.292  30.365  1.00  0.00     0.010 A 
ATOM     38  C   UNL A   1      40.309  28.652  29.077  1.00  0.00    -0.014 A 
BRANCH  38  39
ATOM     39  C   UNL A   1      41.693  28.332  28.647  1.00  0.00     0.031 A 
ATOM     40  C   UNL A   1      42.740  29.411  28.615  1.00  0.00     0.074 A 
ATOM     41  C   UNL A   1      41.993  27.082  28.239  1.00  0.00     0.049 A 
ATOM     42  N   UNL A   1      43.987  29.338  28.229  1.00  0.00    -0.248 NA
ATOM     43  C   UNL A   1      42.326  30.753  29.056  1.00  0.00     0.031 C 
ATOM     44  C   UNL A   1      41.056  25.958  28.193  1.00  0.00     0.029 A 
ATOM     45  N   UNL A   1      43.173  26.549  27.785  1.00  0.00    -0.354 N 
ATOM     46  C   UNL A   1      44.502  30.620  28.368  1.00  0.00     0.074 A 
ATOM     47  C   UNL A   1      43.419  31.464  28.823  1.00  0.00     0.031 C 
ATOM     48  C   UNL A   1      41.705  24.861  27.768  1.00  0.00     0.029 A 
ATOM     49  C   UNL A   1      43.091  25.213  27.474  1.00  0.00     0.049 A 
ATOM     50  H   UNL A   1      44.000  27.074  27.692  1.00  0.00     0.167 HD
ATOM     51  C   UNL A   1      45.768  31.054  28.158  1.00  0.00     0.031 A 
ATOM     52  C   UNL A   1      44.025  24.365  27.001  1.00  0.00     0.031 A 
ATOM     53  C   UNL A   1      46.845  30.210  27.712  1.00  0.00     0.049 A 
ATOM     54  C   UNL A   1      45.420  24.873  26.757  1.00  0.00     0.074 A 
ATOM     55  C   UNL A   1      48.171  30.545  27.507  1.00  0.00     0.029 A 
ATOM     56  N   UNL A   1      46.720  28.864  27.404  1.00  0.00    -0.354 N 
ATOM     57  N   UNL A   1      45.899  26.081  26.941  1.00  0.00    -0.248 NA
ATOM     58  C   UNL A   1      46.401  23.903  26.254  1.00  0.00     0.031 C 
ATOM     59  C   UNL A   1      48.839  29.412  27.031  1.00  0.00     0.029 A 
ATOM     60  C   UNL A   1      47.940  28.357  26.994  1.00  0.00     0.049 A 
ATOM     61  H   UNL A   1      45.885  28.345  27.469  1.00  0.00     0.167 HD
ATOM     62  C   UNL A   1      47.245  26.009  26.600  1.00  0.00     0.074 A 
ATOM     63  C   UNL A   1      47.505  24.637  26.213  1.00  0.00     0.031 C 
ATOM     64  C   UNL A   1      48.182  26.989  26.610  1.00  0.00     0.031 A 
BRANCH  51  65
ATOM     65  C   UNL A   1      46.052  32.511  28.409  1.00  0.00    -0.014 A 
ATOM     66  C   UNL A   1      46.477  32.959  29.673  1.00  0.00     0.010 A 
ATOM     67  C   UNL A   1      45.925  33.442  27.361  1.00  0.00     0.010 A 
ATOM     68  C   UNL A   1      46.726  34.315  29.898  1.00  0.00     0.020 A 
ATOM     69  C   UNL A   1      46.202  34.796  27.574  1.00  0.00     0.020 A 
ATOM     70  C   UNL A   1      46.583  35.226  28.846  1.00  0.00     0.054 A 
BRANCH  70  71
ATOM     71  S   UNL A   1      46.932  36.977  29.162  1.00  0.00     0.124 S 
ATOM     72  O   UNL A   1      46.950  37.021  30.622  1.00  0.00    -0.237 OA
ATOM     73  O   UNL A   1      48.224  37.171  28.511  1.00  0.00    -0.237 OA
ATOM     74  O   UNL A   1      45.810  37.672  28.534  1.00  0.00    -0.744 OA
ENDBRANCH  70  71
ENDBRANCH  51  65
BRANCH  52  75
ATOM     75  C   UNL A   1      43.676  22.939  26.753  1.00  0.00    -0.014 A 
ATOM     76  C   UNL A   1      44.091  22.300  25.572  1.00  0.00     0.010 A 
ATOM     77  C   UNL A   1      42.943  22.207  27.704  1.00  0.00     0.010 A 
ATOM     78  C   UNL A   1      43.768  20.961  25.338  1.00  0.00     0.020 A 
ATOM     79  C   UNL A   1      42.641  20.860  27.487  1.00  0.00     0.020 A 
ATOM     80  C   UNL A   1      43.047  20.248  26.300  1.00  0.00     0.054 A 
BRANCH  80  81
ATOM     81  S   UNL A   1      42.687  18.495  26.001  1.00  0.00     0.124 S 
ATOM     82  O   UNL A   1      43.056  17.887  27.276  1.00  0.00    -0.237 OA
ATOM     83  O   UNL A   1      41.258  18.514  25.697  1.00  0.00    -0.237 OA
ATOM     84  O   UNL A   1      43.551  18.157  24.872  1.00  0.00    -0.744 OA
ENDBRANCH  80  81
ENDBRANCH  52  75
BRANCH  64  85
ATOM     85  C   UNL A   1      49.585  26.610  26.222  1.00  0.00    -0.014 A 
ATOM     86  C   UNL A   1      50.436  25.945  27.122  1.00  0.00     0.010 A 
ATOM     87  C   UNL A   1      50.037  26.872  24.914  1.00  0.00     0.010 A 
ATOM     88  C   UNL A   1      51.725  25.574  26.730  1.00  0.00     0.020 A 
ATOM     89  C   UNL A   1      51.315  26.479  24.512  1.00  0.00     0.020 A 
ATOM     90  C   UNL A   1      52.156  25.844  25.427  1.00  0.00     0.054 A 
BRANCH  90  91
ATOM     91  S   UNL A   1      53.816  25.308  24.928  1.00  0.00     0.124 S 
ATOM     92  O   UNL A   1      53.947  25.918  23.607  1.00  0.00    -0.237 OA
ATOM     93  O   UNL A   1      54.665  25.880  25.971  1.00  0.00    -0.237 OA
ATOM     94  O   UNL A   1      53.727  23.849  24.935  1.00  0.00    -0.744 OA
ENDBRANCH  90  91
ENDBRANCH  64  85
ENDBRANCH  38  39
ENDBRANCH  30  33
ENDBRANCH  28  29
ENDBRANCH  27  28
ENDBRANCH   1  27
TORSDOF 18
ENDMDL
