MODEL 1
REMARK VINA RESULT:     -11.5      0.000      0.000
REMARK SMILES C[C@@H](C(=O)NCCCCCCNC(=O)c1ccc(-c2c3nc(c(-c4ccc(S(=O)(=O)[O-])cc4)c4ccc([nH]4)c(-c4ccc(S(=O)(=O)[O-])cc4)c4nc(c(-c5ccc(S(=O)(=O)[O-])cc5)c5ccc2[nH]5)C=C4)C=C3)cc1)N1C(=O)CC2(CCCC2)C1=O
REMARK SMILES IDX 9 1 8 2 7 3 6 4 5 5 3 6 4 7 2 9 1 10 75 11 76 12 84 13 77 14
REMARK SMILES IDX 78 15 79 16 85 17 80 18 83 19 81 20 82 21 10 22 11 23 12 24
REMARK SMILES IDX 13 25 14 27 15 28 16 29 74 30 17 31 73 32 18 33 19 34 20 35
REMARK SMILES IDX 67 36 21 37 72 38 66 39 68 40 22 41 71 42 65 43 64 44 23 46
REMARK SMILES IDX 53 47 34 48 52 49 35 50 38 51 51 52 69 53 36 54 37 55 50 57
REMARK SMILES IDX 70 58 39 59 24 60 25 61 33 62 26 63 32 64 27 65 28 66 29 67
REMARK SMILES IDX 30 68 31 69 54 70 55 71 63 72 56 73 62 74 57 75 58 76 59 77
REMARK SMILES IDX 60 78 61 79 40 80 41 81 49 82 42 83 48 84 43 85 44 86 45 87
REMARK SMILES IDX 46 88 47 89
REMARK H PARENT 5 8 12 26 68 45 38 56
REMARK Flexibility Score: inf
ROOT
ATOM      1  C   UNL A   1      33.112  29.961  27.227  1.00  0.00     0.002 C 
ENDROOT
BRANCH   1   2
ATOM      2  C   UNL A   1      32.425  29.816  25.866  1.00  0.00     0.002 C 
BRANCH   2   3
ATOM      3  C   UNL A   1      31.614  28.525  25.698  1.00  0.00     0.021 C 
BRANCH   3   4
ATOM      4  C   UNL A   1      31.225  28.237  24.245  1.00  0.00     0.116 C 
BRANCH   4   5
ATOM      5  N   UNL A   1      30.803  26.855  24.117  1.00  0.00    -0.354 N 
ATOM      6  C   UNL A   1      31.374  25.845  23.390  1.00  0.00     0.243 C 
ATOM      7  O   UNL A   1      30.706  24.826  23.195  1.00  0.00    -0.273 OA
ATOM      8  H   UNL A   1      29.996  26.608  24.624  1.00  0.00     0.163 HD
BRANCH   6   9
ATOM      9  C   UNL A   1      32.815  26.016  22.857  1.00  0.00     0.179 C 
ATOM     10  C   UNL A   1      32.833  25.869  21.335  1.00  0.00     0.042 C 
BRANCH   9  11
ATOM     11  N   UNL A   1      33.671  25.054  23.567  1.00  0.00    -0.270 N 
ATOM     12  C   UNL A   1      34.248  25.362  24.772  1.00  0.00     0.231 C 
ATOM     13  C   UNL A   1      34.038  23.816  23.131  1.00  0.00     0.236 C 
ATOM     14  O   UNL A   1      34.251  26.447  25.324  1.00  0.00    -0.274 OA
ATOM     15  C   UNL A   1      34.861  24.113  25.348  1.00  0.00     0.117 C 
ATOM     16  C   UNL A   1      34.978  23.197  24.136  1.00  0.00     0.059 C 
ATOM     17  O   UNL A   1      33.754  23.283  22.066  1.00  0.00    -0.274 OA
ATOM     18  C   UNL A   1      36.405  23.130  23.583  1.00  0.00     0.017 C 
ATOM     19  C   UNL A   1      34.622  21.735  24.388  1.00  0.00     0.017 C 
ATOM     20  C   UNL A   1      37.053  21.944  24.289  1.00  0.00     0.001 C 
ATOM     21  C   UNL A   1      35.920  21.065  24.809  1.00  0.00     0.001 C 
ENDBRANCH   9  11
ENDBRANCH   6   9
ENDBRANCH   4   5
ENDBRANCH   3   4
ENDBRANCH   2   3
ENDBRANCH   1   2
BRANCH   1  22
ATOM     22  C   UNL A   1      34.562  29.471  27.269  1.00  0.00     0.021 C 
BRANCH  22  23
ATOM     23  C   UNL A   1      35.543  30.454  27.904  1.00  0.00     0.116 C 
BRANCH  23  24
ATOM     24  N   UNL A   1      35.526  30.367  29.355  1.00  0.00    -0.352 N 
ATOM     25  C   UNL A   1      36.483  29.897  30.216  1.00  0.00     0.251 C 
ATOM     26  H   UNL A   1      34.704  30.697  29.784  1.00  0.00     0.163 HD
ATOM     27  O   UNL A   1      36.190  29.687  31.390  1.00  0.00    -0.269 OA
BRANCH  25  28
ATOM     28  C   UNL A   1      37.858  29.629  29.736  1.00  0.00     0.039 A 
ATOM     29  C   UNL A   1      38.854  29.365  30.678  1.00  0.00     0.014 A 
ATOM     30  C   UNL A   1      38.177  29.672  28.375  1.00  0.00     0.014 A 
ATOM     31  C   UNL A   1      40.156  29.099  30.252  1.00  0.00     0.010 A 
ATOM     32  C   UNL A   1      39.460  29.333  27.948  1.00  0.00     0.010 A 
ATOM     33  C   UNL A   1      40.465  29.050  28.881  1.00  0.00    -0.014 A 
BRANCH  33  34
ATOM     34  C   UNL A   1      41.834  28.686  28.433  1.00  0.00     0.031 A 
ATOM     35  C   UNL A   1      42.920  29.726  28.348  1.00  0.00     0.074 A 
ATOM     36  C   UNL A   1      42.095  27.408  28.087  1.00  0.00     0.049 A 
ATOM     37  N   UNL A   1      44.176  29.576  28.008  1.00  0.00    -0.248 NA
ATOM     38  C   UNL A   1      42.549  31.113  28.673  1.00  0.00     0.031 C 
ATOM     39  C   UNL A   1      41.114  26.320  28.072  1.00  0.00     0.029 A 
ATOM     40  N   UNL A   1      43.261  26.807  27.687  1.00  0.00    -0.354 N 
ATOM     41  C   UNL A   1      44.743  30.843  28.082  1.00  0.00     0.074 A 
ATOM     42  C   UNL A   1      43.682  31.760  28.438  1.00  0.00     0.031 C 
ATOM     43  C   UNL A   1      41.726  25.179  27.720  1.00  0.00     0.029 A 
ATOM     44  C   UNL A   1      43.131  25.459  27.444  1.00  0.00     0.049 A 
ATOM     45  H   UNL A   1      44.110  27.293  27.583  1.00  0.00     0.167 HD
ATOM     46  C   UNL A   1      46.036  31.207  27.901  1.00  0.00     0.031 A 
ATOM     47  C   UNL A   1      44.039  24.548  27.044  1.00  0.00     0.031 A 
ATOM     48  C   UNL A   1      47.090  30.294  27.541  1.00  0.00     0.049 A 
ATOM     49  C   UNL A   1      45.465  24.981  26.834  1.00  0.00     0.074 A 
ATOM     50  C   UNL A   1      48.436  30.561  27.363  1.00  0.00     0.029 A 
ATOM     51  N   UNL A   1      46.919  28.937  27.306  1.00  0.00    -0.354 N 
ATOM     52  N   UNL A   1      45.992  26.175  26.975  1.00  0.00    -0.248 NA
ATOM     53  C   UNL A   1      46.420  23.942  26.432  1.00  0.00     0.031 C 
ATOM     54  C   UNL A   1      49.069  29.377  26.967  1.00  0.00     0.029 A 
ATOM     55  C   UNL A   1      48.130  28.359  26.965  1.00  0.00     0.049 A 
ATOM     56  H   UNL A   1      46.062  28.457  27.371  1.00  0.00     0.167 HD
ATOM     57  C   UNL A   1      47.346  26.023  26.698  1.00  0.00     0.074 A 
ATOM     58  C   UNL A   1      47.560  24.618  26.414  1.00  0.00     0.031 C 
ATOM     59  C   UNL A   1      48.326  26.961  26.673  1.00  0.00     0.031 A 
BRANCH  46  60
ATOM     60  C   UNL A   1      46.388  32.659  28.103  1.00  0.00    -0.014 A 
ATOM     61  C   UNL A   1      46.801  33.131  29.362  1.00  0.00     0.010 A 
ATOM     62  C   UNL A   1      46.372  33.549  27.013  1.00  0.00     0.010 A 
ATOM     63  C   UNL A   1      47.163  34.470  29.536  1.00  0.00     0.020 A 
ATOM     64  C   UNL A   1      46.760  34.883  27.175  1.00  0.00     0.020 A 
ATOM     65  C   UNL A   1      47.142  35.337  28.439  1.00  0.00     0.054 A 
BRANCH  65  66
ATOM     66  S   UNL A   1      47.661  37.058  28.687  1.00  0.00     0.124 S 
ATOM     67  O   UNL A   1      46.600  37.571  29.550  1.00  0.00    -0.237 OA
ATOM     68  O   UNL A   1      48.968  36.908  29.321  1.00  0.00    -0.237 OA
ATOM     69  O   UNL A   1      47.686  37.611  27.336  1.00  0.00    -0.744 OA
ENDBRANCH  65  66
ENDBRANCH  46  60
BRANCH  47  70
ATOM     70  C   UNL A   1      43.626  23.136  26.807  1.00  0.00    -0.014 A 
ATOM     71  C   UNL A   1      42.994  22.388  27.815  1.00  0.00     0.010 A 
ATOM     72  C   UNL A   1      43.878  22.530  25.563  1.00  0.00     0.010 A 
ATOM     73  C   UNL A   1      42.652  21.049  27.595  1.00  0.00     0.020 A 
ATOM     74  C   UNL A   1      43.507  21.204  25.327  1.00  0.00     0.020 A 
ATOM     75  C   UNL A   1      42.913  20.466  26.352  1.00  0.00     0.054 A 
BRANCH  75  76
ATOM     76  S   UNL A   1      42.440  18.736  26.077  1.00  0.00     0.124 S 
ATOM     77  O   UNL A   1      41.038  18.862  25.692  1.00  0.00    -0.237 OA
ATOM     78  O   UNL A   1      43.355  18.323  25.016  1.00  0.00    -0.237 OA
ATOM     79  O   UNL A   1      42.680  18.108  27.375  1.00  0.00    -0.744 OA
ENDBRANCH  75  76
ENDBRANCH  47  70
BRANCH  59  80
ATOM     80  C   UNL A   1      49.721  26.490  26.352  1.00  0.00    -0.014 A 
ATOM     81  C   UNL A   1      50.570  25.989  27.355  1.00  0.00     0.010 A 
ATOM     82  C   UNL A   1      50.180  26.531  25.024  1.00  0.00     0.010 A 
ATOM     83  C   UNL A   1      51.873  25.591  27.043  1.00  0.00     0.020 A 
ATOM     84  C   UNL A   1      51.470  26.101  24.703  1.00  0.00     0.020 A 
ATOM     85  C   UNL A   1      52.316  25.654  25.719  1.00  0.00     0.054 A 
BRANCH  85  86
ATOM     86  S   UNL A   1      54.007  25.121  25.339  1.00  0.00     0.124 S 
ATOM     87  O   UNL A   1      54.375  26.028  24.254  1.00  0.00    -0.237 OA
ATOM     88  O   UNL A   1      54.704  25.342  26.604  1.00  0.00    -0.237 OA
ATOM     89  O   UNL A   1      53.852  23.721  24.955  1.00  0.00    -0.744 OA
ENDBRANCH  85  86
ENDBRANCH  59  80
ENDBRANCH  33  34
ENDBRANCH  25  28
ENDBRANCH  23  24
ENDBRANCH  22  23
ENDBRANCH   1  22
TORSDOF 17
ENDMDL
MODEL 2
REMARK VINA RESULT:     -11.4      6.520     12.246
REMARK SMILES C[C@@H](C(=O)NCCCCCCNC(=O)c1ccc(-c2c3nc(c(-c4ccc(S(=O)(=O)[O-])cc4)c4ccc([nH]4)c(-c4ccc(S(=O)(=O)[O-])cc4)c4nc(c(-c5ccc(S(=O)(=O)[O-])cc5)c5ccc2[nH]5)C=C4)C=C3)cc1)N1C(=O)CC2(CCCC2)C1=O
REMARK SMILES IDX 9 1 8 2 7 3 6 4 5 5 3 6 4 7 2 9 1 10 75 11 76 12 84 13 77 14
REMARK SMILES IDX 78 15 79 16 85 17 80 18 83 19 81 20 82 21 10 22 11 23 12 24
REMARK SMILES IDX 13 25 14 27 15 28 16 29 74 30 17 31 73 32 18 33 19 34 20 35
REMARK SMILES IDX 67 36 21 37 72 38 66 39 68 40 22 41 71 42 65 43 64 44 23 46
REMARK SMILES IDX 53 47 34 48 52 49 35 50 38 51 51 52 69 53 36 54 37 55 50 57
REMARK SMILES IDX 70 58 39 59 24 60 25 61 33 62 26 63 32 64 27 65 28 66 29 67
REMARK SMILES IDX 30 68 31 69 54 70 55 71 63 72 56 73 62 74 57 75 58 76 59 77
REMARK SMILES IDX 60 78 61 79 40 80 41 81 49 82 42 83 48 84 43 85 44 86 45 87
REMARK SMILES IDX 46 88 47 89
REMARK H PARENT 5 8 12 26 68 45 38 56
REMARK Flexibility Score: inf
ROOT
ATOM      1  C   UNL A   1      37.648  22.006  25.391  1.00  0.00     0.002 C 
ENDROOT
BRANCH   1   2
ATOM      2  C   UNL A   1      36.303  21.283  25.292  1.00  0.00     0.002 C 
BRANCH   2   3
ATOM      3  C   UNL A   1      35.180  22.112  24.658  1.00  0.00     0.021 C 
BRANCH   3   4
ATOM      4  C   UNL A   1      33.796  21.469  24.795  1.00  0.00     0.116 C 
BRANCH   4   5
ATOM      5  N   UNL A   1      32.818  22.255  24.068  1.00  0.00    -0.354 N 
ATOM      6  C   UNL A   1      31.870  23.113  24.555  1.00  0.00     0.243 C 
ATOM      7  O   UNL A   1      30.962  23.462  23.796  1.00  0.00    -0.273 OA
ATOM      8  H   UNL A   1      32.838  22.158  23.088  1.00  0.00     0.163 HD
BRANCH   6   9
ATOM      9  C   UNL A   1      31.978  23.612  26.015  1.00  0.00     0.179 C 
ATOM     10  C   UNL A   1      30.730  23.209  26.801  1.00  0.00     0.042 C 
BRANCH   9  11
ATOM     11  N   UNL A   1      32.226  25.061  25.975  1.00  0.00    -0.270 N 
ATOM     12  C   UNL A   1      33.498  25.568  25.913  1.00  0.00     0.231 C 
ATOM     13  C   UNL A   1      31.289  26.048  26.046  1.00  0.00     0.236 C 
ATOM     14  O   UNL A   1      34.539  24.945  26.017  1.00  0.00    -0.274 OA
ATOM     15  C   UNL A   1      33.416  27.048  25.651  1.00  0.00     0.117 C 
ATOM     16  C   UNL A   1      31.983  27.388  26.042  1.00  0.00     0.059 C 
ATOM     17  O   UNL A   1      30.079  25.923  26.185  1.00  0.00    -0.274 OA
ATOM     18  C   UNL A   1      31.889  28.058  27.416  1.00  0.00     0.017 C 
ATOM     19  C   UNL A   1      31.270  28.368  25.115  1.00  0.00     0.017 C 
ATOM     20  C   UNL A   1      31.954  29.556  27.136  1.00  0.00     0.001 C 
ATOM     21  C   UNL A   1      31.571  29.750  25.673  1.00  0.00     0.001 C 
ENDBRANCH   9  11
ENDBRANCH   6   9
ENDBRANCH   4   5
ENDBRANCH   3   4
ENDBRANCH   2   3
ENDBRANCH   1   2
BRANCH   1  22
ATOM     22  C   UNL A   1      37.550  23.531  25.497  1.00  0.00     0.021 C 
BRANCH  22  23
ATOM     23  C   UNL A   1      38.457  24.150  26.559  1.00  0.00     0.116 C 
BRANCH  23  24
ATOM     24  N   UNL A   1      39.856  24.091  26.169  1.00  0.00    -0.352 N 
ATOM     25  C   UNL A   1      40.891  24.931  26.490  1.00  0.00     0.251 C 
ATOM     26  H   UNL A   1      40.097  23.334  25.588  1.00  0.00     0.163 HD
ATOM     27  O   UNL A   1      41.949  24.849  25.872  1.00  0.00    -0.269 OA
BRANCH  25  28
ATOM     28  C   UNL A   1      40.734  25.939  27.562  1.00  0.00     0.039 A 
ATOM     29  C   UNL A   1      39.758  25.731  28.537  1.00  0.00     0.014 A 
ATOM     30  C   UNL A   1      41.515  27.099  27.591  1.00  0.00     0.014 A 
ATOM     31  C   UNL A   1      39.597  26.662  29.565  1.00  0.00     0.010 A 
ATOM     32  C   UNL A   1      41.403  27.989  28.658  1.00  0.00     0.010 A 
ATOM     33  C   UNL A   1      40.439  27.784  29.653  1.00  0.00    -0.014 A 
BRANCH  33  34
ATOM     34  C   UNL A   1      40.316  28.727  30.795  1.00  0.00     0.031 A 
ATOM     35  C   UNL A   1      41.184  28.579  32.016  1.00  0.00     0.074 A 
ATOM     36  C   UNL A   1      39.402  29.718  30.732  1.00  0.00     0.049 A 
ATOM     37  N   UNL A   1      41.229  29.329  33.088  1.00  0.00    -0.248 NA
ATOM     38  C   UNL A   1      42.109  27.434  32.048  1.00  0.00     0.031 C 
ATOM     39  C   UNL A   1      38.464  29.934  29.628  1.00  0.00     0.029 A 
ATOM     40  N   UNL A   1      39.116  30.731  31.611  1.00  0.00    -0.354 N 
ATOM     41  C   UNL A   1      42.187  28.754  33.915  1.00  0.00     0.074 A 
ATOM     42  C   UNL A   1      42.653  27.556  33.251  1.00  0.00     0.031 C 
ATOM     43  C   UNL A   1      37.732  31.031  29.879  1.00  0.00     0.029 A 
ATOM     44  C   UNL A   1      38.120  31.574  31.176  1.00  0.00     0.049 A 
ATOM     45  H   UNL A   1      39.579  30.845  32.473  1.00  0.00     0.167 HD
ATOM     46  C   UNL A   1      42.659  29.198  35.105  1.00  0.00     0.031 A 
ATOM     47  C   UNL A   1      37.576  32.662  31.755  1.00  0.00     0.031 A 
ATOM     48  C   UNL A   1      42.189  30.387  35.768  1.00  0.00     0.049 A 
ATOM     49  C   UNL A   1      38.107  33.125  33.084  1.00  0.00     0.074 A 
ATOM     50  C   UNL A   1      42.625  30.935  36.962  1.00  0.00     0.029 A 
ATOM     51  N   UNL A   1      41.181  31.214  35.295  1.00  0.00    -0.354 N 
ATOM     52  N   UNL A   1      39.061  32.601  33.818  1.00  0.00    -0.248 NA
ATOM     53  C   UNL A   1      37.503  34.336  33.653  1.00  0.00     0.031 C 
ATOM     54  C   UNL A   1      41.843  32.063  37.238  1.00  0.00     0.029 A 
ATOM     55  C   UNL A   1      40.967  32.256  36.182  1.00  0.00     0.049 A 
ATOM     56  H   UNL A   1      40.690  31.080  34.452  1.00  0.00     0.167 HD
ATOM     57  C   UNL A   1      39.183  33.432  34.925  1.00  0.00     0.074 A 
ATOM     58  C   UNL A   1      38.230  34.508  34.748  1.00  0.00     0.031 C 
ATOM     59  C   UNL A   1      40.006  33.314  35.998  1.00  0.00     0.031 A 
BRANCH  46  60
ATOM     60  C   UNL A   1      43.753  28.397  35.765  1.00  0.00    -0.014 A 
ATOM     61  C   UNL A   1      43.444  27.334  36.632  1.00  0.00     0.010 A 
ATOM     62  C   UNL A   1      45.102  28.663  35.466  1.00  0.00     0.010 A 
ATOM     63  C   UNL A   1      44.460  26.570  37.213  1.00  0.00     0.020 A 
ATOM     64  C   UNL A   1      46.122  27.883  36.021  1.00  0.00     0.020 A 
ATOM     65  C   UNL A   1      45.794  26.849  36.900  1.00  0.00     0.054 A 
BRANCH  65  66
ATOM     66  S   UNL A   1      47.089  25.811  37.633  1.00  0.00     0.124 S 
ATOM     67  O   UNL A   1      48.146  25.892  36.627  1.00  0.00    -0.237 OA
ATOM     68  O   UNL A   1      47.370  26.495  38.893  1.00  0.00    -0.237 OA
ATOM     69  O   UNL A   1      46.454  24.504  37.766  1.00  0.00    -0.744 OA
ENDBRANCH  65  66
ENDBRANCH  46  60
BRANCH  47  70
ATOM     70  C   UNL A   1      36.460  33.386  31.083  1.00  0.00    -0.014 A 
ATOM     71  C   UNL A   1      36.625  33.949  29.807  1.00  0.00     0.010 A 
ATOM     72  C   UNL A   1      35.219  33.522  31.733  1.00  0.00     0.010 A 
ATOM     73  C   UNL A   1      35.585  34.665  29.207  1.00  0.00     0.020 A 
ATOM     74  C   UNL A   1      34.165  34.206  31.123  1.00  0.00     0.020 A 
ATOM     75  C   UNL A   1      34.360  34.790  29.870  1.00  0.00     0.054 A 
BRANCH  75  76
ATOM     76  S   UNL A   1      33.014  35.701  29.066  1.00  0.00     0.124 S 
ATOM     77  O   UNL A   1      32.227  36.150  30.210  1.00  0.00    -0.237 OA
ATOM     78  O   UNL A   1      33.730  36.745  28.339  1.00  0.00    -0.237 OA
ATOM     79  O   UNL A   1      32.376  34.692  28.223  1.00  0.00    -0.744 OA
ENDBRANCH  75  76
ENDBRANCH  47  70
BRANCH  59  80
ATOM     80  C   UNL A   1      39.925  34.392  37.048  1.00  0.00    -0.014 A 
ATOM     81  C   UNL A   1      39.078  34.262  38.163  1.00  0.00     0.010 A 
ATOM     82  C   UNL A   1      40.724  35.543  36.926  1.00  0.00     0.010 A 
ATOM     83  C   UNL A   1      38.990  35.290  39.107  1.00  0.00     0.020 A 
ATOM     84  C   UNL A   1      40.664  36.557  37.885  1.00  0.00     0.020 A 
ATOM     85  C   UNL A   1      39.781  36.433  38.959  1.00  0.00     0.054 A 
BRANCH  85  86
ATOM     86  S   UNL A   1      39.656  37.746  40.203  1.00  0.00     0.124 S 
ATOM     87  O   UNL A   1      40.728  38.651  39.797  1.00  0.00    -0.237 OA
ATOM     88  O   UNL A   1      38.300  38.249  40.001  1.00  0.00    -0.237 OA
ATOM     89  O   UNL A   1      39.875  37.049  41.467  1.00  0.00    -0.744 OA
ENDBRANCH  85  86
ENDBRANCH  59  80
ENDBRANCH  33  34
ENDBRANCH  25  28
ENDBRANCH  23  24
ENDBRANCH  22  23
ENDBRANCH   1  22
TORSDOF 17
ENDMDL
MODEL 3
REMARK VINA RESULT:     -11.3      6.468     12.066
REMARK SMILES C[C@@H](C(=O)NCCCCCCNC(=O)c1ccc(-c2c3nc(c(-c4ccc(S(=O)(=O)[O-])cc4)c4ccc([nH]4)c(-c4ccc(S(=O)(=O)[O-])cc4)c4nc(c(-c5ccc(S(=O)(=O)[O-])cc5)c5ccc2[nH]5)C=C4)C=C3)cc1)N1C(=O)CC2(CCCC2)C1=O
REMARK SMILES IDX 9 1 8 2 7 3 6 4 5 5 3 6 4 7 2 9 1 10 75 11 76 12 84 13 77 14
REMARK SMILES IDX 78 15 79 16 85 17 80 18 83 19 81 20 82 21 10 22 11 23 12 24
REMARK SMILES IDX 13 25 14 27 15 28 16 29 74 30 17 31 73 32 18 33 19 34 20 35
REMARK SMILES IDX 67 36 21 37 72 38 66 39 68 40 22 41 71 42 65 43 64 44 23 46
REMARK SMILES IDX 53 47 34 48 52 49 35 50 38 51 51 52 69 53 36 54 37 55 50 57
REMARK SMILES IDX 70 58 39 59 24 60 25 61 33 62 26 63 32 64 27 65 28 66 29 67
REMARK SMILES IDX 30 68 31 69 54 70 55 71 63 72 56 73 62 74 57 75 58 76 59 77
REMARK SMILES IDX 60 78 61 79 40 80 41 81 49 82 42 83 48 84 43 85 44 86 45 87
REMARK SMILES IDX 46 88 47 89
REMARK H PARENT 5 8 12 26 68 45 38 56
REMARK Flexibility Score: inf
ROOT
ATOM      1  C   UNL A   1      40.632  22.137  27.448  1.00  0.00     0.002 C 
ENDROOT
BRANCH   1   2
ATOM      2  C   UNL A   1      39.973  22.289  26.074  1.00  0.00     0.002 C 
BRANCH   2   3
ATOM      3  C   UNL A   1      38.490  21.902  26.033  1.00  0.00     0.021 C 
BRANCH   3   4
ATOM      4  C   UNL A   1      37.557  23.094  25.800  1.00  0.00     0.116 C 
BRANCH   4   5
ATOM      5  N   UNL A   1      37.360  23.288  24.376  1.00  0.00    -0.354 N 
ATOM      6  C   UNL A   1      36.245  23.047  23.620  1.00  0.00     0.243 C 
ATOM      7  O   UNL A   1      36.374  23.014  22.393  1.00  0.00    -0.273 OA
ATOM      8  H   UNL A   1      38.136  23.644  23.885  1.00  0.00     0.163 HD
BRANCH   6   9
ATOM      9  C   UNL A   1      34.884  22.836  24.324  1.00  0.00     0.179 C 
ATOM     10  C   UNL A   1      33.993  21.923  23.481  1.00  0.00     0.042 C 
BRANCH   9  11
ATOM     11  N   UNL A   1      34.309  24.162  24.592  1.00  0.00    -0.270 N 
ATOM     12  C   UNL A   1      34.021  24.575  25.867  1.00  0.00     0.231 C 
ATOM     13  C   UNL A   1      33.949  25.094  23.664  1.00  0.00     0.236 C 
ATOM     14  O   UNL A   1      34.065  23.899  26.880  1.00  0.00    -0.274 OA
ATOM     15  C   UNL A   1      33.672  26.038  25.835  1.00  0.00     0.117 C 
ATOM     16  C   UNL A   1      33.337  26.280  24.369  1.00  0.00     0.059 C 
ATOM     17  O   UNL A   1      34.006  24.998  22.446  1.00  0.00    -0.274 OA
ATOM     18  C   UNL A   1      31.829  26.352  24.112  1.00  0.00     0.017 C 
ATOM     19  C   UNL A   1      33.862  27.590  23.788  1.00  0.00     0.017 C 
ATOM     20  C   UNL A   1      31.472  27.830  24.229  1.00  0.00     0.001 C 
ATOM     21  C   UNL A   1      32.765  28.614  24.034  1.00  0.00     0.001 C 
ENDBRANCH   9  11
ENDBRANCH   6   9
ENDBRANCH   4   5
ENDBRANCH   3   4
ENDBRANCH   2   3
ENDBRANCH   1   2
BRANCH   1  22
ATOM     22  C   UNL A   1      42.134  21.841  27.409  1.00  0.00     0.021 C 
BRANCH  22  23
ATOM     23  C   UNL A   1      43.024  23.080  27.488  1.00  0.00     0.116 C 
BRANCH  23  24
ATOM     24  N   UNL A   1      42.882  23.918  26.310  1.00  0.00    -0.352 N 
ATOM     25  C   UNL A   1      42.366  25.183  26.191  1.00  0.00     0.251 C 
ATOM     26  H   UNL A   1      43.205  23.519  25.471  1.00  0.00     0.163 HD
ATOM     27  O   UNL A   1      42.115  25.631  25.075  1.00  0.00    -0.269 OA
BRANCH  25  28
ATOM     28  C   UNL A   1      42.099  26.001  27.395  1.00  0.00     0.039 A 
ATOM     29  C   UNL A   1      43.011  27.002  27.738  1.00  0.00     0.014 A 
ATOM     30  C   UNL A   1      40.983  25.765  28.204  1.00  0.00     0.014 A 
ATOM     31  C   UNL A   1      42.777  27.794  28.863  1.00  0.00     0.010 A 
ATOM     32  C   UNL A   1      40.713  26.605  29.284  1.00  0.00     0.010 A 
ATOM     33  C   UNL A   1      41.610  27.625  29.629  1.00  0.00    -0.014 A 
BRANCH  33  34
ATOM     34  C   UNL A   1      41.329  28.525  30.777  1.00  0.00     0.031 A 
ATOM     35  C   UNL A   1      42.143  28.442  32.041  1.00  0.00     0.074 A 
ATOM     36  C   UNL A   1      40.320  29.416  30.682  1.00  0.00     0.049 A 
ATOM     37  N   UNL A   1      42.053  29.171  33.125  1.00  0.00    -0.248 NA
ATOM     38  C   UNL A   1      43.182  27.401  32.104  1.00  0.00     0.031 C 
ATOM     39  C   UNL A   1      39.422  29.555  29.532  1.00  0.00     0.029 A 
ATOM     40  N   UNL A   1      39.883  30.374  31.560  1.00  0.00    -0.354 N 
ATOM     41  C   UNL A   1      43.023  28.682  33.993  1.00  0.00     0.074 A 
ATOM     42  C   UNL A   1      43.647  27.554  33.336  1.00  0.00     0.031 C 
ATOM     43  C   UNL A   1      38.567  30.564  29.760  1.00  0.00     0.029 A 
ATOM     44  C   UNL A   1      38.827  31.117  31.085  1.00  0.00     0.049 A 
ATOM     45  H   UNL A   1      40.286  30.517  32.446  1.00  0.00     0.167 HD
ATOM     46  C   UNL A   1      43.384  29.147  35.214  1.00  0.00     0.031 A 
ATOM     47  C   UNL A   1      38.142  32.130  31.651  1.00  0.00     0.031 A 
ATOM     48  C   UNL A   1      42.757  30.266  35.869  1.00  0.00     0.049 A 
ATOM     49  C   UNL A   1      38.552  32.617  33.014  1.00  0.00     0.074 A 
ATOM     50  C   UNL A   1      43.069  30.831  37.093  1.00  0.00     0.029 A 
ATOM     51  N   UNL A   1      41.692  30.993  35.355  1.00  0.00    -0.354 N 
ATOM     52  N   UNL A   1      39.516  32.181  33.789  1.00  0.00    -0.248 NA
ATOM     53  C   UNL A   1      37.794  33.745  33.569  1.00  0.00     0.031 C 
ATOM     54  C   UNL A   1      42.160  31.865  37.344  1.00  0.00     0.029 A 
ATOM     55  C   UNL A   1      41.323  31.987  36.247  1.00  0.00     0.049 A 
ATOM     56  H   UNL A   1      41.262  30.825  34.486  1.00  0.00     0.167 HD
ATOM     57  C   UNL A   1      39.493  32.996  34.915  1.00  0.00     0.074 A 
ATOM     58  C   UNL A   1      38.441  33.970  34.703  1.00  0.00     0.031 C 
ATOM     59  C   UNL A   1      40.267  32.942  36.028  1.00  0.00     0.031 A 
BRANCH  46  60
ATOM     60  C   UNL A   1      44.521  28.452  35.919  1.00  0.00    -0.014 A 
ATOM     61  C   UNL A   1      45.851  28.860  35.715  1.00  0.00     0.010 A 
ATOM     62  C   UNL A   1      44.256  27.427  36.846  1.00  0.00     0.010 A 
ATOM     63  C   UNL A   1      46.899  28.238  36.399  1.00  0.00     0.020 A 
ATOM     64  C   UNL A   1      45.299  26.820  37.555  1.00  0.00     0.020 A 
ATOM     65  C   UNL A   1      46.614  27.223  37.318  1.00  0.00     0.054 A 
BRANCH  65  66
ATOM     66  S   UNL A   1      47.992  26.466  38.224  1.00  0.00     0.124 S 
ATOM     67  O   UNL A   1      48.522  27.602  38.972  1.00  0.00    -0.237 OA
ATOM     68  O   UNL A   1      47.322  25.444  39.026  1.00  0.00    -0.237 OA
ATOM     69  O   UNL A   1      48.862  25.954  37.169  1.00  0.00    -0.744 OA
ENDBRANCH  65  66
ENDBRANCH  46  60
BRANCH  47  70
ATOM     70  C   UNL A   1      36.991  32.746  30.932  1.00  0.00    -0.014 A 
ATOM     71  C   UNL A   1      35.673  32.325  31.178  1.00  0.00     0.010 A 
ATOM     72  C   UNL A   1      37.218  33.759  29.982  1.00  0.00     0.010 A 
ATOM     73  C   UNL A   1      34.607  32.880  30.463  1.00  0.00     0.020 A 
ATOM     74  C   UNL A   1      36.152  34.341  29.291  1.00  0.00     0.020 A 
ATOM     75  C   UNL A   1      34.854  33.884  29.523  1.00  0.00     0.054 A 
BRANCH  75  76
ATOM     76  S   UNL A   1      33.455  34.608  28.623  1.00  0.00     0.124 S 
ATOM     77  O   UNL A   1      32.534  34.934  29.707  1.00  0.00    -0.237 OA
ATOM     78  O   UNL A   1      34.071  35.749  27.948  1.00  0.00    -0.237 OA
ATOM     79  O   UNL A   1      33.025  33.529  27.737  1.00  0.00    -0.744 OA
ENDBRANCH  75  76
ENDBRANCH  47  70
BRANCH  59  80
ATOM     80  C   UNL A   1      40.018  33.983  37.089  1.00  0.00    -0.014 A 
ATOM     81  C   UNL A   1      39.170  33.724  38.181  1.00  0.00     0.010 A 
ATOM     82  C   UNL A   1      40.658  35.232  37.001  1.00  0.00     0.010 A 
ATOM     83  C   UNL A   1      38.924  34.715  39.134  1.00  0.00     0.020 A 
ATOM     84  C   UNL A   1      40.441  36.214  37.971  1.00  0.00     0.020 A 
ATOM     85  C   UNL A   1      39.558  35.956  39.021  1.00  0.00     0.054 A 
BRANCH  85  86
ATOM     86  S   UNL A   1      39.230  37.222  40.277  1.00  0.00     0.124 S 
ATOM     87  O   UNL A   1      38.464  38.209  39.521  1.00  0.00    -0.237 OA
ATOM     88  O   UNL A   1      38.476  36.482  41.286  1.00  0.00    -0.237 OA
ATOM     89  O   UNL A   1      40.562  37.651  40.693  1.00  0.00    -0.744 OA
ENDBRANCH  85  86
ENDBRANCH  59  80
ENDBRANCH  33  34
ENDBRANCH  25  28
ENDBRANCH  23  24
ENDBRANCH  22  23
ENDBRANCH   1  22
TORSDOF 17
ENDMDL
