MODEL 1
REMARK VINA RESULT:     -11.0      0.000      0.000
REMARK SMILES CC[C@@](C)(NC(=O)c1cccc2ccccc12)C(=O)NCCCCCCNC(=O)c1ccc(-c2c3nc(c(-c4ccc(S(=O)(=O)[O-])cc4)c4ccc([nH]4)c(-c4ccc(S(=O)(=O)[O-])cc4)c4nc(c(-c5ccc(S(=O)(=O)[O-])cc5)c5ccc2[nH]5)C=C4)C=C3)cc1
REMARK SMILES IDX 24 1 23 2 22 3 21 4 20 5 18 6 19 7 3 9 4 10 2 11 1 12 5 13
REMARK SMILES IDX 6 14 7 16 8 17 9 18 17 19 10 20 12 21 16 22 11 23 13 24
REMARK SMILES IDX 15 25 14 26 25 27 26 28 27 29 28 30 29 32 30 33 31 34 89 35
REMARK SMILES IDX 32 36 88 37 33 38 34 39 35 40 82 41 36 42 87 43 81 44 83 45
REMARK SMILES IDX 37 46 86 47 80 48 79 49 38 51 68 52 49 53 67 54 50 55 53 56
REMARK SMILES IDX 66 57 84 58 51 59 52 60 65 62 85 63 54 64 39 65 40 66 48 67
REMARK SMILES IDX 41 68 47 69 42 70 43 71 44 72 45 73 46 74 69 75 70 76 78 77
REMARK SMILES IDX 71 78 77 79 72 80 73 81 74 82 75 83 76 84 55 85 56 86 64 87
REMARK SMILES IDX 57 88 63 89 58 90 59 91 60 92 61 93 62 94
REMARK H PARENT 20 8 5 15 27 31 83 50 53 61
REMARK Flexibility Score: inf
ROOT
ATOM      1  C   UNL A   1      31.329  27.929  26.070  1.00  0.00     0.002 C 
ENDROOT
BRANCH   1   2
ATOM      2  C   UNL A   1      31.434  29.210  25.249  1.00  0.00     0.002 C 
BRANCH   2   3
ATOM      3  C   UNL A   1      31.166  29.079  23.749  1.00  0.00     0.021 C 
BRANCH   3   4
ATOM      4  C   UNL A   1      30.456  27.815  23.263  1.00  0.00     0.116 C 
BRANCH   4   5
ATOM      5  N   UNL A   1      30.860  27.296  21.966  1.00  0.00    -0.354 N 
ATOM      6  C   UNL A   1      31.704  26.288  21.585  1.00  0.00     0.245 C 
ATOM      7  O   UNL A   1      31.655  25.976  20.390  1.00  0.00    -0.272 OA
ATOM      8  H   UNL A   1      30.440  27.764  21.208  1.00  0.00     0.163 HD
BRANCH   6   9
ATOM      9  C   UNL A   1      32.619  25.522  22.594  1.00  0.00     0.116 C 
ATOM     10  C   UNL A   1      33.014  24.235  21.815  1.00  0.00     0.045 C 
BRANCH   9  11
ATOM     11  C   UNL A   1      33.940  26.251  22.984  1.00  0.00     0.035 C 
ATOM     12  C   UNL A   1      34.042  26.876  24.369  1.00  0.00     0.007 C 
ENDBRANCH   9  11
BRANCH   9  13
ATOM     13  N   UNL A   1      31.966  25.119  23.882  1.00  0.00    -0.338 N 
ATOM     14  C   UNL A   1      32.007  24.019  24.733  1.00  0.00     0.252 C 
ATOM     15  H   UNL A   1      31.349  25.812  24.211  1.00  0.00     0.164 HD
ATOM     16  O   UNL A   1      30.973  23.881  25.392  1.00  0.00    -0.269 OA
BRANCH  14  17
ATOM     17  C   UNL A   1      33.190  23.096  24.990  1.00  0.00     0.047 A 
ATOM     18  C   UNL A   1      34.256  23.541  25.768  1.00  0.00     0.014 A 
ATOM     19  C   UNL A   1      33.198  21.701  24.622  1.00  0.00    -0.006 A 
ATOM     20  C   UNL A   1      35.293  22.730  26.216  1.00  0.00     0.001 A 
ATOM     21  C   UNL A   1      34.267  20.874  25.100  1.00  0.00    -0.018 A 
ATOM     22  C   UNL A   1      32.226  21.031  23.833  1.00  0.00     0.009 A 
ATOM     23  C   UNL A   1      35.293  21.396  25.885  1.00  0.00     0.009 A 
ATOM     24  C   UNL A   1      34.318  19.503  24.824  1.00  0.00     0.009 A 
ATOM     25  C   UNL A   1      32.290  19.655  23.565  1.00  0.00     0.001 A 
ATOM     26  C   UNL A   1      33.331  18.891  24.065  1.00  0.00     0.001 A 
ENDBRANCH  14  17
ENDBRANCH   9  13
ENDBRANCH   6   9
ENDBRANCH   4   5
ENDBRANCH   3   4
ENDBRANCH   2   3
ENDBRANCH   1   2
BRANCH   1  27
ATOM     27  C   UNL A   1      31.978  27.993  27.448  1.00  0.00     0.021 C 
BRANCH  27  28
ATOM     28  C   UNL A   1      33.389  28.570  27.460  1.00  0.00     0.116 C 
BRANCH  28  29
ATOM     29  N   UNL A   1      33.392  30.013  27.654  1.00  0.00    -0.352 N 
ATOM     30  C   UNL A   1      34.388  30.802  28.179  1.00  0.00     0.251 C 
ATOM     31  H   UNL A   1      32.576  30.485  27.371  1.00  0.00     0.163 HD
ATOM     32  O   UNL A   1      34.171  31.976  28.465  1.00  0.00    -0.269 OA
BRANCH  30  33
ATOM     33  C   UNL A   1      35.719  30.207  28.417  1.00  0.00     0.039 A 
ATOM     34  C   UNL A   1      36.658  30.201  27.385  1.00  0.00     0.014 A 
ATOM     35  C   UNL A   1      36.049  29.709  29.681  1.00  0.00     0.014 A 
ATOM     36  C   UNL A   1      37.958  29.762  27.644  1.00  0.00     0.010 A 
ATOM     37  C   UNL A   1      37.364  29.351  29.957  1.00  0.00     0.010 A 
ATOM     38  C   UNL A   1      38.333  29.373  28.943  1.00  0.00    -0.014 A 
BRANCH  38  39
ATOM     39  C   UNL A   1      39.736  29.008  29.260  1.00  0.00     0.031 A 
ATOM     40  C   UNL A   1      40.654  30.009  29.904  1.00  0.00     0.074 A 
ATOM     41  C   UNL A   1      40.203  27.794  28.906  1.00  0.00     0.049 A 
ATOM     42  N   UNL A   1      41.917  29.883  30.223  1.00  0.00    -0.248 NA
ATOM     43  C   UNL A   1      40.088  31.333  30.204  1.00  0.00     0.031 C 
ATOM     44  C   UNL A   1      39.427  26.755  28.225  1.00  0.00     0.029 A 
ATOM     45  N   UNL A   1      41.445  27.230  29.063  1.00  0.00    -0.354 N 
ATOM     46  C   UNL A   1      42.297  31.110  30.752  1.00  0.00     0.074 A 
ATOM     47  C   UNL A   1      41.150  31.986  30.650  1.00  0.00     0.031 C 
ATOM     48  C   UNL A   1      40.202  25.674  28.046  1.00  0.00     0.029 A 
ATOM     49  C   UNL A   1      41.539  25.955  28.559  1.00  0.00     0.049 A 
ATOM     50  H   UNL A   1      42.196  27.696  29.495  1.00  0.00     0.167 HD
ATOM     51  C   UNL A   1      43.485  31.472  31.294  1.00  0.00     0.031 A 
ATOM     52  C   UNL A   1      42.585  25.108  28.504  1.00  0.00     0.031 A 
ATOM     53  C   UNL A   1      44.627  30.601  31.379  1.00  0.00     0.049 A 
ATOM     54  C   UNL A   1      43.901  25.531  29.093  1.00  0.00     0.074 A 
ATOM     55  C   UNL A   1      45.861  30.851  31.954  1.00  0.00     0.029 A 
ATOM     56  N   UNL A   1      44.681  29.313  30.863  1.00  0.00    -0.354 N 
ATOM     57  N   UNL A   1      44.218  26.669  29.665  1.00  0.00    -0.248 NA
ATOM     58  C   UNL A   1      44.997  24.554  29.041  1.00  0.00     0.031 C 
ATOM     59  C   UNL A   1      46.680  29.739  31.729  1.00  0.00     0.029 A 
ATOM     60  C   UNL A   1      45.937  28.769  31.075  1.00  0.00     0.049 A 
ATOM     61  H   UNL A   1      43.936  28.854  30.412  1.00  0.00     0.167 HD
ATOM     62  C   UNL A   1      45.547  26.540  30.054  1.00  0.00     0.074 A 
ATOM     63  C   UNL A   1      45.965  25.206  29.673  1.00  0.00     0.031 C 
ATOM     64  C   UNL A   1      46.347  27.445  30.672  1.00  0.00     0.031 A 
BRANCH  51  65
ATOM     65  C   UNL A   1      43.602  32.881  31.818  1.00  0.00    -0.014 A 
ATOM     66  C   UNL A   1      43.320  33.185  33.164  1.00  0.00     0.010 A 
ATOM     67  C   UNL A   1      43.998  33.920  30.956  1.00  0.00     0.010 A 
ATOM     68  C   UNL A   1      43.367  34.504  33.620  1.00  0.00     0.020 A 
ATOM     69  C   UNL A   1      44.081  35.238  31.416  1.00  0.00     0.020 A 
ATOM     70  C   UNL A   1      43.739  35.524  32.739  1.00  0.00     0.054 A 
BRANCH  70  71
ATOM     71  S   UNL A   1      43.775  37.230  33.354  1.00  0.00     0.124 S 
ATOM     72  O   UNL A   1      45.036  37.258  34.092  1.00  0.00    -0.237 OA
ATOM     73  O   UNL A   1      43.752  38.015  32.122  1.00  0.00    -0.237 OA
ATOM     74  O   UNL A   1      42.572  37.329  34.175  1.00  0.00    -0.744 OA
ENDBRANCH  70  71
ENDBRANCH  51  65
BRANCH  52  75
ATOM     75  C   UNL A   1      42.411  23.772  27.870  1.00  0.00    -0.014 A 
ATOM     76  C   UNL A   1      42.895  23.522  26.574  1.00  0.00     0.010 A 
ATOM     77  C   UNL A   1      41.809  22.722  28.588  1.00  0.00     0.010 A 
ATOM     78  C   UNL A   1      42.783  22.248  26.010  1.00  0.00     0.020 A 
ATOM     79  C   UNL A   1      41.721  21.439  28.040  1.00  0.00     0.020 A 
ATOM     80  C   UNL A   1      42.207  21.211  26.751  1.00  0.00     0.054 A 
BRANCH  80  81
ATOM     81  S   UNL A   1      42.157  19.545  26.035  1.00  0.00     0.124 S 
ATOM     82  O   UNL A   1      42.658  18.726  27.135  1.00  0.00    -0.237 OA
ATOM     83  O   UNL A   1      40.740  19.382  25.719  1.00  0.00    -0.237 OA
ATOM     84  O   UNL A   1      43.039  19.644  24.875  1.00  0.00    -0.744 OA
ENDBRANCH  80  81
ENDBRANCH  52  75
BRANCH  64  85
ATOM     85  C   UNL A   1      47.759  27.021  30.983  1.00  0.00    -0.014 A 
ATOM     86  C   UNL A   1      48.048  26.206  32.091  1.00  0.00     0.010 A 
ATOM     87  C   UNL A   1      48.804  27.399  30.121  1.00  0.00     0.010 A 
ATOM     88  C   UNL A   1      49.360  25.801  32.349  1.00  0.00     0.020 A 
ATOM     89  C   UNL A   1      50.113  26.972  30.357  1.00  0.00     0.020 A 
ATOM     90  C   UNL A   1      50.385  26.185  31.478  1.00  0.00     0.054 A 
BRANCH  90  91
ATOM     91  S   UNL A   1      52.072  25.609  31.811  1.00  0.00     0.124 S 
ATOM     92  O   UNL A   1      51.845  24.232  32.240  1.00  0.00    -0.237 OA
ATOM     93  O   UNL A   1      52.724  25.763  30.513  1.00  0.00    -0.237 OA
ATOM     94  O   UNL A   1      52.549  26.515  32.854  1.00  0.00    -0.744 OA
ENDBRANCH  90  91
ENDBRANCH  64  85
ENDBRANCH  38  39
ENDBRANCH  30  33
ENDBRANCH  28  29
ENDBRANCH  27  28
ENDBRANCH   1  27
TORSDOF 19
ENDMDL
MODEL 2
REMARK VINA RESULT:     -10.9      3.878     10.658
REMARK SMILES CC[C@@](C)(NC(=O)c1cccc2ccccc12)C(=O)NCCCCCCNC(=O)c1ccc(-c2c3nc(c(-c4ccc(S(=O)(=O)[O-])cc4)c4ccc([nH]4)c(-c4ccc(S(=O)(=O)[O-])cc4)c4nc(c(-c5ccc(S(=O)(=O)[O-])cc5)c5ccc2[nH]5)C=C4)C=C3)cc1
REMARK SMILES IDX 24 1 23 2 22 3 21 4 20 5 18 6 19 7 3 9 4 10 2 11 1 12 5 13
REMARK SMILES IDX 6 14 7 16 8 17 9 18 17 19 10 20 12 21 16 22 11 23 13 24
REMARK SMILES IDX 15 25 14 26 25 27 26 28 27 29 28 30 29 32 30 33 31 34 89 35
REMARK SMILES IDX 32 36 88 37 33 38 34 39 35 40 82 41 36 42 87 43 81 44 83 45
REMARK SMILES IDX 37 46 86 47 80 48 79 49 38 51 68 52 49 53 67 54 50 55 53 56
REMARK SMILES IDX 66 57 84 58 51 59 52 60 65 62 85 63 54 64 39 65 40 66 48 67
REMARK SMILES IDX 41 68 47 69 42 70 43 71 44 72 45 73 46 74 69 75 70 76 78 77
REMARK SMILES IDX 71 78 77 79 72 80 73 81 74 82 75 83 76 84 55 85 56 86 64 87
REMARK SMILES IDX 57 88 63 89 58 90 59 91 60 92 61 93 62 94
REMARK H PARENT 20 8 5 15 27 31 83 50 53 61
REMARK Flexibility Score: inf
ROOT
ATOM      1  C   UNL A   1      35.601  33.855  28.276  1.00  0.00     0.002 C 
ENDROOT
BRANCH   1   2
ATOM      2  C   UNL A   1      36.937  33.121  28.269  1.00  0.00     0.002 C 
BRANCH   2   3
ATOM      3  C   UNL A   1      38.051  33.731  29.121  1.00  0.00     0.021 C 
BRANCH   3   4
ATOM      4  C   UNL A   1      37.647  34.717  30.218  1.00  0.00     0.116 C 
BRANCH   4   5
ATOM      5  N   UNL A   1      38.555  34.849  31.345  1.00  0.00    -0.354 N 
ATOM      6  C   UNL A   1      38.532  34.366  32.626  1.00  0.00     0.245 C 
ATOM      7  O   UNL A   1      39.581  34.501  33.265  1.00  0.00    -0.272 OA
ATOM      8  H   UNL A   1      39.349  35.398  31.148  1.00  0.00     0.163 HD
BRANCH   6   9
ATOM      9  C   UNL A   1      37.296  33.623  33.228  1.00  0.00     0.116 C 
ATOM     10  C   UNL A   1      36.209  34.733  33.299  1.00  0.00     0.045 C 
BRANCH   9  11
ATOM     11  C   UNL A   1      36.721  32.468  32.354  1.00  0.00     0.035 C 
ATOM     12  C   UNL A   1      35.225  32.448  32.070  1.00  0.00     0.007 C 
ENDBRANCH   9  11
BRANCH   9  13
ATOM     13  N   UNL A   1      37.488  33.054  34.601  1.00  0.00    -0.338 N 
ATOM     14  C   UNL A   1      38.080  31.922  35.150  1.00  0.00     0.252 C 
ATOM     15  H   UNL A   1      37.094  33.631  35.294  1.00  0.00     0.164 HD
ATOM     16  O   UNL A   1      37.590  31.598  36.235  1.00  0.00    -0.269 OA
BRANCH  14  17
ATOM     17  C   UNL A   1      39.286  31.160  34.616  1.00  0.00     0.047 A 
ATOM     18  C   UNL A   1      40.565  31.498  35.055  1.00  0.00     0.014 A 
ATOM     19  C   UNL A   1      39.175  29.973  33.805  1.00  0.00    -0.006 A 
ATOM     20  C   UNL A   1      41.709  30.759  34.777  1.00  0.00     0.001 A 
ATOM     21  C   UNL A   1      40.362  29.214  33.537  1.00  0.00    -0.018 A 
ATOM     22  C   UNL A   1      37.983  29.443  33.244  1.00  0.00     0.009 A 
ATOM     23  C   UNL A   1      41.604  29.615  34.023  1.00  0.00     0.009 A 
ATOM     24  C   UNL A   1      40.325  28.026  32.799  1.00  0.00     0.009 A 
ATOM     25  C   UNL A   1      37.962  28.250  32.506  1.00  0.00     0.001 A 
ATOM     26  C   UNL A   1      39.131  27.539  32.289  1.00  0.00     0.001 A 
ENDBRANCH  14  17
ENDBRANCH   9  13
ENDBRANCH   6   9
ENDBRANCH   4   5
ENDBRANCH   3   4
ENDBRANCH   2   3
ENDBRANCH   1   2
BRANCH   1  27
ATOM     27  C   UNL A   1      34.412  33.033  27.791  1.00  0.00     0.021 C 
BRANCH  27  28
ATOM     28  C   UNL A   1      33.987  31.913  28.732  1.00  0.00     0.116 C 
BRANCH  28  29
ATOM     29  N   UNL A   1      33.656  30.688  28.017  1.00  0.00    -0.352 N 
ATOM     30  C   UNL A   1      34.506  29.705  27.568  1.00  0.00     0.251 C 
ATOM     31  H   UNL A   1      32.700  30.545  27.832  1.00  0.00     0.163 HD
ATOM     32  O   UNL A   1      34.105  28.830  26.806  1.00  0.00    -0.269 OA
BRANCH  30  33
ATOM     33  C   UNL A   1      35.919  29.733  27.998  1.00  0.00     0.039 A 
ATOM     34  C   UNL A   1      36.228  29.503  29.340  1.00  0.00     0.014 A 
ATOM     35  C   UNL A   1      36.935  29.929  27.058  1.00  0.00     0.014 A 
ATOM     36  C   UNL A   1      37.566  29.396  29.725  1.00  0.00     0.010 A 
ATOM     37  C   UNL A   1      38.262  29.740  27.430  1.00  0.00     0.010 A 
ATOM     38  C   UNL A   1      38.592  29.471  28.766  1.00  0.00    -0.014 A 
BRANCH  38  39
ATOM     39  C   UNL A   1      40.012  29.252  29.141  1.00  0.00     0.031 A 
ATOM     40  C   UNL A   1      40.676  27.933  28.859  1.00  0.00     0.074 A 
ATOM     41  C   UNL A   1      40.683  30.219  29.798  1.00  0.00     0.049 A 
ATOM     42  N   UNL A   1      41.893  27.545  29.144  1.00  0.00    -0.248 NA
ATOM     43  C   UNL A   1      39.858  26.906  28.195  1.00  0.00     0.031 C 
ATOM     44  C   UNL A   1      40.131  31.521  30.180  1.00  0.00     0.029 A 
ATOM     45  N   UNL A   1      41.972  30.254  30.267  1.00  0.00    -0.354 N 
ATOM     46  C   UNL A   1      41.984  26.231  28.702  1.00  0.00     0.074 A 
ATOM     47  C   UNL A   1      40.680  25.868  28.190  1.00  0.00     0.031 C 
ATOM     48  C   UNL A   1      41.083  32.235  30.801  1.00  0.00     0.029 A 
ATOM     49  C   UNL A   1      42.296  31.430  30.901  1.00  0.00     0.049 A 
ATOM     50  H   UNL A   1      42.605  29.507  30.160  1.00  0.00     0.167 HD
ATOM     51  C   UNL A   1      43.059  25.407  28.701  1.00  0.00     0.031 A 
ATOM     52  C   UNL A   1      43.437  31.818  31.504  1.00  0.00     0.031 A 
ATOM     53  C   UNL A   1      44.350  25.769  29.225  1.00  0.00     0.049 A 
ATOM     54  C   UNL A   1      44.614  30.884  31.510  1.00  0.00     0.074 A 
ATOM     55  C   UNL A   1      45.518  25.028  29.227  1.00  0.00     0.029 A 
ATOM     56  N   UNL A   1      44.640  26.973  29.852  1.00  0.00    -0.354 N 
ATOM     57  N   UNL A   1      44.707  29.673  31.013  1.00  0.00    -0.248 NA
ATOM     58  C   UNL A   1      45.845  31.372  32.147  1.00  0.00     0.031 C 
ATOM     59  C   UNL A   1      46.496  25.757  29.912  1.00  0.00     0.029 A 
ATOM     60  C   UNL A   1      45.958  26.982  30.277  1.00  0.00     0.049 A 
ATOM     61  H   UNL A   1      44.002  27.712  29.978  1.00  0.00     0.167 HD
ATOM     62  C   UNL A   1      46.010  29.259  31.264  1.00  0.00     0.074 A 
ATOM     63  C   UNL A   1      46.674  30.357  31.937  1.00  0.00     0.031 C 
ATOM     64  C   UNL A   1      46.602  28.075  30.964  1.00  0.00     0.031 A 
BRANCH  51  65
ATOM     65  C   UNL A   1      42.867  24.025  28.127  1.00  0.00    -0.014 A 
ATOM     66  C   UNL A   1      43.001  23.784  26.747  1.00  0.00     0.010 A 
ATOM     67  C   UNL A   1      42.547  22.951  28.978  1.00  0.00     0.010 A 
ATOM     68  C   UNL A   1      42.753  22.513  26.221  1.00  0.00     0.020 A 
ATOM     69  C   UNL A   1      42.333  21.670  28.460  1.00  0.00     0.020 A 
ATOM     70  C   UNL A   1      42.412  21.466  27.081  1.00  0.00     0.054 A 
BRANCH  70  71
ATOM     71  S   UNL A   1      42.080  19.831  26.368  1.00  0.00     0.124 S 
ATOM     72  O   UNL A   1      40.653  19.920  26.065  1.00  0.00    -0.237 OA
ATOM     73  O   UNL A   1      42.967  19.802  25.208  1.00  0.00    -0.237 OA
ATOM     74  O   UNL A   1      42.432  18.906  27.442  1.00  0.00    -0.744 OA
ENDBRANCH  70  71
ENDBRANCH  51  65
BRANCH  52  75
ATOM     75  C   UNL A   1      43.506  33.161  32.142  1.00  0.00    -0.014 A 
ATOM     76  C   UNL A   1      43.871  34.294  31.395  1.00  0.00     0.010 A 
ATOM     77  C   UNL A   1      43.148  33.320  33.494  1.00  0.00     0.010 A 
ATOM     78  C   UNL A   1      43.873  35.562  31.987  1.00  0.00     0.020 A 
ATOM     79  C   UNL A   1      43.122  34.588  34.082  1.00  0.00     0.020 A 
ATOM     80  C   UNL A   1      43.487  35.701  33.324  1.00  0.00     0.054 A 
BRANCH  80  81
ATOM     81  S   UNL A   1      43.407  37.365  34.043  1.00  0.00     0.124 S 
ATOM     82  O   UNL A   1      44.530  37.349  34.975  1.00  0.00    -0.237 OA
ATOM     83  O   UNL A   1      43.569  38.221  32.870  1.00  0.00    -0.237 OA
ATOM     84  O   UNL A   1      42.083  37.409  34.658  1.00  0.00    -0.744 OA
ENDBRANCH  80  81
ENDBRANCH  52  75
BRANCH  64  85
ATOM     85  C   UNL A   1      48.047  27.906  31.355  1.00  0.00    -0.014 A 
ATOM     86  C   UNL A   1      48.411  27.544  32.663  1.00  0.00     0.010 A 
ATOM     87  C   UNL A   1      49.052  28.057  30.382  1.00  0.00     0.010 A 
ATOM     88  C   UNL A   1      49.756  27.366  33.000  1.00  0.00     0.020 A 
ATOM     89  C   UNL A   1      50.396  27.851  30.706  1.00  0.00     0.020 A 
ATOM     90  C   UNL A   1      50.740  27.519  32.018  1.00  0.00     0.054 A 
BRANCH  90  91
ATOM     91  S   UNL A   1      52.473  27.238  32.472  1.00  0.00     0.124 S 
ATOM     92  O   UNL A   1      52.457  27.491  33.910  1.00  0.00    -0.237 OA
ATOM     93  O   UNL A   1      52.685  25.847  32.080  1.00  0.00    -0.237 OA
ATOM     94  O   UNL A   1      53.204  28.222  31.675  1.00  0.00    -0.744 OA
ENDBRANCH  90  91
ENDBRANCH  64  85
ENDBRANCH  38  39
ENDBRANCH  30  33
ENDBRANCH  28  29
ENDBRANCH  27  28
ENDBRANCH   1  27
TORSDOF 19
ENDMDL
MODEL 3
REMARK VINA RESULT:     -10.8      3.089      8.755
REMARK SMILES CC[C@@](C)(NC(=O)c1cccc2ccccc12)C(=O)NCCCCCCNC(=O)c1ccc(-c2c3nc(c(-c4ccc(S(=O)(=O)[O-])cc4)c4ccc([nH]4)c(-c4ccc(S(=O)(=O)[O-])cc4)c4nc(c(-c5ccc(S(=O)(=O)[O-])cc5)c5ccc2[nH]5)C=C4)C=C3)cc1
REMARK SMILES IDX 24 1 23 2 22 3 21 4 20 5 18 6 19 7 3 9 4 10 2 11 1 12 5 13
REMARK SMILES IDX 6 14 7 16 8 17 9 18 17 19 10 20 12 21 16 22 11 23 13 24
REMARK SMILES IDX 15 25 14 26 25 27 26 28 27 29 28 30 29 32 30 33 31 34 89 35
REMARK SMILES IDX 32 36 88 37 33 38 34 39 35 40 82 41 36 42 87 43 81 44 83 45
REMARK SMILES IDX 37 46 86 47 80 48 79 49 38 51 68 52 49 53 67 54 50 55 53 56
REMARK SMILES IDX 66 57 84 58 51 59 52 60 65 62 85 63 54 64 39 65 40 66 48 67
REMARK SMILES IDX 41 68 47 69 42 70 43 71 44 72 45 73 46 74 69 75 70 76 78 77
REMARK SMILES IDX 71 78 77 79 72 80 73 81 74 82 75 83 76 84 55 85 56 86 64 87
REMARK SMILES IDX 57 88 63 89 58 90 59 91 60 92 61 93 62 94
REMARK H PARENT 20 8 5 15 27 31 83 50 53 61
REMARK Flexibility Score: inf
ROOT
ATOM      1  C   UNL A   1      33.961  30.255  27.482  1.00  0.00     0.002 C 
ENDROOT
BRANCH   1   2
ATOM      2  C   UNL A   1      32.672  30.246  26.668  1.00  0.00     0.002 C 
BRANCH   2   3
ATOM      3  C   UNL A   1      32.710  29.484  25.343  1.00  0.00     0.021 C 
BRANCH   3   4
ATOM      4  C   UNL A   1      31.592  28.475  25.072  1.00  0.00     0.116 C 
BRANCH   4   5
ATOM      5  N   UNL A   1      31.248  28.240  23.680  1.00  0.00    -0.354 N 
ATOM      6  C   UNL A   1      31.403  27.164  22.847  1.00  0.00     0.245 C 
ATOM      7  O   UNL A   1      30.801  27.233  21.770  1.00  0.00    -0.272 OA
ATOM      8  H   UNL A   1      30.814  29.011  23.247  1.00  0.00     0.163 HD
BRANCH   6   9
ATOM      9  C   UNL A   1      32.221  25.894  23.249  1.00  0.00     0.116 C 
ATOM     10  C   UNL A   1      33.622  26.467  23.603  1.00  0.00     0.045 C 
BRANCH   9  11
ATOM     11  C   UNL A   1      31.700  25.135  24.505  1.00  0.00     0.035 C 
ATOM     12  C   UNL A   1      32.612  25.029  25.720  1.00  0.00     0.007 C 
ENDBRANCH   9  11
BRANCH   9  13
ATOM     13  N   UNL A   1      32.384  24.863  22.173  1.00  0.00    -0.338 N 
ATOM     14  C   UNL A   1      33.052  23.651  22.030  1.00  0.00     0.252 C 
ATOM     15  H   UNL A   1      31.892  25.106  21.356  1.00  0.00     0.164 HD
ATOM     16  O   UNL A   1      33.327  23.386  20.857  1.00  0.00    -0.269 OA
BRANCH  14  17
ATOM     17  C   UNL A   1      33.351  22.630  23.120  1.00  0.00     0.047 A 
ATOM     18  C   UNL A   1      32.422  21.631  23.404  1.00  0.00     0.014 A 
ATOM     19  C   UNL A   1      34.636  22.518  23.766  1.00  0.00    -0.006 A 
ATOM     20  C   UNL A   1      32.665  20.549  24.241  1.00  0.00     0.001 A 
ATOM     21  C   UNL A   1      34.876  21.390  24.618  1.00  0.00    -0.018 A 
ATOM     22  C   UNL A   1      35.728  23.415  23.634  1.00  0.00     0.009 A 
ATOM     23  C   UNL A   1      33.894  20.427  24.842  1.00  0.00     0.009 A 
ATOM     24  C   UNL A   1      36.113  21.188  25.242  1.00  0.00     0.009 A 
ATOM     25  C   UNL A   1      36.963  23.200  24.265  1.00  0.00     0.001 A 
ATOM     26  C   UNL A   1      37.157  22.084  25.064  1.00  0.00     0.001 A 
ENDBRANCH  14  17
ENDBRANCH   9  13
ENDBRANCH   6   9
ENDBRANCH   4   5
ENDBRANCH   3   4
ENDBRANCH   2   3
ENDBRANCH   1   2
BRANCH   1  27
ATOM     27  C   UNL A   1      34.592  31.630  27.674  1.00  0.00     0.021 C 
BRANCH  27  28
ATOM     28  C   UNL A   1      35.882  31.630  28.485  1.00  0.00     0.116 C 
BRANCH  28  29
ATOM     29  N   UNL A   1      35.714  31.002  29.788  1.00  0.00    -0.352 N 
ATOM     30  C   UNL A   1      36.604  30.211  30.476  1.00  0.00     0.251 C 
ATOM     31  H   UNL A   1      34.853  31.165  30.234  1.00  0.00     0.163 HD
ATOM     32  O   UNL A   1      36.248  29.589  31.472  1.00  0.00    -0.269 OA
BRANCH  30  33
ATOM     33  C   UNL A   1      37.992  30.102  29.982  1.00  0.00     0.039 A 
ATOM     34  C   UNL A   1      39.047  30.166  30.893  1.00  0.00     0.014 A 
ATOM     35  C   UNL A   1      38.238  29.880  28.624  1.00  0.00     0.014 A 
ATOM     36  C   UNL A   1      40.350  29.931  30.450  1.00  0.00     0.010 A 
ATOM     37  C   UNL A   1      39.525  29.565  28.201  1.00  0.00     0.010 A 
ATOM     38  C   UNL A   1      40.595  29.587  29.108  1.00  0.00    -0.014 A 
BRANCH  38  39
ATOM     39  C   UNL A   1      41.958  29.228  28.644  1.00  0.00     0.031 A 
ATOM     40  C   UNL A   1      42.266  27.822  28.209  1.00  0.00     0.074 A 
ATOM     41  C   UNL A   1      42.937  30.154  28.679  1.00  0.00     0.049 A 
ATOM     42  N   UNL A   1      43.403  27.315  27.806  1.00  0.00    -0.248 NA
ATOM     43  C   UNL A   1      41.159  26.854  28.257  1.00  0.00     0.031 C 
ATOM     44  C   UNL A   1      42.778  31.537  29.135  1.00  0.00     0.029 A 
ATOM     45  N   UNL A   1      44.263  30.069  28.332  1.00  0.00    -0.354 N 
ATOM     46  C   UNL A   1      43.151  25.971  27.562  1.00  0.00     0.074 A 
ATOM     47  C   UNL A   1      41.771  25.728  27.924  1.00  0.00     0.031 C 
ATOM     48  C   UNL A   1      43.952  32.176  29.015  1.00  0.00     0.029 A 
ATOM     49  C   UNL A   1      44.956  31.242  28.517  1.00  0.00     0.049 A 
ATOM     50  H   UNL A   1      44.677  29.247  27.985  1.00  0.00     0.167 HD
ATOM     51  C   UNL A   1      43.983  25.026  27.061  1.00  0.00     0.031 A 
ATOM     52  C   UNL A   1      46.257  31.534  28.318  1.00  0.00     0.031 A 
ATOM     53  C   UNL A   1      45.359  25.270  26.716  1.00  0.00     0.049 A 
ATOM     54  C   UNL A   1      47.171  30.470  27.780  1.00  0.00     0.074 A 
ATOM     55  C   UNL A   1      46.275  24.397  26.155  1.00  0.00     0.029 A 
ATOM     56  N   UNL A   1      46.024  26.473  26.912  1.00  0.00    -0.354 N 
ATOM     57  N   UNL A   1      46.894  29.223  27.477  1.00  0.00    -0.248 NA
ATOM     58  C   UNL A   1      48.570  30.852  27.546  1.00  0.00     0.031 C 
ATOM     59  C   UNL A   1      47.508  25.053  26.071  1.00  0.00     0.029 A 
ATOM     60  C   UNL A   1      47.345  26.356  26.516  1.00  0.00     0.049 A 
ATOM     61  H   UNL A   1      45.615  27.290  27.279  1.00  0.00     0.167 HD
ATOM     62  C   UNL A   1      48.081  28.676  27.001  1.00  0.00     0.074 A 
ATOM     63  C   UNL A   1      49.071  29.734  27.037  1.00  0.00     0.031 C 
ATOM     64  C   UNL A   1      48.327  27.412  26.575  1.00  0.00     0.031 A 
BRANCH  51  65
ATOM     65  C   UNL A   1      43.420  23.639  26.877  1.00  0.00    -0.014 A 
ATOM     66  C   UNL A   1      43.167  22.803  27.981  1.00  0.00     0.010 A 
ATOM     67  C   UNL A   1      43.141  23.161  25.584  1.00  0.00     0.010 A 
ATOM     68  C   UNL A   1      42.709  21.496  27.792  1.00  0.00     0.020 A 
ATOM     69  C   UNL A   1      42.649  21.866  25.392  1.00  0.00     0.020 A 
ATOM     70  C   UNL A   1      42.462  21.033  26.497  1.00  0.00     0.054 A 
BRANCH  70  71
ATOM     71  S   UNL A   1      41.885  19.328  26.281  1.00  0.00     0.124 S 
ATOM     72  O   UNL A   1      42.326  18.701  27.525  1.00  0.00    -0.237 OA
ATOM     73  O   UNL A   1      40.440  19.494  26.140  1.00  0.00    -0.237 OA
ATOM     74  O   UNL A   1      42.577  18.876  25.077  1.00  0.00    -0.744 OA
ENDBRANCH  70  71
ENDBRANCH  51  65
BRANCH  52  75
ATOM     75  C   UNL A   1      46.754  32.902  28.629  1.00  0.00    -0.014 A 
ATOM     76  C   UNL A   1      46.743  33.911  27.650  1.00  0.00     0.010 A 
ATOM     77  C   UNL A   1      47.189  33.218  29.930  1.00  0.00     0.010 A 
ATOM     78  C   UNL A   1      47.154  35.210  27.968  1.00  0.00     0.020 A 
ATOM     79  C   UNL A   1      47.573  34.520  30.259  1.00  0.00     0.020 A 
ATOM     80  C   UNL A   1      47.555  35.509  29.273  1.00  0.00     0.054 A 
BRANCH  80  81
ATOM     81  S   UNL A   1      47.993  37.221  29.685  1.00  0.00     0.124 S 
ATOM     82  O   UNL A   1      47.704  37.918  28.436  1.00  0.00    -0.237 OA
ATOM     83  O   UNL A   1      47.094  37.514  30.799  1.00  0.00    -0.237 OA
ATOM     84  O   UNL A   1      49.407  37.136  30.043  1.00  0.00    -0.744 OA
ENDBRANCH  80  81
ENDBRANCH  52  75
BRANCH  64  85
ATOM     85  C   UNL A   1      49.723  27.101  26.102  1.00  0.00    -0.014 A 
ATOM     86  C   UNL A   1      50.727  26.707  27.004  1.00  0.00     0.010 A 
ATOM     87  C   UNL A   1      50.019  27.150  24.728  1.00  0.00     0.010 A 
ATOM     88  C   UNL A   1      52.010  26.397  26.543  1.00  0.00     0.020 A 
ATOM     89  C   UNL A   1      51.291  26.812  24.259  1.00  0.00     0.020 A 
ATOM     90  C   UNL A   1      52.283  26.450  25.172  1.00  0.00     0.054 A 
BRANCH  90  91
ATOM     91  S   UNL A   1      53.943  26.000  24.597  1.00  0.00     0.124 S 
ATOM     92  O   UNL A   1      53.952  24.553  24.795  1.00  0.00    -0.237 OA
ATOM     93  O   UNL A   1      53.931  26.444  23.206  1.00  0.00    -0.237 OA
ATOM     94  O   UNL A   1      54.832  26.754  25.479  1.00  0.00    -0.744 OA
ENDBRANCH  90  91
ENDBRANCH  64  85
ENDBRANCH  38  39
ENDBRANCH  30  33
ENDBRANCH  28  29
ENDBRANCH  27  28
ENDBRANCH   1  27
TORSDOF 19
ENDMDL
