MODEL 1
REMARK VINA RESULT:     -11.1      0.000      0.000
REMARK SMILES O=C(/C=C/c1ccc(O)cc1)NC[C@@H]1CC[C@H](C(=O)NCCCCCCNC(=O)c2ccc(-c3c4nc(c(-c5ccc(S(=O)(=O)[O-])cc5)c5ccc([nH]5)c(-c5ccc(S(=O)(=O)[O-])cc5)c5nc(c(-c6ccc(S(=O)(=O)[O-])cc6)c6ccc3[nH]6)C=C5)C=C4)cc2)O1
REMARK SMILES IDX 22 1 21 2 20 3 18 4 19 5 17 7 14 8 15 9 90 10 16 11 13 12
REMARK SMILES IDX 12 13 1 14 2 15 3 17 4 18 5 19 6 20 11 21 7 22 10 23 8 24
REMARK SMILES IDX 9 25 23 27 24 28 25 29 26 30 27 31 28 32 29 34 30 35 31 36
REMARK SMILES IDX 89 37 32 38 88 39 33 40 34 41 35 42 82 43 36 44 87 45 81 46
REMARK SMILES IDX 83 47 37 48 86 49 80 50 79 51 38 53 68 54 49 55 67 56 50 57
REMARK SMILES IDX 53 58 66 59 84 60 51 61 52 62 65 64 85 65 54 66 39 67 40 68
REMARK SMILES IDX 48 69 41 70 47 71 42 72 43 73 44 74 45 75 46 76 69 77 70 78
REMARK SMILES IDX 78 79 71 80 77 81 72 82 73 83 74 84 75 85 76 86 55 87 56 88
REMARK SMILES IDX 64 89 57 90 63 91 58 92 59 93 60 94 61 95 62 96
REMARK H PARENT 20 6 12 16 9 26 27 33 83 52 53 63
REMARK Flexibility Score: inf
ROOT
ATOM      1  C   UNL A   1      35.933  23.975  25.250  1.00  0.00     0.021 C 
ENDROOT
BRANCH   1   2
ATOM      2  C   UNL A   1      34.523  24.451  24.911  1.00  0.00     0.116 C 
BRANCH   2   3
ATOM      3  N   UNL A   1      34.412  24.828  23.520  1.00  0.00    -0.354 N 
ATOM      4  C   UNL A   1      33.603  25.760  22.941  1.00  0.00     0.249 C 
ATOM      5  O   UNL A   1      33.652  25.878  21.712  1.00  0.00    -0.272 OA
ATOM      6  H   UNL A   1      35.006  24.344  22.902  1.00  0.00     0.163 HD
BRANCH   4   7
ATOM      7  C   UNL A   1      32.627  26.620  23.776  1.00  0.00     0.207 C 
ATOM      8  C   UNL A   1      30.773  26.269  25.156  1.00  0.00     0.138 C 
ATOM      9  C   UNL A   1      30.217  26.528  23.765  1.00  0.00     0.037 C 
ATOM     10  O   UNL A   1      32.179  26.009  24.987  1.00  0.00    -0.363 OA
ATOM     11  C   UNL A   1      31.400  27.088  23.004  1.00  0.00     0.045 C 
BRANCH   8  12
ATOM     12  C   UNL A   1      30.145  25.089  25.912  1.00  0.00     0.148 C 
BRANCH  12  13
ATOM     13  N   UNL A   1      30.475  23.792  25.363  1.00  0.00    -0.350 N 
ATOM     14  O   UNL A   1      31.900  23.177  27.057  1.00  0.00    -0.270 OA
ATOM     15  C   UNL A   1      31.340  22.932  25.995  1.00  0.00     0.244 C 
ATOM     16  H   UNL A   1      30.066  23.517  24.511  1.00  0.00     0.163 HD
BRANCH  15  17
ATOM     17  C   UNL A   1      31.548  21.625  25.318  1.00  0.00     0.072 C 
ATOM     18  C   UNL A   1      32.762  21.175  24.967  1.00  0.00     0.014 C 
BRANCH  18  19
ATOM     19  C   UNL A   1      33.045  19.858  24.379  1.00  0.00    -0.025 A 
ATOM     20  C   UNL A   1      32.273  19.285  23.361  1.00  0.00     0.012 A 
ATOM     21  C   UNL A   1      34.186  19.177  24.828  1.00  0.00     0.012 A 
ATOM     22  C   UNL A   1      32.624  18.045  22.815  1.00  0.00     0.047 A 
ATOM     23  C   UNL A   1      34.539  17.941  24.284  1.00  0.00     0.047 A 
ATOM     24  C   UNL A   1      33.756  17.384  23.284  1.00  0.00     0.115 A 
BRANCH  24  25
ATOM     25  O   UNL A   1      34.141  16.178  22.778  1.00  0.00    -0.508 OA
ATOM     26  H   UNL A   1      35.039  16.029  22.555  1.00  0.00     0.293 HD
ENDBRANCH  24  25
ENDBRANCH  18  19
ENDBRANCH  15  17
ENDBRANCH  12  13
ENDBRANCH   8  12
ENDBRANCH   4   7
ENDBRANCH   2   3
ENDBRANCH   1   2
BRANCH   1  27
ATOM     27  C   UNL A   1      36.036  22.455  25.403  1.00  0.00     0.002 C 
BRANCH  27  28
ATOM     28  C   UNL A   1      36.915  21.764  24.352  1.00  0.00     0.002 C 
BRANCH  28  29
ATOM     29  C   UNL A   1      37.672  20.529  24.851  1.00  0.00     0.021 C 
BRANCH  29  30
ATOM     30  C   UNL A   1      38.761  20.838  25.873  1.00  0.00     0.116 C 
BRANCH  30  31
ATOM     31  N   UNL A   1      39.757  19.776  25.931  1.00  0.00    -0.352 N 
ATOM     32  C   UNL A   1      41.114  19.885  26.106  1.00  0.00     0.251 C 
ATOM     33  H   UNL A   1      39.412  18.860  25.831  1.00  0.00     0.163 HD
ATOM     34  O   UNL A   1      41.849  18.923  25.905  1.00  0.00    -0.269 OA
BRANCH  32  35
ATOM     35  C   UNL A   1      41.676  21.180  26.535  1.00  0.00     0.039 A 
ATOM     36  C   UNL A   1      42.009  21.378  27.877  1.00  0.00     0.014 A 
ATOM     37  C   UNL A   1      41.891  22.189  25.593  1.00  0.00     0.014 A 
ATOM     38  C   UNL A   1      42.616  22.574  28.266  1.00  0.00     0.010 A 
ATOM     39  C   UNL A   1      42.556  23.349  25.969  1.00  0.00     0.010 A 
ATOM     40  C   UNL A   1      42.919  23.556  27.310  1.00  0.00    -0.014 A 
BRANCH  40  41
ATOM     41  C   UNL A   1      43.589  24.831  27.670  1.00  0.00     0.031 A 
ATOM     42  C   UNL A   1      42.763  25.970  28.204  1.00  0.00     0.074 A 
ATOM     43  C   UNL A   1      44.904  24.999  27.420  1.00  0.00     0.049 A 
ATOM     44  N   UNL A   1      43.108  27.213  28.411  1.00  0.00    -0.248 NA
ATOM     45  C   UNL A   1      41.351  25.678  28.514  1.00  0.00     0.031 C 
ATOM     46  C   UNL A   1      45.806  23.977  26.884  1.00  0.00     0.029 A 
ATOM     47  N   UNL A   1      45.705  26.105  27.564  1.00  0.00    -0.354 N 
ATOM     48  C   UNL A   1      41.951  27.859  28.834  1.00  0.00     0.074 A 
ATOM     49  C   UNL A   1      40.888  26.880  28.828  1.00  0.00     0.031 C 
ATOM     50  C   UNL A   1      47.037  24.501  26.753  1.00  0.00     0.029 A 
ATOM     51  C   UNL A   1      47.001  25.907  27.144  1.00  0.00     0.049 A 
ATOM     52  H   UNL A   1      45.384  26.959  27.932  1.00  0.00     0.167 HD
ATOM     53  C   UNL A   1      41.794  29.151  29.203  1.00  0.00     0.031 A 
ATOM     54  C   UNL A   1      48.036  26.767  27.062  1.00  0.00     0.031 A 
ATOM     55  C   UNL A   1      42.866  30.109  29.245  1.00  0.00     0.049 A 
ATOM     56  C   UNL A   1      47.830  28.202  27.479  1.00  0.00     0.074 A 
ATOM     57  C   UNL A   1      42.822  31.424  29.673  1.00  0.00     0.029 A 
ATOM     58  N   UNL A   1      44.169  29.855  28.850  1.00  0.00    -0.354 N 
ATOM     59  N   UNL A   1      46.743  28.781  27.927  1.00  0.00    -0.248 NA
ATOM     60  C   UNL A   1      48.991  29.098  27.383  1.00  0.00     0.031 C 
ATOM     61  C   UNL A   1      44.090  31.982  29.490  1.00  0.00     0.029 A 
ATOM     62  C   UNL A   1      44.936  30.995  29.008  1.00  0.00     0.049 A 
ATOM     63  H   UNL A   1      44.501  28.993  28.510  1.00  0.00     0.167 HD
ATOM     64  C   UNL A   1      47.103  30.093  28.215  1.00  0.00     0.074 A 
ATOM     65  C   UNL A   1      48.506  30.225  27.887  1.00  0.00     0.031 C 
ATOM     66  C   UNL A   1      46.341  31.097  28.711  1.00  0.00     0.031 A 
BRANCH  53  67
ATOM     67  C   UNL A   1      40.418  29.618  29.592  1.00  0.00    -0.014 A 
ATOM     68  C   UNL A   1      40.103  29.926  30.926  1.00  0.00     0.010 A 
ATOM     69  C   UNL A   1      39.453  29.835  28.591  1.00  0.00     0.010 A 
ATOM     70  C   UNL A   1      38.841  30.428  31.256  1.00  0.00     0.020 A 
ATOM     71  C   UNL A   1      38.200  30.363  28.913  1.00  0.00     0.020 A 
ATOM     72  C   UNL A   1      37.899  30.649  30.246  1.00  0.00     0.054 A 
BRANCH  72  73
ATOM     73  S   UNL A   1      36.296  31.367  30.696  1.00  0.00     0.124 S 
ATOM     74  O   UNL A   1      35.814  30.422  31.701  1.00  0.00    -0.237 OA
ATOM     75  O   UNL A   1      36.667  32.686  31.200  1.00  0.00    -0.237 OA
ATOM     76  O   UNL A   1      35.552  31.370  29.438  1.00  0.00    -0.744 OA
ENDBRANCH  72  73
ENDBRANCH  53  67
BRANCH  54  77
ATOM     77  C   UNL A   1      49.360  26.313  26.553  1.00  0.00    -0.014 A 
ATOM     78  C   UNL A   1      50.262  25.650  27.405  1.00  0.00     0.010 A 
ATOM     79  C   UNL A   1      49.744  26.576  25.225  1.00  0.00     0.010 A 
ATOM     80  C   UNL A   1      51.540  25.304  26.955  1.00  0.00     0.020 A 
ATOM     81  C   UNL A   1      51.009  26.202  24.762  1.00  0.00     0.020 A 
ATOM     82  C   UNL A   1      51.906  25.589  25.638  1.00  0.00     0.054 A 
BRANCH  82  83
ATOM     83  S   UNL A   1      53.573  25.142  25.076  1.00  0.00     0.124 S 
ATOM     84  O   UNL A   1      54.414  25.902  25.993  1.00  0.00    -0.237 OA
ATOM     85  O   UNL A   1      53.589  23.692  25.253  1.00  0.00    -0.237 OA
ATOM     86  O   UNL A   1      53.595  25.594  23.685  1.00  0.00    -0.744 OA
ENDBRANCH  82  83
ENDBRANCH  54  77
BRANCH  66  87
ATOM     87  C   UNL A   1      47.011  32.410  29.011  1.00  0.00    -0.014 A 
ATOM     88  C   UNL A   1      47.040  33.452  28.069  1.00  0.00     0.010 A 
ATOM     89  C   UNL A   1      47.521  32.636  30.304  1.00  0.00     0.010 A 
ATOM     90  C   UNL A   1      47.579  34.695  28.412  1.00  0.00     0.020 A 
ATOM     91  C   UNL A   1      48.033  33.885  30.658  1.00  0.00     0.020 A 
ATOM     92  C   UNL A   1      48.064  34.905  29.707  1.00  0.00     0.054 A 
BRANCH  92  93
ATOM     93  S   UNL A   1      48.676  36.554  30.152  1.00  0.00     0.124 S 
ATOM     94  O   UNL A   1      50.018  36.545  29.577  1.00  0.00    -0.237 OA
ATOM     95  O   UNL A   1      47.717  37.439  29.495  1.00  0.00    -0.237 OA
ATOM     96  O   UNL A   1      48.624  36.561  31.612  1.00  0.00    -0.744 OA
ENDBRANCH  92  93
ENDBRANCH  66  87
ENDBRANCH  40  41
ENDBRANCH  32  35
ENDBRANCH  30  31
ENDBRANCH  29  30
ENDBRANCH  28  29
ENDBRANCH  27  28
ENDBRANCH   1  27
TORSDOF 21
ENDMDL
MODEL 2
REMARK VINA RESULT:     -10.9      2.692      8.392
REMARK SMILES O=C(/C=C/c1ccc(O)cc1)NC[C@@H]1CC[C@H](C(=O)NCCCCCCNC(=O)c2ccc(-c3c4nc(c(-c5ccc(S(=O)(=O)[O-])cc5)c5ccc([nH]5)c(-c5ccc(S(=O)(=O)[O-])cc5)c5nc(c(-c6ccc(S(=O)(=O)[O-])cc6)c6ccc3[nH]6)C=C5)C=C4)cc2)O1
REMARK SMILES IDX 22 1 21 2 20 3 18 4 19 5 17 7 14 8 15 9 90 10 16 11 13 12
REMARK SMILES IDX 12 13 1 14 2 15 3 17 4 18 5 19 6 20 11 21 7 22 10 23 8 24
REMARK SMILES IDX 9 25 23 27 24 28 25 29 26 30 27 31 28 32 29 34 30 35 31 36
REMARK SMILES IDX 89 37 32 38 88 39 33 40 34 41 35 42 82 43 36 44 87 45 81 46
REMARK SMILES IDX 83 47 37 48 86 49 80 50 79 51 38 53 68 54 49 55 67 56 50 57
REMARK SMILES IDX 53 58 66 59 84 60 51 61 52 62 65 64 85 65 54 66 39 67 40 68
REMARK SMILES IDX 48 69 41 70 47 71 42 72 43 73 44 74 45 75 46 76 69 77 70 78
REMARK SMILES IDX 78 79 71 80 77 81 72 82 73 83 74 84 75 85 76 86 55 87 56 88
REMARK SMILES IDX 64 89 57 90 63 91 58 92 59 93 60 94 61 95 62 96
REMARK H PARENT 20 6 12 16 9 26 27 33 83 52 53 63
REMARK Flexibility Score: inf
ROOT
ATOM      1  C   UNL A   1      33.466  30.967  27.277  1.00  0.00     0.021 C 
ENDROOT
BRANCH   1   2
ATOM      2  C   UNL A   1      33.395  29.519  26.801  1.00  0.00     0.116 C 
BRANCH   2   3
ATOM      3  N   UNL A   1      33.659  29.414  25.383  1.00  0.00    -0.354 N 
ATOM      4  C   UNL A   1      32.795  29.150  24.362  1.00  0.00     0.249 C 
ATOM      5  O   UNL A   1      33.265  29.065  23.222  1.00  0.00    -0.272 OA
ATOM      6  H   UNL A   1      34.596  29.554  25.117  1.00  0.00     0.163 HD
BRANCH   4   7
ATOM      7  C   UNL A   1      31.286  28.926  24.611  1.00  0.00     0.207 C 
ATOM      8  C   UNL A   1      29.685  27.297  24.117  1.00  0.00     0.138 C 
ATOM      9  C   UNL A   1      29.609  28.315  22.989  1.00  0.00     0.037 C 
ATOM     10  O   UNL A   1      30.912  27.563  24.820  1.00  0.00    -0.363 OA
ATOM     11  C   UNL A   1      30.389  29.499  23.523  1.00  0.00     0.045 C 
BRANCH   8  12
ATOM     12  C   UNL A   1      29.680  25.825  23.681  1.00  0.00     0.148 C 
BRANCH  12  13
ATOM     13  N   UNL A   1      30.975  25.184  23.747  1.00  0.00    -0.350 N 
ATOM     14  O   UNL A   1      31.697  25.905  21.689  1.00  0.00    -0.270 OA
ATOM     15  C   UNL A   1      31.889  25.281  22.725  1.00  0.00     0.244 C 
ATOM     16  H   UNL A   1      31.208  24.663  24.548  1.00  0.00     0.163 HD
BRANCH  15  17
ATOM     17  C   UNL A   1      33.185  24.594  22.962  1.00  0.00     0.072 C 
ATOM     18  C   UNL A   1      33.934  24.812  24.053  1.00  0.00     0.014 C 
BRANCH  18  19
ATOM     19  C   UNL A   1      35.175  24.103  24.391  1.00  0.00    -0.025 A 
ATOM     20  C   UNL A   1      35.877  24.299  25.587  1.00  0.00     0.012 A 
ATOM     21  C   UNL A   1      35.638  23.135  23.487  1.00  0.00     0.012 A 
ATOM     22  C   UNL A   1      37.030  23.557  25.865  1.00  0.00     0.047 A 
ATOM     23  C   UNL A   1      36.787  22.393  23.763  1.00  0.00     0.047 A 
ATOM     24  C   UNL A   1      37.475  22.610  24.948  1.00  0.00     0.115 A 
BRANCH  24  25
ATOM     25  O   UNL A   1      38.589  21.859  25.178  1.00  0.00    -0.508 OA
ATOM     26  H   UNL A   1      39.207  22.125  25.830  1.00  0.00     0.293 HD
ENDBRANCH  24  25
ENDBRANCH  18  19
ENDBRANCH  15  17
ENDBRANCH  12  13
ENDBRANCH   8  12
ENDBRANCH   4   7
ENDBRANCH   2   3
ENDBRANCH   1   2
BRANCH   1  27
ATOM     27  C   UNL A   1      34.886  31.416  27.633  1.00  0.00     0.002 C 
BRANCH  27  28
ATOM     28  C   UNL A   1      34.964  32.744  28.397  1.00  0.00     0.002 C 
BRANCH  28  29
ATOM     29  C   UNL A   1      36.371  33.336  28.525  1.00  0.00     0.021 C 
BRANCH  29  30
ATOM     30  C   UNL A   1      36.943  33.283  29.938  1.00  0.00     0.116 C 
BRANCH  30  31
ATOM     31  N   UNL A   1      36.337  32.213  30.720  1.00  0.00    -0.352 N 
ATOM     32  C   UNL A   1      36.780  30.925  30.895  1.00  0.00     0.251 C 
ATOM     33  H   UNL A   1      35.501  32.443  31.184  1.00  0.00     0.163 HD
ATOM     34  O   UNL A   1      36.048  30.075  31.393  1.00  0.00    -0.269 OA
BRANCH  32  35
ATOM     35  C   UNL A   1      38.149  30.578  30.469  1.00  0.00     0.039 A 
ATOM     36  C   UNL A   1      39.166  30.485  31.422  1.00  0.00     0.014 A 
ATOM     37  C   UNL A   1      38.413  30.323  29.120  1.00  0.00     0.014 A 
ATOM     38  C   UNL A   1      40.442  30.076  31.028  1.00  0.00     0.010 A 
ATOM     39  C   UNL A   1      39.663  29.852  28.743  1.00  0.00     0.010 A 
ATOM     40  C   UNL A   1      40.692  29.730  29.691  1.00  0.00    -0.014 A 
BRANCH  40  41
ATOM     41  C   UNL A   1      42.024  29.263  29.230  1.00  0.00     0.031 A 
ATOM     42  C   UNL A   1      43.145  30.259  29.095  1.00  0.00     0.074 A 
ATOM     43  C   UNL A   1      42.195  27.985  28.836  1.00  0.00     0.049 A 
ATOM     44  N   UNL A   1      44.322  30.106  28.549  1.00  0.00    -0.248 NA
ATOM     45  C   UNL A   1      42.894  31.616  29.614  1.00  0.00     0.031 C 
ATOM     46  C   UNL A   1      41.178  26.932  28.899  1.00  0.00     0.029 A 
ATOM     47  N   UNL A   1      43.284  27.360  28.281  1.00  0.00    -0.354 N 
ATOM     48  C   UNL A   1      44.934  31.353  28.620  1.00  0.00     0.074 A 
ATOM     49  C   UNL A   1      43.991  32.258  29.237  1.00  0.00     0.031 C 
ATOM     50  C   UNL A   1      41.696  25.791  28.411  1.00  0.00     0.029 A 
ATOM     51  C   UNL A   1      43.058  26.043  27.953  1.00  0.00     0.049 A 
ATOM     52  H   UNL A   1      44.146  27.811  28.132  1.00  0.00     0.167 HD
ATOM     53  C   UNL A   1      46.176  31.707  28.216  1.00  0.00     0.031 A 
ATOM     54  C   UNL A   1      43.851  25.147  27.331  1.00  0.00     0.031 A 
ATOM     55  C   UNL A   1      47.123  30.791  27.640  1.00  0.00     0.049 A 
ATOM     56  C   UNL A   1      45.230  25.571  26.890  1.00  0.00     0.074 A 
ATOM     57  C   UNL A   1      48.432  31.037  27.264  1.00  0.00     0.029 A 
ATOM     58  N   UNL A   1      46.867  29.458  27.363  1.00  0.00    -0.354 N 
ATOM     59  N   UNL A   1      45.811  26.739  27.016  1.00  0.00    -0.248 NA
ATOM     60  C   UNL A   1      46.061  24.555  26.229  1.00  0.00     0.031 C 
ATOM     61  C   UNL A   1      48.952  29.864  26.711  1.00  0.00     0.029 A 
ATOM     62  C   UNL A   1      47.987  28.873  26.802  1.00  0.00     0.049 A 
ATOM     63  H   UNL A   1      46.015  28.996  27.539  1.00  0.00     0.167 HD
ATOM     64  C   UNL A   1      47.091  26.584  26.496  1.00  0.00     0.074 A 
ATOM     65  C   UNL A   1      47.200  25.211  26.051  1.00  0.00     0.031 C 
ATOM     66  C   UNL A   1      48.090  27.495  26.400  1.00  0.00     0.031 A 
BRANCH  53  67
ATOM     67  C   UNL A   1      46.593  33.143  28.375  1.00  0.00    -0.014 A 
ATOM     68  C   UNL A   1      46.389  34.080  27.347  1.00  0.00     0.010 A 
ATOM     69  C   UNL A   1      47.116  33.580  29.606  1.00  0.00     0.010 A 
ATOM     70  C   UNL A   1      46.716  35.425  27.541  1.00  0.00     0.020 A 
ATOM     71  C   UNL A   1      47.418  34.928  29.814  1.00  0.00     0.020 A 
ATOM     72  C   UNL A   1      47.223  35.841  28.776  1.00  0.00     0.054 A 
BRANCH  72  73
ATOM     73  S   UNL A   1      47.572  37.604  29.022  1.00  0.00     0.124 S 
ATOM     74  O   UNL A   1      47.343  38.146  27.685  1.00  0.00    -0.237 OA
ATOM     75  O   UNL A   1      46.589  37.986  30.032  1.00  0.00    -0.237 OA
ATOM     76  O   UNL A   1      48.962  37.623  29.471  1.00  0.00    -0.744 OA
ENDBRANCH  72  73
ENDBRANCH  53  67
BRANCH  54  77
ATOM     77  C   UNL A   1      43.369  23.762  27.069  1.00  0.00    -0.014 A 
ATOM     78  C   UNL A   1      42.763  23.437  25.842  1.00  0.00     0.010 A 
ATOM     79  C   UNL A   1      43.478  22.769  28.060  1.00  0.00     0.010 A 
ATOM     80  C   UNL A   1      42.230  22.162  25.629  1.00  0.00     0.020 A 
ATOM     81  C   UNL A   1      42.975  21.484  27.838  1.00  0.00     0.020 A 
ATOM     82  C   UNL A   1      42.333  21.196  26.632  1.00  0.00     0.054 A 
BRANCH  82  83
ATOM     83  S   UNL A   1      41.625  19.551  26.341  1.00  0.00     0.124 S 
ATOM     84  O   UNL A   1      42.421  19.076  25.214  1.00  0.00    -0.237 OA
ATOM     85  O   UNL A   1      41.861  18.874  27.614  1.00  0.00    -0.237 OA
ATOM     86  O   UNL A   1      40.222  19.833  26.042  1.00  0.00    -0.744 OA
ENDBRANCH  82  83
ENDBRANCH  54  77
BRANCH  66  87
ATOM     87  C   UNL A   1      49.419  27.033  25.868  1.00  0.00    -0.014 A 
ATOM     88  C   UNL A   1      49.780  27.228  24.525  1.00  0.00     0.010 A 
ATOM     89  C   UNL A   1      50.362  26.493  26.765  1.00  0.00     0.010 A 
ATOM     90  C   UNL A   1      51.060  26.882  24.085  1.00  0.00     0.020 A 
ATOM     91  C   UNL A   1      51.650  26.173  26.334  1.00  0.00     0.020 A 
ATOM     92  C   UNL A   1      51.989  26.365  24.994  1.00  0.00     0.054 A 
BRANCH  92  93
ATOM     93  S   UNL A   1      53.670  26.007  24.415  1.00  0.00     0.124 S 
ATOM     94  O   UNL A   1      53.535  26.169  22.970  1.00  0.00    -0.237 OA
ATOM     95  O   UNL A   1      54.465  27.030  25.090  1.00  0.00    -0.237 OA
ATOM     96  O   UNL A   1      53.910  24.639  24.868  1.00  0.00    -0.744 OA
ENDBRANCH  92  93
ENDBRANCH  66  87
ENDBRANCH  40  41
ENDBRANCH  32  35
ENDBRANCH  30  31
ENDBRANCH  29  30
ENDBRANCH  28  29
ENDBRANCH  27  28
ENDBRANCH   1  27
TORSDOF 21
ENDMDL
MODEL 3
REMARK VINA RESULT:     -10.8      5.729      8.880
REMARK SMILES O=C(/C=C/c1ccc(O)cc1)NC[C@@H]1CC[C@H](C(=O)NCCCCCCNC(=O)c2ccc(-c3c4nc(c(-c5ccc(S(=O)(=O)[O-])cc5)c5ccc([nH]5)c(-c5ccc(S(=O)(=O)[O-])cc5)c5nc(c(-c6ccc(S(=O)(=O)[O-])cc6)c6ccc3[nH]6)C=C5)C=C4)cc2)O1
REMARK SMILES IDX 22 1 21 2 20 3 18 4 19 5 17 7 14 8 15 9 90 10 16 11 13 12
REMARK SMILES IDX 12 13 1 14 2 15 3 17 4 18 5 19 6 20 11 21 7 22 10 23 8 24
REMARK SMILES IDX 9 25 23 27 24 28 25 29 26 30 27 31 28 32 29 34 30 35 31 36
REMARK SMILES IDX 89 37 32 38 88 39 33 40 34 41 35 42 82 43 36 44 87 45 81 46
REMARK SMILES IDX 83 47 37 48 86 49 80 50 79 51 38 53 68 54 49 55 67 56 50 57
REMARK SMILES IDX 53 58 66 59 84 60 51 61 52 62 65 64 85 65 54 66 39 67 40 68
REMARK SMILES IDX 48 69 41 70 47 71 42 72 43 73 44 74 45 75 46 76 69 77 70 78
REMARK SMILES IDX 78 79 71 80 77 81 72 82 73 83 74 84 75 85 76 86 55 87 56 88
REMARK SMILES IDX 64 89 57 90 63 91 58 92 59 93 60 94 61 95 62 96
REMARK H PARENT 20 6 12 16 9 26 27 33 83 52 53 63
REMARK Flexibility Score: inf
ROOT
ATOM      1  C   UNL A   1      36.497  21.756  24.398  1.00  0.00     0.021 C 
ENDROOT
BRANCH   1   2
ATOM      2  C   UNL A   1      35.218  21.429  25.164  1.00  0.00     0.116 C 
BRANCH   2   3
ATOM      3  N   UNL A   1      34.862  20.035  25.028  1.00  0.00    -0.354 N 
ATOM      4  C   UNL A   1      33.688  19.482  24.608  1.00  0.00     0.249 C 
ATOM      5  O   UNL A   1      33.600  18.249  24.618  1.00  0.00    -0.272 OA
ATOM      6  H   UNL A   1      35.566  19.393  25.272  1.00  0.00     0.163 HD
BRANCH   4   7
ATOM      7  C   UNL A   1      32.489  20.354  24.170  1.00  0.00     0.207 C 
ATOM      8  C   UNL A   1      32.151  22.468  23.232  1.00  0.00     0.138 C 
ATOM      9  C   UNL A   1      32.069  22.660  24.738  1.00  0.00     0.037 C 
ATOM     10  O   UNL A   1      32.731  21.167  23.021  1.00  0.00    -0.363 OA
ATOM     11  C   UNL A   1      31.940  21.248  25.272  1.00  0.00     0.045 C 
BRANCH   8  12
ATOM     12  C   UNL A   1      32.991  23.507  22.476  1.00  0.00     0.148 C 
BRANCH  12  13
ATOM     13  N   UNL A   1      33.043  24.803  23.114  1.00  0.00    -0.350 N 
ATOM     14  O   UNL A   1      33.520  25.985  21.203  1.00  0.00    -0.270 OA
ATOM     15  C   UNL A   1      33.308  25.952  22.409  1.00  0.00     0.244 C 
ATOM     16  H   UNL A   1      32.882  24.864  24.083  1.00  0.00     0.163 HD
BRANCH  15  17
ATOM     17  C   UNL A   1      33.292  27.208  23.205  1.00  0.00     0.072 C 
ATOM     18  C   UNL A   1      33.157  27.218  24.540  1.00  0.00     0.014 C 
BRANCH  18  19
ATOM     19  C   UNL A   1      33.224  28.412  25.393  1.00  0.00    -0.025 A 
ATOM     20  C   UNL A   1      32.253  29.423  25.385  1.00  0.00     0.012 A 
ATOM     21  C   UNL A   1      34.288  28.504  26.303  1.00  0.00     0.012 A 
ATOM     22  C   UNL A   1      32.356  30.513  26.256  1.00  0.00     0.047 A 
ATOM     23  C   UNL A   1      34.391  29.590  27.173  1.00  0.00     0.047 A 
ATOM     24  C   UNL A   1      33.426  30.586  27.143  1.00  0.00     0.115 A 
BRANCH  24  25
ATOM     25  O   UNL A   1      33.563  31.625  28.014  1.00  0.00    -0.508 OA
ATOM     26  H   UNL A   1      33.149  32.446  27.834  1.00  0.00     0.293 HD
ENDBRANCH  24  25
ENDBRANCH  18  19
ENDBRANCH  15  17
ENDBRANCH  12  13
ENDBRANCH   8  12
ENDBRANCH   4   7
ENDBRANCH   2   3
ENDBRANCH   1   2
BRANCH   1  27
ATOM     27  C   UNL A   1      37.769  21.334  25.139  1.00  0.00     0.002 C 
BRANCH  27  28
ATOM     28  C   UNL A   1      38.340  22.397  26.088  1.00  0.00     0.002 C 
BRANCH  28  29
ATOM     29  C   UNL A   1      39.760  22.122  26.588  1.00  0.00     0.021 C 
BRANCH  29  30
ATOM     30  C   UNL A   1      40.461  23.343  27.174  1.00  0.00     0.116 C 
BRANCH  30  31
ATOM     31  N   UNL A   1      41.186  24.085  26.151  1.00  0.00    -0.352 N 
ATOM     32  C   UNL A   1      41.404  25.438  26.069  1.00  0.00     0.251 C 
ATOM     33  H   UNL A   1      41.570  23.546  25.422  1.00  0.00     0.163 HD
ATOM     34  O   UNL A   1      41.833  25.940  25.034  1.00  0.00    -0.269 OA
BRANCH  32  35
ATOM     35  C   UNL A   1      41.108  26.281  27.243  1.00  0.00     0.039 A 
ATOM     36  C   UNL A   1      40.040  25.949  28.080  1.00  0.00     0.014 A 
ATOM     37  C   UNL A   1      41.910  27.391  27.521  1.00  0.00     0.014 A 
ATOM     38  C   UNL A   1      39.811  26.699  29.235  1.00  0.00     0.010 A 
ATOM     39  C   UNL A   1      41.723  28.094  28.704  1.00  0.00     0.010 A 
ATOM     40  C   UNL A   1      40.668  27.760  29.569  1.00  0.00    -0.014 A 
BRANCH  40  41
ATOM     41  C   UNL A   1      40.483  28.568  30.800  1.00  0.00     0.031 A 
ATOM     42  C   UNL A   1      39.425  29.639  30.823  1.00  0.00     0.074 A 
ATOM     43  C   UNL A   1      41.324  28.416  31.843  1.00  0.00     0.049 A 
ATOM     44  N   UNL A   1      39.213  30.569  31.716  1.00  0.00    -0.248 NA
ATOM     45  C   UNL A   1      38.506  29.689  29.672  1.00  0.00     0.031 C 
ATOM     46  C   UNL A   1      42.401  27.428  31.931  1.00  0.00     0.029 A 
ATOM     47  N   UNL A   1      41.417  29.111  33.024  1.00  0.00    -0.354 N 
ATOM     48  C   UNL A   1      38.167  31.338  31.216  1.00  0.00     0.074 A 
ATOM     49  C   UNL A   1      37.805  30.784  29.931  1.00  0.00     0.031 C 
ATOM     50  C   UNL A   1      43.040  27.575  33.105  1.00  0.00     0.029 A 
ATOM     51  C   UNL A   1      42.453  28.699  33.829  1.00  0.00     0.049 A 
ATOM     52  H   UNL A   1      40.800  29.837  33.272  1.00  0.00     0.167 HD
ATOM     53  C   UNL A   1      37.558  32.404  31.785  1.00  0.00     0.031 A 
ATOM     54  C   UNL A   1      42.896  29.186  35.005  1.00  0.00     0.031 A 
ATOM     55  C   UNL A   1      37.897  32.924  33.082  1.00  0.00     0.049 A 
ATOM     56  C   UNL A   1      42.198  30.377  35.614  1.00  0.00     0.074 A 
ATOM     57  C   UNL A   1      37.290  33.955  33.776  1.00  0.00     0.029 A 
ATOM     58  N   UNL A   1      38.926  32.450  33.880  1.00  0.00    -0.354 N 
ATOM     59  N   UNL A   1      41.176  31.056  35.152  1.00  0.00    -0.248 NA
ATOM     60  C   UNL A   1      42.709  30.863  36.904  1.00  0.00     0.031 C 
ATOM     61  C   UNL A   1      37.986  34.140  34.973  1.00  0.00     0.029 A 
ATOM     62  C   UNL A   1      38.984  33.182  35.052  1.00  0.00     0.049 A 
ATOM     63  H   UNL A   1      39.526  31.704  33.648  1.00  0.00     0.167 HD
ATOM     64  C   UNL A   1      40.892  32.016  36.118  1.00  0.00     0.074 A 
ATOM     65  C   UNL A   1      41.849  31.832  37.188  1.00  0.00     0.031 C 
ATOM     66  C   UNL A   1      39.921  32.960  36.122  1.00  0.00     0.031 A 
BRANCH  53  67
ATOM     67  C   UNL A   1      36.462  33.090  31.016  1.00  0.00    -0.014 A 
ATOM     68  C   UNL A   1      35.115  32.968  31.402  1.00  0.00     0.010 A 
ATOM     69  C   UNL A   1      36.795  33.942  29.947  1.00  0.00     0.010 A 
ATOM     70  C   UNL A   1      34.119  33.672  30.720  1.00  0.00     0.020 A 
ATOM     71  C   UNL A   1      35.805  34.668  29.280  1.00  0.00     0.020 A 
ATOM     72  C   UNL A   1      34.472  34.523  29.667  1.00  0.00     0.054 A 
BRANCH  72  73
ATOM     73  S   UNL A   1      33.165  35.477  28.847  1.00  0.00     0.124 S 
ATOM     74  O   UNL A   1      33.938  36.442  28.070  1.00  0.00    -0.237 OA
ATOM     75  O   UNL A   1      32.466  34.457  28.069  1.00  0.00    -0.237 OA
ATOM     76  O   UNL A   1      32.400  36.041  29.956  1.00  0.00    -0.744 OA
ENDBRANCH  72  73
ENDBRANCH  53  67
BRANCH  54  77
ATOM     77  C   UNL A   1      44.066  28.569  35.689  1.00  0.00    -0.014 A 
ATOM     78  C   UNL A   1      45.372  29.009  35.406  1.00  0.00     0.010 A 
ATOM     79  C   UNL A   1      43.886  27.510  36.598  1.00  0.00     0.010 A 
ATOM     80  C   UNL A   1      46.477  28.371  35.979  1.00  0.00     0.020 A 
ATOM     81  C   UNL A   1      44.986  26.890  37.197  1.00  0.00     0.020 A 
ATOM     82  C   UNL A   1      46.275  27.310  36.865  1.00  0.00     0.054 A 
BRANCH  82  83
ATOM     83  S   UNL A   1      47.721  26.487  37.590  1.00  0.00     0.124 S 
ATOM     84  O   UNL A   1      47.122  25.304  38.197  1.00  0.00    -0.237 OA
ATOM     85  O   UNL A   1      48.565  26.243  36.423  1.00  0.00    -0.237 OA
ATOM     86  O   UNL A   1      48.241  27.479  38.530  1.00  0.00    -0.744 OA
ENDBRANCH  82  83
ENDBRANCH  54  77
BRANCH  66  87
ATOM     87  C   UNL A   1      39.780  33.824  37.345  1.00  0.00    -0.014 A 
ATOM     88  C   UNL A   1      38.927  33.467  38.402  1.00  0.00     0.010 A 
ATOM     89  C   UNL A   1      40.606  34.958  37.478  1.00  0.00     0.010 A 
ATOM     90  C   UNL A   1      38.896  34.235  39.570  1.00  0.00     0.020 A 
ATOM     91  C   UNL A   1      40.596  35.710  38.653  1.00  0.00     0.020 A 
ATOM     92  C   UNL A   1      39.736  35.347  39.690  1.00  0.00     0.054 A 
BRANCH  92  93
ATOM     93  S   UNL A   1      39.738  36.274  41.249  1.00  0.00     0.124 S 
ATOM     94  O   UNL A   1      39.853  37.653  40.782  1.00  0.00    -0.237 OA
ATOM     95  O   UNL A   1      38.449  35.915  41.836  1.00  0.00    -0.237 OA
ATOM     96  O   UNL A   1      40.906  35.757  41.959  1.00  0.00    -0.744 OA
ENDBRANCH  92  93
ENDBRANCH  66  87
ENDBRANCH  40  41
ENDBRANCH  32  35
ENDBRANCH  30  31
ENDBRANCH  29  30
ENDBRANCH  28  29
ENDBRANCH  27  28
ENDBRANCH   1  27
TORSDOF 21
ENDMDL
