MODEL 1
REMARK VINA RESULT:     -10.6      0.000      0.000
REMARK SMILES CC[NH+]1CCN(c2ccc(NC(=O)C3CCCC3)c(C(=O)NCCCCCCNC(=O)c3ccc(-c4c5nc(c(-c6ccc(S(=O)(=O)[O-])cc6)c6ccc([nH]6)c(-c6ccc(S(=O)(=O)[O-])cc6)c6nc(c(-c7ccc(S(=O)(=O)[O-])cc7)c7ccc4[nH]7)C=C6)C=C5)cc3)c2)CC1
REMARK SMILES IDX 26 1 25 2 24 3 23 4 22 5 20 6 21 7 19 9 7 10 8 11 92 12 9 13
REMARK SMILES IDX 10 14 6 15 3 16 4 17 94 18 5 20 93 21 2 22 1 23 11 24 12 25
REMARK SMILES IDX 13 27 14 28 15 29 18 30 16 31 17 32 27 33 28 34 29 35 30 36
REMARK SMILES IDX 31 38 32 39 33 40 91 41 34 42 90 43 35 44 36 45 37 46 84 47
REMARK SMILES IDX 38 48 89 49 83 50 85 51 39 52 88 53 82 54 81 55 40 57 70 58
REMARK SMILES IDX 51 59 69 60 52 61 55 62 68 63 86 64 53 65 54 66 67 68 87 69
REMARK SMILES IDX 56 70 41 71 42 72 50 73 43 74 49 75 44 76 45 77 46 78 47 79
REMARK SMILES IDX 48 80 71 81 72 82 80 83 73 84 79 85 74 86 75 87 76 88 77 89
REMARK SMILES IDX 78 90 57 91 58 92 66 93 59 94 65 95 60 96 61 97 62 98 63 99
REMARK SMILES IDX 64 100
REMARK H PARENT 22 8 3 19 11 26 29 37 85 56 55 67
REMARK Flexibility Score: inf
ROOT
ATOM      1  C   UNL A   1      35.028  31.880  27.696  1.00  0.00     0.002 C 
ENDROOT
BRANCH   1   2
ATOM      2  C   UNL A   1      35.228  30.490  28.304  1.00  0.00     0.002 C 
BRANCH   2   3
ATOM      3  C   UNL A   1      35.416  29.343  27.317  1.00  0.00     0.021 C 
BRANCH   3   4
ATOM      4  C   UNL A   1      34.160  28.812  26.639  1.00  0.00     0.116 C 
BRANCH   4   5
ATOM      5  N   UNL A   1      33.012  28.607  27.514  1.00  0.00    -0.352 N 
ATOM      6  C   UNL A   1      31.821  27.935  27.293  1.00  0.00     0.253 C 
ATOM      7  O   UNL A   1      30.983  27.886  28.191  1.00  0.00    -0.269 OA
ATOM      8  H   UNL A   1      33.095  29.014  28.407  1.00  0.00     0.163 HD
BRANCH   6   9
ATOM      9  C   UNL A   1      31.496  27.378  25.948  1.00  0.00     0.065 A 
ATOM     10  C   UNL A   1      30.319  27.764  23.840  1.00  0.00     0.038 A 
ATOM     11  C   UNL A   1      30.140  26.381  23.779  1.00  0.00     0.028 A 
ATOM     12  C   UNL A   1      31.066  28.233  24.921  1.00  0.00     0.042 A 
ATOM     13  C   UNL A   1      30.707  25.515  24.713  1.00  0.00     0.029 A 
ATOM     14  C   UNL A   1      31.505  25.993  25.730  1.00  0.00     0.054 A 
BRANCH  10  15
ATOM     15  N   UNL A   1      29.709  28.599  22.930  1.00  0.00    -0.360 N 
ATOM     16  N   UNL A   1      28.124  31.045  22.447  1.00  0.00    -0.332 N 
ATOM     17  C   UNL A   1      27.609  29.875  23.184  1.00  0.00     0.283 C 
ATOM     18  C   UNL A   1      29.599  31.085  22.639  1.00  0.00     0.283 C 
ATOM     19  H   UNL A   1      27.680  31.885  22.817  1.00  0.00     0.348 HD
ATOM     20  C   UNL A   1      28.244  28.540  22.752  1.00  0.00     0.178 C 
ATOM     21  C   UNL A   1      30.354  29.768  22.298  1.00  0.00     0.178 C 
BRANCH  16  22
ATOM     22  C   UNL A   1      27.789  31.022  21.011  1.00  0.00     0.258 C 
ATOM     23  C   UNL A   1      27.990  32.358  20.298  1.00  0.00     0.071 C 
ENDBRANCH  16  22
ENDBRANCH  10  15
BRANCH  14  24
ATOM     24  N   UNL A   1      32.316  25.139  26.496  1.00  0.00    -0.325 N 
ATOM     25  C   UNL A   1      33.308  24.257  26.184  1.00  0.00     0.227 C 
ATOM     26  H   UNL A   1      32.128  25.188  27.462  1.00  0.00     0.169 HD
ATOM     27  O   UNL A   1      33.799  23.630  27.136  1.00  0.00    -0.274 OA
BRANCH  25  28
ATOM     28  C   UNL A   1      33.878  23.961  24.786  1.00  0.00     0.079 C 
ATOM     29  C   UNL A   1      33.088  22.887  24.038  1.00  0.00     0.013 C 
ATOM     30  C   UNL A   1      34.193  25.074  23.779  1.00  0.00     0.013 C 
ATOM     31  C   UNL A   1      33.377  23.131  22.564  1.00  0.00     0.001 C 
ATOM     32  C   UNL A   1      33.608  24.628  22.435  1.00  0.00     0.001 C 
ENDBRANCH  25  28
ENDBRANCH  14  24
ENDBRANCH   6   9
ENDBRANCH   4   5
ENDBRANCH   3   4
ENDBRANCH   2   3
ENDBRANCH   1   2
BRANCH   1  33
ATOM     33  C   UNL A   1      33.707  32.584  28.020  1.00  0.00     0.021 C 
BRANCH  33  34
ATOM     34  C   UNL A   1      33.721  34.104  27.909  1.00  0.00     0.116 C 
BRANCH  34  35
ATOM     35  N   UNL A   1      33.064  34.752  29.032  1.00  0.00    -0.352 N 
ATOM     36  C   UNL A   1      33.360  34.691  30.370  1.00  0.00     0.251 C 
ATOM     37  H   UNL A   1      32.292  35.317  28.797  1.00  0.00     0.163 HD
ATOM     38  O   UNL A   1      32.579  35.172  31.190  1.00  0.00    -0.269 OA
BRANCH  36  39
ATOM     39  C   UNL A   1      34.601  34.031  30.830  1.00  0.00     0.039 A 
ATOM     40  C   UNL A   1      35.832  34.615  30.520  1.00  0.00     0.014 A 
ATOM     41  C   UNL A   1      34.557  32.835  31.554  1.00  0.00     0.014 A 
ATOM     42  C   UNL A   1      37.013  34.033  30.985  1.00  0.00     0.010 A 
ATOM     43  C   UNL A   1      35.730  32.299  32.081  1.00  0.00     0.010 A 
ATOM     44  C   UNL A   1      36.971  32.888  31.799  1.00  0.00    -0.014 A 
BRANCH  44  45
ATOM     45  C   UNL A   1      38.213  32.299  32.364  1.00  0.00     0.031 A 
ATOM     46  C   UNL A   1      38.622  32.604  33.780  1.00  0.00     0.074 A 
ATOM     47  C   UNL A   1      39.004  31.537  31.582  1.00  0.00     0.049 A 
ATOM     48  N   UNL A   1      39.692  32.222  34.430  1.00  0.00    -0.248 NA
ATOM     49  C   UNL A   1      37.724  33.470  34.563  1.00  0.00     0.031 C 
ATOM     50  C   UNL A   1      38.739  31.200  30.182  1.00  0.00     0.029 A 
ATOM     51  N   UNL A   1      40.195  30.910  31.853  1.00  0.00    -0.354 N 
ATOM     52  C   UNL A   1      39.605  32.812  35.686  1.00  0.00     0.074 A 
ATOM     53  C   UNL A   1      38.404  33.617  35.691  1.00  0.00     0.031 C 
ATOM     54  C   UNL A   1      39.723  30.409  29.725  1.00  0.00     0.029 A 
ATOM     55  C   UNL A   1      40.712  30.219  30.782  1.00  0.00     0.049 A 
ATOM     56  H   UNL A   1      40.639  30.953  32.731  1.00  0.00     0.167 HD
ATOM     57  C   UNL A   1      40.440  32.681  36.745  1.00  0.00     0.031 A 
ATOM     58  C   UNL A   1      41.855  29.517  30.658  1.00  0.00     0.031 A 
ATOM     59  C   UNL A   1      41.631  31.873  36.736  1.00  0.00     0.049 A 
ATOM     60  C   UNL A   1      42.773  29.398  31.843  1.00  0.00     0.074 A 
ATOM     61  C   UNL A   1      42.511  31.630  37.777  1.00  0.00     0.029 A 
ATOM     62  N   UNL A   1      42.114  31.184  35.634  1.00  0.00    -0.354 N 
ATOM     63  N   UNL A   1      42.636  29.906  33.045  1.00  0.00    -0.248 NA
ATOM     64  C   UNL A   1      43.995  28.602  31.659  1.00  0.00     0.031 C 
ATOM     65  C   UNL A   1      43.560  30.844  37.286  1.00  0.00     0.029 A 
ATOM     66  C   UNL A   1      43.297  30.540  35.961  1.00  0.00     0.049 A 
ATOM     67  H   UNL A   1      41.681  31.156  34.751  1.00  0.00     0.167 HD
ATOM     68  C   UNL A   1      43.741  29.467  33.769  1.00  0.00     0.074 A 
ATOM     69  C   UNL A   1      44.525  28.640  32.875  1.00  0.00     0.031 C 
ATOM     70  C   UNL A   1      44.071  29.723  35.059  1.00  0.00     0.031 A 
BRANCH  57  71
ATOM     71  C   UNL A   1      40.099  33.442  38.002  1.00  0.00    -0.014 A 
ATOM     72  C   UNL A   1      40.423  34.804  38.140  1.00  0.00     0.010 A 
ATOM     73  C   UNL A   1      39.405  32.797  39.042  1.00  0.00     0.010 A 
ATOM     74  C   UNL A   1      40.099  35.494  39.312  1.00  0.00     0.020 A 
ATOM     75  C   UNL A   1      39.051  33.491  40.202  1.00  0.00     0.020 A 
ATOM     76  C   UNL A   1      39.417  34.832  40.337  1.00  0.00     0.054 A 
BRANCH  76  77
ATOM     77  S   UNL A   1      38.991  35.759  41.837  1.00  0.00     0.124 S 
ATOM     78  O   UNL A   1      39.906  35.179  42.818  1.00  0.00    -0.237 OA
ATOM     79  O   UNL A   1      39.276  37.138  41.452  1.00  0.00    -0.237 OA
ATOM     80  O   UNL A   1      37.578  35.452  42.046  1.00  0.00    -0.744 OA
ENDBRANCH  76  77
ENDBRANCH  57  71
BRANCH  58  81
ATOM     81  C   UNL A   1      42.191  28.867  29.360  1.00  0.00    -0.014 A 
ATOM     82  C   UNL A   1      42.914  29.563  28.375  1.00  0.00     0.010 A 
ATOM     83  C   UNL A   1      41.801  27.539  29.110  1.00  0.00     0.010 A 
ATOM     84  C   UNL A   1      43.225  28.949  27.158  1.00  0.00     0.020 A 
ATOM     85  C   UNL A   1      42.137  26.911  27.907  1.00  0.00     0.020 A 
ATOM     86  C   UNL A   1      42.837  27.625  26.934  1.00  0.00     0.054 A 
BRANCH  86  87
ATOM     87  S   UNL A   1      43.298  26.830  25.368  1.00  0.00     0.124 S 
ATOM     88  O   UNL A   1      44.756  26.845  25.438  1.00  0.00    -0.237 OA
ATOM     89  O   UNL A   1      42.671  25.516  25.487  1.00  0.00    -0.237 OA
ATOM     90  O   UNL A   1      42.710  27.704  24.356  1.00  0.00    -0.744 OA
ENDBRANCH  86  87
ENDBRANCH  58  81
BRANCH  70  91
ATOM     91  C   UNL A   1      45.321  29.077  35.598  1.00  0.00    -0.014 A 
ATOM     92  C   UNL A   1      46.563  29.732  35.552  1.00  0.00     0.010 A 
ATOM     93  C   UNL A   1      45.235  27.814  36.213  1.00  0.00     0.010 A 
ATOM     94  C   UNL A   1      47.704  29.122  36.081  1.00  0.00     0.020 A 
ATOM     95  C   UNL A   1      46.366  27.215  36.773  1.00  0.00     0.020 A 
ATOM     96  C   UNL A   1      47.597  27.867  36.690  1.00  0.00     0.054 A 
BRANCH  96  97
ATOM     97  S   UNL A   1      49.084  27.118  37.411  1.00  0.00     0.124 S 
ATOM     98  O   UNL A   1      48.516  26.218  38.410  1.00  0.00    -0.237 OA
ATOM     99  O   UNL A   1      49.704  26.468  36.258  1.00  0.00    -0.237 OA
ATOM    100  O   UNL A   1      49.822  28.260  37.947  1.00  0.00    -0.744 OA
ENDBRANCH  96  97
ENDBRANCH  70  91
ENDBRANCH  44  45
ENDBRANCH  36  39
ENDBRANCH  34  35
ENDBRANCH  33  34
ENDBRANCH   1  33
TORSDOF 20
ENDMDL
MODEL 2
REMARK VINA RESULT:     -10.4      5.643      8.770
REMARK SMILES CC[NH+]1CCN(c2ccc(NC(=O)C3CCCC3)c(C(=O)NCCCCCCNC(=O)c3ccc(-c4c5nc(c(-c6ccc(S(=O)(=O)[O-])cc6)c6ccc([nH]6)c(-c6ccc(S(=O)(=O)[O-])cc6)c6nc(c(-c7ccc(S(=O)(=O)[O-])cc7)c7ccc4[nH]7)C=C6)C=C5)cc3)c2)CC1
REMARK SMILES IDX 26 1 25 2 24 3 23 4 22 5 20 6 21 7 19 9 7 10 8 11 92 12 9 13
REMARK SMILES IDX 10 14 6 15 3 16 4 17 94 18 5 20 93 21 2 22 1 23 11 24 12 25
REMARK SMILES IDX 13 27 14 28 15 29 18 30 16 31 17 32 27 33 28 34 29 35 30 36
REMARK SMILES IDX 31 38 32 39 33 40 91 41 34 42 90 43 35 44 36 45 37 46 84 47
REMARK SMILES IDX 38 48 89 49 83 50 85 51 39 52 88 53 82 54 81 55 40 57 70 58
REMARK SMILES IDX 51 59 69 60 52 61 55 62 68 63 86 64 53 65 54 66 67 68 87 69
REMARK SMILES IDX 56 70 41 71 42 72 50 73 43 74 49 75 44 76 45 77 46 78 47 79
REMARK SMILES IDX 48 80 71 81 72 82 80 83 73 84 79 85 74 86 75 87 76 88 77 89
REMARK SMILES IDX 78 90 57 91 58 92 66 93 59 94 65 95 60 96 61 97 62 98 63 99
REMARK SMILES IDX 64 100
REMARK H PARENT 22 8 3 19 11 26 29 37 85 56 55 67
REMARK Flexibility Score: inf
ROOT
ATOM      1  C   UNL A   1      34.394  31.168  27.436  1.00  0.00     0.002 C 
ENDROOT
BRANCH   1   2
ATOM      2  C   UNL A   1      32.902  31.285  27.116  1.00  0.00     0.002 C 
BRANCH   2   3
ATOM      3  C   UNL A   1      32.143  29.973  26.953  1.00  0.00     0.021 C 
BRANCH   3   4
ATOM      4  C   UNL A   1      31.961  29.459  25.531  1.00  0.00     0.116 C 
BRANCH   4   5
ATOM      5  N   UNL A   1      33.123  29.592  24.661  1.00  0.00    -0.352 N 
ATOM      6  C   UNL A   1      33.575  28.779  23.634  1.00  0.00     0.253 C 
ATOM      7  O   UNL A   1      34.594  29.095  23.023  1.00  0.00    -0.269 OA
ATOM      8  H   UNL A   1      33.677  30.389  24.831  1.00  0.00     0.163 HD
BRANCH   6   9
ATOM      9  C   UNL A   1      32.914  27.474  23.344  1.00  0.00     0.065 A 
ATOM     10  C   UNL A   1      33.072  25.045  23.567  1.00  0.00     0.038 A 
ATOM     11  C   UNL A   1      32.373  24.969  22.362  1.00  0.00     0.028 A 
ATOM     12  C   UNL A   1      33.276  26.329  24.072  1.00  0.00     0.042 A 
ATOM     13  C   UNL A   1      31.870  26.099  21.721  1.00  0.00     0.029 A 
ATOM     14  C   UNL A   1      32.016  27.353  22.274  1.00  0.00     0.054 A 
BRANCH  10  15
ATOM     15  N   UNL A   1      33.598  23.915  24.156  1.00  0.00    -0.360 N 
ATOM     16  N   UNL A   1      35.619  22.743  25.964  1.00  0.00    -0.332 N 
ATOM     17  C   UNL A   1      35.957  23.423  24.699  1.00  0.00     0.283 C 
ATOM     18  C   UNL A   1      34.356  23.343  26.474  1.00  0.00     0.283 C 
ATOM     19  H   UNL A   1      36.386  22.880  26.623  1.00  0.00     0.348 HD
ATOM     20  C   UNL A   1      34.851  23.334  23.631  1.00  0.00     0.178 C 
ATOM     21  C   UNL A   1      33.175  23.372  25.462  1.00  0.00     0.178 C 
BRANCH  16  22
ATOM     22  C   UNL A   1      35.479  21.283  25.821  1.00  0.00     0.258 C 
ATOM     23  C   UNL A   1      36.619  20.615  25.055  1.00  0.00     0.071 C 
ENDBRANCH  16  22
ENDBRANCH  10  15
BRANCH  14  24
ATOM     24  N   UNL A   1      31.278  28.456  21.812  1.00  0.00    -0.325 N 
ATOM     25  C   UNL A   1      30.073  28.990  22.159  1.00  0.00     0.227 C 
ATOM     26  H   UNL A   1      31.726  28.945  21.084  1.00  0.00     0.169 HD
ATOM     27  O   UNL A   1      29.704  29.976  21.500  1.00  0.00    -0.274 OA
BRANCH  25  28
ATOM     28  C   UNL A   1      29.130  28.504  23.274  1.00  0.00     0.079 C 
ATOM     29  C   UNL A   1      27.663  28.824  22.991  1.00  0.00     0.013 C 
ATOM     30  C   UNL A   1      29.184  27.072  23.823  1.00  0.00     0.013 C 
ATOM     31  C   UNL A   1      26.869  27.818  23.813  1.00  0.00     0.001 C 
ATOM     32  C   UNL A   1      27.737  26.573  23.886  1.00  0.00     0.001 C 
ENDBRANCH  25  28
ENDBRANCH  14  24
ENDBRANCH   6   9
ENDBRANCH   4   5
ENDBRANCH   3   4
ENDBRANCH   2   3
ENDBRANCH   1   2
BRANCH   1  33
ATOM     33  C   UNL A   1      34.851  31.745  28.779  1.00  0.00     0.021 C 
BRANCH  33  34
ATOM     34  C   UNL A   1      35.613  30.787  29.688  1.00  0.00     0.116 C 
BRANCH  34  35
ATOM     35  N   UNL A   1      35.883  31.355  30.998  1.00  0.00    -0.352 N 
ATOM     36  C   UNL A   1      37.030  31.310  31.748  1.00  0.00     0.251 C 
ATOM     37  H   UNL A   1      35.131  31.842  31.407  1.00  0.00     0.163 HD
ATOM     38  O   UNL A   1      37.012  31.703  32.914  1.00  0.00    -0.269 OA
BRANCH  36  39
ATOM     39  C   UNL A   1      38.280  30.773  31.169  1.00  0.00     0.039 A 
ATOM     40  C   UNL A   1      38.552  31.001  29.817  1.00  0.00     0.014 A 
ATOM     41  C   UNL A   1      39.179  30.037  31.948  1.00  0.00     0.014 A 
ATOM     42  C   UNL A   1      39.749  30.543  29.263  1.00  0.00     0.010 A 
ATOM     43  C   UNL A   1      40.405  29.647  31.413  1.00  0.00     0.010 A 
ATOM     44  C   UNL A   1      40.702  29.891  30.064  1.00  0.00    -0.014 A 
BRANCH  44  45
ATOM     45  C   UNL A   1      42.012  29.463  29.508  1.00  0.00     0.031 A 
ATOM     46  C   UNL A   1      43.146  30.446  29.392  1.00  0.00     0.074 A 
ATOM     47  C   UNL A   1      42.162  28.203  29.052  1.00  0.00     0.049 A 
ATOM     48  N   UNL A   1      44.342  30.270  28.892  1.00  0.00    -0.248 NA
ATOM     49  C   UNL A   1      42.897  31.813  29.882  1.00  0.00     0.031 C 
ATOM     50  C   UNL A   1      41.127  27.167  29.071  1.00  0.00     0.029 A 
ATOM     51  N   UNL A   1      43.243  27.581  28.479  1.00  0.00    -0.354 N 
ATOM     52  C   UNL A   1      44.980  31.501  28.989  1.00  0.00     0.074 A 
ATOM     53  C   UNL A   1      44.023  32.428  29.552  1.00  0.00     0.031 C 
ATOM     54  C   UNL A   1      41.630  26.032  28.558  1.00  0.00     0.029 A 
ATOM     55  C   UNL A   1      43.006  26.270  28.133  1.00  0.00     0.049 A 
ATOM     56  H   UNL A   1      44.106  28.030  28.328  1.00  0.00     0.167 HD
ATOM     57  C   UNL A   1      46.253  31.827  28.659  1.00  0.00     0.031 A 
ATOM     58  C   UNL A   1      43.801  25.363  27.532  1.00  0.00     0.031 A 
ATOM     59  C   UNL A   1      47.203  30.899  28.105  1.00  0.00     0.049 A 
ATOM     60  C   UNL A   1      45.206  25.752  27.161  1.00  0.00     0.074 A 
ATOM     61  C   UNL A   1      48.534  31.117  27.790  1.00  0.00     0.029 A 
ATOM     62  N   UNL A   1      46.926  29.580  27.777  1.00  0.00    -0.354 N 
ATOM     63  N   UNL A   1      45.813  26.903  27.328  1.00  0.00    -0.248 NA
ATOM     64  C   UNL A   1      46.036  24.716  26.530  1.00  0.00     0.031 C 
ATOM     65  C   UNL A   1      49.043  29.949  27.214  1.00  0.00     0.029 A 
ATOM     66  C   UNL A   1      48.051  28.981  27.234  1.00  0.00     0.049 A 
ATOM     67  H   UNL A   1      46.057  29.136  27.910  1.00  0.00     0.167 HD
ATOM     68  C   UNL A   1      47.106  26.721  26.848  1.00  0.00     0.074 A 
ATOM     69  C   UNL A   1      47.197  25.346  26.401  1.00  0.00     0.031 C 
ATOM     70  C   UNL A   1      48.126  27.612  26.788  1.00  0.00     0.031 A 
BRANCH  57  71
ATOM     71  C   UNL A   1      46.688  33.255  28.875  1.00  0.00    -0.014 A 
ATOM     72  C   UNL A   1      46.552  34.221  27.861  1.00  0.00     0.010 A 
ATOM     73  C   UNL A   1      47.199  33.647  30.125  1.00  0.00     0.010 A 
ATOM     74  C   UNL A   1      46.960  35.540  28.079  1.00  0.00     0.020 A 
ATOM     75  C   UNL A   1      47.580  34.972  30.358  1.00  0.00     0.020 A 
ATOM     76  C   UNL A   1      47.474  35.906  29.327  1.00  0.00     0.054 A 
BRANCH  76  77
ATOM     77  S   UNL A   1      47.976  37.630  29.587  1.00  0.00     0.124 S 
ATOM     78  O   UNL A   1      46.811  38.360  29.094  1.00  0.00    -0.237 OA
ATOM     79  O   UNL A   1      48.188  37.686  31.030  1.00  0.00    -0.237 OA
ATOM     80  O   UNL A   1      49.184  37.766  28.776  1.00  0.00    -0.744 OA
ENDBRANCH  76  77
ENDBRANCH  57  71
BRANCH  58  81
ATOM     81  C   UNL A   1      43.285  23.994  27.252  1.00  0.00    -0.014 A 
ATOM     82  C   UNL A   1      42.873  23.633  25.957  1.00  0.00     0.010 A 
ATOM     83  C   UNL A   1      43.218  23.036  28.280  1.00  0.00     0.010 A 
ATOM     84  C   UNL A   1      42.389  22.347  25.699  1.00  0.00     0.020 A 
ATOM     85  C   UNL A   1      42.764  21.740  28.020  1.00  0.00     0.020 A 
ATOM     86  C   UNL A   1      42.341  21.408  26.733  1.00  0.00     0.054 A 
BRANCH  86  87
ATOM     87  S   UNL A   1      41.758  19.729  26.364  1.00  0.00     0.124 S 
ATOM     88  O   UNL A   1      42.182  18.993  27.551  1.00  0.00    -0.237 OA
ATOM     89  O   UNL A   1      40.317  19.921  26.218  1.00  0.00    -0.237 OA
ATOM     90  O   UNL A   1      42.462  19.387  25.130  1.00  0.00    -0.744 OA
ENDBRANCH  86  87
ENDBRANCH  58  81
BRANCH  70  91
ATOM     91  C   UNL A   1      49.446  27.123  26.248  1.00  0.00    -0.014 A 
ATOM     92  C   UNL A   1      50.383  26.481  27.076  1.00  0.00     0.010 A 
ATOM     93  C   UNL A   1      49.723  27.259  24.875  1.00  0.00     0.010 A 
ATOM     94  C   UNL A   1      51.589  26.013  26.546  1.00  0.00     0.020 A 
ATOM     95  C   UNL A   1      50.913  26.763  24.336  1.00  0.00     0.020 A 
ATOM     96  C   UNL A   1      51.845  26.156  25.178  1.00  0.00     0.054 A 
BRANCH  96  97
ATOM     97  S   UNL A   1      53.397  25.498  24.508  1.00  0.00     0.124 S 
ATOM     98  O   UNL A   1      54.393  26.331  25.176  1.00  0.00    -0.237 OA
ATOM     99  O   UNL A   1      53.360  24.100  24.931  1.00  0.00    -0.237 OA
ATOM    100  O   UNL A   1      53.271  25.711  23.068  1.00  0.00    -0.744 OA
ENDBRANCH  96  97
ENDBRANCH  70  91
ENDBRANCH  44  45
ENDBRANCH  36  39
ENDBRANCH  34  35
ENDBRANCH  33  34
ENDBRANCH   1  33
TORSDOF 20
ENDMDL
MODEL 3
REMARK VINA RESULT:     -10.3      0.796      7.843
REMARK SMILES CC[NH+]1CCN(c2ccc(NC(=O)C3CCCC3)c(C(=O)NCCCCCCNC(=O)c3ccc(-c4c5nc(c(-c6ccc(S(=O)(=O)[O-])cc6)c6ccc([nH]6)c(-c6ccc(S(=O)(=O)[O-])cc6)c6nc(c(-c7ccc(S(=O)(=O)[O-])cc7)c7ccc4[nH]7)C=C6)C=C5)cc3)c2)CC1
REMARK SMILES IDX 26 1 25 2 24 3 23 4 22 5 20 6 21 7 19 9 7 10 8 11 92 12 9 13
REMARK SMILES IDX 10 14 6 15 3 16 4 17 94 18 5 20 93 21 2 22 1 23 11 24 12 25
REMARK SMILES IDX 13 27 14 28 15 29 18 30 16 31 17 32 27 33 28 34 29 35 30 36
REMARK SMILES IDX 31 38 32 39 33 40 91 41 34 42 90 43 35 44 36 45 37 46 84 47
REMARK SMILES IDX 38 48 89 49 83 50 85 51 39 52 88 53 82 54 81 55 40 57 70 58
REMARK SMILES IDX 51 59 69 60 52 61 55 62 68 63 86 64 53 65 54 66 67 68 87 69
REMARK SMILES IDX 56 70 41 71 42 72 50 73 43 74 49 75 44 76 45 77 46 78 47 79
REMARK SMILES IDX 48 80 71 81 72 82 80 83 73 84 79 85 74 86 75 87 76 88 77 89
REMARK SMILES IDX 78 90 57 91 58 92 66 93 59 94 65 95 60 96 61 97 62 98 63 99
REMARK SMILES IDX 64 100
REMARK H PARENT 22 8 3 19 11 26 29 37 85 56 55 67
REMARK Flexibility Score: inf
ROOT
ATOM      1  C   UNL A   1      35.044  31.822  27.693  1.00  0.00     0.002 C 
ENDROOT
BRANCH   1   2
ATOM      2  C   UNL A   1      35.278  30.470  28.372  1.00  0.00     0.002 C 
BRANCH   2   3
ATOM      3  C   UNL A   1      35.473  29.276  27.446  1.00  0.00     0.021 C 
BRANCH   3   4
ATOM      4  C   UNL A   1      34.234  28.760  26.725  1.00  0.00     0.116 C 
BRANCH   4   5
ATOM      5  N   UNL A   1      33.057  28.560  27.562  1.00  0.00    -0.352 N 
ATOM      6  C   UNL A   1      31.865  27.908  27.295  1.00  0.00     0.253 C 
ATOM      7  O   UNL A   1      30.999  27.860  28.166  1.00  0.00    -0.269 OA
ATOM      8  H   UNL A   1      33.119  28.954  28.462  1.00  0.00     0.163 HD
BRANCH   6   9
ATOM      9  C   UNL A   1      31.573  27.373  25.933  1.00  0.00     0.065 A 
ATOM     10  C   UNL A   1      30.393  27.763  23.828  1.00  0.00     0.038 A 
ATOM     11  C   UNL A   1      30.277  26.376  23.729  1.00  0.00     0.028 A 
ATOM     12  C   UNL A   1      31.111  28.236  24.926  1.00  0.00     0.042 A 
ATOM     13  C   UNL A   1      30.876  25.512  24.643  1.00  0.00     0.029 A 
ATOM     14  C   UNL A   1      31.645  25.996  25.678  1.00  0.00     0.054 A 
BRANCH  10  15
ATOM     15  N   UNL A   1      29.752  28.595  22.936  1.00  0.00    -0.360 N 
ATOM     16  N   UNL A   1      28.033  30.959  22.508  1.00  0.00    -0.332 N 
ATOM     17  C   UNL A   1      27.575  29.733  23.190  1.00  0.00     0.283 C 
ATOM     18  C   UNL A   1      29.498  31.079  22.734  1.00  0.00     0.283 C 
ATOM     19  H   UNL A   1      27.531  31.756  22.899  1.00  0.00     0.348 HD
ATOM     20  C   UNL A   1      28.297  28.455  22.723  1.00  0.00     0.178 C 
ATOM     21  C   UNL A   1      30.338  29.824  22.362  1.00  0.00     0.178 C 
BRANCH  16  22
ATOM     22  C   UNL A   1      27.728  30.971  21.065  1.00  0.00     0.258 C 
ATOM     23  C   UNL A   1      28.041  32.293  20.368  1.00  0.00     0.071 C 
ENDBRANCH  16  22
ENDBRANCH  10  15
BRANCH  14  24
ATOM     24  N   UNL A   1      32.489  25.159  26.428  1.00  0.00    -0.325 N 
ATOM     25  C   UNL A   1      33.386  24.189  26.092  1.00  0.00     0.227 C 
ATOM     26  H   UNL A   1      32.416  25.304  27.400  1.00  0.00     0.169 HD
ATOM     27  O   UNL A   1      33.947  23.614  27.040  1.00  0.00    -0.274 OA
BRANCH  25  28
ATOM     28  C   UNL A   1      33.773  23.735  24.674  1.00  0.00     0.079 C 
ATOM     29  C   UNL A   1      32.784  22.731  24.082  1.00  0.00     0.013 C 
ATOM     30  C   UNL A   1      34.124  24.734  23.565  1.00  0.00     0.013 C 
ATOM     31  C   UNL A   1      32.955  22.845  22.573  1.00  0.00     0.001 C 
ATOM     32  C   UNL A   1      33.358  24.287  22.315  1.00  0.00     0.001 C 
ENDBRANCH  25  28
ENDBRANCH  14  24
ENDBRANCH   6   9
ENDBRANCH   4   5
ENDBRANCH   3   4
ENDBRANCH   2   3
ENDBRANCH   1   2
BRANCH   1  33
ATOM     33  C   UNL A   1      33.731  32.536  28.027  1.00  0.00     0.021 C 
BRANCH  33  34
ATOM     34  C   UNL A   1      33.750  34.055  27.894  1.00  0.00     0.116 C 
BRANCH  34  35
ATOM     35  N   UNL A   1      33.031  34.718  28.969  1.00  0.00    -0.352 N 
ATOM     36  C   UNL A   1      33.257  34.682  30.322  1.00  0.00     0.251 C 
ATOM     37  H   UNL A   1      32.270  35.274  28.685  1.00  0.00     0.163 HD
ATOM     38  O   UNL A   1      32.432  35.172  31.092  1.00  0.00    -0.269 OA
BRANCH  36  39
ATOM     39  C   UNL A   1      34.476  34.037  30.858  1.00  0.00     0.039 A 
ATOM     40  C   UNL A   1      35.725  34.546  30.494  1.00  0.00     0.014 A 
ATOM     41  C   UNL A   1      34.392  32.929  31.706  1.00  0.00     0.014 A 
ATOM     42  C   UNL A   1      36.886  33.981  31.027  1.00  0.00     0.010 A 
ATOM     43  C   UNL A   1      35.546  32.416  32.295  1.00  0.00     0.010 A 
ATOM     44  C   UNL A   1      36.806  32.933  31.959  1.00  0.00    -0.014 A 
BRANCH  44  45
ATOM     45  C   UNL A   1      38.027  32.370  32.591  1.00  0.00     0.031 A 
ATOM     46  C   UNL A   1      38.806  31.280  31.903  1.00  0.00     0.074 A 
ATOM     47  C   UNL A   1      38.403  32.800  33.813  1.00  0.00     0.049 A 
ATOM     48  N   UNL A   1      39.866  30.636  32.320  1.00  0.00    -0.248 NA
ATOM     49  C   UNL A   1      38.317  30.841  30.586  1.00  0.00     0.031 C 
ATOM     50  C   UNL A   1      37.711  33.822  34.600  1.00  0.00     0.029 A 
ATOM     51  N   UNL A   1      39.457  32.427  34.609  1.00  0.00    -0.354 N 
ATOM     52  C   UNL A   1      40.159  29.706  31.329  1.00  0.00     0.074 A 
ATOM     53  C   UNL A   1      39.138  29.837  30.313  1.00  0.00     0.031 C 
ATOM     54  C   UNL A   1      38.372  34.013  35.754  1.00  0.00     0.029 A 
ATOM     55  C   UNL A   1      39.507  33.097  35.810  1.00  0.00     0.049 A 
ATOM     56  H   UNL A   1      40.116  31.743  34.346  1.00  0.00     0.167 HD
ATOM     57  C   UNL A   1      41.195  28.836  31.260  1.00  0.00     0.031 A 
ATOM     58  C   UNL A   1      40.363  32.982  36.844  1.00  0.00     0.031 A 
ATOM     59  C   UNL A   1      42.212  28.714  32.271  1.00  0.00     0.049 A 
ATOM     60  C   UNL A   1      41.497  31.999  36.752  1.00  0.00     0.074 A 
ATOM     61  C   UNL A   1      43.334  27.903  32.267  1.00  0.00     0.029 A 
ATOM     62  N   UNL A   1      42.230  29.416  33.467  1.00  0.00    -0.354 N 
ATOM     63  N   UNL A   1      41.798  31.179  35.773  1.00  0.00    -0.248 NA
ATOM     64  C   UNL A   1      42.413  31.932  37.899  1.00  0.00     0.031 C 
ATOM     65  C   UNL A   1      43.996  28.069  33.488  1.00  0.00     0.029 A 
ATOM     66  C   UNL A   1      43.326  29.034  34.223  1.00  0.00     0.049 A 
ATOM     67  H   UNL A   1      41.562  30.086  33.739  1.00  0.00     0.167 HD
ATOM     68  C   UNL A   1      42.955  30.519  36.174  1.00  0.00     0.074 A 
ATOM     69  C   UNL A   1      43.307  31.048  37.476  1.00  0.00     0.031 C 
ATOM     70  C   UNL A   1      43.663  29.565  35.521  1.00  0.00     0.031 A 
BRANCH  57  71
ATOM     71  C   UNL A   1      41.272  27.934  30.054  1.00  0.00    -0.014 A 
ATOM     72  C   UNL A   1      40.247  27.015  29.764  1.00  0.00     0.010 A 
ATOM     73  C   UNL A   1      42.364  28.038  29.173  1.00  0.00     0.010 A 
ATOM     74  C   UNL A   1      40.335  26.186  28.641  1.00  0.00     0.020 A 
ATOM     75  C   UNL A   1      42.440  27.234  28.032  1.00  0.00     0.020 A 
ATOM     76  C   UNL A   1      41.433  26.300  27.783  1.00  0.00     0.054 A 
BRANCH  76  77
ATOM     77  S   UNL A   1      41.509  25.226  26.323  1.00  0.00     0.124 S 
ATOM     78  O   UNL A   1      42.851  24.662  26.435  1.00  0.00    -0.237 OA
ATOM     79  O   UNL A   1      40.413  24.290  26.558  1.00  0.00    -0.237 OA
ATOM     80  O   UNL A   1      41.310  26.146  25.205  1.00  0.00    -0.744 OA
ENDBRANCH  76  77
ENDBRANCH  57  71
BRANCH  58  81
ATOM     81  C   UNL A   1      40.180  33.830  38.056  1.00  0.00    -0.014 A 
ATOM     82  C   UNL A   1      39.330  33.420  39.097  1.00  0.00     0.010 A 
ATOM     83  C   UNL A   1      40.873  35.049  38.179  1.00  0.00     0.010 A 
ATOM     84  C   UNL A   1      39.161  34.220  40.232  1.00  0.00     0.020 A 
ATOM     85  C   UNL A   1      40.731  35.837  39.325  1.00  0.00     0.020 A 
ATOM     86  C   UNL A   1      39.866  35.422  40.339  1.00  0.00     0.054 A 
BRANCH  86  87
ATOM     87  S   UNL A   1      39.674  36.419  41.843  1.00  0.00     0.124 S 
ATOM     88  O   UNL A   1      41.023  36.397  42.398  1.00  0.00    -0.237 OA
ATOM     89  O   UNL A   1      39.228  37.705  41.313  1.00  0.00    -0.237 OA
ATOM     90  O   UNL A   1      38.668  35.688  42.611  1.00  0.00    -0.744 OA
ENDBRANCH  86  87
ENDBRANCH  58  81
BRANCH  70  91
ATOM     91  C   UNL A   1      44.913  29.049  36.186  1.00  0.00    -0.014 A 
ATOM     92  C   UNL A   1      44.885  27.923  37.027  1.00  0.00     0.010 A 
ATOM     93  C   UNL A   1      46.146  29.671  35.915  1.00  0.00     0.010 A 
ATOM     94  C   UNL A   1      46.062  27.449  37.611  1.00  0.00     0.020 A 
ATOM     95  C   UNL A   1      47.330  29.180  36.472  1.00  0.00     0.020 A 
ATOM     96  C   UNL A   1      47.277  28.080  37.329  1.00  0.00     0.054 A 
BRANCH  96  97
ATOM     97  S   UNL A   1      48.797  27.415  38.064  1.00  0.00     0.124 S 
ATOM     98  O   UNL A   1      48.955  26.154  37.347  1.00  0.00    -0.237 OA
ATOM     99  O   UNL A   1      49.782  28.447  37.748  1.00  0.00    -0.237 OA
ATOM    100  O   UNL A   1      48.469  27.289  39.483  1.00  0.00    -0.744 OA
ENDBRANCH  96  97
ENDBRANCH  70  91
ENDBRANCH  44  45
ENDBRANCH  36  39
ENDBRANCH  34  35
ENDBRANCH  33  34
ENDBRANCH   1  33
TORSDOF 20
ENDMDL
