MODEL 1
REMARK VINA RESULT:     -11.3      0.000      0.000
REMARK SMILES Cc1c(CC(=O)NCCCCCCNC(=O)c2ccc(-c3c4nc(c(-c5ccc(S(=O)(=O)[O-])cc5)c5ccc([nH]5)c(-c5ccc(S(=O)(=O)[O-])cc5)c5nc(c(-c6ccc(S(=O)(=O)[O-])cc6)c6ccc3[nH]6)C=C5)C=C4)cc2)c(=O)oc2cc(OCc3c(F)cccc3Cl)ccc12
REMARK SMILES IDX 10 1 9 2 8 3 7 4 5 5 6 6 4 8 3 9 1 10 2 11 95 12 77 13 80 14
REMARK SMILES IDX 94 15 78 16 79 17 81 18 93 19 82 20 83 21 84 22 85 23 86 24
REMARK SMILES IDX 91 25 87 26 88 27 90 28 92 29 89 30 11 31 12 32 13 33 14 34
REMARK SMILES IDX 15 35 16 37 17 38 18 39 76 40 19 41 75 42 20 43 21 44 22 45
REMARK SMILES IDX 69 46 23 47 74 48 68 49 70 50 24 51 73 52 67 53 66 54 25 56
REMARK SMILES IDX 55 57 36 58 54 59 37 60 40 61 53 62 71 63 38 64 39 65 52 67
REMARK SMILES IDX 72 68 41 69 26 70 27 71 35 72 28 73 34 74 29 75 30 76 31 77
REMARK SMILES IDX 32 78 33 79 56 80 57 81 65 82 58 83 64 84 59 85 60 86 61 87
REMARK SMILES IDX 62 88 63 89 42 90 43 91 51 92 44 93 50 94 45 95 46 96 47 97
REMARK SMILES IDX 48 98 49 99
REMARK H PARENT 7 7 14 36 70 55 40 66
REMARK Flexibility Score: inf
ROOT
ATOM      1  C   UNL A   1      33.633  28.682  27.187  1.00  0.00     0.002 C 
ENDROOT
BRANCH   1   2
ATOM      2  C   UNL A   1      32.974  28.231  25.876  1.00  0.00     0.021 C 
BRANCH   2   3
ATOM      3  C   UNL A   1      32.762  29.357  24.863  1.00  0.00     0.116 C 
BRANCH   3   4
ATOM      4  N   UNL A   1      33.514  29.112  23.649  1.00  0.00    -0.356 N 
ATOM      5  C   UNL A   1      33.175  28.399  22.541  1.00  0.00     0.224 C 
ATOM      6  O   UNL A   1      34.019  28.283  21.648  1.00  0.00    -0.275 OA
ATOM      7  H   UNL A   1      34.407  29.526  23.621  1.00  0.00     0.163 HD
BRANCH   5   8
ATOM      8  C   UNL A   1      31.778  27.804  22.387  1.00  0.00     0.143 C 
BRANCH   8   9
ATOM      9  C   UNL A   1      31.628  26.386  22.896  1.00  0.00     0.051 A 
ATOM     10  C   UNL A   1      32.961  25.320  21.041  1.00  0.00     0.046 C 
ATOM     11  C   UNL A   1      32.169  25.289  22.323  1.00  0.00    -0.029 A 
ATOM     12  C   UNL A   1      32.030  23.983  23.000  1.00  0.00     0.021 A 
ATOM     13  C   UNL A   1      30.774  26.274  24.115  1.00  0.00     0.340 A 
ATOM     14  C   UNL A   1      31.323  23.912  24.198  1.00  0.00     0.142 A 
ATOM     15  C   UNL A   1      32.636  22.807  22.546  1.00  0.00     0.016 A 
ATOM     16  O   UNL A   1      30.186  27.244  24.583  1.00  0.00    -0.246 OA
ATOM     17  O   UNL A   1      30.673  25.037  24.722  1.00  0.00    -0.422 OA
ATOM     18  C   UNL A   1      31.255  22.749  24.973  1.00  0.00     0.094 A 
ATOM     19  C   UNL A   1      32.590  21.640  23.314  1.00  0.00     0.047 A 
ATOM     20  C   UNL A   1      31.953  21.625  24.557  1.00  0.00     0.123 A 
BRANCH  20  21
ATOM     21  O   UNL A   1      32.202  20.502  25.293  1.00  0.00    -0.489 OA
BRANCH  21  22
ATOM     22  C   UNL A   1      33.289  20.488  26.221  1.00  0.00     0.270 C 
BRANCH  22  23
ATOM     23  C   UNL A   1      34.607  21.154  25.871  1.00  0.00     0.044 A 
ATOM     24  C   UNL A   1      34.759  22.468  26.349  1.00  0.00     0.131 A 
ATOM     25  C   UNL A   1      35.687  20.613  25.160  1.00  0.00     0.050 A 
ATOM     26  F   UNL A   1      33.793  23.004  27.111  1.00  0.00    -0.207 F 
ATOM     27  C   UNL A   1      35.878  23.248  26.068  1.00  0.00     0.040 A 
ATOM     28  C   UNL A   1      36.796  21.411  24.829  1.00  0.00     0.021 A 
ATOM     29  Cl  UNL A   1      35.801  18.958  24.684  1.00  0.00    -0.084 Cl
ATOM     30  C   UNL A   1      36.890  22.728  25.273  1.00  0.00     0.005 A 
ENDBRANCH  22  23
ENDBRANCH  21  22
ENDBRANCH  20  21
ENDBRANCH   8   9
ENDBRANCH   5   8
ENDBRANCH   3   4
ENDBRANCH   2   3
ENDBRANCH   1   2
BRANCH   1  31
ATOM     31  C   UNL A   1      34.868  29.577  27.024  1.00  0.00     0.002 C 
BRANCH  31  32
ATOM     32  C   UNL A   1      35.135  30.533  28.188  1.00  0.00     0.021 C 
BRANCH  32  33
ATOM     33  C   UNL A   1      35.706  29.871  29.437  1.00  0.00     0.116 C 
BRANCH  33  34
ATOM     34  N   UNL A   1      35.838  30.810  30.541  1.00  0.00    -0.352 N 
ATOM     35  C   UNL A   1      36.968  31.217  31.207  1.00  0.00     0.251 C 
ATOM     36  H   UNL A   1      34.996  31.212  30.855  1.00  0.00     0.163 HD
ATOM     37  O   UNL A   1      36.869  31.860  32.247  1.00  0.00    -0.269 OA
BRANCH  35  38
ATOM     38  C   UNL A   1      38.303  30.863  30.678  1.00  0.00     0.039 A 
ATOM     39  C   UNL A   1      39.371  30.730  31.570  1.00  0.00     0.014 A 
ATOM     40  C   UNL A   1      38.505  30.671  29.308  1.00  0.00     0.014 A 
ATOM     41  C   UNL A   1      40.627  30.348  31.093  1.00  0.00     0.010 A 
ATOM     42  C   UNL A   1      39.739  30.221  28.845  1.00  0.00     0.010 A 
ATOM     43  C   UNL A   1      40.815  30.059  29.731  1.00  0.00    -0.014 A 
BRANCH  43  44
ATOM     44  C   UNL A   1      42.126  29.581  29.221  1.00  0.00     0.031 A 
ATOM     45  C   UNL A   1      43.291  30.529  29.116  1.00  0.00     0.074 A 
ATOM     46  C   UNL A   1      42.252  28.307  28.800  1.00  0.00     0.049 A 
ATOM     47  N   UNL A   1      44.496  30.303  28.657  1.00  0.00    -0.248 NA
ATOM     48  C   UNL A   1      43.067  31.914  29.558  1.00  0.00     0.031 C 
ATOM     49  C   UNL A   1      41.187  27.302  28.810  1.00  0.00     0.029 A 
ATOM     50  N   UNL A   1      43.332  27.638  28.280  1.00  0.00    -0.354 N 
ATOM     51  C   UNL A   1      45.168  31.517  28.744  1.00  0.00     0.074 A 
ATOM     52  C   UNL A   1      44.220  32.488  29.247  1.00  0.00     0.031 C 
ATOM     53  C   UNL A   1      41.674  26.138  28.348  1.00  0.00     0.029 A 
ATOM     54  C   UNL A   1      43.071  26.323  27.971  1.00  0.00     0.049 A 
ATOM     55  H   UNL A   1      44.210  28.060  28.139  1.00  0.00     0.167 HD
ATOM     56  C   UNL A   1      46.462  31.796  28.453  1.00  0.00     0.031 A 
ATOM     57  C   UNL A   1      43.865  25.372  27.440  1.00  0.00     0.031 A 
ATOM     58  C   UNL A   1      47.404  30.824  27.965  1.00  0.00     0.049 A 
ATOM     59  C   UNL A   1      45.295  25.707  27.114  1.00  0.00     0.074 A 
ATOM     60  C   UNL A   1      48.752  30.994  27.695  1.00  0.00     0.029 A 
ATOM     61  N   UNL A   1      47.103  29.503  27.672  1.00  0.00    -0.354 N 
ATOM     62  N   UNL A   1      45.928  26.845  27.270  1.00  0.00    -0.248 NA
ATOM     63  C   UNL A   1      46.119  24.628  26.554  1.00  0.00     0.031 C 
ATOM     64  C   UNL A   1      49.250  29.792  27.186  1.00  0.00     0.029 A 
ATOM     65  C   UNL A   1      48.230  28.854  27.197  1.00  0.00     0.049 A 
ATOM     66  H   UNL A   1      46.216  29.088  27.785  1.00  0.00     0.167 HD
ATOM     67  C   UNL A   1      47.234  26.610  26.850  1.00  0.00     0.074 A 
ATOM     68  C   UNL A   1      47.301  25.220  26.451  1.00  0.00     0.031 C 
ATOM     69  C   UNL A   1      48.282  27.469  26.801  1.00  0.00     0.031 A 
BRANCH  56  70
ATOM     70  C   UNL A   1      46.931  33.213  28.651  1.00  0.00    -0.014 A 
ATOM     71  C   UNL A   1      46.907  34.143  27.595  1.00  0.00     0.010 A 
ATOM     72  C   UNL A   1      47.364  33.635  29.922  1.00  0.00     0.010 A 
ATOM     73  C   UNL A   1      47.348  35.453  27.794  1.00  0.00     0.020 A 
ATOM     74  C   UNL A   1      47.778  34.954  30.133  1.00  0.00     0.020 A 
ATOM     75  C   UNL A   1      47.784  35.850  29.063  1.00  0.00     0.054 A 
BRANCH  75  76
ATOM     76  S   UNL A   1      48.332  37.563  29.296  1.00  0.00     0.124 S 
ATOM     77  O   UNL A   1      47.194  38.315  28.774  1.00  0.00    -0.237 OA
ATOM     78  O   UNL A   1      48.527  37.643  30.741  1.00  0.00    -0.237 OA
ATOM     79  O   UNL A   1      49.553  37.648  28.499  1.00  0.00    -0.744 OA
ENDBRANCH  75  76
ENDBRANCH  56  70
BRANCH  57  80
ATOM     80  C   UNL A   1      43.326  24.005  27.197  1.00  0.00    -0.014 A 
ATOM     81  C   UNL A   1      42.899  23.623  25.914  1.00  0.00     0.010 A 
ATOM     82  C   UNL A   1      43.248  23.074  28.248  1.00  0.00     0.010 A 
ATOM     83  C   UNL A   1      42.387  22.341  25.689  1.00  0.00     0.020 A 
ATOM     84  C   UNL A   1      42.765  21.782  28.022  1.00  0.00     0.020 A 
ATOM     85  C   UNL A   1      42.326  21.428  26.745  1.00  0.00     0.054 A 
BRANCH  85  86
ATOM     86  S   UNL A   1      41.705  19.754  26.419  1.00  0.00     0.124 S 
ATOM     87  O   UNL A   1      42.042  19.059  27.658  1.00  0.00    -0.237 OA
ATOM     88  O   UNL A   1      40.281  19.985  26.189  1.00  0.00    -0.237 OA
ATOM     89  O   UNL A   1      42.458  19.335  25.239  1.00  0.00    -0.744 OA
ENDBRANCH  85  86
ENDBRANCH  57  80
BRANCH  69  90
ATOM     90  C   UNL A   1      49.604  26.926  26.328  1.00  0.00    -0.014 A 
ATOM     91  C   UNL A   1      50.433  26.176  27.182  1.00  0.00     0.010 A 
ATOM     92  C   UNL A   1      49.996  27.122  24.991  1.00  0.00     0.010 A 
ATOM     93  C   UNL A   1      51.644  25.656  26.714  1.00  0.00     0.020 A 
ATOM     94  C   UNL A   1      51.191  26.579  24.511  1.00  0.00     0.020 A 
ATOM     95  C   UNL A   1      52.013  25.861  25.381  1.00  0.00     0.054 A 
BRANCH  95  96
ATOM     96  S   UNL A   1      53.565  25.134  24.786  1.00  0.00     0.124 S 
ATOM     97  O   UNL A   1      54.563  25.892  25.536  1.00  0.00    -0.237 OA
ATOM     98  O   UNL A   1      53.427  23.730  25.164  1.00  0.00    -0.237 OA
ATOM     99  O   UNL A   1      53.539  25.392  23.347  1.00  0.00    -0.744 OA
ENDBRANCH  95  96
ENDBRANCH  69  90
ENDBRANCH  43  44
ENDBRANCH  35  38
ENDBRANCH  33  34
ENDBRANCH  32  33
ENDBRANCH  31  32
ENDBRANCH   1  31
TORSDOF 20
ENDMDL
MODEL 2
REMARK VINA RESULT:     -11.3      1.450      2.315
REMARK SMILES Cc1c(CC(=O)NCCCCCCNC(=O)c2ccc(-c3c4nc(c(-c5ccc(S(=O)(=O)[O-])cc5)c5ccc([nH]5)c(-c5ccc(S(=O)(=O)[O-])cc5)c5nc(c(-c6ccc(S(=O)(=O)[O-])cc6)c6ccc3[nH]6)C=C5)C=C4)cc2)c(=O)oc2cc(OCc3c(F)cccc3Cl)ccc12
REMARK SMILES IDX 10 1 9 2 8 3 7 4 5 5 6 6 4 8 3 9 1 10 2 11 95 12 77 13 80 14
REMARK SMILES IDX 94 15 78 16 79 17 81 18 93 19 82 20 83 21 84 22 85 23 86 24
REMARK SMILES IDX 91 25 87 26 88 27 90 28 92 29 89 30 11 31 12 32 13 33 14 34
REMARK SMILES IDX 15 35 16 37 17 38 18 39 76 40 19 41 75 42 20 43 21 44 22 45
REMARK SMILES IDX 69 46 23 47 74 48 68 49 70 50 24 51 73 52 67 53 66 54 25 56
REMARK SMILES IDX 55 57 36 58 54 59 37 60 40 61 53 62 71 63 38 64 39 65 52 67
REMARK SMILES IDX 72 68 41 69 26 70 27 71 35 72 28 73 34 74 29 75 30 76 31 77
REMARK SMILES IDX 32 78 33 79 56 80 57 81 65 82 58 83 64 84 59 85 60 86 61 87
REMARK SMILES IDX 62 88 63 89 42 90 43 91 51 92 44 93 50 94 45 95 46 96 47 97
REMARK SMILES IDX 48 98 49 99
REMARK H PARENT 7 7 14 36 70 55 40 66
REMARK Flexibility Score: inf
ROOT
ATOM      1  C   UNL A   1      33.484  29.594  27.375  1.00  0.00     0.002 C 
ENDROOT
BRANCH   1   2
ATOM      2  C   UNL A   1      33.020  28.862  26.107  1.00  0.00     0.021 C 
BRANCH   2   3
ATOM      3  C   UNL A   1      31.582  29.177  25.694  1.00  0.00     0.116 C 
BRANCH   3   4
ATOM      4  N   UNL A   1      31.515  29.573  24.302  1.00  0.00    -0.356 N 
ATOM      5  C   UNL A   1      31.149  28.854  23.207  1.00  0.00     0.224 C 
ATOM      6  O   UNL A   1      31.231  29.400  22.104  1.00  0.00    -0.275 OA
ATOM      7  H   UNL A   1      31.773  30.506  24.121  1.00  0.00     0.163 HD
BRANCH   5   8
ATOM      8  C   UNL A   1      30.607  27.434  23.345  1.00  0.00     0.143 C 
BRANCH   8   9
ATOM      9  C   UNL A   1      31.579  26.432  23.931  1.00  0.00     0.051 A 
ATOM     10  C   UNL A   1      30.231  25.976  26.013  1.00  0.00     0.046 C 
ATOM     11  C   UNL A   1      31.407  25.766  25.095  1.00  0.00    -0.029 A 
ATOM     12  C   UNL A   1      32.390  24.734  25.482  1.00  0.00     0.021 A 
ATOM     13  C   UNL A   1      32.814  26.246  23.115  1.00  0.00     0.340 A 
ATOM     14  C   UNL A   1      33.482  24.492  24.652  1.00  0.00     0.142 A 
ATOM     15  C   UNL A   1      32.254  23.918  26.610  1.00  0.00     0.016 A 
ATOM     16  O   UNL A   1      33.036  26.923  22.116  1.00  0.00    -0.246 OA
ATOM     17  O   UNL A   1      33.706  25.267  23.507  1.00  0.00    -0.422 OA
ATOM     18  C   UNL A   1      34.386  23.446  24.869  1.00  0.00     0.094 A 
ATOM     19  C   UNL A   1      33.139  22.860  26.836  1.00  0.00     0.047 A 
ATOM     20  C   UNL A   1      34.169  22.584  25.935  1.00  0.00     0.123 A 
BRANCH  20  21
ATOM     21  O   UNL A   1      34.790  21.387  26.152  1.00  0.00    -0.489 OA
BRANCH  21  22
ATOM     22  C   UNL A   1      35.239  20.607  25.042  1.00  0.00     0.270 C 
BRANCH  22  23
ATOM     23  C   UNL A   1      34.414  19.434  24.544  1.00  0.00     0.044 A 
ATOM     24  C   UNL A   1      35.086  18.199  24.517  1.00  0.00     0.131 A 
ATOM     25  C   UNL A   1      33.071  19.431  24.139  1.00  0.00     0.050 A 
ATOM     26  F   UNL A   1      36.344  18.127  24.977  1.00  0.00    -0.207 F 
ATOM     27  C   UNL A   1      34.499  17.032  24.031  1.00  0.00     0.040 A 
ATOM     28  C   UNL A   1      32.491  18.270  23.600  1.00  0.00     0.021 A 
ATOM     29  Cl  UNL A   1      32.006  20.778  24.308  1.00  0.00    -0.084 Cl
ATOM     30  C   UNL A   1      33.203  17.075  23.537  1.00  0.00     0.005 A 
ENDBRANCH  22  23
ENDBRANCH  21  22
ENDBRANCH  20  21
ENDBRANCH   8   9
ENDBRANCH   5   8
ENDBRANCH   3   4
ENDBRANCH   2   3
ENDBRANCH   1   2
BRANCH   1  31
ATOM     31  C   UNL A   1      33.821  31.078  27.187  1.00  0.00     0.002 C 
BRANCH  31  32
ATOM     32  C   UNL A   1      34.959  31.601  28.067  1.00  0.00     0.021 C 
BRANCH  32  33
ATOM     33  C   UNL A   1      35.496  30.594  29.079  1.00  0.00     0.116 C 
BRANCH  33  34
ATOM     34  N   UNL A   1      35.713  31.196  30.385  1.00  0.00    -0.352 N 
ATOM     35  C   UNL A   1      36.826  31.152  31.190  1.00  0.00     0.251 C 
ATOM     36  H   UNL A   1      34.954  31.710  30.744  1.00  0.00     0.163 HD
ATOM     37  O   UNL A   1      36.759  31.546  32.349  1.00  0.00    -0.269 OA
BRANCH  35  38
ATOM     38  C   UNL A   1      38.097  30.611  30.661  1.00  0.00     0.039 A 
ATOM     39  C   UNL A   1      38.362  30.720  29.294  1.00  0.00     0.014 A 
ATOM     40  C   UNL A   1      39.020  29.989  31.507  1.00  0.00     0.014 A 
ATOM     41  C   UNL A   1      39.578  30.258  28.786  1.00  0.00     0.010 A 
ATOM     42  C   UNL A   1      40.260  29.595  31.011  1.00  0.00     0.010 A 
ATOM     43  C   UNL A   1      40.552  29.721  29.645  1.00  0.00    -0.014 A 
BRANCH  43  44
ATOM     44  C   UNL A   1      41.878  29.293  29.130  1.00  0.00     0.031 A 
ATOM     45  C   UNL A   1      43.009  30.281  29.028  1.00  0.00     0.074 A 
ATOM     46  C   UNL A   1      42.048  28.026  28.703  1.00  0.00     0.049 A 
ATOM     47  N   UNL A   1      44.220  30.100  28.567  1.00  0.00    -0.248 NA
ATOM     48  C   UNL A   1      42.737  31.655  29.478  1.00  0.00     0.031 C 
ATOM     49  C   UNL A   1      41.019  26.983  28.710  1.00  0.00     0.029 A 
ATOM     50  N   UNL A   1      43.150  27.397  28.178  1.00  0.00    -0.354 N 
ATOM     51  C   UNL A   1      44.849  31.336  28.659  1.00  0.00     0.074 A 
ATOM     52  C   UNL A   1      43.869  32.271  29.168  1.00  0.00     0.031 C 
ATOM     53  C   UNL A   1      41.545  25.840  28.242  1.00  0.00     0.029 A 
ATOM     54  C   UNL A   1      42.935  26.076  27.863  1.00  0.00     0.049 A 
ATOM     55  H   UNL A   1      44.013  27.851  28.039  1.00  0.00     0.167 HD
ATOM     56  C   UNL A   1      46.132  31.661  28.367  1.00  0.00     0.031 A 
ATOM     57  C   UNL A   1      43.760  25.155  27.326  1.00  0.00     0.031 A 
ATOM     58  C   UNL A   1      47.108  30.726  27.873  1.00  0.00     0.049 A 
ATOM     59  C   UNL A   1      45.177  25.542  27.001  1.00  0.00     0.074 A 
ATOM     60  C   UNL A   1      48.448  30.944  27.602  1.00  0.00     0.029 A 
ATOM     61  N   UNL A   1      46.852  29.396  27.574  1.00  0.00    -0.354 N 
ATOM     62  N   UNL A   1      45.771  26.701  27.160  1.00  0.00    -0.248 NA
ATOM     63  C   UNL A   1      46.037  24.495  26.434  1.00  0.00     0.031 C 
ATOM     64  C   UNL A   1      48.988  29.762  27.086  1.00  0.00     0.029 A 
ATOM     65  C   UNL A   1      48.000  28.789  27.094  1.00  0.00     0.049 A 
ATOM     66  H   UNL A   1      45.981  28.950  27.686  1.00  0.00     0.167 HD
ATOM     67  C   UNL A   1      47.083  26.514  26.738  1.00  0.00     0.074 A 
ATOM     68  C   UNL A   1      47.199  25.128  26.332  1.00  0.00     0.031 C 
ATOM     69  C   UNL A   1      48.101  27.408  26.692  1.00  0.00     0.031 A 
BRANCH  56  70
ATOM     70  C   UNL A   1      46.552  33.093  28.571  1.00  0.00    -0.014 A 
ATOM     71  C   UNL A   1      47.119  33.519  29.787  1.00  0.00     0.010 A 
ATOM     72  C   UNL A   1      46.419  34.018  27.519  1.00  0.00     0.010 A 
ATOM     73  C   UNL A   1      47.502  34.851  29.961  1.00  0.00     0.020 A 
ATOM     74  C   UNL A   1      46.828  35.345  27.679  1.00  0.00     0.020 A 
ATOM     75  C   UNL A   1      47.351  35.758  28.906  1.00  0.00     0.054 A 
BRANCH  75  76
ATOM     76  S   UNL A   1      47.875  37.476  29.156  1.00  0.00     0.124 S 
ATOM     77  O   UNL A   1      46.612  38.197  29.019  1.00  0.00    -0.237 OA
ATOM     78  O   UNL A   1      48.437  37.447  30.503  1.00  0.00    -0.237 OA
ATOM     79  O   UNL A   1      48.841  37.703  28.085  1.00  0.00    -0.744 OA
ENDBRANCH  75  76
ENDBRANCH  56  70
BRANCH  57  80
ATOM     80  C   UNL A   1      43.269  23.772  27.078  1.00  0.00    -0.014 A 
ATOM     81  C   UNL A   1      43.187  22.843  28.131  1.00  0.00     0.010 A 
ATOM     82  C   UNL A   1      42.868  23.378  25.789  1.00  0.00     0.010 A 
ATOM     83  C   UNL A   1      42.731  21.542  27.896  1.00  0.00     0.020 A 
ATOM     84  C   UNL A   1      42.384  22.088  25.554  1.00  0.00     0.020 A 
ATOM     85  C   UNL A   1      42.331  21.175  26.608  1.00  0.00     0.054 A 
BRANCH  85  86
ATOM     86  S   UNL A   1      41.694  19.497  26.336  1.00  0.00     0.124 S 
ATOM     87  O   UNL A   1      42.449  19.074  25.160  1.00  0.00    -0.237 OA
ATOM     88  O   UNL A   1      42.037  18.823  27.586  1.00  0.00    -0.237 OA
ATOM     89  O   UNL A   1      40.264  19.705  26.122  1.00  0.00    -0.744 OA
ENDBRANCH  85  86
ENDBRANCH  57  80
BRANCH  69  90
ATOM     90  C   UNL A   1      49.440  26.915  26.214  1.00  0.00    -0.014 A 
ATOM     91  C   UNL A   1      49.859  27.110  24.886  1.00  0.00     0.010 A 
ATOM     92  C   UNL A   1      50.316  26.296  27.126  1.00  0.00     0.010 A 
ATOM     93  C   UNL A   1      51.119  26.669  24.470  1.00  0.00     0.020 A 
ATOM     94  C   UNL A   1      51.588  25.881  26.721  1.00  0.00     0.020 A 
ATOM     95  C   UNL A   1      51.975  26.059  25.392  1.00  0.00     0.054 A 
BRANCH  95  96
ATOM     96  S   UNL A   1      53.624  25.541  24.839  1.00  0.00     0.124 S 
ATOM     97  O   UNL A   1      54.496  26.323  25.710  1.00  0.00    -0.237 OA
ATOM     98  O   UNL A   1      53.608  24.102  25.093  1.00  0.00    -0.237 OA
ATOM     99  O   UNL A   1      53.650  25.918  23.427  1.00  0.00    -0.744 OA
ENDBRANCH  95  96
ENDBRANCH  69  90
ENDBRANCH  43  44
ENDBRANCH  35  38
ENDBRANCH  33  34
ENDBRANCH  32  33
ENDBRANCH  31  32
ENDBRANCH   1  31
TORSDOF 20
ENDMDL
MODEL 3
REMARK VINA RESULT:     -11.2      5.890      8.329
REMARK SMILES Cc1c(CC(=O)NCCCCCCNC(=O)c2ccc(-c3c4nc(c(-c5ccc(S(=O)(=O)[O-])cc5)c5ccc([nH]5)c(-c5ccc(S(=O)(=O)[O-])cc5)c5nc(c(-c6ccc(S(=O)(=O)[O-])cc6)c6ccc3[nH]6)C=C5)C=C4)cc2)c(=O)oc2cc(OCc3c(F)cccc3Cl)ccc12
REMARK SMILES IDX 10 1 9 2 8 3 7 4 5 5 6 6 4 8 3 9 1 10 2 11 95 12 77 13 80 14
REMARK SMILES IDX 94 15 78 16 79 17 81 18 93 19 82 20 83 21 84 22 85 23 86 24
REMARK SMILES IDX 91 25 87 26 88 27 90 28 92 29 89 30 11 31 12 32 13 33 14 34
REMARK SMILES IDX 15 35 16 37 17 38 18 39 76 40 19 41 75 42 20 43 21 44 22 45
REMARK SMILES IDX 69 46 23 47 74 48 68 49 70 50 24 51 73 52 67 53 66 54 25 56
REMARK SMILES IDX 55 57 36 58 54 59 37 60 40 61 53 62 71 63 38 64 39 65 52 67
REMARK SMILES IDX 72 68 41 69 26 70 27 71 35 72 28 73 34 74 29 75 30 76 31 77
REMARK SMILES IDX 32 78 33 79 56 80 57 81 65 82 58 83 64 84 59 85 60 86 61 87
REMARK SMILES IDX 62 88 63 89 42 90 43 91 51 92 44 93 50 94 45 95 46 96 47 97
REMARK SMILES IDX 48 98 49 99
REMARK H PARENT 7 7 14 36 70 55 40 66
REMARK Flexibility Score: inf
ROOT
ATOM      1  C   UNL A   1      35.410  31.980  28.371  1.00  0.00     0.002 C 
ENDROOT
BRANCH   1   2
ATOM      2  C   UNL A   1      33.951  31.526  28.219  1.00  0.00     0.021 C 
BRANCH   2   3
ATOM      3  C   UNL A   1      33.751  30.390  27.214  1.00  0.00     0.116 C 
BRANCH   3   4
ATOM      4  N   UNL A   1      32.745  30.736  26.231  1.00  0.00    -0.356 N 
ATOM      5  C   UNL A   1      31.730  29.988  25.722  1.00  0.00     0.224 C 
ATOM      6  O   UNL A   1      31.029  30.490  24.838  1.00  0.00    -0.275 OA
ATOM      7  H   UNL A   1      32.805  31.654  25.878  1.00  0.00     0.163 HD
BRANCH   5   8
ATOM      8  C   UNL A   1      31.435  28.591  26.261  1.00  0.00     0.143 C 
BRANCH   8   9
ATOM      9  C   UNL A   1      31.746  27.458  25.305  1.00  0.00     0.051 A 
ATOM     10  C   UNL A   1      34.107  27.099  26.115  1.00  0.00     0.046 C 
ATOM     11  C   UNL A   1      32.913  26.778  25.253  1.00  0.00    -0.029 A 
ATOM     12  C   UNL A   1      33.028  25.620  24.342  1.00  0.00     0.021 A 
ATOM     13  C   UNL A   1      30.635  27.151  24.358  1.00  0.00     0.340 A 
ATOM     14  C   UNL A   1      31.942  25.276  23.542  1.00  0.00     0.142 A 
ATOM     15  C   UNL A   1      34.152  24.789  24.284  1.00  0.00     0.016 A 
ATOM     16  O   UNL A   1      29.614  27.830  24.318  1.00  0.00    -0.246 OA
ATOM     17  O   UNL A   1      30.779  26.057  23.526  1.00  0.00    -0.422 OA
ATOM     18  C   UNL A   1      31.914  24.121  22.753  1.00  0.00     0.094 A 
ATOM     19  C   UNL A   1      34.137  23.624  23.513  1.00  0.00     0.047 A 
ATOM     20  C   UNL A   1      32.997  23.255  22.794  1.00  0.00     0.123 A 
BRANCH  20  21
ATOM     21  O   UNL A   1      33.044  21.985  22.296  1.00  0.00    -0.489 OA
BRANCH  21  22
ATOM     22  C   UNL A   1      32.035  21.040  22.663  1.00  0.00     0.270 C 
BRANCH  22  23
ATOM     23  C   UNL A   1      32.401  19.791  23.443  1.00  0.00     0.044 A 
ATOM     24  C   UNL A   1      32.491  18.613  22.680  1.00  0.00     0.131 A 
ATOM     25  C   UNL A   1      32.682  19.678  24.812  1.00  0.00     0.050 A 
ATOM     26  F   UNL A   1      32.320  18.679  21.351  1.00  0.00    -0.207 F 
ATOM     27  C   UNL A   1      32.756  17.368  23.244  1.00  0.00     0.040 A 
ATOM     28  C   UNL A   1      32.897  18.417  25.395  1.00  0.00     0.021 A 
ATOM     29  Cl  UNL A   1      32.850  21.024  25.880  1.00  0.00    -0.084 Cl
ATOM     30  C   UNL A   1      32.927  17.263  24.617  1.00  0.00     0.005 A 
ENDBRANCH  22  23
ENDBRANCH  21  22
ENDBRANCH  20  21
ENDBRANCH   8   9
ENDBRANCH   5   8
ENDBRANCH   3   4
ENDBRANCH   2   3
ENDBRANCH   1   2
BRANCH   1  31
ATOM     31  C   UNL A   1      35.664  33.467  28.099  1.00  0.00     0.002 C 
BRANCH  31  32
ATOM     32  C   UNL A   1      34.406  34.310  27.875  1.00  0.00     0.021 C 
BRANCH  32  33
ATOM     33  C   UNL A   1      34.386  35.637  28.626  1.00  0.00     0.116 C 
BRANCH  33  34
ATOM     34  N   UNL A   1      33.318  35.690  29.613  1.00  0.00    -0.352 N 
ATOM     35  C   UNL A   1      33.255  35.118  30.860  1.00  0.00     0.251 C 
ATOM     36  H   UNL A   1      32.526  36.212  29.349  1.00  0.00     0.163 HD
ATOM     37  O   UNL A   1      32.193  35.098  31.472  1.00  0.00    -0.269 OA
BRANCH  35  38
ATOM     38  C   UNL A   1      34.466  34.510  31.453  1.00  0.00     0.039 A 
ATOM     39  C   UNL A   1      34.476  33.138  31.715  1.00  0.00     0.014 A 
ATOM     40  C   UNL A   1      35.585  35.291  31.760  1.00  0.00     0.014 A 
ATOM     41  C   UNL A   1      35.628  32.540  32.230  1.00  0.00     0.010 A 
ATOM     42  C   UNL A   1      36.755  34.681  32.206  1.00  0.00     0.010 A 
ATOM     43  C   UNL A   1      36.789  33.300  32.449  1.00  0.00    -0.014 A 
BRANCH  43  44
ATOM     44  C   UNL A   1      38.044  32.665  32.927  1.00  0.00     0.031 A 
ATOM     45  C   UNL A   1      38.551  32.937  34.318  1.00  0.00     0.074 A 
ATOM     46  C   UNL A   1      38.756  31.886  32.089  1.00  0.00     0.049 A 
ATOM     47  N   UNL A   1      39.645  32.507  34.894  1.00  0.00    -0.248 NA
ATOM     48  C   UNL A   1      37.740  33.829  35.162  1.00  0.00     0.031 C 
ATOM     49  C   UNL A   1      38.394  31.578  30.704  1.00  0.00     0.029 A 
ATOM     50  N   UNL A   1      39.936  31.210  32.279  1.00  0.00    -0.354 N 
ATOM     51  C   UNL A   1      39.659  33.083  36.159  1.00  0.00     0.074 A 
ATOM     52  C   UNL A   1      38.494  33.936  36.246  1.00  0.00     0.031 C 
ATOM     53  C   UNL A   1      39.314  30.752  30.180  1.00  0.00     0.029 A 
ATOM     54  C   UNL A   1      40.353  30.504  31.175  1.00  0.00     0.049 A 
ATOM     55  H   UNL A   1      40.438  31.230  33.126  1.00  0.00     0.167 HD
ATOM     56  C   UNL A   1      40.548  32.902  37.165  1.00  0.00     0.031 A 
ATOM     57  C   UNL A   1      41.449  29.743  30.981  1.00  0.00     0.031 A 
ATOM     58  C   UNL A   1      41.699  32.042  37.079  1.00  0.00     0.049 A 
ATOM     59  C   UNL A   1      42.427  29.566  32.110  1.00  0.00     0.074 A 
ATOM     60  C   UNL A   1      42.627  31.747  38.063  1.00  0.00     0.029 A 
ATOM     61  N   UNL A   1      42.082  31.340  35.946  1.00  0.00    -0.354 N 
ATOM     62  N   UNL A   1      42.384  30.066  33.322  1.00  0.00    -0.248 NA
ATOM     63  C   UNL A   1      43.594  28.713  31.848  1.00  0.00     0.031 C 
ATOM     64  C   UNL A   1      43.602  30.912  37.508  1.00  0.00     0.029 A 
ATOM     65  C   UNL A   1      43.247  30.635  36.197  1.00  0.00     0.049 A 
ATOM     66  H   UNL A   1      41.595  31.342  35.090  1.00  0.00     0.167 HD
ATOM     67  C   UNL A   1      43.506  29.566  33.975  1.00  0.00     0.074 A 
ATOM     68  C   UNL A   1      44.196  28.713  33.030  1.00  0.00     0.031 C 
ATOM     69  C   UNL A   1      43.925  29.791  35.245  1.00  0.00     0.031 A 
BRANCH  56  70
ATOM     70  C   UNL A   1      40.312  33.655  38.448  1.00  0.00    -0.014 A 
ATOM     71  C   UNL A   1      40.953  34.883  38.701  1.00  0.00     0.010 A 
ATOM     72  C   UNL A   1      39.404  33.152  39.397  1.00  0.00     0.010 A 
ATOM     73  C   UNL A   1      40.724  35.568  39.896  1.00  0.00     0.020 A 
ATOM     74  C   UNL A   1      39.149  33.849  40.582  1.00  0.00     0.020 A 
ATOM     75  C   UNL A   1      39.826  35.045  40.832  1.00  0.00     0.054 A 
BRANCH  75  76
ATOM     76  S   UNL A   1      39.535  35.968  42.366  1.00  0.00     0.124 S 
ATOM     77  O   UNL A   1      38.249  35.427  42.801  1.00  0.00    -0.237 OA
ATOM     78  O   UNL A   1      40.683  35.593  43.187  1.00  0.00    -0.237 OA
ATOM     79  O   UNL A   1      39.510  37.362  41.933  1.00  0.00    -0.744 OA
ENDBRANCH  75  76
ENDBRANCH  56  70
BRANCH  57  80
ATOM     80  C   UNL A   1      41.669  29.079  29.666  1.00  0.00    -0.014 A 
ATOM     81  C   UNL A   1      41.243  27.757  29.454  1.00  0.00     0.010 A 
ATOM     82  C   UNL A   1      42.295  29.772  28.615  1.00  0.00     0.010 A 
ATOM     83  C   UNL A   1      41.455  27.132  28.221  1.00  0.00     0.020 A 
ATOM     84  C   UNL A   1      42.483  29.163  27.371  1.00  0.00     0.020 A 
ATOM     85  C   UNL A   1      42.073  27.841  27.187  1.00  0.00     0.054 A 
BRANCH  85  86
ATOM     86  S   UNL A   1      42.293  27.029  25.579  1.00  0.00     0.124 S 
ATOM     87  O   UNL A   1      42.348  28.168  24.668  1.00  0.00    -0.237 OA
ATOM     88  O   UNL A   1      43.547  26.302  25.762  1.00  0.00    -0.237 OA
ATOM     89  O   UNL A   1      41.106  26.185  25.458  1.00  0.00    -0.744 OA
ENDBRANCH  85  86
ENDBRANCH  57  80
BRANCH  69  90
ATOM     90  C   UNL A   1      45.173  29.083  35.702  1.00  0.00    -0.014 A 
ATOM     91  C   UNL A   1      45.116  27.798  36.270  1.00  0.00     0.010 A 
ATOM     92  C   UNL A   1      46.426  29.693  35.507  1.00  0.00     0.010 A 
ATOM     93  C   UNL A   1      46.290  27.147  36.661  1.00  0.00     0.020 A 
ATOM     94  C   UNL A   1      47.603  29.032  35.869  1.00  0.00     0.020 A 
ATOM     95  C   UNL A   1      47.525  27.768  36.456  1.00  0.00     0.054 A 
BRANCH  95  96
ATOM     96  S   UNL A   1      49.036  26.881  36.928  1.00  0.00     0.124 S 
ATOM     97  O   UNL A   1      50.025  27.463  36.024  1.00  0.00    -0.237 OA
ATOM     98  O   UNL A   1      49.188  27.233  38.337  1.00  0.00    -0.237 OA
ATOM     99  O   UNL A   1      48.708  25.479  36.673  1.00  0.00    -0.744 OA
ENDBRANCH  95  96
ENDBRANCH  69  90
ENDBRANCH  43  44
ENDBRANCH  35  38
ENDBRANCH  33  34
ENDBRANCH  32  33
ENDBRANCH  31  32
ENDBRANCH   1  31
TORSDOF 20
ENDMDL
