MODEL 1
REMARK VINA RESULT:     -12.4      0.000      0.000
REMARK SMILES NS(=O)(=O)c1ccc(-n2nc(C(=O)NCCCCCCNC(=O)c3ccc(-c4c5nc(c(-c6ccc(S(=O)(=O)[O-])cc6)c6ccc([nH]6)c(-c6ccc(S(=O)(=O)[O-])cc6)c6nc(c(-c7ccc(S(=O)(=O)[O-])cc7)c7ccc4[nH]7)C=C6)C=C5)cc3)c(Cl)c2-c2ccc(Cl)cc2)cc1
REMARK SMILES IDX 17 1 16 2 15 3 14 4 12 5 13 6 11 8 9 9 10 10 86 11 84 12
REMARK SMILES IDX 85 13 8 14 5 15 6 16 95 17 7 18 94 19 2 20 3 21 4 22 1 23
REMARK SMILES IDX 87 26 88 27 93 28 89 29 92 30 90 31 91 32 18 33 19 34 20 35
REMARK SMILES IDX 21 36 22 37 23 39 24 40 25 41 83 42 26 43 82 44 27 45 28 46
REMARK SMILES IDX 29 47 76 48 30 49 81 50 75 51 77 52 31 53 80 54 74 55 73 56
REMARK SMILES IDX 32 58 62 59 43 60 61 61 44 62 47 63 60 64 78 65 45 66 46 67
REMARK SMILES IDX 59 69 79 70 48 71 33 72 34 73 42 74 35 75 41 76 36 77 37 78
REMARK SMILES IDX 38 79 39 80 40 81 63 82 64 83 72 84 65 85 71 86 66 87 67 88
REMARK SMILES IDX 68 89 69 90 70 91 49 92 50 93 58 94 51 95 57 96 52 97 53 98
REMARK SMILES IDX 54 99 55 100 56 101
REMARK H PARENT 14 7 1 24 1 25 21 38 77 57 47 68
REMARK Flexibility Score: inf
ROOT
ATOM      1  C   UNL A   1      34.627  21.953  24.162  1.00  0.00     0.002 C 
ENDROOT
BRANCH   1   2
ATOM      2  C   UNL A   1      34.075  21.300  25.432  1.00  0.00     0.021 C 
BRANCH   2   3
ATOM      3  C   UNL A   1      33.588  22.280  26.509  1.00  0.00     0.116 C 
BRANCH   3   4
ATOM      4  N   UNL A   1      32.162  22.135  26.747  1.00  0.00    -0.351 N 
ATOM      5  C   UNL A   1      31.076  22.953  26.499  1.00  0.00     0.273 C 
ATOM      6  O   UNL A   1      29.972  22.450  26.728  1.00  0.00    -0.267 OA
ATOM      7  H   UNL A   1      31.919  21.279  27.170  1.00  0.00     0.163 HD
BRANCH   5   8
ATOM      8  C   UNL A   1      31.213  24.300  25.909  1.00  0.00     0.169 A 
ATOM      9  N   UNL A   1      31.710  26.394  25.852  1.00  0.00    -0.231 N 
ATOM     10  N   UNL A   1      31.854  25.277  26.600  1.00  0.00    -0.160 NA
ATOM     11  C   UNL A   1      30.905  26.186  24.755  1.00  0.00     0.094 A 
ATOM     12  C   UNL A   1      30.834  24.811  24.645  1.00  0.00     0.100 A 
ATOM     13  Cl  UNL A   1      30.387  23.993  23.225  1.00  0.00    -0.079 Cl
BRANCH   9  14
ATOM     14  C   UNL A   1      32.402  27.584  26.166  1.00  0.00     0.065 A 
ATOM     15  C   UNL A   1      33.855  29.759  27.102  1.00  0.00     0.082 A 
ATOM     16  C   UNL A   1      32.506  29.634  27.450  1.00  0.00     0.024 A 
ATOM     17  C   UNL A   1      34.469  28.819  26.265  1.00  0.00     0.024 A 
ATOM     18  C   UNL A   1      31.766  28.551  26.959  1.00  0.00     0.030 A 
ATOM     19  C   UNL A   1      33.747  27.715  25.812  1.00  0.00     0.030 A 
BRANCH  15  20
ATOM     20  S   UNL A   1      34.856  31.088  27.702  1.00  0.00     0.238 S 
ATOM     21  O   UNL A   1      34.240  32.335  27.296  1.00  0.00    -0.207 OA
ATOM     22  O   UNL A   1      36.237  30.783  27.427  1.00  0.00    -0.207 OA
BRANCH  20  23
ATOM     23  N   UNL A   1      34.698  31.047  29.373  1.00  0.00    -0.225 NA
ATOM     24  H   UNL A   1      34.475  30.097  29.670  1.00  0.00     0.137 HD
ATOM     25  H   UNL A   1      33.948  31.678  29.658  1.00  0.00     0.137 HD
ENDBRANCH  20  23
ENDBRANCH  15  20
ENDBRANCH   9  14
BRANCH  11  26
ATOM     26  C   UNL A   1      30.443  27.171  23.789  1.00  0.00     0.002 A 
ATOM     27  C   UNL A   1      31.397  27.954  23.123  1.00  0.00     0.012 A 
ATOM     28  C   UNL A   1      29.085  27.491  23.687  1.00  0.00     0.012 A 
ATOM     29  C   UNL A   1      31.000  29.079  22.402  1.00  0.00     0.021 A 
ATOM     30  C   UNL A   1      28.690  28.620  22.968  1.00  0.00     0.021 A 
ATOM     31  C   UNL A   1      29.650  29.418  22.346  1.00  0.00     0.041 A 
ATOM     32  Cl  UNL A   1      29.174  30.858  21.534  1.00  0.00    -0.084 Cl
ENDBRANCH  11  26
ENDBRANCH   5   8
ENDBRANCH   3   4
ENDBRANCH   2   3
ENDBRANCH   1   2
BRANCH   1  33
ATOM     33  C   UNL A   1      36.131  22.263  24.170  1.00  0.00     0.002 C 
BRANCH  33  34
ATOM     34  C   UNL A   1      36.549  23.650  24.684  1.00  0.00     0.021 C 
BRANCH  34  35
ATOM     35  C   UNL A   1      37.004  23.657  26.135  1.00  0.00     0.116 C 
BRANCH  35  36
ATOM     36  N   UNL A   1      38.007  22.625  26.412  1.00  0.00    -0.352 N 
ATOM     37  C   UNL A   1      39.349  22.783  26.703  1.00  0.00     0.251 C 
ATOM     38  H   UNL A   1      37.681  21.696  26.390  1.00  0.00     0.163 HD
ATOM     39  O   UNL A   1      40.134  21.854  26.553  1.00  0.00    -0.269 OA
BRANCH  37  40
ATOM     40  C   UNL A   1      39.816  24.087  27.206  1.00  0.00     0.039 A 
ATOM     41  C   UNL A   1      39.028  25.240  27.128  1.00  0.00     0.014 A 
ATOM     42  C   UNL A   1      41.080  24.131  27.785  1.00  0.00     0.014 A 
ATOM     43  C   UNL A   1      39.502  26.415  27.709  1.00  0.00     0.010 A 
ATOM     44  C   UNL A   1      41.457  25.223  28.516  1.00  0.00     0.010 A 
ATOM     45  C   UNL A   1      40.716  26.391  28.417  1.00  0.00    -0.014 A 
BRANCH  45  46
ATOM     46  C   UNL A   1      41.192  27.550  29.160  1.00  0.00     0.031 A 
ATOM     47  C   UNL A   1      42.419  28.173  28.596  1.00  0.00     0.074 A 
ATOM     48  C   UNL A   1      40.451  28.164  30.110  1.00  0.00     0.049 A 
ATOM     49  N   UNL A   1      43.608  28.167  29.098  1.00  0.00    -0.248 NA
ATOM     50  C   UNL A   1      42.350  28.728  27.232  1.00  0.00     0.031 C 
ATOM     51  C   UNL A   1      39.074  27.873  30.530  1.00  0.00     0.029 A 
ATOM     52  N   UNL A   1      40.737  29.286  30.820  1.00  0.00    -0.354 N 
ATOM     53  C   UNL A   1      44.384  28.934  28.236  1.00  0.00     0.074 A 
ATOM     54  C   UNL A   1      43.625  29.060  27.018  1.00  0.00     0.031 C 
ATOM     55  C   UNL A   1      38.571  28.931  31.208  1.00  0.00     0.029 A 
ATOM     56  C   UNL A   1      39.639  29.887  31.430  1.00  0.00     0.049 A 
ATOM     57  H   UNL A   1      41.650  29.645  30.898  1.00  0.00     0.167 HD
ATOM     58  C   UNL A   1      45.462  29.639  28.687  1.00  0.00     0.031 A 
ATOM     59  C   UNL A   1      39.614  31.101  32.039  1.00  0.00     0.031 A 
ATOM     60  C   UNL A   1      45.852  29.220  30.011  1.00  0.00     0.049 A 
ATOM     61  C   UNL A   1      41.023  31.443  32.362  1.00  0.00     0.074 A 
ATOM     62  C   UNL A   1      46.219  28.015  30.578  1.00  0.00     0.029 A 
ATOM     63  N   UNL A   1      45.476  30.027  31.060  1.00  0.00    -0.354 N 
ATOM     64  N   UNL A   1      41.744  30.774  33.217  1.00  0.00    -0.248 NA
ATOM     65  C   UNL A   1      41.769  32.219  31.386  1.00  0.00     0.031 C 
ATOM     66  C   UNL A   1      45.560  27.994  31.844  1.00  0.00     0.029 A 
ATOM     67  C   UNL A   1      44.913  29.219  32.016  1.00  0.00     0.049 A 
ATOM     68  H   UNL A   1      45.590  31.004  31.116  1.00  0.00     0.167 HD
ATOM     69  C   UNL A   1      42.996  30.681  32.627  1.00  0.00     0.074 A 
ATOM     70  C   UNL A   1      42.975  31.663  31.540  1.00  0.00     0.031 C 
ATOM     71  C   UNL A   1      43.830  29.629  32.885  1.00  0.00     0.031 A 
BRANCH  58  72
ATOM     72  C   UNL A   1      45.883  30.971  28.111  1.00  0.00    -0.014 A 
ATOM     73  C   UNL A   1      45.103  32.111  28.394  1.00  0.00     0.010 A 
ATOM     74  C   UNL A   1      46.852  31.098  27.093  1.00  0.00     0.010 A 
ATOM     75  C   UNL A   1      45.241  33.290  27.649  1.00  0.00     0.020 A 
ATOM     76  C   UNL A   1      47.029  32.283  26.376  1.00  0.00     0.020 A 
ATOM     77  C   UNL A   1      46.198  33.362  26.637  1.00  0.00     0.054 A 
BRANCH  77  78
ATOM     78  S   UNL A   1      46.309  34.856  25.623  1.00  0.00     0.124 S 
ATOM     79  O   UNL A   1      47.752  35.009  25.473  1.00  0.00    -0.237 OA
ATOM     80  O   UNL A   1      45.583  34.463  24.418  1.00  0.00    -0.237 OA
ATOM     81  O   UNL A   1      45.649  35.872  26.439  1.00  0.00    -0.744 OA
ENDBRANCH  77  78
ENDBRANCH  58  72
BRANCH  59  82
ATOM     82  C   UNL A   1      38.532  32.121  32.054  1.00  0.00    -0.014 A 
ATOM     83  C   UNL A   1      38.023  32.642  30.847  1.00  0.00     0.010 A 
ATOM     84  C   UNL A   1      37.782  32.343  33.227  1.00  0.00     0.010 A 
ATOM     85  C   UNL A   1      36.770  33.277  30.800  1.00  0.00     0.020 A 
ATOM     86  C   UNL A   1      36.535  32.982  33.188  1.00  0.00     0.020 A 
ATOM     87  C   UNL A   1      36.019  33.418  31.969  1.00  0.00     0.054 A 
BRANCH  87  88
ATOM     88  S   UNL A   1      34.310  34.035  31.869  1.00  0.00     0.124 S 
ATOM     89  O   UNL A   1      33.967  33.779  30.473  1.00  0.00    -0.237 OA
ATOM     90  O   UNL A   1      33.614  33.210  32.853  1.00  0.00    -0.237 OA
ATOM     91  O   UNL A   1      34.432  35.447  32.228  1.00  0.00    -0.744 OA
ENDBRANCH  87  88
ENDBRANCH  59  82
BRANCH  71  92
ATOM     92  C   UNL A   1      43.492  28.700  34.033  1.00  0.00    -0.014 A 
ATOM     93  C   UNL A   1      43.944  28.868  35.358  1.00  0.00     0.010 A 
ATOM     94  C   UNL A   1      42.567  27.674  33.774  1.00  0.00     0.010 A 
ATOM     95  C   UNL A   1      43.512  28.005  36.381  1.00  0.00     0.020 A 
ATOM     96  C   UNL A   1      42.118  26.826  34.788  1.00  0.00     0.020 A 
ATOM     97  C   UNL A   1      42.605  26.984  36.085  1.00  0.00     0.054 A 
BRANCH  97  98
ATOM     98  S   UNL A   1      42.047  25.867  37.402  1.00  0.00     0.124 S 
ATOM     99  O   UNL A   1      42.291  24.548  36.826  1.00  0.00    -0.237 OA
ATOM    100  O   UNL A   1      42.907  26.232  38.526  1.00  0.00    -0.237 OA
ATOM    101  O   UNL A   1      40.636  26.212  37.578  1.00  0.00    -0.744 OA
ENDBRANCH  97  98
ENDBRANCH  71  92
ENDBRANCH  45  46
ENDBRANCH  37  40
ENDBRANCH  35  36
ENDBRANCH  34  35
ENDBRANCH  33  34
ENDBRANCH   1  33
TORSDOF 20
ENDMDL
MODEL 2
REMARK VINA RESULT:     -12.3      3.274      9.589
REMARK SMILES NS(=O)(=O)c1ccc(-n2nc(C(=O)NCCCCCCNC(=O)c3ccc(-c4c5nc(c(-c6ccc(S(=O)(=O)[O-])cc6)c6ccc([nH]6)c(-c6ccc(S(=O)(=O)[O-])cc6)c6nc(c(-c7ccc(S(=O)(=O)[O-])cc7)c7ccc4[nH]7)C=C6)C=C5)cc3)c(Cl)c2-c2ccc(Cl)cc2)cc1
REMARK SMILES IDX 17 1 16 2 15 3 14 4 12 5 13 6 11 8 9 9 10 10 86 11 84 12
REMARK SMILES IDX 85 13 8 14 5 15 6 16 95 17 7 18 94 19 2 20 3 21 4 22 1 23
REMARK SMILES IDX 87 26 88 27 93 28 89 29 92 30 90 31 91 32 18 33 19 34 20 35
REMARK SMILES IDX 21 36 22 37 23 39 24 40 25 41 83 42 26 43 82 44 27 45 28 46
REMARK SMILES IDX 29 47 76 48 30 49 81 50 75 51 77 52 31 53 80 54 74 55 73 56
REMARK SMILES IDX 32 58 62 59 43 60 61 61 44 62 47 63 60 64 78 65 45 66 46 67
REMARK SMILES IDX 59 69 79 70 48 71 33 72 34 73 42 74 35 75 41 76 36 77 37 78
REMARK SMILES IDX 38 79 39 80 40 81 63 82 64 83 72 84 65 85 71 86 66 87 67 88
REMARK SMILES IDX 68 89 69 90 70 91 49 92 50 93 58 94 51 95 57 96 52 97 53 98
REMARK SMILES IDX 54 99 55 100 56 101
REMARK H PARENT 14 7 1 24 1 25 21 38 77 57 47 68
REMARK Flexibility Score: inf
ROOT
ATOM      1  C   UNL A   1      33.188  27.587  26.662  1.00  0.00     0.002 C 
ENDROOT
BRANCH   1   2
ATOM      2  C   UNL A   1      31.732  27.871  26.283  1.00  0.00     0.021 C 
BRANCH   2   3
ATOM      3  C   UNL A   1      31.507  28.266  24.817  1.00  0.00     0.116 C 
BRANCH   3   4
ATOM      4  N   UNL A   1      30.374  27.556  24.248  1.00  0.00    -0.351 N 
ATOM      5  C   UNL A   1      30.187  26.248  23.846  1.00  0.00     0.273 C 
ATOM      6  O   UNL A   1      29.033  25.957  23.512  1.00  0.00    -0.267 OA
ATOM      7  H   UNL A   1      29.578  28.122  24.125  1.00  0.00     0.163 HD
BRANCH   5   8
ATOM      8  C   UNL A   1      31.261  25.235  23.902  1.00  0.00     0.169 A 
ATOM      9  N   UNL A   1      32.132  23.289  24.201  1.00  0.00    -0.231 N 
ATOM     10  N   UNL A   1      30.946  23.928  24.082  1.00  0.00    -0.160 NA
ATOM     11  C   UNL A   1      33.195  24.164  24.209  1.00  0.00     0.094 A 
ATOM     12  C   UNL A   1      32.661  25.347  23.736  1.00  0.00     0.100 A 
ATOM     13  Cl  UNL A   1      33.587  26.615  23.087  1.00  0.00    -0.079 Cl
BRANCH   9  14
ATOM     14  C   UNL A   1      32.210  21.880  24.223  1.00  0.00     0.065 A 
ATOM     15  C   UNL A   1      32.725  19.150  24.197  1.00  0.00     0.082 A 
ATOM     16  C   UNL A   1      32.444  19.807  22.994  1.00  0.00     0.024 A 
ATOM     17  C   UNL A   1      32.718  19.847  25.413  1.00  0.00     0.024 A 
ATOM     18  C   UNL A   1      32.162  21.178  23.009  1.00  0.00     0.030 A 
ATOM     19  C   UNL A   1      32.482  21.221  25.424  1.00  0.00     0.030 A 
BRANCH  15  20
ATOM     20  S   UNL A   1      33.113  17.425  24.252  1.00  0.00     0.238 S 
ATOM     21  O   UNL A   1      33.296  16.961  22.892  1.00  0.00    -0.207 OA
ATOM     22  O   UNL A   1      32.213  16.781  25.174  1.00  0.00    -0.207 OA
BRANCH  20  23
ATOM     23  N   UNL A   1      34.636  17.332  24.954  1.00  0.00    -0.225 NA
ATOM     24  H   UNL A   1      35.124  16.511  24.597  1.00  0.00     0.137 HD
ATOM     25  H   UNL A   1      34.539  17.258  25.967  1.00  0.00     0.137 HD
ENDBRANCH  20  23
ENDBRANCH  15  20
ENDBRANCH   9  14
BRANCH  11  26
ATOM     26  C   UNL A   1      34.600  23.856  24.423  1.00  0.00     0.002 A 
ATOM     27  C   UNL A   1      35.281  23.119  23.442  1.00  0.00     0.012 A 
ATOM     28  C   UNL A   1      35.203  24.087  25.663  1.00  0.00     0.012 A 
ATOM     29  C   UNL A   1      36.534  22.573  23.720  1.00  0.00     0.021 A 
ATOM     30  C   UNL A   1      36.455  23.537  25.941  1.00  0.00     0.021 A 
ATOM     31  C   UNL A   1      37.105  22.768  24.976  1.00  0.00     0.041 A 
ATOM     32  Cl  UNL A   1      38.607  22.016  25.345  1.00  0.00    -0.084 Cl
ENDBRANCH  11  26
ENDBRANCH   5   8
ENDBRANCH   3   4
ENDBRANCH   2   3
ENDBRANCH   1   2
BRANCH   1  33
ATOM     33  C   UNL A   1      34.123  28.807  26.682  1.00  0.00     0.002 C 
BRANCH  33  34
ATOM     34  C   UNL A   1      33.641  30.035  27.471  1.00  0.00     0.021 C 
BRANCH  34  35
ATOM     35  C   UNL A   1      34.651  31.171  27.516  1.00  0.00     0.116 C 
BRANCH  35  36
ATOM     36  N   UNL A   1      34.382  32.117  28.603  1.00  0.00    -0.352 N 
ATOM     37  C   UNL A   1      34.939  32.157  29.867  1.00  0.00     0.251 C 
ATOM     38  H   UNL A   1      33.718  32.816  28.406  1.00  0.00     0.163 HD
ATOM     39  O   UNL A   1      34.375  32.751  30.779  1.00  0.00    -0.269 OA
BRANCH  37  40
ATOM     40  C   UNL A   1      36.228  31.480  30.095  1.00  0.00     0.039 A 
ATOM     41  C   UNL A   1      36.328  30.090  30.210  1.00  0.00     0.014 A 
ATOM     42  C   UNL A   1      37.362  32.281  30.178  1.00  0.00     0.014 A 
ATOM     43  C   UNL A   1      37.593  29.518  30.332  1.00  0.00     0.010 A 
ATOM     44  C   UNL A   1      38.604  31.713  30.105  1.00  0.00     0.010 A 
ATOM     45  C   UNL A   1      38.730  30.342  30.263  1.00  0.00    -0.014 A 
BRANCH  45  46
ATOM     46  C   UNL A   1      40.077  29.788  30.246  1.00  0.00     0.031 A 
ATOM     47  C   UNL A   1      40.674  29.598  31.594  1.00  0.00     0.074 A 
ATOM     48  C   UNL A   1      40.632  29.249  29.136  1.00  0.00     0.049 A 
ATOM     49  N   UNL A   1      41.646  30.260  32.126  1.00  0.00    -0.248 NA
ATOM     50  C   UNL A   1      40.006  28.670  32.525  1.00  0.00     0.031 C 
ATOM     51  C   UNL A   1      40.026  29.047  27.813  1.00  0.00     0.029 A 
ATOM     52  N   UNL A   1      41.835  28.636  28.998  1.00  0.00    -0.354 N 
ATOM     53  C   UNL A   1      41.876  29.665  33.361  1.00  0.00     0.074 A 
ATOM     54  C   UNL A   1      40.715  28.858  33.639  1.00  0.00     0.031 C 
ATOM     55  C   UNL A   1      40.752  28.146  27.112  1.00  0.00     0.029 A 
ATOM     56  C   UNL A   1      41.963  27.852  27.854  1.00  0.00     0.049 A 
ATOM     57  H   UNL A   1      42.561  28.739  29.655  1.00  0.00     0.167 HD
ATOM     58  C   UNL A   1      43.117  29.660  33.928  1.00  0.00     0.031 A 
ATOM     59  C   UNL A   1      42.980  26.998  27.567  1.00  0.00     0.031 A 
ATOM     60  C   UNL A   1      44.001  30.594  33.275  1.00  0.00     0.049 A 
ATOM     61  C   UNL A   1      44.128  27.400  28.420  1.00  0.00     0.074 A 
ATOM     62  C   UNL A   1      43.962  31.953  33.023  1.00  0.00     0.029 A 
ATOM     63  N   UNL A   1      44.917  30.076  32.388  1.00  0.00    -0.354 N 
ATOM     64  N   UNL A   1      44.745  28.541  28.295  1.00  0.00    -0.248 NA
ATOM     65  C   UNL A   1      44.269  26.750  29.712  1.00  0.00     0.031 C 
ATOM     66  C   UNL A   1      44.448  32.088  31.688  1.00  0.00     0.029 A 
ATOM     67  C   UNL A   1      44.843  30.825  31.240  1.00  0.00     0.049 A 
ATOM     68  H   UNL A   1      45.515  29.310  32.547  1.00  0.00     0.167 HD
ATOM     69  C   UNL A   1      44.974  28.964  29.597  1.00  0.00     0.074 A 
ATOM     70  C   UNL A   1      44.735  27.780  30.425  1.00  0.00     0.031 C 
ATOM     71  C   UNL A   1      45.056  30.291  29.911  1.00  0.00     0.031 A 
BRANCH  58  72
ATOM     72  C   UNL A   1      43.638  28.524  34.777  1.00  0.00    -0.014 A 
ATOM     73  C   UNL A   1      44.236  28.822  36.019  1.00  0.00     0.010 A 
ATOM     74  C   UNL A   1      43.807  27.212  34.288  1.00  0.00     0.010 A 
ATOM     75  C   UNL A   1      45.016  27.876  36.696  1.00  0.00     0.020 A 
ATOM     76  C   UNL A   1      44.544  26.247  34.977  1.00  0.00     0.020 A 
ATOM     77  C   UNL A   1      45.172  26.597  36.163  1.00  0.00     0.054 A 
BRANCH  77  78
ATOM     78  S   UNL A   1      46.253  25.411  36.999  1.00  0.00     0.124 S 
ATOM     79  O   UNL A   1      46.284  25.941  38.358  1.00  0.00    -0.237 OA
ATOM     80  O   UNL A   1      45.526  24.156  36.823  1.00  0.00    -0.237 OA
ATOM     81  O   UNL A   1      47.507  25.509  36.256  1.00  0.00    -0.744 OA
ENDBRANCH  77  78
ENDBRANCH  58  72
BRANCH  59  82
ATOM     82  C   UNL A   1      42.931  25.678  26.883  1.00  0.00    -0.014 A 
ATOM     83  C   UNL A   1      43.093  25.589  25.486  1.00  0.00     0.010 A 
ATOM     84  C   UNL A   1      43.047  24.487  27.630  1.00  0.00     0.010 A 
ATOM     85  C   UNL A   1      43.449  24.375  24.871  1.00  0.00     0.020 A 
ATOM     86  C   UNL A   1      43.394  23.273  27.022  1.00  0.00     0.020 A 
ATOM     87  C   UNL A   1      43.627  23.229  25.649  1.00  0.00     0.054 A 
BRANCH  87  88
ATOM     88  S   UNL A   1      44.303  21.723  24.884  1.00  0.00     0.124 S 
ATOM     89  O   UNL A   1      44.564  22.157  23.515  1.00  0.00    -0.237 OA
ATOM     90  O   UNL A   1      45.486  21.455  25.699  1.00  0.00    -0.237 OA
ATOM     91  O   UNL A   1      43.223  20.748  25.030  1.00  0.00    -0.744 OA
ENDBRANCH  87  88
ENDBRANCH  59  82
BRANCH  71  92
ATOM     92  C   UNL A   1      45.170  31.299  28.786  1.00  0.00    -0.014 A 
ATOM     93  C   UNL A   1      44.073  31.872  28.111  1.00  0.00     0.010 A 
ATOM     94  C   UNL A   1      46.457  31.779  28.487  1.00  0.00     0.010 A 
ATOM     95  C   UNL A   1      44.267  32.866  27.135  1.00  0.00     0.020 A 
ATOM     96  C   UNL A   1      46.656  32.779  27.533  1.00  0.00     0.020 A 
ATOM     97  C   UNL A   1      45.562  33.307  26.848  1.00  0.00     0.054 A 
BRANCH  97  98
ATOM     98  S   UNL A   1      45.817  34.588  25.588  1.00  0.00     0.124 S 
ATOM     99  O   UNL A   1      44.840  34.227  24.565  1.00  0.00    -0.237 OA
ATOM    100  O   UNL A   1      45.538  35.824  26.317  1.00  0.00    -0.237 OA
ATOM    101  O   UNL A   1      47.215  34.416  25.194  1.00  0.00    -0.744 OA
ENDBRANCH  97  98
ENDBRANCH  71  92
ENDBRANCH  45  46
ENDBRANCH  37  40
ENDBRANCH  35  36
ENDBRANCH  34  35
ENDBRANCH  33  34
ENDBRANCH   1  33
TORSDOF 20
ENDMDL
MODEL 3
REMARK VINA RESULT:     -12.2      2.893      6.958
REMARK SMILES NS(=O)(=O)c1ccc(-n2nc(C(=O)NCCCCCCNC(=O)c3ccc(-c4c5nc(c(-c6ccc(S(=O)(=O)[O-])cc6)c6ccc([nH]6)c(-c6ccc(S(=O)(=O)[O-])cc6)c6nc(c(-c7ccc(S(=O)(=O)[O-])cc7)c7ccc4[nH]7)C=C6)C=C5)cc3)c(Cl)c2-c2ccc(Cl)cc2)cc1
REMARK SMILES IDX 17 1 16 2 15 3 14 4 12 5 13 6 11 8 9 9 10 10 86 11 84 12
REMARK SMILES IDX 85 13 8 14 5 15 6 16 95 17 7 18 94 19 2 20 3 21 4 22 1 23
REMARK SMILES IDX 87 26 88 27 93 28 89 29 92 30 90 31 91 32 18 33 19 34 20 35
REMARK SMILES IDX 21 36 22 37 23 39 24 40 25 41 83 42 26 43 82 44 27 45 28 46
REMARK SMILES IDX 29 47 76 48 30 49 81 50 75 51 77 52 31 53 80 54 74 55 73 56
REMARK SMILES IDX 32 58 62 59 43 60 61 61 44 62 47 63 60 64 78 65 45 66 46 67
REMARK SMILES IDX 59 69 79 70 48 71 33 72 34 73 42 74 35 75 41 76 36 77 37 78
REMARK SMILES IDX 38 79 39 80 40 81 63 82 64 83 72 84 65 85 71 86 66 87 67 88
REMARK SMILES IDX 68 89 69 90 70 91 49 92 50 93 58 94 51 95 57 96 52 97 53 98
REMARK SMILES IDX 54 99 55 100 56 101
REMARK H PARENT 14 7 1 24 1 25 21 38 77 57 47 68
REMARK Flexibility Score: inf
ROOT
ATOM      1  C   UNL A   1      34.668  20.778  25.374  1.00  0.00     0.002 C 
ENDROOT
BRANCH   1   2
ATOM      2  C   UNL A   1      34.811  21.521  26.704  1.00  0.00     0.021 C 
BRANCH   2   3
ATOM      3  C   UNL A   1      34.077  22.868  26.779  1.00  0.00     0.116 C 
BRANCH   3   4
ATOM      4  N   UNL A   1      32.679  22.686  27.131  1.00  0.00    -0.351 N 
ATOM      5  C   UNL A   1      31.548  23.452  26.926  1.00  0.00     0.273 C 
ATOM      6  O   UNL A   1      30.484  22.924  27.263  1.00  0.00    -0.267 OA
ATOM      7  H   UNL A   1      32.501  21.847  27.614  1.00  0.00     0.163 HD
BRANCH   5   8
ATOM      8  C   UNL A   1      31.589  24.770  26.259  1.00  0.00     0.169 A 
ATOM      9  N   UNL A   1      31.884  26.896  26.096  1.00  0.00    -0.231 N 
ATOM     10  N   UNL A   1      32.091  25.844  26.919  1.00  0.00    -0.160 NA
ATOM     11  C   UNL A   1      31.169  26.546  24.973  1.00  0.00     0.094 A 
ATOM     12  C   UNL A   1      31.238  25.166  24.947  1.00  0.00     0.100 A 
ATOM     13  Cl  UNL A   1      30.957  24.227  23.560  1.00  0.00    -0.079 Cl
BRANCH   9  14
ATOM     14  C   UNL A   1      32.439  28.165  26.370  1.00  0.00     0.065 A 
ATOM     15  C   UNL A   1      33.456  30.591  27.265  1.00  0.00     0.082 A 
ATOM     16  C   UNL A   1      32.090  30.482  26.980  1.00  0.00     0.024 A 
ATOM     17  C   UNL A   1      34.316  29.502  27.074  1.00  0.00     0.024 A 
ATOM     18  C   UNL A   1      31.581  29.267  26.506  1.00  0.00     0.030 A 
ATOM     19  C   UNL A   1      33.804  28.278  26.646  1.00  0.00     0.030 A 
BRANCH  15  20
ATOM     20  S   UNL A   1      34.164  32.087  27.887  1.00  0.00     0.238 S 
ATOM     21  O   UNL A   1      33.168  33.135  27.785  1.00  0.00    -0.207 OA
ATOM     22  O   UNL A   1      35.491  32.228  27.343  1.00  0.00    -0.207 OA
BRANCH  20  23
ATOM     23  N   UNL A   1      34.365  31.835  29.535  1.00  0.00    -0.225 NA
ATOM     24  H   UNL A   1      35.031  31.077  29.684  1.00  0.00     0.137 HD
ATOM     25  H   UNL A   1      33.467  31.587  29.952  1.00  0.00     0.137 HD
ENDBRANCH  20  23
ENDBRANCH  15  20
ENDBRANCH   9  14
BRANCH  11  26
ATOM     26  C   UNL A   1      30.673  27.422  23.923  1.00  0.00     0.002 A 
ATOM     27  C   UNL A   1      31.601  28.153  23.168  1.00  0.00     0.012 A 
ATOM     28  C   UNL A   1      29.308  27.704  23.814  1.00  0.00     0.012 A 
ATOM     29  C   UNL A   1      31.169  29.195  22.347  1.00  0.00     0.021 A 
ATOM     30  C   UNL A   1      28.879  28.749  22.994  1.00  0.00     0.021 A 
ATOM     31  C   UNL A   1      29.812  29.501  22.280  1.00  0.00     0.041 A 
ATOM     32  Cl  UNL A   1      29.295  30.844  21.339  1.00  0.00    -0.084 Cl
ENDBRANCH  11  26
ENDBRANCH   5   8
ENDBRANCH   3   4
ENDBRANCH   2   3
ENDBRANCH   1   2
BRANCH   1  33
ATOM     33  C   UNL A   1      35.929  20.060  24.870  1.00  0.00     0.002 C 
BRANCH  33  34
ATOM     34  C   UNL A   1      37.101  20.951  24.426  1.00  0.00     0.021 C 
BRANCH  34  35
ATOM     35  C   UNL A   1      38.183  21.115  25.482  1.00  0.00     0.116 C 
BRANCH  35  36
ATOM     36  N   UNL A   1      39.008  19.913  25.631  1.00  0.00    -0.352 N 
ATOM     37  C   UNL A   1      40.358  19.823  25.908  1.00  0.00     0.251 C 
ATOM     38  H   UNL A   1      38.536  19.055  25.521  1.00  0.00     0.163 HD
ATOM     39  O   UNL A   1      40.984  18.801  25.646  1.00  0.00    -0.269 OA
BRANCH  37  40
ATOM     40  C   UNL A   1      41.032  20.976  26.531  1.00  0.00     0.039 A 
ATOM     41  C   UNL A   1      41.674  21.961  25.774  1.00  0.00     0.014 A 
ATOM     42  C   UNL A   1      40.994  21.063  27.919  1.00  0.00     0.014 A 
ATOM     43  C   UNL A   1      42.207  23.069  26.431  1.00  0.00     0.010 A 
ATOM     44  C   UNL A   1      41.343  22.230  28.539  1.00  0.00     0.010 A 
ATOM     45  C   UNL A   1      42.023  23.201  27.818  1.00  0.00    -0.014 A 
BRANCH  45  46
ATOM     46  C   UNL A   1      42.435  24.399  28.535  1.00  0.00     0.031 A 
ATOM     47  C   UNL A   1      41.546  25.572  28.321  1.00  0.00     0.074 A 
ATOM     48  C   UNL A   1      43.374  24.383  29.508  1.00  0.00     0.049 A 
ATOM     49  N   UNL A   1      41.811  26.652  27.666  1.00  0.00    -0.248 NA
ATOM     50  C   UNL A   1      40.140  25.464  28.749  1.00  0.00     0.031 C 
ATOM     51  C   UNL A   1      44.089  23.230  30.074  1.00  0.00     0.029 A 
ATOM     52  N   UNL A   1      43.797  25.400  30.302  1.00  0.00    -0.354 N 
ATOM     53  C   UNL A   1      40.692  27.465  27.811  1.00  0.00     0.074 A 
ATOM     54  C   UNL A   1      39.635  26.609  28.286  1.00  0.00     0.031 C 
ATOM     55  C   UNL A   1      44.639  23.573  31.262  1.00  0.00     0.029 A 
ATOM     56  C   UNL A   1      44.476  25.002  31.450  1.00  0.00     0.049 A 
ATOM     57  H   UNL A   1      43.635  26.346  30.082  1.00  0.00     0.167 HD
ATOM     58  C   UNL A   1      40.796  28.825  27.799  1.00  0.00     0.031 A 
ATOM     59  C   UNL A   1      44.842  25.795  32.492  1.00  0.00     0.031 A 
ATOM     60  C   UNL A   1      42.079  29.255  27.299  1.00  0.00     0.049 A 
ATOM     61  C   UNL A   1      44.828  27.192  31.988  1.00  0.00     0.074 A 
ATOM     62  C   UNL A   1      42.784  29.045  26.129  1.00  0.00     0.029 A 
ATOM     63  N   UNL A   1      43.010  29.660  28.228  1.00  0.00    -0.354 N 
ATOM     64  N   UNL A   1      45.643  27.629  31.070  1.00  0.00    -0.248 NA
ATOM     65  C   UNL A   1      43.602  27.956  32.152  1.00  0.00     0.031 C 
ATOM     66  C   UNL A   1      44.130  28.833  26.550  1.00  0.00     0.029 A 
ATOM     67  C   UNL A   1      44.187  29.020  27.932  1.00  0.00     0.049 A 
ATOM     68  H   UNL A   1      42.860  30.292  28.968  1.00  0.00     0.167 HD
ATOM     69  C   UNL A   1      44.860  28.431  30.253  1.00  0.00     0.074 A 
ATOM     70  C   UNL A   1      43.632  28.662  31.017  1.00  0.00     0.031 C 
ATOM     71  C   UNL A   1      45.150  28.598  28.928  1.00  0.00     0.031 A 
BRANCH  58  72
ATOM     72  C   UNL A   1      39.913  29.732  28.624  1.00  0.00    -0.014 A 
ATOM     73  C   UNL A   1      40.361  30.143  29.897  1.00  0.00     0.010 A 
ATOM     74  C   UNL A   1      38.558  29.976  28.318  1.00  0.00     0.010 A 
ATOM     75  C   UNL A   1      39.482  30.704  30.832  1.00  0.00     0.020 A 
ATOM     76  C   UNL A   1      37.683  30.576  29.226  1.00  0.00     0.020 A 
ATOM     77  C   UNL A   1      38.145  30.906  30.492  1.00  0.00     0.054 A 
BRANCH  77  78
ATOM     78  S   UNL A   1      36.997  31.547  31.734  1.00  0.00     0.124 S 
ATOM     79  O   UNL A   1      35.976  30.505  31.764  1.00  0.00    -0.237 OA
ATOM     80  O   UNL A   1      37.848  31.638  32.919  1.00  0.00    -0.237 OA
ATOM     81  O   UNL A   1      36.572  32.829  31.177  1.00  0.00    -0.744 OA
ENDBRANCH  77  78
ENDBRANCH  58  72
BRANCH  59  82
ATOM     82  C   UNL A   1      44.866  25.481  33.945  1.00  0.00    -0.014 A 
ATOM     83  C   UNL A   1      46.026  25.718  34.710  1.00  0.00     0.010 A 
ATOM     84  C   UNL A   1      43.661  25.254  34.642  1.00  0.00     0.010 A 
ATOM     85  C   UNL A   1      45.966  25.817  36.111  1.00  0.00     0.020 A 
ATOM     86  C   UNL A   1      43.596  25.344  36.039  1.00  0.00     0.020 A 
ATOM     87  C   UNL A   1      44.743  25.658  36.766  1.00  0.00     0.054 A 
BRANCH  87  88
ATOM     88  S   UNL A   1      44.628  26.009  38.548  1.00  0.00     0.124 S 
ATOM     89  O   UNL A   1      43.229  26.396  38.701  1.00  0.00    -0.237 OA
ATOM     90  O   UNL A   1      45.000  24.731  39.149  1.00  0.00    -0.237 OA
ATOM     91  O   UNL A   1      45.595  27.087  38.749  1.00  0.00    -0.744 OA
ENDBRANCH  87  88
ENDBRANCH  59  82
BRANCH  71  92
ATOM     92  C   UNL A   1      46.494  28.123  28.414  1.00  0.00    -0.014 A 
ATOM     93  C   UNL A   1      47.624  28.949  28.247  1.00  0.00     0.010 A 
ATOM     94  C   UNL A   1      46.648  26.741  28.209  1.00  0.00     0.010 A 
ATOM     95  C   UNL A   1      48.859  28.409  27.845  1.00  0.00     0.020 A 
ATOM     96  C   UNL A   1      47.875  26.194  27.830  1.00  0.00     0.020 A 
ATOM     97  C   UNL A   1      48.972  27.032  27.632  1.00  0.00     0.054 A 
BRANCH  97  98
ATOM     98  S   UNL A   1      50.563  26.330  27.112  1.00  0.00     0.124 S 
ATOM     99  O   UNL A   1      51.501  26.937  28.051  1.00  0.00    -0.237 OA
ATOM    100  O   UNL A   1      50.354  24.893  27.271  1.00  0.00    -0.237 OA
ATOM    101  O   UNL A   1      50.704  26.775  25.725  1.00  0.00    -0.744 OA
ENDBRANCH  97  98
ENDBRANCH  71  92
ENDBRANCH  45  46
ENDBRANCH  37  40
ENDBRANCH  35  36
ENDBRANCH  34  35
ENDBRANCH  33  34
ENDBRANCH   1  33
TORSDOF 20
ENDMDL
