MODEL 1
REMARK VINA RESULT:     -10.4      0.000      0.000
REMARK SMILES O=C(NCCCCCCNC(=O)[C@@]1(Cc2cn3ccccc3n2)CCC[NH2+]C1)c1ccc(-c2c3nc(c(-c4ccc(S(=O)(=O)[O-])cc4)c4ccc([nH]4)c(-c4ccc(S(=O)(=O)[O-])cc4)c4nc(c(-c5ccc(S(=O)(=O)[O-])cc5)c5ccc2[nH]5)C=C4)C=C3)cc1
REMARK SMILES IDX 6 1 5 2 4 3 3 4 1 5 2 6 29 8 30 9 88 10 31 11 87 12 32 13
REMARK SMILES IDX 33 14 34 15 81 16 35 17 86 18 80 19 82 20 36 21 85 22 79 23
REMARK SMILES IDX 78 24 37 26 67 27 48 28 66 29 49 30 52 31 65 32 83 33 50 34
REMARK SMILES IDX 51 35 64 37 84 38 53 39 38 40 39 41 47 42 40 43 46 44 41 45
REMARK SMILES IDX 42 46 43 47 44 48 45 49 68 50 69 51 77 52 70 53 76 54 71 55
REMARK SMILES IDX 72 56 73 57 74 58 75 59 54 60 55 61 63 62 56 63 62 64 57 65
REMARK SMILES IDX 58 66 59 67 60 68 61 69 7 70 8 71 9 72 10 73 11 74 12 76
REMARK SMILES IDX 13 77 24 78 28 79 25 80 27 81 26 82 14 85 15 86 16 87 23 88
REMARK SMILES IDX 17 89 22 90 18 91 21 92 19 93 20 94
REMARK H PARENT 3 7 82 25 52 36 10 75 27 83 27 84
REMARK Flexibility Score: inf
ROOT
ATOM      1  C   UNL A   1      31.952  27.850  26.564  1.00  0.00     0.002 C 
ENDROOT
BRANCH   1   2
ATOM      2  C   UNL A   1      33.464  27.624  26.519  1.00  0.00     0.021 C 
BRANCH   2   3
ATOM      3  C   UNL A   1      34.251  28.768  25.895  1.00  0.00     0.116 C 
BRANCH   3   4
ATOM      4  N   UNL A   1      33.766  30.066  26.332  1.00  0.00    -0.352 N 
ATOM      5  O   UNL A   1      33.551  31.817  27.740  1.00  0.00    -0.269 OA
ATOM      6  C   UNL A   1      34.202  30.839  27.382  1.00  0.00     0.251 C 
ATOM      7  H   UNL A   1      33.024  30.443  25.806  1.00  0.00     0.163 HD
BRANCH   6   8
ATOM      8  C   UNL A   1      35.452  30.475  28.086  1.00  0.00     0.039 A 
ATOM      9  C   UNL A   1      35.420  29.581  29.157  1.00  0.00     0.014 A 
ATOM     10  C   UNL A   1      36.667  31.026  27.667  1.00  0.00     0.014 A 
ATOM     11  C   UNL A   1      36.575  29.344  29.891  1.00  0.00     0.010 A 
ATOM     12  C   UNL A   1      37.846  30.712  28.352  1.00  0.00     0.010 A 
ATOM     13  C   UNL A   1      37.806  29.886  29.484  1.00  0.00    -0.014 A 
BRANCH  13  14
ATOM     14  C   UNL A   1      39.034  29.485  30.219  1.00  0.00     0.031 A 
ATOM     15  C   UNL A   1      39.948  28.408  29.705  1.00  0.00     0.074 A 
ATOM     16  C   UNL A   1      39.351  30.168  31.338  1.00  0.00     0.049 A 
ATOM     17  N   UNL A   1      41.102  28.018  30.185  1.00  0.00    -0.248 NA
ATOM     18  C   UNL A   1      39.517  27.670  28.508  1.00  0.00     0.031 C 
ATOM     19  C   UNL A   1      38.524  31.217  31.944  1.00  0.00     0.029 A 
ATOM     20  N   UNL A   1      40.459  30.116  32.141  1.00  0.00    -0.354 N 
ATOM     21  C   UNL A   1      41.532  26.987  29.359  1.00  0.00     0.074 A 
ATOM     22  C   UNL A   1      40.502  26.792  28.360  1.00  0.00     0.031 C 
ATOM     23  C   UNL A   1      39.183  31.754  32.979  1.00  0.00     0.029 A 
ATOM     24  C   UNL A   1      40.448  31.049  33.150  1.00  0.00     0.049 A 
ATOM     25  H   UNL A   1      41.192  29.471  32.009  1.00  0.00     0.167 HD
ATOM     26  C   UNL A   1      42.683  26.273  29.424  1.00  0.00     0.031 A 
ATOM     27  C   UNL A   1      41.351  31.312  34.114  1.00  0.00     0.031 A 
ATOM     28  C   UNL A   1      43.701  26.466  30.426  1.00  0.00     0.049 A 
ATOM     29  C   UNL A   1      42.617  30.510  34.156  1.00  0.00     0.074 A 
ATOM     30  C   UNL A   1      44.902  25.793  30.576  1.00  0.00     0.029 A 
ATOM     31  N   UNL A   1      43.640  27.402  31.448  1.00  0.00    -0.354 N 
ATOM     32  N   UNL A   1      43.009  29.551  33.353  1.00  0.00    -0.248 NA
ATOM     33  C   UNL A   1      43.562  30.827  35.234  1.00  0.00     0.031 C 
ATOM     34  C   UNL A   1      45.550  26.297  31.711  1.00  0.00     0.029 A 
ATOM     35  C   UNL A   1      44.776  27.317  32.239  1.00  0.00     0.049 A 
ATOM     36  H   UNL A   1      42.899  28.033  31.591  1.00  0.00     0.167 HD
ATOM     37  C   UNL A   1      44.249  29.146  33.830  1.00  0.00     0.074 A 
ATOM     38  C   UNL A   1      44.556  29.993  34.966  1.00  0.00     0.031 C 
ATOM     39  C   UNL A   1      45.055  28.154  33.376  1.00  0.00     0.031 A 
BRANCH  26  40
ATOM     40  C   UNL A   1      42.904  25.204  28.385  1.00  0.00    -0.014 A 
ATOM     41  C   UNL A   1      43.350  25.535  27.092  1.00  0.00     0.010 A 
ATOM     42  C   UNL A   1      42.728  23.849  28.722  1.00  0.00     0.010 A 
ATOM     43  C   UNL A   1      43.588  24.532  26.148  1.00  0.00     0.020 A 
ATOM     44  C   UNL A   1      42.986  22.842  27.787  1.00  0.00     0.020 A 
ATOM     45  C   UNL A   1      43.402  23.192  26.500  1.00  0.00     0.054 A 
BRANCH  45  46
ATOM     46  S   UNL A   1      43.751  21.911  25.264  1.00  0.00     0.124 S 
ATOM     47  O   UNL A   1      42.708  20.929  25.545  1.00  0.00    -0.237 OA
ATOM     48  O   UNL A   1      43.608  22.633  24.002  1.00  0.00    -0.237 OA
ATOM     49  O   UNL A   1      45.111  21.483  25.581  1.00  0.00    -0.744 OA
ENDBRANCH  45  46
ENDBRANCH  26  40
BRANCH  27  50
ATOM     50  C   UNL A   1      41.066  32.368  35.121  1.00  0.00    -0.014 A 
ATOM     51  C   UNL A   1      41.467  33.697  34.908  1.00  0.00     0.010 A 
ATOM     52  C   UNL A   1      40.363  32.043  36.296  1.00  0.00     0.010 A 
ATOM     53  C   UNL A   1      41.184  34.681  35.862  1.00  0.00     0.020 A 
ATOM     54  C   UNL A   1      40.052  33.027  37.235  1.00  0.00     0.020 A 
ATOM     55  C   UNL A   1      40.479  34.338  37.019  1.00  0.00     0.054 A 
BRANCH  55  56
ATOM     56  S   UNL A   1      40.072  35.635  38.220  1.00  0.00     0.124 S 
ATOM     57  O   UNL A   1      41.326  35.769  38.954  1.00  0.00    -0.237 OA
ATOM     58  O   UNL A   1      39.715  36.763  37.364  1.00  0.00    -0.237 OA
ATOM     59  O   UNL A   1      38.960  35.061  38.975  1.00  0.00    -0.744 OA
ENDBRANCH  55  56
ENDBRANCH  27  50
BRANCH  39  60
ATOM     60  C   UNL A   1      46.347  27.944  34.117  1.00  0.00    -0.014 A 
ATOM     61  C   UNL A   1      47.495  28.688  33.790  1.00  0.00     0.010 A 
ATOM     62  C   UNL A   1      46.412  26.996  35.151  1.00  0.00     0.010 A 
ATOM     63  C   UNL A   1      48.702  28.451  34.453  1.00  0.00     0.020 A 
ATOM     64  C   UNL A   1      47.610  26.773  35.834  1.00  0.00     0.020 A 
ATOM     65  C   UNL A   1      48.753  27.487  35.465  1.00  0.00     0.054 A 
BRANCH  65  66
ATOM     66  S   UNL A   1      50.328  27.197  36.317  1.00  0.00     0.124 S 
ATOM     67  O   UNL A   1      50.641  28.526  36.834  1.00  0.00    -0.237 OA
ATOM     68  O   UNL A   1      49.973  26.199  37.322  1.00  0.00    -0.237 OA
ATOM     69  O   UNL A   1      51.209  26.717  35.255  1.00  0.00    -0.744 OA
ENDBRANCH  65  66
ENDBRANCH  39  60
ENDBRANCH  13  14
ENDBRANCH   6   8
ENDBRANCH   3   4
ENDBRANCH   2   3
ENDBRANCH   1   2
BRANCH   1  70
ATOM     70  C   UNL A   1      31.096  26.633  26.188  1.00  0.00     0.002 C 
BRANCH  70  71
ATOM     71  C   UNL A   1      31.087  26.271  24.695  1.00  0.00     0.021 C 
BRANCH  71  72
ATOM     72  C   UNL A   1      31.572  24.848  24.402  1.00  0.00     0.116 C 
BRANCH  72  73
ATOM     73  N   UNL A   1      32.418  24.362  25.474  1.00  0.00    -0.355 N 
ATOM     74  C   UNL A   1      33.068  23.201  25.725  1.00  0.00     0.232 C 
ATOM     75  H   UNL A   1      32.551  25.031  26.184  1.00  0.00     0.163 HD
ATOM     76  O   UNL A   1      33.506  23.117  26.883  1.00  0.00    -0.274 OA
BRANCH  74  77
ATOM     77  C   UNL A   1      33.400  22.085  24.697  1.00  0.00     0.104 C 
ATOM     78  C   UNL A   1      33.986  20.918  25.550  1.00  0.00     0.029 C 
ATOM     79  C   UNL A   1      32.189  21.545  23.909  1.00  0.00     0.277 C 
ATOM     80  C   UNL A   1      34.058  19.562  24.852  1.00  0.00     0.063 C 
ATOM     81  N   UNL A   1      32.370  20.267  23.213  1.00  0.00    -0.345 N 
ATOM     82  C   UNL A   1      32.769  19.208  24.128  1.00  0.00     0.260 C 
ATOM     83  H   UNL A   1      31.492  20.005  22.767  1.00  0.00     0.346 HD
ATOM     84  H   UNL A   1      33.110  20.384  22.521  1.00  0.00     0.346 HD
BRANCH  77  85
ATOM     85  C   UNL A   1      34.476  22.761  23.785  1.00  0.00     0.080 C 
BRANCH  85  86
ATOM     86  C   UNL A   1      35.860  22.830  24.327  1.00  0.00     0.061 A 
ATOM     87  C   UNL A   1      36.849  21.868  24.276  1.00  0.00     0.116 A 
ATOM     88  N   UNL A   1      36.295  23.933  25.030  1.00  0.00    -0.234 NA
ATOM     89  N   UNL A   1      37.788  22.276  25.185  1.00  0.00    -0.307 N 
ATOM     90  C   UNL A   1      37.440  23.566  25.569  1.00  0.00     0.136 A 
ATOM     91  C   UNL A   1      38.861  21.572  25.723  1.00  0.00     0.093 A 
ATOM     92  C   UNL A   1      38.289  24.209  26.514  1.00  0.00     0.048 A 
ATOM     93  C   UNL A   1      39.625  22.161  26.660  1.00  0.00     0.018 A 
ATOM     94  C   UNL A   1      39.327  23.534  27.047  1.00  0.00     0.005 A 
ENDBRANCH  85  86
ENDBRANCH  77  85
ENDBRANCH  74  77
ENDBRANCH  72  73
ENDBRANCH  71  72
ENDBRANCH  70  71
ENDBRANCH   1  70
TORSDOF 18
ENDMDL
MODEL 2
REMARK VINA RESULT:     -10.3      0.442      8.115
REMARK SMILES O=C(NCCCCCCNC(=O)[C@@]1(Cc2cn3ccccc3n2)CCC[NH2+]C1)c1ccc(-c2c3nc(c(-c4ccc(S(=O)(=O)[O-])cc4)c4ccc([nH]4)c(-c4ccc(S(=O)(=O)[O-])cc4)c4nc(c(-c5ccc(S(=O)(=O)[O-])cc5)c5ccc2[nH]5)C=C4)C=C3)cc1
REMARK SMILES IDX 6 1 5 2 4 3 3 4 1 5 2 6 29 8 30 9 88 10 31 11 87 12 32 13
REMARK SMILES IDX 33 14 34 15 81 16 35 17 86 18 80 19 82 20 36 21 85 22 79 23
REMARK SMILES IDX 78 24 37 26 67 27 48 28 66 29 49 30 52 31 65 32 83 33 50 34
REMARK SMILES IDX 51 35 64 37 84 38 53 39 38 40 39 41 47 42 40 43 46 44 41 45
REMARK SMILES IDX 42 46 43 47 44 48 45 49 68 50 69 51 77 52 70 53 76 54 71 55
REMARK SMILES IDX 72 56 73 57 74 58 75 59 54 60 55 61 63 62 56 63 62 64 57 65
REMARK SMILES IDX 58 66 59 67 60 68 61 69 7 70 8 71 9 72 10 73 11 74 12 76
REMARK SMILES IDX 13 77 24 78 28 79 25 80 27 81 26 82 14 85 15 86 16 87 23 88
REMARK SMILES IDX 17 89 22 90 18 91 21 92 19 93 20 94
REMARK H PARENT 3 7 82 25 52 36 10 75 27 83 27 84
REMARK Flexibility Score: inf
ROOT
ATOM      1  C   UNL A   1      32.028  27.751  26.604  1.00  0.00     0.002 C 
ENDROOT
BRANCH   1   2
ATOM      2  C   UNL A   1      33.539  27.548  26.481  1.00  0.00     0.021 C 
BRANCH   2   3
ATOM      3  C   UNL A   1      34.290  28.746  25.916  1.00  0.00     0.116 C 
BRANCH   3   4
ATOM      4  N   UNL A   1      33.726  30.006  26.369  1.00  0.00    -0.352 N 
ATOM      5  O   UNL A   1      33.431  31.740  27.784  1.00  0.00    -0.269 OA
ATOM      6  C   UNL A   1      34.139  30.812  27.403  1.00  0.00     0.251 C 
ATOM      7  H   UNL A   1      32.941  30.326  25.868  1.00  0.00     0.163 HD
BRANCH   6   8
ATOM      8  C   UNL A   1      35.436  30.542  28.064  1.00  0.00     0.039 A 
ATOM      9  C   UNL A   1      35.548  29.506  28.993  1.00  0.00     0.014 A 
ATOM     10  C   UNL A   1      36.549  31.326  27.748  1.00  0.00     0.014 A 
ATOM     11  C   UNL A   1      36.732  29.343  29.702  1.00  0.00     0.010 A 
ATOM     12  C   UNL A   1      37.768  31.098  28.397  1.00  0.00     0.010 A 
ATOM     13  C   UNL A   1      37.863  30.118  29.396  1.00  0.00    -0.014 A 
BRANCH  13  14
ATOM     14  C   UNL A   1      39.143  29.805  30.082  1.00  0.00     0.031 A 
ATOM     15  C   UNL A   1      39.546  30.490  31.358  1.00  0.00     0.074 A 
ATOM     16  C   UNL A   1      39.914  28.827  29.563  1.00  0.00     0.049 A 
ATOM     17  N   UNL A   1      40.584  30.252  32.120  1.00  0.00    -0.248 NA
ATOM     18  C   UNL A   1      38.685  31.580  31.841  1.00  0.00     0.031 C 
ATOM     19  C   UNL A   1      39.635  28.110  28.314  1.00  0.00     0.029 A 
ATOM     20  N   UNL A   1      41.060  28.240  30.031  1.00  0.00    -0.354 N 
ATOM     21  C   UNL A   1      40.509  31.165  33.165  1.00  0.00     0.074 A 
ATOM     22  C   UNL A   1      39.336  31.980  32.926  1.00  0.00     0.031 C 
ATOM     23  C   UNL A   1      40.542  27.138  28.152  1.00  0.00     0.029 A 
ATOM     24  C   UNL A   1      41.502  27.200  29.248  1.00  0.00     0.049 A 
ATOM     25  H   UNL A   1      41.523  28.534  30.849  1.00  0.00     0.167 HD
ATOM     26  C   UNL A   1      41.337  31.306  34.229  1.00  0.00     0.031 A 
ATOM     27  C   UNL A   1      42.564  26.385  29.387  1.00  0.00     0.031 A 
ATOM     28  C   UNL A   1      42.508  30.496  34.457  1.00  0.00     0.049 A 
ATOM     29  C   UNL A   1      43.459  26.560  30.577  1.00  0.00     0.074 A 
ATOM     30  C   UNL A   1      43.411  30.561  35.505  1.00  0.00     0.029 A 
ATOM     31  N   UNL A   1      42.939  29.472  33.625  1.00  0.00    -0.354 N 
ATOM     32  N   UNL A   1      43.357  27.420  31.561  1.00  0.00    -0.248 NA
ATOM     33  C   UNL A   1      44.611  25.656  30.675  1.00  0.00     0.031 C 
ATOM     34  C   UNL A   1      44.408  29.602  35.287  1.00  0.00     0.029 A 
ATOM     35  C   UNL A   1      44.098  28.906  34.130  1.00  0.00     0.049 A 
ATOM     36  H   UNL A   1      42.486  29.190  32.798  1.00  0.00     0.167 HD
ATOM     37  C   UNL A   1      44.435  27.162  32.398  1.00  0.00     0.074 A 
ATOM     38  C   UNL A   1      45.151  26.040  31.823  1.00  0.00     0.031 C 
ATOM     39  C   UNL A   1      44.807  27.804  33.533  1.00  0.00     0.031 A 
BRANCH  26  40
ATOM     40  C   UNL A   1      41.015  32.384  35.230  1.00  0.00    -0.014 A 
ATOM     41  C   UNL A   1      40.192  32.117  36.340  1.00  0.00     0.010 A 
ATOM     42  C   UNL A   1      41.592  33.661  35.099  1.00  0.00     0.010 A 
ATOM     43  C   UNL A   1      39.930  33.115  37.283  1.00  0.00     0.020 A 
ATOM     44  C   UNL A   1      41.350  34.655  36.052  1.00  0.00     0.020 A 
ATOM     45  C   UNL A   1      40.509  34.379  37.132  1.00  0.00     0.054 A 
BRANCH  45  46
ATOM     46  S   UNL A   1      40.178  35.643  38.390  1.00  0.00     0.124 S 
ATOM     47  O   UNL A   1      39.804  36.793  37.570  1.00  0.00    -0.237 OA
ATOM     48  O   UNL A   1      39.093  35.048  39.167  1.00  0.00    -0.237 OA
ATOM     49  O   UNL A   1      41.449  35.770  39.099  1.00  0.00    -0.744 OA
ENDBRANCH  45  46
ENDBRANCH  26  40
BRANCH  27  50
ATOM     50  C   UNL A   1      42.839  25.351  28.354  1.00  0.00    -0.014 A 
ATOM     51  C   UNL A   1      43.434  25.694  27.129  1.00  0.00     0.010 A 
ATOM     52  C   UNL A   1      42.523  24.004  28.611  1.00  0.00     0.010 A 
ATOM     53  C   UNL A   1      43.694  24.708  26.171  1.00  0.00     0.020 A 
ATOM     54  C   UNL A   1      42.808  23.014  27.670  1.00  0.00     0.020 A 
ATOM     55  C   UNL A   1      43.379  23.374  26.449  1.00  0.00     0.054 A 
BRANCH  55  56
ATOM     56  S   UNL A   1      43.771  22.101  25.219  1.00  0.00     0.124 S 
ATOM     57  O   UNL A   1      42.870  21.020  25.606  1.00  0.00    -0.237 OA
ATOM     58  O   UNL A   1      43.458  22.767  23.957  1.00  0.00    -0.237 OA
ATOM     59  O   UNL A   1      45.193  21.843  25.440  1.00  0.00    -0.744 OA
ENDBRANCH  55  56
ENDBRANCH  27  50
BRANCH  39  60
ATOM     60  C   UNL A   1      46.043  27.293  34.222  1.00  0.00    -0.014 A 
ATOM     61  C   UNL A   1      45.963  26.276  35.190  1.00  0.00     0.010 A 
ATOM     62  C   UNL A   1      47.298  27.835  33.894  1.00  0.00     0.010 A 
ATOM     63  C   UNL A   1      47.112  25.844  35.856  1.00  0.00     0.020 A 
ATOM     64  C   UNL A   1      48.453  27.388  34.540  1.00  0.00     0.020 A 
ATOM     65  C   UNL A   1      48.349  26.410  35.532  1.00  0.00     0.054 A 
BRANCH  65  66
ATOM     66  S   UNL A   1      49.830  25.832  36.406  1.00  0.00     0.124 S 
ATOM     67  O   UNL A   1      50.150  26.980  37.250  1.00  0.00    -0.237 OA
ATOM     68  O   UNL A   1      49.348  24.647  37.110  1.00  0.00    -0.237 OA
ATOM     69  O   UNL A   1      50.782  25.566  35.329  1.00  0.00    -0.744 OA
ENDBRANCH  65  66
ENDBRANCH  39  60
ENDBRANCH  13  14
ENDBRANCH   6   8
ENDBRANCH   3   4
ENDBRANCH   2   3
ENDBRANCH   1   2
BRANCH   1  70
ATOM     70  C   UNL A   1      31.167  26.604  26.060  1.00  0.00     0.002 C 
BRANCH  70  71
ATOM     71  C   UNL A   1      31.351  26.292  24.567  1.00  0.00     0.021 C 
BRANCH  71  72
ATOM     72  C   UNL A   1      31.722  24.834  24.282  1.00  0.00     0.116 C 
BRANCH  72  73
ATOM     73  N   UNL A   1      32.436  24.257  25.404  1.00  0.00    -0.355 N 
ATOM     74  C   UNL A   1      32.991  23.049  25.662  1.00  0.00     0.232 C 
ATOM     75  H   UNL A   1      32.543  24.890  26.150  1.00  0.00     0.163 HD
ATOM     76  O   UNL A   1      33.315  22.895  26.850  1.00  0.00    -0.274 OA
BRANCH  74  77
ATOM     77  C   UNL A   1      33.348  21.953  24.621  1.00  0.00     0.104 C 
ATOM     78  C   UNL A   1      33.963  20.791  25.461  1.00  0.00     0.029 C 
ATOM     79  C   UNL A   1      32.150  21.392  23.828  1.00  0.00     0.277 C 
ATOM     80  C   UNL A   1      34.067  19.445  24.748  1.00  0.00     0.063 C 
ATOM     81  N   UNL A   1      32.361  20.128  23.117  1.00  0.00    -0.345 N 
ATOM     82  C   UNL A   1      32.786  19.068  24.020  1.00  0.00     0.260 C 
ATOM     83  H   UNL A   1      31.489  19.850  22.669  1.00  0.00     0.346 HD
ATOM     84  H   UNL A   1      33.098  20.270  22.426  1.00  0.00     0.346 HD
BRANCH  77  85
ATOM     85  C   UNL A   1      34.407  22.665  23.716  1.00  0.00     0.080 C 
BRANCH  85  86
ATOM     86  C   UNL A   1      35.784  22.780  24.267  1.00  0.00     0.061 A 
ATOM     87  C   UNL A   1      36.800  21.847  24.235  1.00  0.00     0.116 A 
ATOM     88  N   UNL A   1      36.182  23.904  24.959  1.00  0.00    -0.234 NA
ATOM     89  N   UNL A   1      37.721  22.292  25.145  1.00  0.00    -0.307 N 
ATOM     90  C   UNL A   1      37.334  23.577  25.510  1.00  0.00     0.136 A 
ATOM     91  C   UNL A   1      38.810  21.626  25.700  1.00  0.00     0.093 A 
ATOM     92  C   UNL A   1      38.157  24.255  26.453  1.00  0.00     0.048 A 
ATOM     93  C   UNL A   1      39.549  22.248  26.634  1.00  0.00     0.018 A 
ATOM     94  C   UNL A   1      39.209  23.617  27.002  1.00  0.00     0.005 A 
ENDBRANCH  85  86
ENDBRANCH  77  85
ENDBRANCH  74  77
ENDBRANCH  72  73
ENDBRANCH  71  72
ENDBRANCH  70  71
ENDBRANCH   1  70
TORSDOF 18
ENDMDL
MODEL 3
REMARK VINA RESULT:     -10.2      5.195      9.634
REMARK SMILES O=C(NCCCCCCNC(=O)[C@@]1(Cc2cn3ccccc3n2)CCC[NH2+]C1)c1ccc(-c2c3nc(c(-c4ccc(S(=O)(=O)[O-])cc4)c4ccc([nH]4)c(-c4ccc(S(=O)(=O)[O-])cc4)c4nc(c(-c5ccc(S(=O)(=O)[O-])cc5)c5ccc2[nH]5)C=C4)C=C3)cc1
REMARK SMILES IDX 6 1 5 2 4 3 3 4 1 5 2 6 29 8 30 9 88 10 31 11 87 12 32 13
REMARK SMILES IDX 33 14 34 15 81 16 35 17 86 18 80 19 82 20 36 21 85 22 79 23
REMARK SMILES IDX 78 24 37 26 67 27 48 28 66 29 49 30 52 31 65 32 83 33 50 34
REMARK SMILES IDX 51 35 64 37 84 38 53 39 38 40 39 41 47 42 40 43 46 44 41 45
REMARK SMILES IDX 42 46 43 47 44 48 45 49 68 50 69 51 77 52 70 53 76 54 71 55
REMARK SMILES IDX 72 56 73 57 74 58 75 59 54 60 55 61 63 62 56 63 62 64 57 65
REMARK SMILES IDX 58 66 59 67 60 68 61 69 7 70 8 71 9 72 10 73 11 74 12 76
REMARK SMILES IDX 13 77 24 78 28 79 25 80 27 81 26 82 14 85 15 86 16 87 23 88
REMARK SMILES IDX 17 89 22 90 18 91 21 92 19 93 20 94
REMARK H PARENT 3 7 82 25 52 36 10 75 27 83 27 84
REMARK Flexibility Score: inf
ROOT
ATOM      1  C   UNL A   1      33.016  30.036  27.011  1.00  0.00     0.002 C 
ENDROOT
BRANCH   1   2
ATOM      2  C   UNL A   1      34.257  29.150  27.132  1.00  0.00     0.021 C 
BRANCH   2   3
ATOM      3  C   UNL A   1      35.487  29.865  27.673  1.00  0.00     0.116 C 
BRANCH   3   4
ATOM      4  N   UNL A   1      35.467  29.964  29.122  1.00  0.00    -0.352 N 
ATOM      5  O   UNL A   1      36.216  29.605  31.221  1.00  0.00    -0.269 OA
ATOM      6  C   UNL A   1      36.463  29.658  30.020  1.00  0.00     0.251 C 
ATOM      7  H   UNL A   1      34.628  30.294  29.515  1.00  0.00     0.163 HD
BRANCH   6   8
ATOM      8  C   UNL A   1      37.830  29.378  29.526  1.00  0.00     0.039 A 
ATOM      9  C   UNL A   1      38.820  28.945  30.409  1.00  0.00     0.014 A 
ATOM     10  C   UNL A   1      38.121  29.541  28.168  1.00  0.00     0.014 A 
ATOM     11  C   UNL A   1      40.128  28.808  29.962  1.00  0.00     0.010 A 
ATOM     12  C   UNL A   1      39.421  29.312  27.703  1.00  0.00     0.010 A 
ATOM     13  C   UNL A   1      40.441  28.965  28.601  1.00  0.00    -0.014 A 
BRANCH  13  14
ATOM     14  C   UNL A   1      41.825  28.665  28.153  1.00  0.00     0.031 A 
ATOM     15  C   UNL A   1      42.901  29.716  28.149  1.00  0.00     0.074 A 
ATOM     16  C   UNL A   1      42.117  27.394  27.810  1.00  0.00     0.049 A 
ATOM     17  N   UNL A   1      44.175  29.580  27.878  1.00  0.00    -0.248 NA
ATOM     18  C   UNL A   1      42.504  31.091  28.486  1.00  0.00     0.031 C 
ATOM     19  C   UNL A   1      41.146  26.296  27.751  1.00  0.00     0.029 A 
ATOM     20  N   UNL A   1      43.307  26.799  27.485  1.00  0.00    -0.354 N 
ATOM     21  C   UNL A   1      44.730  30.847  28.002  1.00  0.00     0.074 A 
ATOM     22  C   UNL A   1      43.650  31.747  28.347  1.00  0.00     0.031 C 
ATOM     23  C   UNL A   1      41.789  25.153  27.479  1.00  0.00     0.029 A 
ATOM     24  C   UNL A   1      43.204  25.443  27.283  1.00  0.00     0.049 A 
ATOM     25  H   UNL A   1      44.155  27.294  27.404  1.00  0.00     0.167 HD
ATOM     26  C   UNL A   1      46.024  31.225  27.848  1.00  0.00     0.031 A 
ATOM     27  C   UNL A   1      44.141  24.528  26.969  1.00  0.00     0.031 A 
ATOM     28  C   UNL A   1      47.094  30.325  27.496  1.00  0.00     0.049 A 
ATOM     29  C   UNL A   1      45.564  24.974  26.812  1.00  0.00     0.074 A 
ATOM     30  C   UNL A   1      48.437  30.611  27.316  1.00  0.00     0.029 A 
ATOM     31  N   UNL A   1      46.945  28.965  27.271  1.00  0.00    -0.354 N 
ATOM     32  N   UNL A   1      46.067  26.176  26.950  1.00  0.00    -0.248 NA
ATOM     33  C   UNL A   1      46.543  23.940  26.456  1.00  0.00     0.031 C 
ATOM     34  C   UNL A   1      49.092  29.431  26.946  1.00  0.00     0.029 A 
ATOM     35  C   UNL A   1      48.167  28.400  26.944  1.00  0.00     0.049 A 
ATOM     36  H   UNL A   1      46.094  28.472  27.334  1.00  0.00     0.167 HD
ATOM     37  C   UNL A   1      47.426  26.045  26.697  1.00  0.00     0.074 A 
ATOM     38  C   UNL A   1      47.668  24.640  26.436  1.00  0.00     0.031 C 
ATOM     39  C   UNL A   1      48.385  27.004  26.669  1.00  0.00     0.031 A 
BRANCH  26  40
ATOM     40  C   UNL A   1      46.358  32.680  28.050  1.00  0.00    -0.014 A 
ATOM     41  C   UNL A   1      46.757  33.161  29.311  1.00  0.00     0.010 A 
ATOM     42  C   UNL A   1      46.336  33.565  26.956  1.00  0.00     0.010 A 
ATOM     43  C   UNL A   1      47.101  34.505  29.479  1.00  0.00     0.020 A 
ATOM     44  C   UNL A   1      46.701  34.905  27.115  1.00  0.00     0.020 A 
ATOM     45  C   UNL A   1      47.068  35.370  28.380  1.00  0.00     0.054 A 
BRANCH  45  46
ATOM     46  S   UNL A   1      47.553  37.102  28.622  1.00  0.00     0.124 S 
ATOM     47  O   UNL A   1      46.809  37.456  29.828  1.00  0.00    -0.237 OA
ATOM     48  O   UNL A   1      49.002  37.011  28.783  1.00  0.00    -0.237 OA
ATOM     49  O   UNL A   1      47.106  37.762  27.398  1.00  0.00    -0.744 OA
ENDBRANCH  45  46
ENDBRANCH  26  40
BRANCH  27  50
ATOM     50  C   UNL A   1      43.744  23.110  26.765  1.00  0.00    -0.014 A 
ATOM     51  C   UNL A   1      43.111  22.382  27.786  1.00  0.00     0.010 A 
ATOM     52  C   UNL A   1      43.983  22.488  25.525  1.00  0.00     0.010 A 
ATOM     53  C   UNL A   1      42.737  21.051  27.576  1.00  0.00     0.020 A 
ATOM     54  C   UNL A   1      43.583  21.169  25.301  1.00  0.00     0.020 A 
ATOM     55  C   UNL A   1      42.975  20.454  26.334  1.00  0.00     0.054 A 
BRANCH  55  56
ATOM     56  S   UNL A   1      42.435  18.744  26.059  1.00  0.00     0.124 S 
ATOM     57  O   UNL A   1      41.039  18.927  25.677  1.00  0.00    -0.237 OA
ATOM     58  O   UNL A   1      43.330  18.293  24.996  1.00  0.00    -0.237 OA
ATOM     59  O   UNL A   1      42.655  18.107  27.356  1.00  0.00    -0.744 OA
ENDBRANCH  55  56
ENDBRANCH  27  50
BRANCH  39  60
ATOM     60  C   UNL A   1      49.783  26.549  26.349  1.00  0.00    -0.014 A 
ATOM     61  C   UNL A   1      50.299  26.664  25.046  1.00  0.00     0.010 A 
ATOM     62  C   UNL A   1      50.588  26.003  27.363  1.00  0.00     0.010 A 
ATOM     63  C   UNL A   1      51.581  26.194  24.751  1.00  0.00     0.020 A 
ATOM     64  C   UNL A   1      51.880  25.555  27.078  1.00  0.00     0.020 A 
ATOM     65  C   UNL A   1      52.360  25.634  25.769  1.00  0.00     0.054 A 
BRANCH  65  66
ATOM     66  S   UNL A   1      54.024  25.034  25.366  1.00  0.00     0.124 S 
ATOM     67  O   UNL A   1      54.416  25.933  24.285  1.00  0.00    -0.237 OA
ATOM     68  O   UNL A   1      54.744  25.211  26.625  1.00  0.00    -0.237 OA
ATOM     69  O   UNL A   1      53.802  23.645  24.973  1.00  0.00    -0.744 OA
ENDBRANCH  65  66
ENDBRANCH  39  60
ENDBRANCH  13  14
ENDBRANCH   6   8
ENDBRANCH   3   4
ENDBRANCH   2   3
ENDBRANCH   1   2
BRANCH   1  70
ATOM     70  C   UNL A   1      32.075  29.691  25.849  1.00  0.00     0.002 C 
BRANCH  70  71
ATOM     71  C   UNL A   1      32.767  29.325  24.528  1.00  0.00     0.021 C 
BRANCH  71  72
ATOM     72  C   UNL A   1      31.809  28.809  23.450  1.00  0.00     0.116 C 
BRANCH  72  73
ATOM     73  N   UNL A   1      32.526  28.050  22.446  1.00  0.00    -0.355 N 
ATOM     74  C   UNL A   1      33.161  26.854  22.427  1.00  0.00     0.232 C 
ATOM     75  H   UNL A   1      32.557  28.509  21.576  1.00  0.00     0.163 HD
ATOM     76  O   UNL A   1      33.848  26.672  21.409  1.00  0.00    -0.274 OA
BRANCH  74  77
ATOM     77  C   UNL A   1      33.005  25.707  23.462  1.00  0.00     0.104 C 
ATOM     78  C   UNL A   1      33.742  26.218  24.738  1.00  0.00     0.029 C 
ATOM     79  C   UNL A   1      31.550  25.371  23.848  1.00  0.00     0.277 C 
ATOM     80  C   UNL A   1      33.438  25.456  26.026  1.00  0.00     0.063 C 
ATOM     81  N   UNL A   1      31.355  24.576  25.064  1.00  0.00    -0.345 N 
ATOM     82  C   UNL A   1      31.949  25.219  26.227  1.00  0.00     0.260 C 
ATOM     83  H   UNL A   1      30.356  24.459  25.227  1.00  0.00     0.346 HD
ATOM     84  H   UNL A   1      31.812  23.674  24.932  1.00  0.00     0.346 HD
BRANCH  77  85
ATOM     85  C   UNL A   1      33.750  24.515  22.776  1.00  0.00     0.080 C 
BRANCH  85  86
ATOM     86  C   UNL A   1      33.557  23.171  23.384  1.00  0.00     0.061 A 
ATOM     87  C   UNL A   1      34.334  22.542  24.336  1.00  0.00     0.116 A 
ATOM     88  N   UNL A   1      32.529  22.346  22.979  1.00  0.00    -0.234 NA
ATOM     89  N   UNL A   1      33.939  21.232  24.308  1.00  0.00    -0.307 N 
ATOM     90  C   UNL A   1      32.797  21.174  23.517  1.00  0.00     0.136 A 
ATOM     91  C   UNL A   1      34.547  20.113  24.871  1.00  0.00     0.093 A 
ATOM     92  C   UNL A   1      32.193  19.896  23.347  1.00  0.00     0.048 A 
ATOM     93  C   UNL A   1      34.007  18.900  24.658  1.00  0.00     0.018 A 
ATOM     94  C   UNL A   1      32.778  18.805  23.882  1.00  0.00     0.005 A 
ENDBRANCH  85  86
ENDBRANCH  77  85
ENDBRANCH  74  77
ENDBRANCH  72  73
ENDBRANCH  71  72
ENDBRANCH  70  71
ENDBRANCH   1  70
TORSDOF 18
ENDMDL
