MODEL 1
REMARK VINA RESULT:     -13.0      0.000      0.000
REMARK SMILES O=C(Cn1c(-c2nc(-c3ccc(C(F)(F)F)cc3)no2)cc2ccccc21)NCCCCCCNC(=O)c1ccc(-c2c3nc(c(-c4ccc(S(=O)(=O)[O-])cc4)c4ccc([nH]4)c(-c4ccc(S(=O)(=O)[O-])cc4)c4nc(c(-c5ccc(S(=O)(=O)[O-])cc5)c5ccc2[nH]5)C=C4)C=C3)cc1
REMARK SMILES IDX 31 1 30 2 29 3 28 4 1 5 2 6 3 8 4 9 5 10 27 11 21 12 22 13
REMARK SMILES IDX 26 14 23 15 25 16 24 17 6 18 7 19 20 20 8 21 19 22 9 23
REMARK SMILES IDX 10 24 18 25 11 26 17 27 12 28 13 29 14 30 15 31 16 32 32 33
REMARK SMILES IDX 33 34 34 35 35 36 36 37 37 39 38 40 39 41 97 42 40 43 96 44
REMARK SMILES IDX 41 45 42 46 43 47 90 48 44 49 95 50 89 51 91 52 45 53 94 54
REMARK SMILES IDX 88 55 87 56 46 58 76 59 57 60 75 61 58 62 61 63 74 64 92 65
REMARK SMILES IDX 59 66 60 67 73 69 93 70 62 71 47 72 48 73 56 74 49 75 55 76
REMARK SMILES IDX 50 77 51 78 52 79 53 80 54 81 77 82 78 83 86 84 79 85 85 86
REMARK SMILES IDX 80 87 81 88 82 89 83 90 84 91 63 92 64 93 72 94 65 95 71 96
REMARK SMILES IDX 66 97 67 98 68 99 69 100 70 101
REMARK H PARENT 28 7 35 38 91 57 61 68
REMARK Flexibility Score: inf
ROOT
ATOM      1  C   UNL A   1      37.077  22.567  25.705  1.00  0.00     0.002 C 
ENDROOT
BRANCH   1   2
ATOM      2  C   UNL A   1      36.323  23.693  24.988  1.00  0.00     0.021 C 
BRANCH   2   3
ATOM      3  C   UNL A   1      35.158  24.279  25.775  1.00  0.00     0.116 C 
BRANCH   3   4
ATOM      4  N   UNL A   1      34.663  25.508  25.188  1.00  0.00    -0.355 N 
ATOM      5  O   UNL A   1      32.738  25.604  26.439  1.00  0.00    -0.273 OA
ATOM      6  C   UNL A   1      33.510  26.121  25.635  1.00  0.00     0.239 C 
ATOM      7  H   UNL A   1      35.164  25.919  24.447  1.00  0.00     0.163 HD
BRANCH   6   8
ATOM      8  C   UNL A   1      33.189  27.438  24.974  1.00  0.00     0.222 C 
BRANCH   8   9
ATOM      9  N   UNL A   1      32.196  27.445  23.898  1.00  0.00    -0.327 N 
ATOM     10  C   UNL A   1      31.963  26.510  22.908  1.00  0.00     0.109 A 
ATOM     11  C   UNL A   1      31.278  28.493  23.767  1.00  0.00     0.049 A 
ATOM     12  C   UNL A   1      30.928  26.986  22.123  1.00  0.00     0.042 A 
ATOM     13  C   UNL A   1      30.468  28.204  22.668  1.00  0.00     0.000 A 
ATOM     14  C   UNL A   1      31.073  29.656  24.534  1.00  0.00     0.027 A 
ATOM     15  C   UNL A   1      29.410  29.071  22.337  1.00  0.00     0.010 A 
ATOM     16  C   UNL A   1      30.014  30.503  24.189  1.00  0.00     0.002 A 
ATOM     17  C   UNL A   1      29.188  30.214  23.109  1.00  0.00     0.001 A 
BRANCH  10  18
ATOM     18  C   UNL A   1      32.491  25.186  22.809  1.00  0.00     0.274 A 
ATOM     19  N   UNL A   1      31.965  24.068  23.269  1.00  0.00    -0.185 NA
ATOM     20  O   UNL A   1      33.715  24.994  22.232  1.00  0.00    -0.332 OA
ATOM     21  C   UNL A   1      32.954  23.134  22.981  1.00  0.00     0.202 A 
ATOM     22  N   UNL A   1      34.004  23.653  22.326  1.00  0.00    -0.057 NA
BRANCH  21  23
ATOM     23  C   UNL A   1      32.909  21.710  23.318  1.00  0.00     0.023 A 
ATOM     24  C   UNL A   1      33.671  21.241  24.403  1.00  0.00     0.013 A 
ATOM     25  C   UNL A   1      32.151  20.785  22.592  1.00  0.00     0.013 A 
ATOM     26  C   UNL A   1      33.707  19.887  24.739  1.00  0.00     0.014 A 
ATOM     27  C   UNL A   1      32.185  19.419  22.929  1.00  0.00     0.014 A 
ATOM     28  C   UNL A   1      32.973  18.956  23.998  1.00  0.00     0.056 A 
BRANCH  28  29
ATOM     29  C   UNL A   1      33.073  17.492  24.351  1.00  0.00     0.416 C 
ATOM     30  F   UNL A   1      33.000  16.688  23.252  1.00  0.00    -0.166 F 
ATOM     31  F   UNL A   1      34.241  17.170  24.970  1.00  0.00    -0.166 F 
ATOM     32  F   UNL A   1      32.082  17.062  25.184  1.00  0.00    -0.166 F 
ENDBRANCH  28  29
ENDBRANCH  21  23
ENDBRANCH  10  18
ENDBRANCH   8   9
ENDBRANCH   6   8
ENDBRANCH   3   4
ENDBRANCH   2   3
ENDBRANCH   1   2
BRANCH   1  33
ATOM     33  C   UNL A   1      38.521  22.884  26.111  1.00  0.00     0.002 C 
BRANCH  33  34
ATOM     34  C   UNL A   1      39.478  21.687  26.165  1.00  0.00     0.021 C 
BRANCH  34  35
ATOM     35  C   UNL A   1      40.892  22.017  26.645  1.00  0.00     0.116 C 
BRANCH  35  36
ATOM     36  N   UNL A   1      41.811  22.366  25.583  1.00  0.00    -0.352 N 
ATOM     37  C   UNL A   1      42.604  23.443  25.309  1.00  0.00     0.251 C 
ATOM     38  H   UNL A   1      41.879  21.663  24.897  1.00  0.00     0.163 HD
ATOM     39  O   UNL A   1      43.369  23.319  24.347  1.00  0.00    -0.269 OA
BRANCH  37  40
ATOM     40  C   UNL A   1      42.555  24.743  26.027  1.00  0.00     0.039 A 
ATOM     41  C   UNL A   1      43.437  25.159  27.026  1.00  0.00     0.014 A 
ATOM     42  C   UNL A   1      41.475  25.580  25.691  1.00  0.00     0.014 A 
ATOM     43  C   UNL A   1      43.180  26.312  27.759  1.00  0.00     0.010 A 
ATOM     44  C   UNL A   1      41.228  26.746  26.402  1.00  0.00     0.010 A 
ATOM     45  C   UNL A   1      42.048  27.073  27.477  1.00  0.00    -0.014 A 
BRANCH  45  46
ATOM     46  C   UNL A   1      41.787  28.247  28.305  1.00  0.00     0.031 A 
ATOM     47  C   UNL A   1      42.830  29.314  28.259  1.00  0.00     0.074 A 
ATOM     48  C   UNL A   1      40.615  28.408  28.951  1.00  0.00     0.049 A 
ATOM     49  N   UNL A   1      43.456  29.884  29.239  1.00  0.00    -0.248 NA
ATOM     50  C   UNL A   1      43.295  29.738  26.927  1.00  0.00     0.031 C 
ATOM     51  C   UNL A   1      39.407  27.582  28.840  1.00  0.00     0.029 A 
ATOM     52  N   UNL A   1      40.208  29.436  29.744  1.00  0.00    -0.354 N 
ATOM     53  C   UNL A   1      44.274  30.857  28.663  1.00  0.00     0.074 A 
ATOM     54  C   UNL A   1      44.228  30.635  27.239  1.00  0.00     0.031 C 
ATOM     55  C   UNL A   1      38.349  28.278  29.312  1.00  0.00     0.029 A 
ATOM     56  C   UNL A   1      38.829  29.518  29.894  1.00  0.00     0.049 A 
ATOM     57  H   UNL A   1      40.833  30.065  30.173  1.00  0.00     0.167 HD
ATOM     58  C   UNL A   1      44.802  31.896  29.369  1.00  0.00     0.031 A 
ATOM     59  C   UNL A   1      38.128  30.576  30.373  1.00  0.00     0.031 A 
ATOM     60  C   UNL A   1      44.821  31.634  30.780  1.00  0.00     0.049 A 
ATOM     61  C   UNL A   1      39.075  31.420  31.140  1.00  0.00     0.074 A 
ATOM     62  C   UNL A   1      45.460  30.709  31.581  1.00  0.00     0.029 A 
ATOM     63  N   UNL A   1      43.818  32.171  31.549  1.00  0.00    -0.354 N 
ATOM     64  N   UNL A   1      39.662  31.039  32.240  1.00  0.00    -0.248 NA
ATOM     65  C   UNL A   1      39.694  32.543  30.456  1.00  0.00     0.031 C 
ATOM     66  C   UNL A   1      44.515  30.391  32.597  1.00  0.00     0.029 A 
ATOM     67  C   UNL A   1      43.381  31.181  32.393  1.00  0.00     0.049 A 
ATOM     68  H   UNL A   1      43.477  33.093  31.503  1.00  0.00     0.167 HD
ATOM     69  C   UNL A   1      40.936  31.583  32.168  1.00  0.00     0.074 A 
ATOM     70  C   UNL A   1      40.863  32.576  31.098  1.00  0.00     0.031 C 
ATOM     71  C   UNL A   1      42.000  30.995  32.792  1.00  0.00     0.031 A 
BRANCH  58  72
ATOM     72  C   UNL A   1      45.018  33.275  28.791  1.00  0.00    -0.014 A 
ATOM     73  C   UNL A   1      43.954  34.122  28.419  1.00  0.00     0.010 A 
ATOM     74  C   UNL A   1      46.302  33.858  28.842  1.00  0.00     0.010 A 
ATOM     75  C   UNL A   1      44.145  35.469  28.107  1.00  0.00     0.020 A 
ATOM     76  C   UNL A   1      46.500  35.224  28.576  1.00  0.00     0.020 A 
ATOM     77  C   UNL A   1      45.416  36.018  28.208  1.00  0.00     0.054 A 
BRANCH  77  78
ATOM     78  S   UNL A   1      45.598  37.799  27.940  1.00  0.00     0.124 S 
ATOM     79  O   UNL A   1      44.316  38.140  27.322  1.00  0.00    -0.237 OA
ATOM     80  O   UNL A   1      45.790  38.300  29.302  1.00  0.00    -0.237 OA
ATOM     81  O   UNL A   1      46.759  37.901  27.070  1.00  0.00    -0.744 OA
ENDBRANCH  77  78
ENDBRANCH  58  72
BRANCH  59  82
ATOM     82  C   UNL A   1      36.863  31.120  29.812  1.00  0.00    -0.014 A 
ATOM     83  C   UNL A   1      36.833  31.600  28.486  1.00  0.00     0.010 A 
ATOM     84  C   UNL A   1      35.792  31.461  30.659  1.00  0.00     0.010 A 
ATOM     85  C   UNL A   1      35.817  32.453  28.043  1.00  0.00     0.020 A 
ATOM     86  C   UNL A   1      34.768  32.319  30.221  1.00  0.00     0.020 A 
ATOM     87  C   UNL A   1      34.811  32.838  28.925  1.00  0.00     0.054 A 
BRANCH  87  88
ATOM     88  S   UNL A   1      33.628  34.100  28.374  1.00  0.00     0.124 S 
ATOM     89  O   UNL A   1      32.704  33.315  27.561  1.00  0.00    -0.237 OA
ATOM     90  O   UNL A   1      33.085  34.597  29.636  1.00  0.00    -0.237 OA
ATOM     91  O   UNL A   1      34.455  35.053  27.638  1.00  0.00    -0.744 OA
ENDBRANCH  87  88
ENDBRANCH  59  82
BRANCH  71  92
ATOM     92  C   UNL A   1      41.748  29.865  33.771  1.00  0.00    -0.014 A 
ATOM     93  C   UNL A   1      41.902  30.144  35.142  1.00  0.00     0.010 A 
ATOM     94  C   UNL A   1      41.598  28.518  33.377  1.00  0.00     0.010 A 
ATOM     95  C   UNL A   1      41.961  29.115  36.085  1.00  0.00     0.020 A 
ATOM     96  C   UNL A   1      41.631  27.481  34.323  1.00  0.00     0.020 A 
ATOM     97  C   UNL A   1      41.843  27.788  35.670  1.00  0.00     0.054 A 
BRANCH  97  98
ATOM     98  S   UNL A   1      42.016  26.481  36.917  1.00  0.00     0.124 S 
ATOM     99  O   UNL A   1      42.255  25.297  36.093  1.00  0.00    -0.237 OA
ATOM    100  O   UNL A   1      43.162  26.933  37.703  1.00  0.00    -0.237 OA
ATOM    101  O   UNL A   1      40.739  26.493  37.626  1.00  0.00    -0.744 OA
ENDBRANCH  97  98
ENDBRANCH  71  92
ENDBRANCH  45  46
ENDBRANCH  37  40
ENDBRANCH  35  36
ENDBRANCH  34  35
ENDBRANCH  33  34
ENDBRANCH   1  33
TORSDOF 20
ENDMDL
MODEL 2
REMARK VINA RESULT:     -13.0      3.801      9.719
REMARK SMILES O=C(Cn1c(-c2nc(-c3ccc(C(F)(F)F)cc3)no2)cc2ccccc21)NCCCCCCNC(=O)c1ccc(-c2c3nc(c(-c4ccc(S(=O)(=O)[O-])cc4)c4ccc([nH]4)c(-c4ccc(S(=O)(=O)[O-])cc4)c4nc(c(-c5ccc(S(=O)(=O)[O-])cc5)c5ccc2[nH]5)C=C4)C=C3)cc1
REMARK SMILES IDX 31 1 30 2 29 3 28 4 1 5 2 6 3 8 4 9 5 10 27 11 21 12 22 13
REMARK SMILES IDX 26 14 23 15 25 16 24 17 6 18 7 19 20 20 8 21 19 22 9 23
REMARK SMILES IDX 10 24 18 25 11 26 17 27 12 28 13 29 14 30 15 31 16 32 32 33
REMARK SMILES IDX 33 34 34 35 35 36 36 37 37 39 38 40 39 41 97 42 40 43 96 44
REMARK SMILES IDX 41 45 42 46 43 47 90 48 44 49 95 50 89 51 91 52 45 53 94 54
REMARK SMILES IDX 88 55 87 56 46 58 76 59 57 60 75 61 58 62 61 63 74 64 92 65
REMARK SMILES IDX 59 66 60 67 73 69 93 70 62 71 47 72 48 73 56 74 49 75 55 76
REMARK SMILES IDX 50 77 51 78 52 79 53 80 54 81 77 82 78 83 86 84 79 85 85 86
REMARK SMILES IDX 80 87 81 88 82 89 83 90 84 91 63 92 64 93 72 94 65 95 71 96
REMARK SMILES IDX 66 97 67 98 68 99 69 100 70 101
REMARK H PARENT 28 7 35 38 91 57 61 68
REMARK Flexibility Score: inf
ROOT
ATOM      1  C   UNL A   1      33.863  28.205  26.069  1.00  0.00     0.002 C 
ENDROOT
BRANCH   1   2
ATOM      2  C   UNL A   1      32.338  28.146  26.225  1.00  0.00     0.021 C 
BRANCH   2   3
ATOM      3  C   UNL A   1      31.799  26.798  26.686  1.00  0.00     0.116 C 
BRANCH   3   4
ATOM      4  N   UNL A   1      32.603  25.692  26.205  1.00  0.00    -0.355 N 
ATOM      5  O   UNL A   1      31.399  24.049  27.268  1.00  0.00    -0.273 OA
ATOM      6  C   UNL A   1      32.281  24.378  26.478  1.00  0.00     0.239 C 
ATOM      7  H   UNL A   1      33.405  25.884  25.666  1.00  0.00     0.163 HD
BRANCH   6   8
ATOM      8  C   UNL A   1      33.173  23.353  25.826  1.00  0.00     0.222 C 
BRANCH   8   9
ATOM      9  N   UNL A   1      32.652  22.622  24.668  1.00  0.00    -0.327 N 
ATOM     10  C   UNL A   1      31.954  23.090  23.572  1.00  0.00     0.109 A 
ATOM     11  C   UNL A   1      32.850  21.243  24.534  1.00  0.00     0.049 A 
ATOM     12  C   UNL A   1      31.671  22.004  22.765  1.00  0.00     0.042 A 
ATOM     13  C   UNL A   1      32.253  20.850  23.335  1.00  0.00     0.000 A 
ATOM     14  C   UNL A   1      33.522  20.313  25.350  1.00  0.00     0.027 A 
ATOM     15  C   UNL A   1      32.351  19.510  22.917  1.00  0.00     0.010 A 
ATOM     16  C   UNL A   1      33.608  18.986  24.914  1.00  0.00     0.002 A 
ATOM     17  C   UNL A   1      33.037  18.588  23.710  1.00  0.00     0.001 A 
BRANCH  10  18
ATOM     18  C   UNL A   1      31.750  24.448  23.176  1.00  0.00     0.274 A 
ATOM     19  N   UNL A   1      30.815  25.281  23.588  1.00  0.00    -0.185 NA
ATOM     20  O   UNL A   1      32.552  24.993  22.212  1.00  0.00    -0.332 OA
ATOM     21  C   UNL A   1      31.043  26.400  22.796  1.00  0.00     0.202 A 
ATOM     22  N   UNL A   1      32.102  26.271  21.982  1.00  0.00    -0.057 NA
BRANCH  21  23
ATOM     23  C   UNL A   1      30.251  27.632  22.809  1.00  0.00     0.023 A 
ATOM     24  C   UNL A   1      30.867  28.843  22.442  1.00  0.00     0.013 A 
ATOM     25  C   UNL A   1      28.906  27.661  23.191  1.00  0.00     0.013 A 
ATOM     26  C   UNL A   1      30.176  30.054  22.485  1.00  0.00     0.014 A 
ATOM     27  C   UNL A   1      28.208  28.882  23.234  1.00  0.00     0.014 A 
ATOM     28  C   UNL A   1      28.839  30.092  22.893  1.00  0.00     0.056 A 
BRANCH  28  29
ATOM     29  C   UNL A   1      28.134  31.422  22.981  1.00  0.00     0.416 C 
ATOM     30  F   UNL A   1      28.975  32.432  23.345  1.00  0.00    -0.166 F 
ATOM     31  F   UNL A   1      27.576  31.810  21.802  1.00  0.00    -0.166 F 
ATOM     32  F   UNL A   1      27.121  31.444  23.894  1.00  0.00    -0.166 F 
ENDBRANCH  28  29
ENDBRANCH  21  23
ENDBRANCH  10  18
ENDBRANCH   8   9
ENDBRANCH   6   8
ENDBRANCH   3   4
ENDBRANCH   2   3
ENDBRANCH   1   2
BRANCH   1  33
ATOM     33  C   UNL A   1      34.578  29.266  26.914  1.00  0.00     0.002 C 
BRANCH  33  34
ATOM     34  C   UNL A   1      33.702  30.418  27.422  1.00  0.00     0.021 C 
BRANCH  34  35
ATOM     35  C   UNL A   1      34.474  31.655  27.882  1.00  0.00     0.116 C 
BRANCH  35  36
ATOM     36  N   UNL A   1      34.236  32.023  29.260  1.00  0.00    -0.352 N 
ATOM     37  C   UNL A   1      34.981  32.011  30.404  1.00  0.00     0.251 C 
ATOM     38  H   UNL A   1      33.322  32.359  29.409  1.00  0.00     0.163 HD
ATOM     39  O   UNL A   1      34.460  32.537  31.393  1.00  0.00    -0.269 OA
BRANCH  37  40
ATOM     40  C   UNL A   1      36.308  31.359  30.551  1.00  0.00     0.039 A 
ATOM     41  C   UNL A   1      37.537  32.016  30.638  1.00  0.00     0.014 A 
ATOM     42  C   UNL A   1      36.298  29.952  30.533  1.00  0.00     0.014 A 
ATOM     43  C   UNL A   1      38.726  31.300  30.581  1.00  0.00     0.010 A 
ATOM     44  C   UNL A   1      37.481  29.230  30.501  1.00  0.00     0.010 A 
ATOM     45  C   UNL A   1      38.693  29.912  30.460  1.00  0.00    -0.014 A 
BRANCH  45  46
ATOM     46  C   UNL A   1      39.964  29.203  30.349  1.00  0.00     0.031 A 
ATOM     47  C   UNL A   1      40.713  29.016  31.627  1.00  0.00     0.074 A 
ATOM     48  C   UNL A   1      40.357  28.637  29.190  1.00  0.00     0.049 A 
ATOM     49  N   UNL A   1      41.941  29.317  31.903  1.00  0.00    -0.248 NA
ATOM     50  C   UNL A   1      39.953  28.497  32.777  1.00  0.00     0.031 C 
ATOM     51  C   UNL A   1      39.582  28.497  27.952  1.00  0.00     0.029 A 
ATOM     52  N   UNL A   1      41.492  27.936  28.921  1.00  0.00    -0.354 N 
ATOM     53  C   UNL A   1      42.164  28.875  33.208  1.00  0.00     0.074 A 
ATOM     54  C   UNL A   1      40.877  28.497  33.735  1.00  0.00     0.031 C 
ATOM     55  C   UNL A   1      40.151  27.543  27.179  1.00  0.00     0.029 A 
ATOM     56  C   UNL A   1      41.398  27.128  27.794  1.00  0.00     0.049 A 
ATOM     57  H   UNL A   1      42.305  27.996  29.473  1.00  0.00     0.167 HD
ATOM     58  C   UNL A   1      43.411  28.679  33.722  1.00  0.00     0.031 A 
ATOM     59  C   UNL A   1      42.239  26.122  27.448  1.00  0.00     0.031 A 
ATOM     60  C   UNL A   1      44.416  29.391  32.984  1.00  0.00     0.049 A 
ATOM     61  C   UNL A   1      43.507  26.333  28.186  1.00  0.00     0.074 A 
ATOM     62  C   UNL A   1      44.677  30.725  32.749  1.00  0.00     0.029 A 
ATOM     63  N   UNL A   1      45.148  28.692  32.056  1.00  0.00    -0.354 N 
ATOM     64  N   UNL A   1      44.301  27.349  27.992  1.00  0.00    -0.248 NA
ATOM     65  C   UNL A   1      43.687  25.629  29.444  1.00  0.00     0.031 C 
ATOM     66  C   UNL A   1      45.148  30.774  31.406  1.00  0.00     0.029 A 
ATOM     67  C   UNL A   1      45.205  29.464  30.922  1.00  0.00     0.049 A 
ATOM     68  H   UNL A   1      45.556  27.805  32.180  1.00  0.00     0.167 HD
ATOM     69  C   UNL A   1      44.783  27.668  29.253  1.00  0.00     0.074 A 
ATOM     70  C   UNL A   1      44.448  26.516  30.087  1.00  0.00     0.031 C 
ATOM     71  C   UNL A   1      45.166  28.941  29.570  1.00  0.00     0.031 A 
BRANCH  58  72
ATOM     72  C   UNL A   1      43.743  27.591  34.717  1.00  0.00    -0.014 A 
ATOM     73  C   UNL A   1      43.658  26.219  34.403  1.00  0.00     0.010 A 
ATOM     74  C   UNL A   1      44.398  27.925  35.921  1.00  0.00     0.010 A 
ATOM     75  C   UNL A   1      44.183  25.229  35.235  1.00  0.00     0.020 A 
ATOM     76  C   UNL A   1      44.971  26.940  36.744  1.00  0.00     0.020 A 
ATOM     77  C   UNL A   1      44.855  25.597  36.393  1.00  0.00     0.054 A 
BRANCH  77  78
ATOM     78  S   UNL A   1      45.648  24.294  37.367  1.00  0.00     0.124 S 
ATOM     79  O   UNL A   1      44.789  24.240  38.549  1.00  0.00    -0.237 OA
ATOM     80  O   UNL A   1      45.556  23.138  36.473  1.00  0.00    -0.237 OA
ATOM     81  O   UNL A   1      46.992  24.801  37.592  1.00  0.00    -0.744 OA
ENDBRANCH  77  78
ENDBRANCH  58  72
BRANCH  59  82
ATOM     82  C   UNL A   1      41.846  24.787  26.924  1.00  0.00    -0.014 A 
ATOM     83  C   UNL A   1      40.909  24.004  27.632  1.00  0.00     0.010 A 
ATOM     84  C   UNL A   1      42.610  24.155  25.926  1.00  0.00     0.010 A 
ATOM     85  C   UNL A   1      40.795  22.628  27.411  1.00  0.00     0.020 A 
ATOM     86  C   UNL A   1      42.501  22.772  25.699  1.00  0.00     0.020 A 
ATOM     87  C   UNL A   1      41.620  22.013  26.472  1.00  0.00     0.054 A 
BRANCH  87  88
ATOM     88  S   UNL A   1      41.583  20.201  26.358  1.00  0.00     0.124 S 
ATOM     89  O   UNL A   1      41.961  19.804  27.711  1.00  0.00    -0.237 OA
ATOM     90  O   UNL A   1      40.193  19.937  25.993  1.00  0.00    -0.237 OA
ATOM     91  O   UNL A   1      42.564  19.898  25.319  1.00  0.00    -0.744 OA
ENDBRANCH  87  88
ENDBRANCH  59  82
BRANCH  71  92
ATOM     92  C   UNL A   1      45.290  29.971  28.465  1.00  0.00    -0.014 A 
ATOM     93  C   UNL A   1      46.550  30.564  28.266  1.00  0.00     0.010 A 
ATOM     94  C   UNL A   1      44.178  30.525  27.795  1.00  0.00     0.010 A 
ATOM     95  C   UNL A   1      46.694  31.703  27.470  1.00  0.00     0.020 A 
ATOM     96  C   UNL A   1      44.320  31.654  26.973  1.00  0.00     0.020 A 
ATOM     97  C   UNL A   1      45.576  32.254  26.842  1.00  0.00     0.054 A 
BRANCH  97  98
ATOM     98  S   UNL A   1      45.793  33.785  25.892  1.00  0.00     0.124 S 
ATOM     99  O   UNL A   1      45.045  33.498  24.669  1.00  0.00    -0.237 OA
ATOM    100  O   UNL A   1      45.196  34.794  26.764  1.00  0.00    -0.237 OA
ATOM    101  O   UNL A   1      47.240  33.895  25.721  1.00  0.00    -0.744 OA
ENDBRANCH  97  98
ENDBRANCH  71  92
ENDBRANCH  45  46
ENDBRANCH  37  40
ENDBRANCH  35  36
ENDBRANCH  34  35
ENDBRANCH  33  34
ENDBRANCH   1  33
TORSDOF 20
ENDMDL
MODEL 3
REMARK VINA RESULT:     -12.7      2.760      4.999
REMARK SMILES O=C(Cn1c(-c2nc(-c3ccc(C(F)(F)F)cc3)no2)cc2ccccc21)NCCCCCCNC(=O)c1ccc(-c2c3nc(c(-c4ccc(S(=O)(=O)[O-])cc4)c4ccc([nH]4)c(-c4ccc(S(=O)(=O)[O-])cc4)c4nc(c(-c5ccc(S(=O)(=O)[O-])cc5)c5ccc2[nH]5)C=C4)C=C3)cc1
REMARK SMILES IDX 31 1 30 2 29 3 28 4 1 5 2 6 3 8 4 9 5 10 27 11 21 12 22 13
REMARK SMILES IDX 26 14 23 15 25 16 24 17 6 18 7 19 20 20 8 21 19 22 9 23
REMARK SMILES IDX 10 24 18 25 11 26 17 27 12 28 13 29 14 30 15 31 16 32 32 33
REMARK SMILES IDX 33 34 34 35 35 36 36 37 37 39 38 40 39 41 97 42 40 43 96 44
REMARK SMILES IDX 41 45 42 46 43 47 90 48 44 49 95 50 89 51 91 52 45 53 94 54
REMARK SMILES IDX 88 55 87 56 46 58 76 59 57 60 75 61 58 62 61 63 74 64 92 65
REMARK SMILES IDX 59 66 60 67 73 69 93 70 62 71 47 72 48 73 56 74 49 75 55 76
REMARK SMILES IDX 50 77 51 78 52 79 53 80 54 81 77 82 78 83 86 84 79 85 85 86
REMARK SMILES IDX 80 87 81 88 82 89 83 90 84 91 63 92 64 93 72 94 65 95 71 96
REMARK SMILES IDX 66 97 67 98 68 99 69 100 70 101
REMARK H PARENT 28 7 35 38 91 57 61 68
REMARK Flexibility Score: inf
ROOT
ATOM      1  C   UNL A   1      39.234  23.554  27.220  1.00  0.00     0.002 C 
ENDROOT
BRANCH   1   2
ATOM      2  C   UNL A   1      38.460  24.166  26.046  1.00  0.00     0.021 C 
BRANCH   2   3
ATOM      3  C   UNL A   1      36.947  24.005  26.130  1.00  0.00     0.116 C 
BRANCH   3   4
ATOM      4  N   UNL A   1      36.538  22.618  26.038  1.00  0.00    -0.355 N 
ATOM      5  O   UNL A   1      36.861  22.430  23.771  1.00  0.00    -0.273 OA
ATOM      6  C   UNL A   1      36.607  21.910  24.855  1.00  0.00     0.239 C 
ATOM      7  H   UNL A   1      36.200  22.165  26.845  1.00  0.00     0.163 HD
BRANCH   6   8
ATOM      8  C   UNL A   1      36.226  20.455  24.958  1.00  0.00     0.222 C 
BRANCH   8   9
ATOM      9  N   UNL A   1      34.827  20.090  24.725  1.00  0.00    -0.327 N 
ATOM     10  C   UNL A   1      33.722  20.900  24.555  1.00  0.00     0.109 A 
ATOM     11  C   UNL A   1      34.437  18.750  24.618  1.00  0.00     0.049 A 
ATOM     12  C   UNL A   1      32.624  20.076  24.384  1.00  0.00     0.042 A 
ATOM     13  C   UNL A   1      33.061  18.733  24.386  1.00  0.00     0.000 A 
ATOM     14  C   UNL A   1      35.178  17.554  24.679  1.00  0.00     0.027 A 
ATOM     15  C   UNL A   1      32.406  17.504  24.180  1.00  0.00     0.010 A 
ATOM     16  C   UNL A   1      34.508  16.344  24.468  1.00  0.00     0.002 A 
ATOM     17  C   UNL A   1      33.141  16.317  24.216  1.00  0.00     0.001 A 
BRANCH  10  18
ATOM     18  C   UNL A   1      33.694  22.313  24.344  1.00  0.00     0.274 A 
ATOM     19  N   UNL A   1      33.559  23.265  25.246  1.00  0.00    -0.185 NA
ATOM     20  O   UNL A   1      33.749  22.801  23.068  1.00  0.00    -0.332 OA
ATOM     21  C   UNL A   1      33.495  24.411  24.462  1.00  0.00     0.202 A 
ATOM     22  N   UNL A   1      33.641  24.170  23.150  1.00  0.00    -0.057 NA
BRANCH  21  23
ATOM     23  C   UNL A   1      33.303  25.776  24.957  1.00  0.00     0.023 A 
ATOM     24  C   UNL A   1      32.529  25.979  26.114  1.00  0.00     0.013 A 
ATOM     25  C   UNL A   1      33.842  26.895  24.316  1.00  0.00     0.013 A 
ATOM     26  C   UNL A   1      32.270  27.261  26.603  1.00  0.00     0.014 A 
ATOM     27  C   UNL A   1      33.582  28.188  24.807  1.00  0.00     0.014 A 
ATOM     28  C   UNL A   1      32.784  28.384  25.948  1.00  0.00     0.056 A 
BRANCH  28  29
ATOM     29  C   UNL A   1      32.443  29.758  26.467  1.00  0.00     0.416 C 
ATOM     30  F   UNL A   1      31.925  30.565  25.497  1.00  0.00    -0.166 F 
ATOM     31  F   UNL A   1      31.520  29.738  27.467  1.00  0.00    -0.166 F 
ATOM     32  F   UNL A   1      33.516  30.434  26.969  1.00  0.00    -0.166 F 
ENDBRANCH  28  29
ENDBRANCH  21  23
ENDBRANCH  10  18
ENDBRANCH   8   9
ENDBRANCH   6   8
ENDBRANCH   3   4
ENDBRANCH   2   3
ENDBRANCH   1   2
BRANCH   1  33
ATOM     33  C   UNL A   1      39.954  22.233  26.928  1.00  0.00     0.002 C 
BRANCH  33  34
ATOM     34  C   UNL A   1      41.060  21.841  27.917  1.00  0.00     0.021 C 
BRANCH  34  35
ATOM     35  C   UNL A   1      42.378  21.414  27.270  1.00  0.00     0.116 C 
BRANCH  35  36
ATOM     36  N   UNL A   1      42.596  21.967  25.950  1.00  0.00    -0.352 N 
ATOM     37  C   UNL A   1      42.882  23.209  25.460  1.00  0.00     0.251 C 
ATOM     38  H   UNL A   1      42.518  21.290  25.240  1.00  0.00     0.163 HD
ATOM     39  O   UNL A   1      43.131  23.267  24.252  1.00  0.00    -0.269 OA
BRANCH  37  40
ATOM     40  C   UNL A   1      42.842  24.468  26.249  1.00  0.00     0.039 A 
ATOM     41  C   UNL A   1      43.537  24.712  27.435  1.00  0.00     0.014 A 
ATOM     42  C   UNL A   1      41.967  25.458  25.766  1.00  0.00     0.014 A 
ATOM     43  C   UNL A   1      43.275  25.852  28.185  1.00  0.00     0.010 A 
ATOM     44  C   UNL A   1      41.720  26.610  26.497  1.00  0.00     0.010 A 
ATOM     45  C   UNL A   1      42.329  26.772  27.738  1.00  0.00    -0.014 A 
BRANCH  45  46
ATOM     46  C   UNL A   1      42.045  27.929  28.581  1.00  0.00     0.031 A 
ATOM     47  C   UNL A   1      43.105  28.979  28.615  1.00  0.00     0.074 A 
ATOM     48  C   UNL A   1      40.845  28.093  29.174  1.00  0.00     0.049 A 
ATOM     49  N   UNL A   1      43.689  29.515  29.638  1.00  0.00    -0.248 NA
ATOM     50  C   UNL A   1      43.641  29.429  27.318  1.00  0.00     0.031 C 
ATOM     51  C   UNL A   1      39.632  27.288  28.981  1.00  0.00     0.029 A 
ATOM     52  N   UNL A   1      40.414  29.107  29.972  1.00  0.00    -0.354 N 
ATOM     53  C   UNL A   1      44.549  30.489  29.128  1.00  0.00     0.074 A 
ATOM     54  C   UNL A   1      44.570  30.304  27.699  1.00  0.00     0.031 C 
ATOM     55  C   UNL A   1      38.562  27.990  29.419  1.00  0.00     0.029 A 
ATOM     56  C   UNL A   1      39.031  29.207  30.055  1.00  0.00     0.049 A 
ATOM     57  H   UNL A   1      41.027  29.715  30.446  1.00  0.00     0.167 HD
ATOM     58  C   UNL A   1      45.056  31.501  29.886  1.00  0.00     0.031 A 
ATOM     59  C   UNL A   1      38.322  30.264  30.526  1.00  0.00     0.031 A 
ATOM     60  C   UNL A   1      45.002  31.204  31.289  1.00  0.00     0.049 A 
ATOM     61  C   UNL A   1      39.242  31.073  31.361  1.00  0.00     0.074 A 
ATOM     62  C   UNL A   1      45.587  30.249  32.096  1.00  0.00     0.029 A 
ATOM     63  N   UNL A   1      43.970  31.738  32.021  1.00  0.00    -0.354 N 
ATOM     64  N   UNL A   1      39.769  30.655  32.478  1.00  0.00    -0.248 NA
ATOM     65  C   UNL A   1      39.911  32.202  30.737  1.00  0.00     0.031 C 
ATOM     66  C   UNL A   1      44.588  29.921  33.056  1.00  0.00     0.029 A 
ATOM     67  C   UNL A   1      43.477  30.734  32.817  1.00  0.00     0.049 A 
ATOM     68  H   UNL A   1      43.645  32.666  31.982  1.00  0.00     0.167 HD
ATOM     69  C   UNL A   1      41.052  31.181  32.483  1.00  0.00     0.074 A 
ATOM     70  C   UNL A   1      41.047  32.201  31.437  1.00  0.00     0.031 C 
ATOM     71  C   UNL A   1      42.075  30.560  33.143  1.00  0.00     0.031 A 
BRANCH  58  72
ATOM     72  C   UNL A   1      45.321  32.891  29.354  1.00  0.00    -0.014 A 
ATOM     73  C   UNL A   1      46.276  33.154  28.351  1.00  0.00     0.010 A 
ATOM     74  C   UNL A   1      44.433  33.940  29.673  1.00  0.00     0.010 A 
ATOM     75  C   UNL A   1      46.356  34.387  27.701  1.00  0.00     0.020 A 
ATOM     76  C   UNL A   1      44.473  35.169  28.994  1.00  0.00     0.020 A 
ATOM     77  C   UNL A   1      45.440  35.383  28.013  1.00  0.00     0.054 A 
BRANCH  77  78
ATOM     78  S   UNL A   1      45.483  36.912  27.046  1.00  0.00     0.124 S 
ATOM     79  O   UNL A   1      46.399  36.555  25.963  1.00  0.00    -0.237 OA
ATOM     80  O   UNL A   1      44.081  37.071  26.654  1.00  0.00    -0.237 OA
ATOM     81  O   UNL A   1      45.982  37.902  27.987  1.00  0.00    -0.744 OA
ENDBRANCH  77  78
ENDBRANCH  58  72
BRANCH  59  82
ATOM     82  C   UNL A   1      37.095  30.842  29.918  1.00  0.00    -0.014 A 
ATOM     83  C   UNL A   1      37.120  31.293  28.582  1.00  0.00     0.010 A 
ATOM     84  C   UNL A   1      36.014  31.241  30.727  1.00  0.00     0.010 A 
ATOM     85  C   UNL A   1      36.150  32.173  28.092  1.00  0.00     0.020 A 
ATOM     86  C   UNL A   1      35.036  32.126  30.241  1.00  0.00     0.020 A 
ATOM     87  C   UNL A   1      35.135  32.615  28.937  1.00  0.00     0.054 A 
BRANCH  87  88
ATOM     88  S   UNL A   1      34.016  33.908  28.325  1.00  0.00     0.124 S 
ATOM     89  O   UNL A   1      33.700  34.639  29.548  1.00  0.00    -0.237 OA
ATOM     90  O   UNL A   1      34.854  34.623  27.366  1.00  0.00    -0.237 OA
ATOM     91  O   UNL A   1      32.907  33.158  27.740  1.00  0.00    -0.744 OA
ENDBRANCH  87  88
ENDBRANCH  59  82
BRANCH  71  92
ATOM     92  C   UNL A   1      41.758  29.410  34.079  1.00  0.00    -0.014 A 
ATOM     93  C   UNL A   1      41.880  29.643  35.462  1.00  0.00     0.010 A 
ATOM     94  C   UNL A   1      41.579  28.081  33.640  1.00  0.00     0.010 A 
ATOM     95  C   UNL A   1      41.878  28.586  36.374  1.00  0.00     0.020 A 
ATOM     96  C   UNL A   1      41.550  27.016  34.554  1.00  0.00     0.020 A 
ATOM     97  C   UNL A   1      41.731  27.275  35.915  1.00  0.00     0.054 A 
BRANCH  97  98
ATOM     98  S   UNL A   1      41.825  25.927  37.126  1.00  0.00     0.124 S 
ATOM     99  O   UNL A   1      40.466  25.899  37.663  1.00  0.00    -0.237 OA
ATOM    100  O   UNL A   1      42.192  24.777  36.302  1.00  0.00    -0.237 OA
ATOM    101  O   UNL A   1      42.853  26.365  38.068  1.00  0.00    -0.744 OA
ENDBRANCH  97  98
ENDBRANCH  71  92
ENDBRANCH  45  46
ENDBRANCH  37  40
ENDBRANCH  35  36
ENDBRANCH  34  35
ENDBRANCH  33  34
ENDBRANCH   1  33
TORSDOF 20
ENDMDL
