MODEL 1
REMARK VINA RESULT:     -10.9      0.000      0.000
REMARK SMILES CCc1[nH]nc(-n2cccc2)c1C(=O)NCCCCCCNC(=O)c1ccc(-c2c3nc(c(-c4ccc(S(=O)(=O)[O-])cc4)c4ccc([nH]4)c(-c4ccc(S(=O)(=O)[O-])cc4)c4nc(c(-c5ccc(S(=O)(=O)[O-])cc5)c5ccc2[nH]5)C=C4)C=C3)cc1
REMARK SMILES IDX 19 1 18 2 17 3 16 4 15 5 13 6 14 7 12 9 3 10 4 11 5 12 6 14
REMARK SMILES IDX 2 15 1 16 7 17 8 18 11 19 9 20 10 21 20 22 21 23 22 24 23 25
REMARK SMILES IDX 24 27 25 28 26 29 84 30 27 31 83 32 28 33 29 34 30 35 77 36
REMARK SMILES IDX 31 37 82 38 76 39 78 40 32 41 81 42 75 43 74 44 33 46 63 47
REMARK SMILES IDX 44 48 62 49 45 50 48 51 61 52 79 53 46 54 47 55 60 57 80 58
REMARK SMILES IDX 49 59 34 60 35 61 43 62 36 63 42 64 37 65 38 66 39 67 40 68
REMARK SMILES IDX 41 69 64 70 65 71 73 72 66 73 72 74 67 75 68 76 69 77 70 78
REMARK SMILES IDX 71 79 50 80 51 81 59 82 52 83 58 84 53 85 54 86 55 87 56 88
REMARK SMILES IDX 57 89
REMARK H PARENT 15 8 4 13 22 26 78 45 48 56
REMARK Flexibility Score: inf
ROOT
ATOM      1  C   UNL A   1      34.373  23.442  26.498  1.00  0.00     0.002 C 
ENDROOT
BRANCH   1   2
ATOM      2  C   UNL A   1      33.066  22.660  26.681  1.00  0.00     0.002 C 
BRANCH   2   3
ATOM      3  C   UNL A   1      31.810  23.444  27.067  1.00  0.00     0.021 C 
BRANCH   3   4
ATOM      4  C   UNL A   1      31.616  24.818  26.443  1.00  0.00     0.116 C 
BRANCH   4   5
ATOM      5  N   UNL A   1      30.750  24.885  25.300  1.00  0.00    -0.352 N 
ATOM      6  C   UNL A   1      30.972  24.504  23.998  1.00  0.00     0.256 C 
ATOM      7  O   UNL A   1      29.981  24.579  23.265  1.00  0.00    -0.269 OA
ATOM      8  H   UNL A   1      29.859  25.263  25.477  1.00  0.00     0.163 HD
BRANCH   6   9
ATOM      9  C   UNL A   1      32.265  24.043  23.467  1.00  0.00     0.105 A 
ATOM     10  C   UNL A   1      32.730  22.806  22.987  1.00  0.00     0.050 A 
ATOM     11  N   UNL A   1      34.011  23.031  22.543  1.00  0.00    -0.280 N 
ATOM     12  N   UNL A   1      34.351  24.314  22.479  1.00  0.00    -0.156 NA
ATOM     13  H   UNL A   1      34.624  22.302  22.294  1.00  0.00     0.190 HD
ATOM     14  C   UNL A   1      33.348  24.925  23.115  1.00  0.00     0.171 A 
BRANCH  10  15
ATOM     15  C   UNL A   1      32.200  21.419  22.805  1.00  0.00     0.053 C 
ATOM     16  C   UNL A   1      32.428  20.531  24.017  1.00  0.00     0.011 C 
ENDBRANCH  10  15
BRANCH  14  17
ATOM     17  N   UNL A   1      33.487  26.334  23.310  1.00  0.00    -0.307 N 
ATOM     18  C   UNL A   1      33.825  27.000  24.472  1.00  0.00     0.093 A 
ATOM     19  C   UNL A   1      33.355  27.292  22.316  1.00  0.00     0.093 A 
ATOM     20  C   UNL A   1      33.842  28.357  24.226  1.00  0.00     0.020 A 
ATOM     21  C   UNL A   1      33.508  28.543  22.867  1.00  0.00     0.020 A 
ENDBRANCH  14  17
ENDBRANCH   6   9
ENDBRANCH   4   5
ENDBRANCH   3   4
ENDBRANCH   2   3
ENDBRANCH   1   2
BRANCH   1  22
ATOM     22  C   UNL A   1      35.515  22.752  25.740  1.00  0.00     0.021 C 
BRANCH  22  23
ATOM     23  C   UNL A   1      36.848  23.492  25.750  1.00  0.00     0.116 C 
BRANCH  23  24
ATOM     24  N   UNL A   1      37.969  22.599  25.981  1.00  0.00    -0.352 N 
ATOM     25  C   UNL A   1      39.257  22.896  26.361  1.00  0.00     0.251 C 
ATOM     26  H   UNL A   1      37.779  21.641  25.847  1.00  0.00     0.163 HD
ATOM     27  O   UNL A   1      40.140  22.069  26.174  1.00  0.00    -0.269 OA
BRANCH  25  28
ATOM     28  C   UNL A   1      39.588  24.200  26.977  1.00  0.00     0.039 A 
ATOM     29  C   UNL A   1      39.137  24.452  28.279  1.00  0.00     0.014 A 
ATOM     30  C   UNL A   1      40.250  25.201  26.257  1.00  0.00     0.014 A 
ATOM     31  C   UNL A   1      39.396  25.684  28.871  1.00  0.00     0.010 A 
ATOM     32  C   UNL A   1      40.553  26.414  26.859  1.00  0.00     0.010 A 
ATOM     33  C   UNL A   1      40.120  26.655  28.164  1.00  0.00    -0.014 A 
BRANCH  33  34
ATOM     34  C   UNL A   1      40.500  27.907  28.850  1.00  0.00     0.031 A 
ATOM     35  C   UNL A   1      41.798  27.720  29.660  1.00  0.00     0.074 A 
ATOM     36  C   UNL A   1      39.630  28.955  28.707  1.00  0.00     0.049 A 
ATOM     37  N   UNL A   1      42.134  28.200  30.816  1.00  0.00    -0.248 NA
ATOM     38  C   UNL A   1      42.830  26.763  29.167  1.00  0.00     0.031 C 
ATOM     39  C   UNL A   1      38.437  28.954  27.821  1.00  0.00     0.029 A 
ATOM     40  N   UNL A   1      39.544  30.217  29.252  1.00  0.00    -0.354 N 
ATOM     41  C   UNL A   1      43.438  27.738  31.126  1.00  0.00     0.074 A 
ATOM     42  C   UNL A   1      43.771  26.779  30.116  1.00  0.00     0.031 C 
ATOM     43  C   UNL A   1      37.720  30.091  27.961  1.00  0.00     0.029 A 
ATOM     44  C   UNL A   1      38.355  30.936  28.950  1.00  0.00     0.049 A 
ATOM     45  H   UNL A   1      40.258  30.596  29.815  1.00  0.00     0.167 HD
ATOM     46  C   UNL A   1      44.199  28.260  32.137  1.00  0.00     0.031 A 
ATOM     47  C   UNL A   1      37.875  32.086  29.521  1.00  0.00     0.031 A 
ATOM     48  C   UNL A   1      43.465  29.277  32.812  1.00  0.00     0.049 A 
ATOM     49  C   UNL A   1      38.890  32.466  30.519  1.00  0.00     0.074 A 
ATOM     50  C   UNL A   1      42.405  29.240  33.679  1.00  0.00     0.029 A 
ATOM     51  N   UNL A   1      43.576  30.543  32.288  1.00  0.00    -0.354 N 
ATOM     52  N   UNL A   1      40.064  32.949  30.255  1.00  0.00    -0.248 NA
ATOM     53  C   UNL A   1      38.617  32.161  31.930  1.00  0.00     0.031 C 
ATOM     54  C   UNL A   1      41.599  30.312  33.233  1.00  0.00     0.029 A 
ATOM     55  C   UNL A   1      42.313  31.080  32.305  1.00  0.00     0.049 A 
ATOM     56  H   UNL A   1      44.398  30.978  31.965  1.00  0.00     0.167 HD
ATOM     57  C   UNL A   1      40.768  32.653  31.395  1.00  0.00     0.074 A 
ATOM     58  C   UNL A   1      39.796  32.478  32.454  1.00  0.00     0.031 C 
ATOM     59  C   UNL A   1      41.992  32.075  31.312  1.00  0.00     0.031 A 
BRANCH  46  60
ATOM     60  C   UNL A   1      45.661  28.140  32.491  1.00  0.00    -0.014 A 
ATOM     61  C   UNL A   1      46.597  28.644  31.546  1.00  0.00     0.010 A 
ATOM     62  C   UNL A   1      46.161  27.308  33.502  1.00  0.00     0.010 A 
ATOM     63  C   UNL A   1      47.932  28.235  31.527  1.00  0.00     0.020 A 
ATOM     64  C   UNL A   1      47.516  26.921  33.512  1.00  0.00     0.020 A 
ATOM     65  C   UNL A   1      48.378  27.347  32.497  1.00  0.00     0.054 A 
BRANCH  65  66
ATOM     66  S   UNL A   1      50.074  26.716  32.363  1.00  0.00     0.124 S 
ATOM     67  O   UNL A   1      50.787  27.531  33.343  1.00  0.00    -0.237 OA
ATOM     68  O   UNL A   1      49.916  25.308  32.719  1.00  0.00    -0.237 OA
ATOM     69  O   UNL A   1      50.423  26.962  30.966  1.00  0.00    -0.744 OA
ENDBRANCH  65  66
ENDBRANCH  46  60
BRANCH  47  70
ATOM     70  C   UNL A   1      36.579  32.871  29.558  1.00  0.00    -0.014 A 
ATOM     71  C   UNL A   1      35.934  33.372  30.697  1.00  0.00     0.010 A 
ATOM     72  C   UNL A   1      35.991  33.240  28.313  1.00  0.00     0.010 A 
ATOM     73  C   UNL A   1      34.886  34.322  30.583  1.00  0.00     0.020 A 
ATOM     74  C   UNL A   1      34.997  34.212  28.185  1.00  0.00     0.020 A 
ATOM     75  C   UNL A   1      34.468  34.779  29.328  1.00  0.00     0.054 A 
BRANCH  75  76
ATOM     76  S   UNL A   1      33.354  36.207  29.170  1.00  0.00     0.124 S 
ATOM     77  O   UNL A   1      33.226  36.662  30.551  1.00  0.00    -0.237 OA
ATOM     78  O   UNL A   1      34.095  37.095  28.276  1.00  0.00    -0.237 OA
ATOM     79  O   UNL A   1      32.143  35.632  28.587  1.00  0.00    -0.744 OA
ENDBRANCH  75  76
ENDBRANCH  47  70
BRANCH  59  80
ATOM     80  C   UNL A   1      42.729  32.272  29.994  1.00  0.00    -0.014 A 
ATOM     81  C   UNL A   1      43.050  31.148  29.215  1.00  0.00     0.010 A 
ATOM     82  C   UNL A   1      43.172  33.529  29.529  1.00  0.00     0.010 A 
ATOM     83  C   UNL A   1      43.770  31.267  28.017  1.00  0.00     0.020 A 
ATOM     84  C   UNL A   1      43.896  33.660  28.328  1.00  0.00     0.020 A 
ATOM     85  C   UNL A   1      44.184  32.523  27.573  1.00  0.00     0.054 A 
BRANCH  85  86
ATOM     86  S   UNL A   1      45.090  32.637  26.001  1.00  0.00     0.124 S 
ATOM     87  O   UNL A   1      46.032  33.726  26.246  1.00  0.00    -0.237 OA
ATOM     88  O   UNL A   1      45.687  31.309  25.888  1.00  0.00    -0.237 OA
ATOM     89  O   UNL A   1      44.051  32.933  25.015  1.00  0.00    -0.744 OA
ENDBRANCH  85  86
ENDBRANCH  59  80
ENDBRANCH  33  34
ENDBRANCH  25  28
ENDBRANCH  23  24
ENDBRANCH  22  23
ENDBRANCH   1  22
TORSDOF 18
ENDMDL
MODEL 2
REMARK VINA RESULT:     -10.8      4.112      8.984
REMARK SMILES CCc1[nH]nc(-n2cccc2)c1C(=O)NCCCCCCNC(=O)c1ccc(-c2c3nc(c(-c4ccc(S(=O)(=O)[O-])cc4)c4ccc([nH]4)c(-c4ccc(S(=O)(=O)[O-])cc4)c4nc(c(-c5ccc(S(=O)(=O)[O-])cc5)c5ccc2[nH]5)C=C4)C=C3)cc1
REMARK SMILES IDX 19 1 18 2 17 3 16 4 15 5 13 6 14 7 12 9 3 10 4 11 5 12 6 14
REMARK SMILES IDX 2 15 1 16 7 17 8 18 11 19 9 20 10 21 20 22 21 23 22 24 23 25
REMARK SMILES IDX 24 27 25 28 26 29 84 30 27 31 83 32 28 33 29 34 30 35 77 36
REMARK SMILES IDX 31 37 82 38 76 39 78 40 32 41 81 42 75 43 74 44 33 46 63 47
REMARK SMILES IDX 44 48 62 49 45 50 48 51 61 52 79 53 46 54 47 55 60 57 80 58
REMARK SMILES IDX 49 59 34 60 35 61 43 62 36 63 42 64 37 65 38 66 39 67 40 68
REMARK SMILES IDX 41 69 64 70 65 71 73 72 66 73 72 74 67 75 68 76 69 77 70 78
REMARK SMILES IDX 71 79 50 80 51 81 59 82 52 83 58 84 53 85 54 86 55 87 56 88
REMARK SMILES IDX 57 89
REMARK H PARENT 15 8 4 13 22 26 78 45 48 56
REMARK Flexibility Score: inf
ROOT
ATOM      1  C   UNL A   1      31.665  27.193  26.261  1.00  0.00     0.002 C 
ENDROOT
BRANCH   1   2
ATOM      2  C   UNL A   1      31.589  25.662  26.228  1.00  0.00     0.002 C 
BRANCH   2   3
ATOM      3  C   UNL A   1      32.901  24.882  26.116  1.00  0.00     0.021 C 
BRANCH   3   4
ATOM      4  C   UNL A   1      32.904  23.434  26.583  1.00  0.00     0.116 C 
BRANCH   4   5
ATOM      5  N   UNL A   1      34.018  22.630  26.167  1.00  0.00    -0.352 N 
ATOM      6  C   UNL A   1      34.235  21.958  24.987  1.00  0.00     0.256 C 
ATOM      7  O   UNL A   1      35.354  21.448  24.885  1.00  0.00    -0.269 OA
ATOM      8  H   UNL A   1      34.740  22.547  26.831  1.00  0.00     0.163 HD
BRANCH   6   9
ATOM      9  C   UNL A   1      33.246  21.822  23.906  1.00  0.00     0.105 A 
ATOM     10  C   UNL A   1      32.783  22.689  22.900  1.00  0.00     0.050 A 
ATOM     11  N   UNL A   1      31.917  21.949  22.133  1.00  0.00    -0.280 N 
ATOM     12  N   UNL A   1      31.931  20.646  22.392  1.00  0.00    -0.156 NA
ATOM     13  H   UNL A   1      31.334  22.351  21.448  1.00  0.00     0.190 HD
ATOM     14  C   UNL A   1      32.655  20.569  23.513  1.00  0.00     0.171 A 
BRANCH  10  15
ATOM     15  C   UNL A   1      33.019  24.099  22.460  1.00  0.00     0.053 C 
ATOM     16  C   UNL A   1      31.777  24.970  22.558  1.00  0.00     0.011 C 
ENDBRANCH  10  15
BRANCH  14  17
ATOM     17  N   UNL A   1      32.757  19.275  24.112  1.00  0.00    -0.307 N 
ATOM     18  C   UNL A   1      32.760  18.962  25.457  1.00  0.00     0.093 A 
ATOM     19  C   UNL A   1      32.815  18.077  23.416  1.00  0.00     0.093 A 
ATOM     20  C   UNL A   1      32.882  17.596  25.603  1.00  0.00     0.020 A 
ATOM     21  C   UNL A   1      32.955  17.039  24.307  1.00  0.00     0.020 A 
ENDBRANCH  14  17
ENDBRANCH   6   9
ENDBRANCH   4   5
ENDBRANCH   3   4
ENDBRANCH   2   3
ENDBRANCH   1   2
BRANCH   1  22
ATOM     22  C   UNL A   1      32.239  27.850  27.523  1.00  0.00     0.021 C 
BRANCH  22  23
ATOM     23  C   UNL A   1      33.580  28.553  27.342  1.00  0.00     0.116 C 
BRANCH  23  24
ATOM     24  N   UNL A   1      33.470  29.992  27.496  1.00  0.00    -0.352 N 
ATOM     25  C   UNL A   1      34.294  30.863  28.170  1.00  0.00     0.251 C 
ATOM     26  H   UNL A   1      32.693  30.405  27.053  1.00  0.00     0.163 HD
ATOM     27  O   UNL A   1      33.867  31.968  28.481  1.00  0.00    -0.269 OA
BRANCH  25  28
ATOM     28  C   UNL A   1      35.675  30.478  28.535  1.00  0.00     0.039 A 
ATOM     29  C   UNL A   1      36.664  30.542  27.545  1.00  0.00     0.014 A 
ATOM     30  C   UNL A   1      35.981  29.970  29.802  1.00  0.00     0.014 A 
ATOM     31  C   UNL A   1      37.964  30.148  27.844  1.00  0.00     0.010 A 
ATOM     32  C   UNL A   1      37.286  29.620  30.120  1.00  0.00     0.010 A 
ATOM     33  C   UNL A   1      38.274  29.704  29.138  1.00  0.00    -0.014 A 
BRANCH  33  34
ATOM     34  C   UNL A   1      39.682  29.413  29.479  1.00  0.00     0.031 A 
ATOM     35  C   UNL A   1      40.384  30.665  30.040  1.00  0.00     0.074 A 
ATOM     36  C   UNL A   1      40.119  28.149  29.184  1.00  0.00     0.049 A 
ATOM     37  N   UNL A   1      41.596  31.089  29.863  1.00  0.00    -0.248 NA
ATOM     38  C   UNL A   1      39.588  31.655  30.820  1.00  0.00     0.031 C 
ATOM     39  C   UNL A   1      39.256  27.046  28.686  1.00  0.00     0.029 A 
ATOM     40  N   UNL A   1      41.343  27.518  29.227  1.00  0.00    -0.354 N 
ATOM     41  C   UNL A   1      41.759  32.289  30.601  1.00  0.00     0.074 A 
ATOM     42  C   UNL A   1      40.458  32.635  31.088  1.00  0.00     0.031 C 
ATOM     43  C   UNL A   1      39.984  25.945  28.396  1.00  0.00     0.029 A 
ATOM     44  C   UNL A   1      41.381  26.216  28.657  1.00  0.00     0.049 A 
ATOM     45  H   UNL A   1      42.138  27.941  29.626  1.00  0.00     0.167 HD
ATOM     46  C   UNL A   1      42.979  32.858  30.850  1.00  0.00     0.031 A 
ATOM     47  C   UNL A   1      42.471  25.448  28.337  1.00  0.00     0.031 A 
ATOM     48  C   UNL A   1      44.002  32.083  30.233  1.00  0.00     0.049 A 
ATOM     49  C   UNL A   1      43.635  26.249  28.752  1.00  0.00     0.074 A 
ATOM     50  C   UNL A   1      44.387  31.920  28.928  1.00  0.00     0.029 A 
ATOM     51  N   UNL A   1      44.507  31.050  30.985  1.00  0.00    -0.354 N 
ATOM     52  N   UNL A   1      44.002  26.469  29.977  1.00  0.00    -0.248 NA
ATOM     53  C   UNL A   1      44.379  26.974  27.713  1.00  0.00     0.031 C 
ATOM     54  C   UNL A   1      44.638  30.531  28.848  1.00  0.00     0.029 A 
ATOM     55  C   UNL A   1      44.635  29.980  30.135  1.00  0.00     0.049 A 
ATOM     56  H   UNL A   1      44.732  31.071  31.944  1.00  0.00     0.167 HD
ATOM     57  C   UNL A   1      44.750  27.614  29.859  1.00  0.00     0.074 A 
ATOM     58  C   UNL A   1      45.195  27.685  28.484  1.00  0.00     0.031 C 
ATOM     59  C   UNL A   1      44.539  28.657  30.700  1.00  0.00     0.031 A 
BRANCH  46  60
ATOM     60  C   UNL A   1      43.434  33.939  31.799  1.00  0.00    -0.014 A 
ATOM     61  C   UNL A   1      43.119  33.766  33.174  1.00  0.00     0.010 A 
ATOM     62  C   UNL A   1      43.851  35.215  31.395  1.00  0.00     0.010 A 
ATOM     63  C   UNL A   1      43.088  34.835  34.073  1.00  0.00     0.020 A 
ATOM     64  C   UNL A   1      43.859  36.291  32.306  1.00  0.00     0.020 A 
ATOM     65  C   UNL A   1      43.431  36.103  33.623  1.00  0.00     0.054 A 
BRANCH  65  66
ATOM     66  S   UNL A   1      43.240  37.496  34.770  1.00  0.00     0.124 S 
ATOM     67  O   UNL A   1      42.762  38.559  33.890  1.00  0.00    -0.237 OA
ATOM     68  O   UNL A   1      42.257  36.986  35.724  1.00  0.00    -0.237 OA
ATOM     69  O   UNL A   1      44.584  37.683  35.312  1.00  0.00    -0.744 OA
ENDBRANCH  65  66
ENDBRANCH  46  60
BRANCH  47  70
ATOM     70  C   UNL A   1      42.775  24.203  27.527  1.00  0.00    -0.014 A 
ATOM     71  C   UNL A   1      42.250  23.871  26.271  1.00  0.00     0.010 A 
ATOM     72  C   UNL A   1      43.773  23.316  28.024  1.00  0.00     0.010 A 
ATOM     73  C   UNL A   1      42.818  22.828  25.495  1.00  0.00     0.020 A 
ATOM     74  C   UNL A   1      44.378  22.321  27.252  1.00  0.00     0.020 A 
ATOM     75  C   UNL A   1      43.917  22.102  25.969  1.00  0.00     0.054 A 
BRANCH  75  76
ATOM     76  S   UNL A   1      44.846  20.983  24.878  1.00  0.00     0.124 S 
ATOM     77  O   UNL A   1      44.294  19.676  25.223  1.00  0.00    -0.237 OA
ATOM     78  O   UNL A   1      44.510  21.480  23.546  1.00  0.00    -0.237 OA
ATOM     79  O   UNL A   1      46.237  21.196  25.274  1.00  0.00    -0.744 OA
ENDBRANCH  75  76
ENDBRANCH  47  70
BRANCH  59  80
ATOM     80  C   UNL A   1      43.879  28.313  32.028  1.00  0.00    -0.014 A 
ATOM     81  C   UNL A   1      42.539  28.675  32.241  1.00  0.00     0.010 A 
ATOM     82  C   UNL A   1      44.560  27.699  33.101  1.00  0.00     0.010 A 
ATOM     83  C   UNL A   1      41.895  28.427  33.462  1.00  0.00     0.020 A 
ATOM     84  C   UNL A   1      43.925  27.445  34.333  1.00  0.00     0.020 A 
ATOM     85  C   UNL A   1      42.588  27.805  34.502  1.00  0.00     0.054 A 
BRANCH  85  86
ATOM     86  S   UNL A   1      41.709  27.476  36.059  1.00  0.00     0.124 S 
ATOM     87  O   UNL A   1      42.794  27.403  37.034  1.00  0.00    -0.237 OA
ATOM     88  O   UNL A   1      40.839  28.643  36.180  1.00  0.00    -0.237 OA
ATOM     89  O   UNL A   1      41.018  26.212  35.813  1.00  0.00    -0.744 OA
ENDBRANCH  85  86
ENDBRANCH  59  80
ENDBRANCH  33  34
ENDBRANCH  25  28
ENDBRANCH  23  24
ENDBRANCH  22  23
ENDBRANCH   1  22
TORSDOF 18
ENDMDL
MODEL 3
REMARK VINA RESULT:     -10.7      1.706      2.849
REMARK SMILES CCc1[nH]nc(-n2cccc2)c1C(=O)NCCCCCCNC(=O)c1ccc(-c2c3nc(c(-c4ccc(S(=O)(=O)[O-])cc4)c4ccc([nH]4)c(-c4ccc(S(=O)(=O)[O-])cc4)c4nc(c(-c5ccc(S(=O)(=O)[O-])cc5)c5ccc2[nH]5)C=C4)C=C3)cc1
REMARK SMILES IDX 19 1 18 2 17 3 16 4 15 5 13 6 14 7 12 9 3 10 4 11 5 12 6 14
REMARK SMILES IDX 2 15 1 16 7 17 8 18 11 19 9 20 10 21 20 22 21 23 22 24 23 25
REMARK SMILES IDX 24 27 25 28 26 29 84 30 27 31 83 32 28 33 29 34 30 35 77 36
REMARK SMILES IDX 31 37 82 38 76 39 78 40 32 41 81 42 75 43 74 44 33 46 63 47
REMARK SMILES IDX 44 48 62 49 45 50 48 51 61 52 79 53 46 54 47 55 60 57 80 58
REMARK SMILES IDX 49 59 34 60 35 61 43 62 36 63 42 64 37 65 38 66 39 67 40 68
REMARK SMILES IDX 41 69 64 70 65 71 73 72 66 73 72 74 67 75 68 76 69 77 70 78
REMARK SMILES IDX 71 79 50 80 51 81 59 82 52 83 58 84 53 85 54 86 55 87 56 88
REMARK SMILES IDX 57 89
REMARK H PARENT 15 8 4 13 22 26 78 45 48 56
REMARK Flexibility Score: inf
ROOT
ATOM      1  C   UNL A   1      34.390  24.919  25.671  1.00  0.00     0.002 C 
ENDROOT
BRANCH   1   2
ATOM      2  C   UNL A   1      33.364  25.015  24.536  1.00  0.00     0.002 C 
BRANCH   2   3
ATOM      3  C   UNL A   1      33.662  25.975  23.382  1.00  0.00     0.021 C 
BRANCH   3   4
ATOM      4  C   UNL A   1      32.480  26.653  22.704  1.00  0.00     0.116 C 
BRANCH   4   5
ATOM      5  N   UNL A   1      31.176  26.299  23.187  1.00  0.00    -0.352 N 
ATOM      6  C   UNL A   1      30.109  27.098  23.525  1.00  0.00     0.256 C 
ATOM      7  O   UNL A   1      29.074  26.484  23.796  1.00  0.00    -0.269 OA
ATOM      8  H   UNL A   1      31.021  25.333  23.291  1.00  0.00     0.163 HD
BRANCH   6   9
ATOM      9  C   UNL A   1      30.147  28.568  23.582  1.00  0.00     0.105 A 
ATOM     10  C   UNL A   1      29.383  29.582  22.977  1.00  0.00     0.050 A 
ATOM     11  N   UNL A   1      29.848  30.766  23.497  1.00  0.00    -0.280 N 
ATOM     12  N   UNL A   1      30.673  30.625  24.529  1.00  0.00    -0.156 NA
ATOM     13  H   UNL A   1      29.590  31.645  23.135  1.00  0.00     0.190 HD
ATOM     14  C   UNL A   1      30.932  29.314  24.531  1.00  0.00     0.171 A 
BRANCH  10  15
ATOM     15  C   UNL A   1      28.241  29.684  22.016  1.00  0.00     0.053 C 
ATOM     16  C   UNL A   1      27.637  31.077  21.956  1.00  0.00     0.011 C 
ENDBRANCH  10  15
BRANCH  14  17
ATOM     17  N   UNL A   1      31.900  28.863  25.482  1.00  0.00    -0.307 N 
ATOM     18  C   UNL A   1      31.687  28.095  26.609  1.00  0.00     0.093 A 
ATOM     19  C   UNL A   1      33.266  29.082  25.392  1.00  0.00     0.093 A 
ATOM     20  C   UNL A   1      32.891  27.890  27.251  1.00  0.00     0.020 A 
ATOM     21  C   UNL A   1      33.887  28.549  26.498  1.00  0.00     0.020 A 
ENDBRANCH  14  17
ENDBRANCH   6   9
ENDBRANCH   4   5
ENDBRANCH   3   4
ENDBRANCH   2   3
ENDBRANCH   1   2
BRANCH   1  22
ATOM     22  C   UNL A   1      35.345  23.717  25.668  1.00  0.00     0.021 C 
BRANCH  22  23
ATOM     23  C   UNL A   1      36.754  24.001  25.160  1.00  0.00     0.116 C 
BRANCH  23  24
ATOM     24  N   UNL A   1      37.680  22.933  25.487  1.00  0.00    -0.352 N 
ATOM     25  C   UNL A   1      38.925  23.006  26.068  1.00  0.00     0.251 C 
ATOM     26  H   UNL A   1      37.373  22.024  25.262  1.00  0.00     0.163 HD
ATOM     27  O   UNL A   1      39.693  22.059  25.954  1.00  0.00    -0.269 OA
BRANCH  25  28
ATOM     28  C   UNL A   1      39.349  24.211  26.813  1.00  0.00     0.039 A 
ATOM     29  C   UNL A   1      40.247  25.091  26.195  1.00  0.00     0.014 A 
ATOM     30  C   UNL A   1      38.949  24.432  28.136  1.00  0.00     0.014 A 
ATOM     31  C   UNL A   1      40.697  26.213  26.883  1.00  0.00     0.010 A 
ATOM     32  C   UNL A   1      39.357  25.574  28.811  1.00  0.00     0.010 A 
ATOM     33  C   UNL A   1      40.236  26.459  28.185  1.00  0.00    -0.014 A 
BRANCH  33  34
ATOM     34  C   UNL A   1      40.619  27.718  28.856  1.00  0.00     0.031 A 
ATOM     35  C   UNL A   1      41.926  27.542  29.654  1.00  0.00     0.074 A 
ATOM     36  C   UNL A   1      39.744  28.763  28.713  1.00  0.00     0.049 A 
ATOM     37  N   UNL A   1      42.273  28.034  30.802  1.00  0.00    -0.248 NA
ATOM     38  C   UNL A   1      42.956  26.585  29.158  1.00  0.00     0.031 C 
ATOM     39  C   UNL A   1      38.541  28.749  27.840  1.00  0.00     0.029 A 
ATOM     40  N   UNL A   1      39.659  30.029  29.249  1.00  0.00    -0.354 N 
ATOM     41  C   UNL A   1      43.581  27.579  31.103  1.00  0.00     0.074 A 
ATOM     42  C   UNL A   1      43.907  26.613  30.098  1.00  0.00     0.031 C 
ATOM     43  C   UNL A   1      37.822  29.885  27.978  1.00  0.00     0.029 A 
ATOM     44  C   UNL A   1      38.464  30.741  28.952  1.00  0.00     0.049 A 
ATOM     45  H   UNL A   1      40.378  30.415  29.800  1.00  0.00     0.167 HD
ATOM     46  C   UNL A   1      44.351  28.112  32.101  1.00  0.00     0.031 A 
ATOM     47  C   UNL A   1      37.987  31.894  29.519  1.00  0.00     0.031 A 
ATOM     48  C   UNL A   1      43.620  29.133  32.774  1.00  0.00     0.049 A 
ATOM     49  C   UNL A   1      39.010  32.286  30.502  1.00  0.00     0.074 A 
ATOM     50  C   UNL A   1      42.569  29.100  33.653  1.00  0.00     0.029 A 
ATOM     51  N   UNL A   1      43.722  30.394  32.239  1.00  0.00    -0.354 N 
ATOM     52  N   UNL A   1      40.180  32.771  30.221  1.00  0.00    -0.248 NA
ATOM     53  C   UNL A   1      38.753  31.992  31.919  1.00  0.00     0.031 C 
ATOM     54  C   UNL A   1      41.756  30.165  33.207  1.00  0.00     0.029 A 
ATOM     55  C   UNL A   1      42.456  30.927  32.264  1.00  0.00     0.049 A 
ATOM     56  H   UNL A   1      44.538  30.830  31.903  1.00  0.00     0.167 HD
ATOM     57  C   UNL A   1      40.897  32.487  31.357  1.00  0.00     0.074 A 
ATOM     58  C   UNL A   1      39.937  32.318  32.427  1.00  0.00     0.031 C 
ATOM     59  C   UNL A   1      42.122  31.912  31.266  1.00  0.00     0.031 A 
BRANCH  46  60
ATOM     60  C   UNL A   1      45.817  28.001  32.440  1.00  0.00    -0.014 A 
ATOM     61  C   UNL A   1      46.741  28.517  31.490  1.00  0.00     0.010 A 
ATOM     62  C   UNL A   1      46.332  27.168  33.442  1.00  0.00     0.010 A 
ATOM     63  C   UNL A   1      48.078  28.116  31.456  1.00  0.00     0.020 A 
ATOM     64  C   UNL A   1      47.690  26.789  33.437  1.00  0.00     0.020 A 
ATOM     65  C   UNL A   1      48.539  27.227  32.417  1.00  0.00     0.054 A 
BRANCH  65  66
ATOM     66  S   UNL A   1      50.238  26.608  32.263  1.00  0.00     0.124 S 
ATOM     67  O   UNL A   1      50.744  27.369  31.123  1.00  0.00    -0.237 OA
ATOM     68  O   UNL A   1      50.820  26.961  33.556  1.00  0.00    -0.237 OA
ATOM     69  O   UNL A   1      50.064  25.176  32.037  1.00  0.00    -0.744 OA
ENDBRANCH  65  66
ENDBRANCH  46  60
BRANCH  47  70
ATOM     70  C   UNL A   1      36.688  32.675  29.562  1.00  0.00    -0.014 A 
ATOM     71  C   UNL A   1      36.105  33.270  30.689  1.00  0.00     0.010 A 
ATOM     72  C   UNL A   1      36.028  32.934  28.326  1.00  0.00     0.010 A 
ATOM     73  C   UNL A   1      35.044  34.202  30.555  1.00  0.00     0.020 A 
ATOM     74  C   UNL A   1      35.020  33.888  28.172  1.00  0.00     0.020 A 
ATOM     75  C   UNL A   1      34.552  34.549  29.291  1.00  0.00     0.054 A 
BRANCH  75  76
ATOM     76  S   UNL A   1      33.419  35.954  29.075  1.00  0.00     0.124 S 
ATOM     77  O   UNL A   1      32.306  35.353  28.346  1.00  0.00    -0.237 OA
ATOM     78  O   UNL A   1      33.133  36.351  30.452  1.00  0.00    -0.237 OA
ATOM     79  O   UNL A   1      34.212  36.920  28.316  1.00  0.00    -0.744 OA
ENDBRANCH  75  76
ENDBRANCH  47  70
BRANCH  59  80
ATOM     80  C   UNL A   1      42.844  32.101  29.939  1.00  0.00    -0.014 A 
ATOM     81  C   UNL A   1      42.959  31.010  29.061  1.00  0.00     0.010 A 
ATOM     82  C   UNL A   1      43.470  33.307  29.555  1.00  0.00     0.010 A 
ATOM     83  C   UNL A   1      43.655  31.113  27.848  1.00  0.00     0.020 A 
ATOM     84  C   UNL A   1      44.173  33.422  28.340  1.00  0.00     0.020 A 
ATOM     85  C   UNL A   1      44.253  32.321  27.487  1.00  0.00     0.054 A 
BRANCH  85  86
ATOM     86  S   UNL A   1      45.121  32.422  25.893  1.00  0.00     0.124 S 
ATOM     87  O   UNL A   1      45.767  31.116  25.793  1.00  0.00    -0.237 OA
ATOM     88  O   UNL A   1      44.027  32.650  24.954  1.00  0.00    -0.237 OA
ATOM     89  O   UNL A   1      46.038  33.549  26.061  1.00  0.00    -0.744 OA
ENDBRANCH  85  86
ENDBRANCH  59  80
ENDBRANCH  33  34
ENDBRANCH  25  28
ENDBRANCH  23  24
ENDBRANCH  22  23
ENDBRANCH   1  22
TORSDOF 18
ENDMDL
