MODEL 1
REMARK VINA RESULT:     -10.5      0.000      0.000
REMARK SMILES CCCc1nsc(N2CCO[C@H](CC(=O)NCCCCCCNC(=O)c3ccc(-c4c5nc(c(-c6ccc(S(=O)(=O)[O-])cc6)c6ccc([nH]6)c(-c6ccc(S(=O)(=O)[O-])cc6)c6nc(c(-c7ccc(S(=O)(=O)[O-])cc7)c7ccc4[nH]7)C=C6)C=C5)cc3)C2)n1
REMARK SMILES IDX 19 1 18 2 17 3 16 4 14 5 15 6 13 8 12 9 8 10 9 11 86 12
REMARK SMILES IDX 10 13 11 14 7 15 4 16 5 17 87 18 6 19 3 20 2 21 1 22 20 23
REMARK SMILES IDX 21 24 22 25 23 26 24 27 25 29 26 30 27 31 85 32 28 33 84 34
REMARK SMILES IDX 29 35 30 36 31 37 78 38 32 39 83 40 77 41 79 42 33 43 82 44
REMARK SMILES IDX 76 45 75 46 34 48 64 49 45 50 63 51 46 52 49 53 62 54 80 55
REMARK SMILES IDX 47 56 48 57 61 59 81 60 50 61 35 62 36 63 44 64 37 65 43 66
REMARK SMILES IDX 38 67 39 68 40 69 41 70 42 71 65 72 66 73 74 74 67 75 73 76
REMARK SMILES IDX 68 77 69 78 70 79 71 80 72 81 51 82 52 83 60 84 53 85 59 86
REMARK SMILES IDX 54 87 55 88 56 89 57 90 58 91
REMARK H PARENT 16 7 23 28 79 47 49 58
REMARK Flexibility Score: inf
ROOT
ATOM      1  C   UNL A   1      34.150  23.145  22.771  1.00  0.00     0.002 C 
ENDROOT
BRANCH   1   2
ATOM      2  C   UNL A   1      33.134  22.326  23.577  1.00  0.00     0.021 C 
BRANCH   2   3
ATOM      3  C   UNL A   1      31.913  23.127  24.030  1.00  0.00     0.116 C 
BRANCH   3   4
ATOM      4  N   UNL A   1      31.737  23.056  25.467  1.00  0.00    -0.356 N 
ATOM      5  C   UNL A   1      31.425  24.025  26.362  1.00  0.00     0.222 C 
ATOM      6  O   UNL A   1      31.269  23.700  27.540  1.00  0.00    -0.275 OA
ATOM      7  H   UNL A   1      31.865  22.160  25.855  1.00  0.00     0.163 HD
BRANCH   5   8
ATOM      8  C   UNL A   1      31.218  25.448  25.907  1.00  0.00     0.133 C 
BRANCH   8   9
ATOM      9  C   UNL A   1      32.196  26.506  26.438  1.00  0.00     0.147 C 
ATOM     10  N   UNL A   1      32.158  28.339  24.767  1.00  0.00    -0.342 N 
ATOM     11  C   UNL A   1      33.470  27.942  24.271  1.00  0.00     0.147 C 
ATOM     12  C   UNL A   1      31.886  27.994  26.155  1.00  0.00     0.151 C 
ATOM     13  C   UNL A   1      33.785  26.486  24.634  1.00  0.00     0.182 C 
ATOM     14  O   UNL A   1      33.548  26.191  26.023  1.00  0.00    -0.374 OA
BRANCH  10  15
ATOM     15  C   UNL A   1      31.138  28.631  23.923  1.00  0.00     0.205 A 
ATOM     16  C   UNL A   1      29.669  29.780  22.759  1.00  0.00     0.144 A 
ATOM     17  N   UNL A   1      29.476  28.649  22.075  1.00  0.00    -0.174 NA
ATOM     18  N   UNL A   1      30.494  29.773  23.879  1.00  0.00    -0.203 NA
ATOM     19  S   UNL A   1      30.510  27.525  22.736  1.00  0.00     0.004 S 
BRANCH  16  20
ATOM     20  C   UNL A   1      29.048  31.042  22.261  1.00  0.00     0.078 C 
BRANCH  20  21
ATOM     21  C   UNL A   1      28.518  31.989  23.335  1.00  0.00     0.005 C 
ATOM     22  C   UNL A   1      28.922  33.444  23.128  1.00  0.00     0.004 C 
ENDBRANCH  20  21
ENDBRANCH  16  20
ENDBRANCH  10  15
ENDBRANCH   8   9
ENDBRANCH   5   8
ENDBRANCH   3   4
ENDBRANCH   2   3
ENDBRANCH   1   2
BRANCH   1  23
ATOM     23  C   UNL A   1      35.580  23.083  23.310  1.00  0.00     0.002 C 
BRANCH  23  24
ATOM     24  C   UNL A   1      35.686  23.202  24.832  1.00  0.00     0.021 C 
BRANCH  24  25
ATOM     25  C   UNL A   1      36.971  23.862  25.317  1.00  0.00     0.116 C 
BRANCH  25  26
ATOM     26  N   UNL A   1      38.005  22.881  25.604  1.00  0.00    -0.352 N 
ATOM     27  C   UNL A   1      39.229  23.075  26.189  1.00  0.00     0.251 C 
ATOM     28  H   UNL A   1      37.798  21.955  25.344  1.00  0.00     0.163 HD
ATOM     29  O   UNL A   1      40.081  22.190  26.151  1.00  0.00    -0.269 OA
BRANCH  27  30
ATOM     30  C   UNL A   1      39.521  24.364  26.849  1.00  0.00     0.039 A 
ATOM     31  C   UNL A   1      39.084  24.573  28.158  1.00  0.00     0.014 A 
ATOM     32  C   UNL A   1      40.238  25.359  26.176  1.00  0.00     0.014 A 
ATOM     33  C   UNL A   1      39.411  25.762  28.812  1.00  0.00     0.010 A 
ATOM     34  C   UNL A   1      40.632  26.507  26.856  1.00  0.00     0.010 A 
ATOM     35  C   UNL A   1      40.215  26.725  28.178  1.00  0.00    -0.014 A 
BRANCH  35  36
ATOM     36  C   UNL A   1      40.627  27.965  28.882  1.00  0.00     0.031 A 
ATOM     37  C   UNL A   1      41.984  28.054  29.528  1.00  0.00     0.074 A 
ATOM     38  C   UNL A   1      39.760  28.990  28.990  1.00  0.00     0.049 A 
ATOM     39  N   UNL A   1      42.503  29.034  30.220  1.00  0.00    -0.248 NA
ATOM     40  C   UNL A   1      42.858  26.877  29.400  1.00  0.00     0.031 C 
ATOM     41  C   UNL A   1      38.400  29.009  28.446  1.00  0.00     0.029 A 
ATOM     42  N   UNL A   1      39.889  30.212  29.601  1.00  0.00    -0.354 N 
ATOM     43  C   UNL A   1      43.759  28.590  30.619  1.00  0.00     0.074 A 
ATOM     44  C   UNL A   1      43.895  27.230  30.146  1.00  0.00     0.031 C 
ATOM     45  C   UNL A   1      37.832  30.192  28.725  1.00  0.00     0.029 A 
ATOM     46  C   UNL A   1      38.767  30.999  29.503  1.00  0.00     0.049 A 
ATOM     47  H   UNL A   1      40.710  30.499  30.065  1.00  0.00     0.167 HD
ATOM     48  C   UNL A   1      44.721  29.259  31.300  1.00  0.00     0.031 A 
ATOM     49  C   UNL A   1      38.511  32.228  29.993  1.00  0.00     0.031 A 
ATOM     50  C   UNL A   1      44.577  30.610  31.776  1.00  0.00     0.049 A 
ATOM     51  C   UNL A   1      39.582  32.947  30.764  1.00  0.00     0.074 A 
ATOM     52  C   UNL A   1      45.506  31.393  32.437  1.00  0.00     0.029 A 
ATOM     53  N   UNL A   1      43.425  31.374  31.654  1.00  0.00    -0.354 N 
ATOM     54  N   UNL A   1      40.790  32.537  31.073  1.00  0.00    -0.248 NA
ATOM     55  C   UNL A   1      39.264  34.300  31.239  1.00  0.00     0.031 C 
ATOM     56  C   UNL A   1      44.896  32.608  32.767  1.00  0.00     0.029 A 
ATOM     57  C   UNL A   1      43.610  32.611  32.250  1.00  0.00     0.049 A 
ATOM     58  H   UNL A   1      42.598  31.081  31.207  1.00  0.00     0.167 HD
ATOM     59  C   UNL A   1      41.385  33.590  31.759  1.00  0.00     0.074 A 
ATOM     60  C   UNL A   1      40.409  34.661  31.804  1.00  0.00     0.031 C 
ATOM     61  C   UNL A   1      42.626  33.664  32.299  1.00  0.00     0.031 A 
BRANCH  48  62
ATOM     62  C   UNL A   1      46.008  28.524  31.579  1.00  0.00    -0.014 A 
ATOM     63  C   UNL A   1      47.014  28.416  30.600  1.00  0.00     0.010 A 
ATOM     64  C   UNL A   1      46.220  27.936  32.839  1.00  0.00     0.010 A 
ATOM     65  C   UNL A   1      48.177  27.684  30.854  1.00  0.00     0.020 A 
ATOM     66  C   UNL A   1      47.397  27.232  33.110  1.00  0.00     0.020 A 
ATOM     67  C   UNL A   1      48.357  27.089  32.106  1.00  0.00     0.054 A 
BRANCH  67  68
ATOM     68  S   UNL A   1      49.870  26.135  32.405  1.00  0.00     0.124 S 
ATOM     69  O   UNL A   1      49.649  24.954  31.574  1.00  0.00    -0.237 OA
ATOM     70  O   UNL A   1      50.917  27.041  31.939  1.00  0.00    -0.237 OA
ATOM     71  O   UNL A   1      49.851  25.894  33.845  1.00  0.00    -0.744 OA
ENDBRANCH  67  68
ENDBRANCH  48  62
BRANCH  49  72
ATOM     72  C   UNL A   1      37.180  32.850  29.752  1.00  0.00    -0.014 A 
ATOM     73  C   UNL A   1      36.133  32.691  30.676  1.00  0.00     0.010 A 
ATOM     74  C   UNL A   1      36.970  33.650  28.612  1.00  0.00     0.010 A 
ATOM     75  C   UNL A   1      34.901  33.318  30.465  1.00  0.00     0.020 A 
ATOM     76  C   UNL A   1      35.750  34.301  28.414  1.00  0.00     0.020 A 
ATOM     77  C   UNL A   1      34.721  34.127  29.340  1.00  0.00     0.054 A 
BRANCH  77  78
ATOM     78  S   UNL A   1      33.142  34.997  29.133  1.00  0.00     0.124 S 
ATOM     79  O   UNL A   1      33.578  36.326  28.719  1.00  0.00    -0.237 OA
ATOM     80  O   UNL A   1      32.476  34.198  28.107  1.00  0.00    -0.237 OA
ATOM     81  O   UNL A   1      32.535  34.922  30.460  1.00  0.00    -0.744 OA
ENDBRANCH  77  78
ENDBRANCH  49  72
BRANCH  61  82
ATOM     82  C   UNL A   1      43.018  34.958  32.964  1.00  0.00    -0.014 A 
ATOM     83  C   UNL A   1      42.848  35.152  34.346  1.00  0.00     0.010 A 
ATOM     84  C   UNL A   1      43.620  35.976  32.200  1.00  0.00     0.010 A 
ATOM     85  C   UNL A   1      43.243  36.351  34.947  1.00  0.00     0.020 A 
ATOM     86  C   UNL A   1      44.046  37.163  32.801  1.00  0.00     0.020 A 
ATOM     87  C   UNL A   1      43.842  37.349  34.169  1.00  0.00     0.054 A 
BRANCH  87  88
ATOM     88  S   UNL A   1      44.386  38.876  34.980  1.00  0.00     0.124 S 
ATOM     89  O   UNL A   1      43.520  39.876  34.360  1.00  0.00    -0.237 OA
ATOM     90  O   UNL A   1      44.121  38.602  36.390  1.00  0.00    -0.237 OA
ATOM     91  O   UNL A   1      45.801  38.972  34.625  1.00  0.00    -0.744 OA
ENDBRANCH  87  88
ENDBRANCH  61  82
ENDBRANCH  35  36
ENDBRANCH  27  30
ENDBRANCH  25  26
ENDBRANCH  24  25
ENDBRANCH  23  24
ENDBRANCH   1  23
TORSDOF 20
ENDMDL
MODEL 2
REMARK VINA RESULT:      -9.9      2.860      9.650
REMARK SMILES CCCc1nsc(N2CCO[C@H](CC(=O)NCCCCCCNC(=O)c3ccc(-c4c5nc(c(-c6ccc(S(=O)(=O)[O-])cc6)c6ccc([nH]6)c(-c6ccc(S(=O)(=O)[O-])cc6)c6nc(c(-c7ccc(S(=O)(=O)[O-])cc7)c7ccc4[nH]7)C=C6)C=C5)cc3)C2)n1
REMARK SMILES IDX 19 1 18 2 17 3 16 4 14 5 15 6 13 8 12 9 8 10 9 11 86 12
REMARK SMILES IDX 10 13 11 14 7 15 4 16 5 17 87 18 6 19 3 20 2 21 1 22 20 23
REMARK SMILES IDX 21 24 22 25 23 26 24 27 25 29 26 30 27 31 85 32 28 33 84 34
REMARK SMILES IDX 29 35 30 36 31 37 78 38 32 39 83 40 77 41 79 42 33 43 82 44
REMARK SMILES IDX 76 45 75 46 34 48 64 49 45 50 63 51 46 52 49 53 62 54 80 55
REMARK SMILES IDX 47 56 48 57 61 59 81 60 50 61 35 62 36 63 44 64 37 65 43 66
REMARK SMILES IDX 38 67 39 68 40 69 41 70 42 71 65 72 66 73 74 74 67 75 73 76
REMARK SMILES IDX 68 77 69 78 70 79 71 80 72 81 51 82 52 83 60 84 53 85 59 86
REMARK SMILES IDX 54 87 55 88 56 89 57 90 58 91
REMARK H PARENT 16 7 23 28 79 47 49 58
REMARK Flexibility Score: inf
ROOT
ATOM      1  C   UNL A   1      30.773  28.996  24.120  1.00  0.00     0.002 C 
ENDROOT
BRANCH   1   2
ATOM      2  C   UNL A   1      31.492  28.544  22.843  1.00  0.00     0.021 C 
BRANCH   2   3
ATOM      3  C   UNL A   1      30.900  27.283  22.213  1.00  0.00     0.116 C 
BRANCH   3   4
ATOM      4  N   UNL A   1      31.922  26.486  21.564  1.00  0.00    -0.356 N 
ATOM      5  C   UNL A   1      32.453  25.287  21.909  1.00  0.00     0.222 C 
ATOM      6  O   UNL A   1      33.278  24.777  21.150  1.00  0.00    -0.275 OA
ATOM      7  H   UNL A   1      32.291  26.880  20.740  1.00  0.00     0.163 HD
BRANCH   5   8
ATOM      8  C   UNL A   1      31.992  24.579  23.158  1.00  0.00     0.133 C 
BRANCH   8   9
ATOM      9  C   UNL A   1      32.444  25.162  24.504  1.00  0.00     0.147 C 
ATOM     10  N   UNL A   1      32.924  23.202  25.947  1.00  0.00    -0.342 N 
ATOM     11  C   UNL A   1      31.699  23.432  26.703  1.00  0.00     0.147 C 
ATOM     12  C   UNL A   1      33.501  24.382  25.320  1.00  0.00     0.151 C 
ATOM     13  C   UNL A   1      30.700  24.275  25.900  1.00  0.00     0.182 C 
ATOM     14  O   UNL A   1      31.293  25.458  25.334  1.00  0.00    -0.374 OA
BRANCH  10  15
ATOM     15  C   UNL A   1      33.274  21.963  25.522  1.00  0.00     0.205 A 
ATOM     16  C   UNL A   1      33.175  19.998  24.541  1.00  0.00     0.144 A 
ATOM     17  N   UNL A   1      34.495  19.947  24.733  1.00  0.00    -0.174 NA
ATOM     18  N   UNL A   1      32.442  21.049  25.082  1.00  0.00    -0.203 NA
ATOM     19  S   UNL A   1      34.910  21.373  25.483  1.00  0.00     0.004 S 
BRANCH  16  20
ATOM     20  C   UNL A   1      32.527  18.960  23.686  1.00  0.00     0.078 C 
BRANCH  20  21
ATOM     21  C   UNL A   1      32.923  17.515  23.983  1.00  0.00     0.005 C 
ATOM     22  C   UNL A   1      32.527  17.041  25.376  1.00  0.00     0.004 C 
ENDBRANCH  20  21
ENDBRANCH  16  20
ENDBRANCH  10  15
ENDBRANCH   8   9
ENDBRANCH   5   8
ENDBRANCH   3   4
ENDBRANCH   2   3
ENDBRANCH   1   2
BRANCH   1  23
ATOM     23  C   UNL A   1      31.646  28.967  25.378  1.00  0.00     0.002 C 
BRANCH  23  24
ATOM     24  C   UNL A   1      33.091  28.532  25.133  1.00  0.00     0.021 C 
BRANCH  24  25
ATOM     25  C   UNL A   1      34.029  28.797  26.304  1.00  0.00     0.116 C 
BRANCH  25  26
ATOM     26  N   UNL A   1      33.848  30.134  26.846  1.00  0.00    -0.352 N 
ATOM     27  C   UNL A   1      34.606  30.787  27.783  1.00  0.00     0.251 C 
ATOM     28  H   UNL A   1      33.079  30.637  26.494  1.00  0.00     0.163 HD
ATOM     29  O   UNL A   1      34.192  31.818  28.306  1.00  0.00    -0.269 OA
BRANCH  27  30
ATOM     30  C   UNL A   1      35.918  30.228  28.171  1.00  0.00     0.039 A 
ATOM     31  C   UNL A   1      36.964  30.242  27.247  1.00  0.00     0.014 A 
ATOM     32  C   UNL A   1      36.114  29.703  29.453  1.00  0.00     0.014 A 
ATOM     33  C   UNL A   1      38.224  29.777  27.626  1.00  0.00     0.010 A 
ATOM     34  C   UNL A   1      37.388  29.315  29.853  1.00  0.00     0.010 A 
ATOM     35  C   UNL A   1      38.455  29.339  28.942  1.00  0.00    -0.014 A 
BRANCH  35  36
ATOM     36  C   UNL A   1      39.804  28.902  29.380  1.00  0.00     0.031 A 
ATOM     37  C   UNL A   1      40.687  29.840  30.160  1.00  0.00     0.074 A 
ATOM     38  C   UNL A   1      40.258  27.685  29.027  1.00  0.00     0.049 A 
ATOM     39  N   UNL A   1      41.908  29.653  30.591  1.00  0.00    -0.248 NA
ATOM     40  C   UNL A   1      40.135  31.168  30.471  1.00  0.00     0.031 C 
ATOM     41  C   UNL A   1      39.516  26.702  28.234  1.00  0.00     0.029 A 
ATOM     42  N   UNL A   1      41.457  27.067  29.283  1.00  0.00    -0.354 N 
ATOM     43  C   UNL A   1      42.273  30.841  31.215  1.00  0.00     0.074 A 
ATOM     44  C   UNL A   1      41.170  31.761  31.049  1.00  0.00     0.031 C 
ATOM     45  C   UNL A   1      40.265  25.598  28.091  1.00  0.00     0.029 A 
ATOM     46  C   UNL A   1      41.554  25.807  28.742  1.00  0.00     0.049 A 
ATOM     47  H   UNL A   1      42.179  27.486  29.805  1.00  0.00     0.167 HD
ATOM     48  C   UNL A   1      43.414  31.134  31.884  1.00  0.00     0.031 A 
ATOM     49  C   UNL A   1      42.569  24.921  28.757  1.00  0.00     0.031 A 
ATOM     50  C   UNL A   1      44.513  30.217  32.039  1.00  0.00     0.049 A 
ATOM     51  C   UNL A   1      43.837  25.271  29.486  1.00  0.00     0.074 A 
ATOM     52  C   UNL A   1      45.695  30.400  32.735  1.00  0.00     0.029 A 
ATOM     53  N   UNL A   1      44.571  28.949  31.479  1.00  0.00    -0.354 N 
ATOM     54  N   UNL A   1      44.138  26.375  30.129  1.00  0.00    -0.248 NA
ATOM     55  C   UNL A   1      44.894  24.253  29.505  1.00  0.00     0.031 C 
ATOM     56  C   UNL A   1      46.492  29.266  32.545  1.00  0.00     0.029 A 
ATOM     57  C   UNL A   1      45.779  28.347  31.791  1.00  0.00     0.049 A 
ATOM     58  H   UNL A   1      43.858  28.536  30.941  1.00  0.00     0.167 HD
ATOM     59  C   UNL A   1      45.412  26.175  30.650  1.00  0.00     0.074 A 
ATOM     60  C   UNL A   1      45.815  24.838  30.260  1.00  0.00     0.031 C 
ATOM     61  C   UNL A   1      46.175  27.020  31.386  1.00  0.00     0.031 A 
BRANCH  48  62
ATOM     62  C   UNL A   1      43.529  32.514  32.484  1.00  0.00    -0.014 A 
ATOM     63  C   UNL A   1      44.066  33.586  31.747  1.00  0.00     0.010 A 
ATOM     64  C   UNL A   1      43.088  32.745  33.799  1.00  0.00     0.010 A 
ATOM     65  C   UNL A   1      44.218  34.845  32.334  1.00  0.00     0.020 A 
ATOM     66  C   UNL A   1      43.206  34.012  34.379  1.00  0.00     0.020 A 
ATOM     67  C   UNL A   1      43.794  35.048  33.650  1.00  0.00     0.054 A 
BRANCH  67  68
ATOM     68  S   UNL A   1      44.013  36.689  34.390  1.00  0.00     0.124 S 
ATOM     69  O   UNL A   1      42.662  36.987  34.863  1.00  0.00    -0.237 OA
ATOM     70  O   UNL A   1      45.001  36.439  35.436  1.00  0.00    -0.237 OA
ATOM     71  O   UNL A   1      44.478  37.513  33.278  1.00  0.00    -0.744 OA
ENDBRANCH  67  68
ENDBRANCH  48  62
BRANCH  49  72
ATOM     72  C   UNL A   1      42.411  23.614  28.062  1.00  0.00    -0.014 A 
ATOM     73  C   UNL A   1      42.843  23.448  26.735  1.00  0.00     0.010 A 
ATOM     74  C   UNL A   1      41.869  22.510  28.748  1.00  0.00     0.010 A 
ATOM     75  C   UNL A   1      42.735  22.204  26.106  1.00  0.00     0.020 A 
ATOM     76  C   UNL A   1      41.786  21.259  28.132  1.00  0.00     0.020 A 
ATOM     77  C   UNL A   1      42.216  21.115  26.812  1.00  0.00     0.054 A 
BRANCH  77  78
ATOM     78  S   UNL A   1      42.163  19.493  26.001  1.00  0.00     0.124 S 
ATOM     79  O   UNL A   1      43.062  19.688  24.868  1.00  0.00    -0.237 OA
ATOM     80  O   UNL A   1      42.650  18.601  27.051  1.00  0.00    -0.237 OA
ATOM     81  O   UNL A   1      40.752  19.327  25.660  1.00  0.00    -0.744 OA
ENDBRANCH  77  78
ENDBRANCH  49  72
BRANCH  61  82
ATOM     82  C   UNL A   1      47.519  26.518  31.848  1.00  0.00    -0.014 A 
ATOM     83  C   UNL A   1      47.666  25.838  33.069  1.00  0.00     0.010 A 
ATOM     84  C   UNL A   1      48.642  26.680  31.015  1.00  0.00     0.010 A 
ATOM     85  C   UNL A   1      48.918  25.358  33.465  1.00  0.00     0.020 A 
ATOM     86  C   UNL A   1      49.888  26.173  31.392  1.00  0.00     0.020 A 
ATOM     87  C   UNL A   1      50.021  25.527  32.621  1.00  0.00     0.054 A 
BRANCH  87  88
ATOM     88  S   UNL A   1      51.624  24.855  33.138  1.00  0.00     0.124 S 
ATOM     89  O   UNL A   1      51.326  24.348  34.475  1.00  0.00    -0.237 OA
ATOM     90  O   UNL A   1      51.886  23.837  32.123  1.00  0.00    -0.237 OA
ATOM     91  O   UNL A   1      52.516  26.013  33.095  1.00  0.00    -0.744 OA
ENDBRANCH  87  88
ENDBRANCH  61  82
ENDBRANCH  35  36
ENDBRANCH  27  30
ENDBRANCH  25  26
ENDBRANCH  24  25
ENDBRANCH  23  24
ENDBRANCH   1  23
TORSDOF 20
ENDMDL
MODEL 3
REMARK VINA RESULT:      -9.5      4.529      9.747
REMARK SMILES CCCc1nsc(N2CCO[C@H](CC(=O)NCCCCCCNC(=O)c3ccc(-c4c5nc(c(-c6ccc(S(=O)(=O)[O-])cc6)c6ccc([nH]6)c(-c6ccc(S(=O)(=O)[O-])cc6)c6nc(c(-c7ccc(S(=O)(=O)[O-])cc7)c7ccc4[nH]7)C=C6)C=C5)cc3)C2)n1
REMARK SMILES IDX 19 1 18 2 17 3 16 4 14 5 15 6 13 8 12 9 8 10 9 11 86 12
REMARK SMILES IDX 10 13 11 14 7 15 4 16 5 17 87 18 6 19 3 20 2 21 1 22 20 23
REMARK SMILES IDX 21 24 22 25 23 26 24 27 25 29 26 30 27 31 85 32 28 33 84 34
REMARK SMILES IDX 29 35 30 36 31 37 78 38 32 39 83 40 77 41 79 42 33 43 82 44
REMARK SMILES IDX 76 45 75 46 34 48 64 49 45 50 63 51 46 52 49 53 62 54 80 55
REMARK SMILES IDX 47 56 48 57 61 59 81 60 50 61 35 62 36 63 44 64 37 65 43 66
REMARK SMILES IDX 38 67 39 68 40 69 41 70 42 71 65 72 66 73 74 74 67 75 73 76
REMARK SMILES IDX 68 77 69 78 70 79 71 80 72 81 51 82 52 83 60 84 53 85 59 86
REMARK SMILES IDX 54 87 55 88 56 89 57 90 58 91
REMARK H PARENT 16 7 23 28 79 47 49 58
REMARK Flexibility Score: inf
ROOT
ATOM      1  C   UNL A   1      40.381  23.230  26.858  1.00  0.00     0.002 C 
ENDROOT
BRANCH   1   2
ATOM      2  C   UNL A   1      39.239  24.141  27.325  1.00  0.00     0.021 C 
BRANCH   2   3
ATOM      3  C   UNL A   1      38.018  24.125  26.404  1.00  0.00     0.116 C 
BRANCH   3   4
ATOM      4  N   UNL A   1      37.521  22.778  26.207  1.00  0.00    -0.356 N 
ATOM      5  C   UNL A   1      36.299  22.341  25.816  1.00  0.00     0.222 C 
ATOM      6  O   UNL A   1      36.137  21.130  25.659  1.00  0.00    -0.275 OA
ATOM      7  H   UNL A   1      38.177  22.066  26.386  1.00  0.00     0.163 HD
BRANCH   5   8
ATOM      8  C   UNL A   1      35.193  23.324  25.524  1.00  0.00     0.133 C 
BRANCH   8   9
ATOM      9  C   UNL A   1      34.934  23.675  24.052  1.00  0.00     0.147 C 
ATOM     10  N   UNL A   1      32.773  24.892  24.033  1.00  0.00    -0.342 N 
ATOM     11  C   UNL A   1      32.098  23.730  23.468  1.00  0.00     0.147 C 
ATOM     12  C   UNL A   1      34.194  24.994  23.735  1.00  0.00     0.151 C 
ATOM     13  C   UNL A   1      32.893  22.445  23.729  1.00  0.00     0.182 C 
ATOM     14  O   UNL A   1      34.285  22.566  23.380  1.00  0.00    -0.374 OA
BRANCH  10  15
ATOM     15  C   UNL A   1      32.239  25.591  25.066  1.00  0.00     0.205 A 
ATOM     16  C   UNL A   1      31.853  27.216  26.495  1.00  0.00     0.144 A 
ATOM     17  N   UNL A   1      30.740  26.546  26.803  1.00  0.00    -0.174 NA
ATOM     18  N   UNL A   1      32.777  26.649  25.623  1.00  0.00    -0.203 NA
ATOM     19  S   UNL A   1      30.726  25.197  25.829  1.00  0.00     0.004 S 
BRANCH  16  20
ATOM     20  C   UNL A   1      32.044  28.592  27.040  1.00  0.00     0.078 C 
BRANCH  20  21
ATOM     21  C   UNL A   1      32.155  29.707  26.004  1.00  0.00     0.005 C 
ATOM     22  C   UNL A   1      31.174  29.572  24.844  1.00  0.00     0.004 C 
ENDBRANCH  20  21
ENDBRANCH  16  20
ENDBRANCH  10  15
ENDBRANCH   8   9
ENDBRANCH   5   8
ENDBRANCH   3   4
ENDBRANCH   2   3
ENDBRANCH   1   2
BRANCH   1  23
ATOM     23  C   UNL A   1      41.018  22.398  27.974  1.00  0.00     0.002 C 
BRANCH  23  24
ATOM     24  C   UNL A   1      41.132  20.905  27.660  1.00  0.00     0.021 C 
BRANCH  24  25
ATOM     25  C   UNL A   1      40.872  20.553  26.201  1.00  0.00     0.116 C 
BRANCH  25  26
ATOM     26  N   UNL A   1      41.912  19.691  25.662  1.00  0.00    -0.352 N 
ATOM     27  C   UNL A   1      43.167  20.032  25.229  1.00  0.00     0.251 C 
ATOM     28  H   UNL A   1      41.684  18.735  25.600  1.00  0.00     0.163 HD
ATOM     29  O   UNL A   1      43.840  19.229  24.586  1.00  0.00    -0.269 OA
BRANCH  27  30
ATOM     30  C   UNL A   1      43.693  21.380  25.525  1.00  0.00     0.039 A 
ATOM     31  C   UNL A   1      43.432  22.423  24.635  1.00  0.00     0.014 A 
ATOM     32  C   UNL A   1      44.432  21.612  26.689  1.00  0.00     0.014 A 
ATOM     33  C   UNL A   1      43.870  23.713  24.939  1.00  0.00     0.010 A 
ATOM     34  C   UNL A   1      44.796  22.911  27.029  1.00  0.00     0.010 A 
ATOM     35  C   UNL A   1      44.527  23.974  26.154  1.00  0.00    -0.014 A 
BRANCH  35  36
ATOM     36  C   UNL A   1      44.941  25.351  26.522  1.00  0.00     0.031 A 
ATOM     37  C   UNL A   1      43.928  26.328  27.057  1.00  0.00     0.074 A 
ATOM     38  C   UNL A   1      46.214  25.741  26.323  1.00  0.00     0.049 A 
ATOM     39  N   UNL A   1      44.091  27.582  27.392  1.00  0.00    -0.248 NA
ATOM     40  C   UNL A   1      42.548  25.839  27.208  1.00  0.00     0.031 C 
ATOM     41  C   UNL A   1      47.279  24.901  25.769  1.00  0.00     0.029 A 
ATOM     42  N   UNL A   1      46.829  26.946  26.555  1.00  0.00    -0.354 N 
ATOM     43  C   UNL A   1      42.835  28.034  27.784  1.00  0.00     0.074 A 
ATOM     44  C   UNL A   1      41.912  26.939  27.583  1.00  0.00     0.031 C 
ATOM     45  C   UNL A   1      48.419  25.608  25.729  1.00  0.00     0.029 A 
ATOM     46  C   UNL A   1      48.160  26.961  26.212  1.00  0.00     0.049 A 
ATOM     47  H   UNL A   1      46.361  27.726  26.933  1.00  0.00     0.167 HD
ATOM     48  C   UNL A   1      42.485  29.243  28.286  1.00  0.00     0.031 A 
ATOM     49  C   UNL A   1      49.069  27.953  26.267  1.00  0.00     0.031 A 
ATOM     50  C   UNL A   1      43.407  30.332  28.475  1.00  0.00     0.049 A 
ATOM     51  C   UNL A   1      48.658  29.295  26.807  1.00  0.00     0.074 A 
ATOM     52  C   UNL A   1      43.163  31.582  29.017  1.00  0.00     0.029 A 
ATOM     53  N   UNL A   1      44.748  30.306  28.119  1.00  0.00    -0.354 N 
ATOM     54  N   UNL A   1      47.481  29.684  27.237  1.00  0.00    -0.248 NA
ATOM     55  C   UNL A   1      49.700  30.327  26.883  1.00  0.00     0.031 C 
ATOM     56  C   UNL A   1      44.341  32.331  28.931  1.00  0.00     0.029 A 
ATOM     57  C   UNL A   1      45.338  31.526  28.403  1.00  0.00     0.049 A 
ATOM     58  H   UNL A   1      45.212  29.533  27.723  1.00  0.00     0.167 HD
ATOM     59  C   UNL A   1      47.645  30.999  27.657  1.00  0.00     0.074 A 
ATOM     60  C   UNL A   1      49.040  31.332  27.445  1.00  0.00     0.031 C 
ATOM     61  C   UNL A   1      46.725  31.850  28.175  1.00  0.00     0.031 A 
BRANCH  48  62
ATOM     62  C   UNL A   1      41.035  29.447  28.647  1.00  0.00    -0.014 A 
ATOM     63  C   UNL A   1      40.637  29.646  29.983  1.00  0.00     0.010 A 
ATOM     64  C   UNL A   1      40.055  29.447  27.638  1.00  0.00     0.010 A 
ATOM     65  C   UNL A   1      39.284  29.777  30.308  1.00  0.00     0.020 A 
ATOM     66  C   UNL A   1      38.703  29.613  27.956  1.00  0.00     0.020 A 
ATOM     67  C   UNL A   1      38.325  29.752  29.292  1.00  0.00     0.054 A 
BRANCH  67  68
ATOM     68  S   UNL A   1      36.576  29.913  29.745  1.00  0.00     0.124 S 
ATOM     69  O   UNL A   1      36.507  29.114  30.966  1.00  0.00    -0.237 OA
ATOM     70  O   UNL A   1      36.425  31.354  29.930  1.00  0.00    -0.237 OA
ATOM     71  O   UNL A   1      35.866  29.356  28.596  1.00  0.00    -0.744 OA
ENDBRANCH  67  68
ENDBRANCH  48  62
BRANCH  49  72
ATOM     72  C   UNL A   1      50.461  27.698  25.805  1.00  0.00    -0.014 A 
ATOM     73  C   UNL A   1      51.463  27.319  26.715  1.00  0.00     0.010 A 
ATOM     74  C   UNL A   1      50.779  27.786  24.436  1.00  0.00     0.010 A 
ATOM     75  C   UNL A   1      52.756  27.034  26.266  1.00  0.00     0.020 A 
ATOM     76  C   UNL A   1      52.063  27.475  23.981  1.00  0.00     0.020 A 
ATOM     77  C   UNL A   1      53.045  27.105  24.900  1.00  0.00     0.054 A 
BRANCH  77  78
ATOM     78  S   UNL A   1      54.708  26.650  24.334  1.00  0.00     0.124 S 
ATOM     79  O   UNL A   1      55.541  27.642  25.005  1.00  0.00    -0.237 OA
ATOM     80  O   UNL A   1      54.840  25.278  24.817  1.00  0.00    -0.237 OA
ATOM     81  O   UNL A   1      54.622  26.784  22.881  1.00  0.00    -0.744 OA
ENDBRANCH  77  78
ENDBRANCH  49  72
BRANCH  61  82
ATOM     82  C   UNL A   1      47.200  33.223  28.577  1.00  0.00    -0.014 A 
ATOM     83  C   UNL A   1      47.790  33.455  29.832  1.00  0.00     0.010 A 
ATOM     84  C   UNL A   1      47.105  34.286  27.660  1.00  0.00     0.010 A 
ATOM     85  C   UNL A   1      48.246  34.731  30.175  1.00  0.00     0.020 A 
ATOM     86  C   UNL A   1      47.589  35.555  27.985  1.00  0.00     0.020 A 
ATOM     87  C   UNL A   1      48.145  35.773  29.246  1.00  0.00     0.054 A 
BRANCH  87  88
ATOM     88  S   UNL A   1      48.786  37.408  29.698  1.00  0.00     0.124 S 
ATOM     89  O   UNL A   1      50.221  37.243  29.482  1.00  0.00    -0.237 OA
ATOM     90  O   UNL A   1      48.105  38.290  28.754  1.00  0.00    -0.237 OA
ATOM     91  O   UNL A   1      48.380  37.566  31.093  1.00  0.00    -0.744 OA
ENDBRANCH  87  88
ENDBRANCH  61  82
ENDBRANCH  35  36
ENDBRANCH  27  30
ENDBRANCH  25  26
ENDBRANCH  24  25
ENDBRANCH  23  24
ENDBRANCH   1  23
TORSDOF 20
ENDMDL
