MODEL 1
REMARK VINA RESULT:     -10.8      0.000      0.000
REMARK SMILES C[C@@H](C(=O)NCCCCCCNC(=O)c1ccc(-c2c3nc(c(-c4ccc(S(=O)(=O)[O-])cc4)c4ccc([nH]4)c(-c4ccc(S(=O)(=O)[O-])cc4)c4nc(c(-c5ccc(S(=O)(=O)[O-])cc5)c5ccc2[nH]5)C=C4)C=C3)cc1)c1cccc(C(=O)c2ccccc2)c1
REMARK SMILES IDX 8 1 7 2 6 3 5 4 3 5 4 6 2 8 1 9 75 10 76 11 88 12 77 13
REMARK SMILES IDX 79 14 78 15 80 16 81 17 82 18 83 19 87 20 84 21 86 22 85 23
REMARK SMILES IDX 9 24 10 25 11 26 12 27 13 28 14 30 15 31 16 32 74 33 17 34
REMARK SMILES IDX 73 35 18 36 19 37 20 38 67 39 21 40 72 41 66 42 68 43 22 44
REMARK SMILES IDX 71 45 65 46 64 47 23 49 53 50 34 51 52 52 35 53 38 54 51 55
REMARK SMILES IDX 69 56 36 57 37 58 50 60 70 61 39 62 24 63 25 64 33 65 26 66
REMARK SMILES IDX 32 67 27 68 28 69 29 70 30 71 31 72 54 73 55 74 63 75 56 76
REMARK SMILES IDX 62 77 57 78 58 79 59 80 60 81 61 82 40 83 41 84 49 85 42 86
REMARK SMILES IDX 48 87 43 88 44 89 45 90 46 91 47 92
REMARK H PARENT 5 7 12 29 68 48 38 59
REMARK Flexibility Score: inf
ROOT
ATOM      1  C   UNL A   1      37.287  22.466  25.656  1.00  0.00     0.002 C 
ENDROOT
BRANCH   1   2
ATOM      2  C   UNL A   1      36.689  23.504  24.693  1.00  0.00     0.021 C 
BRANCH   2   3
ATOM      3  C   UNL A   1      36.364  22.957  23.295  1.00  0.00     0.116 C 
BRANCH   3   4
ATOM      4  N   UNL A   1      35.104  23.502  22.838  1.00  0.00    -0.356 N 
ATOM      5  C   UNL A   1      33.857  22.978  23.023  1.00  0.00     0.227 C 
ATOM      6  O   UNL A   1      33.074  23.125  22.083  1.00  0.00    -0.274 OA
ATOM      7  H   UNL A   1      35.151  24.347  22.336  1.00  0.00     0.163 HD
BRANCH   5   8
ATOM      8  C   UNL A   1      33.525  22.246  24.340  1.00  0.00     0.105 C 
ATOM      9  C   UNL A   1      33.069  20.818  24.000  1.00  0.00     0.023 C 
BRANCH   8  10
ATOM     10  C   UNL A   1      32.464  22.896  25.244  1.00  0.00    -0.035 A 
ATOM     11  C   UNL A   1      31.441  22.105  25.797  1.00  0.00     0.004 A 
ATOM     12  C   UNL A   1      32.409  24.274  25.494  1.00  0.00     0.016 A 
ATOM     13  C   UNL A   1      30.356  22.685  26.463  1.00  0.00     0.001 A 
ATOM     14  C   UNL A   1      31.291  24.877  26.085  1.00  0.00     0.023 A 
ATOM     15  C   UNL A   1      30.265  24.072  26.579  1.00  0.00     0.012 A 
BRANCH  14  16
ATOM     16  C   UNL A   1      31.174  26.363  26.186  1.00  0.00     0.193 C 
ATOM     17  O   UNL A   1      31.306  26.924  27.270  1.00  0.00    -0.289 OA
BRANCH  16  18
ATOM     18  C   UNL A   1      30.928  27.195  24.979  1.00  0.00     0.022 A 
ATOM     19  C   UNL A   1      31.843  28.206  24.675  1.00  0.00     0.012 A 
ATOM     20  C   UNL A   1      29.838  26.956  24.131  1.00  0.00     0.012 A 
ATOM     21  C   UNL A   1      31.702  28.938  23.495  1.00  0.00     0.001 A 
ATOM     22  C   UNL A   1      29.706  27.686  22.948  1.00  0.00     0.001 A 
ATOM     23  C   UNL A   1      30.642  28.669  22.628  1.00  0.00     0.000 A 
ENDBRANCH  16  18
ENDBRANCH  14  16
ENDBRANCH   8  10
ENDBRANCH   5   8
ENDBRANCH   3   4
ENDBRANCH   2   3
ENDBRANCH   1   2
BRANCH   1  24
ATOM     24  C   UNL A   1      37.009  21.007  25.285  1.00  0.00     0.002 C 
BRANCH  24  25
ATOM     25  C   UNL A   1      38.261  20.164  25.051  1.00  0.00     0.021 C 
BRANCH  25  26
ATOM     26  C   UNL A   1      39.392  20.434  26.037  1.00  0.00     0.116 C 
BRANCH  26  27
ATOM     27  N   UNL A   1      40.362  19.351  26.057  1.00  0.00    -0.352 N 
ATOM     28  C   UNL A   1      41.733  19.422  26.085  1.00  0.00     0.251 C 
ATOM     29  H   UNL A   1      39.985  18.441  26.052  1.00  0.00     0.163 HD
ATOM     30  O   UNL A   1      42.406  18.416  25.880  1.00  0.00    -0.269 OA
BRANCH  28  31
ATOM     31  C   UNL A   1      42.391  20.721  26.341  1.00  0.00     0.039 A 
ATOM     32  C   UNL A   1      42.824  21.487  25.257  1.00  0.00     0.014 A 
ATOM     33  C   UNL A   1      42.568  21.184  27.647  1.00  0.00     0.014 A 
ATOM     34  C   UNL A   1      43.386  22.745  25.485  1.00  0.00     0.010 A 
ATOM     35  C   UNL A   1      43.053  22.470  27.866  1.00  0.00     0.010 A 
ATOM     36  C   UNL A   1      43.474  23.262  26.788  1.00  0.00    -0.014 A 
BRANCH  36  37
ATOM     37  C   UNL A   1      44.000  24.628  27.041  1.00  0.00     0.031 A 
ATOM     38  C   UNL A   1      43.072  25.726  27.485  1.00  0.00     0.074 A 
ATOM     39  C   UNL A   1      45.303  24.893  26.817  1.00  0.00     0.049 A 
ATOM     40  N   UNL A   1      43.338  26.988  27.714  1.00  0.00    -0.248 NA
ATOM     41  C   UNL A   1      41.656  25.369  27.674  1.00  0.00     0.031 C 
ATOM     42  C   UNL A   1      46.296  23.923  26.347  1.00  0.00     0.029 A 
ATOM     43  N   UNL A   1      46.015  26.058  26.948  1.00  0.00    -0.354 N 
ATOM     44  C   UNL A   1      42.126  27.574  28.060  1.00  0.00     0.074 A 
ATOM     45  C   UNL A   1      41.115  26.544  27.955  1.00  0.00     0.031 C 
ATOM     46  C   UNL A   1      47.492  24.525  26.263  1.00  0.00     0.029 A 
ATOM     47  C   UNL A   1      47.346  25.931  26.626  1.00  0.00     0.049 A 
ATOM     48  H   UNL A   1      45.612  26.905  27.248  1.00  0.00     0.167 HD
ATOM     49  C   UNL A   1      41.878  28.847  28.448  1.00  0.00     0.031 A 
ATOM     50  C   UNL A   1      48.337  26.844  26.614  1.00  0.00     0.031 A 
ATOM     51  C   UNL A   1      42.890  29.867  28.553  1.00  0.00     0.049 A 
ATOM     52  C   UNL A   1      48.034  28.259  27.026  1.00  0.00     0.074 A 
ATOM     53  C   UNL A   1      42.750  31.174  28.987  1.00  0.00     0.029 A 
ATOM     54  N   UNL A   1      44.224  29.699  28.213  1.00  0.00    -0.354 N 
ATOM     55  N   UNL A   1      46.894  28.777  27.416  1.00  0.00    -0.248 NA
ATOM     56  C   UNL A   1      49.154  29.210  27.007  1.00  0.00     0.031 C 
ATOM     57  C   UNL A   1      43.986  31.814  28.849  1.00  0.00     0.029 A 
ATOM     58  C   UNL A   1      44.912  30.887  28.398  1.00  0.00     0.049 A 
ATOM     59  H   UNL A   1      44.623  28.860  27.888  1.00  0.00     0.167 HD
ATOM     60  C   UNL A   1      47.166  30.108  27.715  1.00  0.00     0.074 A 
ATOM     61  C   UNL A   1      48.581  30.309  27.477  1.00  0.00     0.031 C 
ATOM     62  C   UNL A   1      46.320  31.075  28.150  1.00  0.00     0.031 A 
BRANCH  49  63
ATOM     63  C   UNL A   1      40.453  29.212  28.777  1.00  0.00    -0.014 A 
ATOM     64  C   UNL A   1      40.012  29.307  30.109  1.00  0.00     0.010 A 
ATOM     65  C   UNL A   1      39.548  29.497  27.737  1.00  0.00     0.010 A 
ATOM     66  C   UNL A   1      38.683  29.632  30.396  1.00  0.00     0.020 A 
ATOM     67  C   UNL A   1      38.226  29.855  28.020  1.00  0.00     0.020 A 
ATOM     68  C   UNL A   1      37.798  29.902  29.348  1.00  0.00     0.054 A 
BRANCH  68  69
ATOM     69  S   UNL A   1      36.084  30.335  29.751  1.00  0.00     0.124 S 
ATOM     70  O   UNL A   1      35.342  29.622  28.713  1.00  0.00    -0.237 OA
ATOM     71  O   UNL A   1      35.931  29.810  31.104  1.00  0.00    -0.237 OA
ATOM     72  O   UNL A   1      36.059  31.792  29.642  1.00  0.00    -0.744 OA
ENDBRANCH  68  69
ENDBRANCH  49  63
BRANCH  50  73
ATOM     73  C   UNL A   1      49.713  26.441  26.209  1.00  0.00    -0.014 A 
ATOM     74  C   UNL A   1      50.215  26.784  24.941  1.00  0.00     0.010 A 
ATOM     75  C   UNL A   1      50.535  25.724  27.097  1.00  0.00     0.010 A 
ATOM     76  C   UNL A   1      51.507  26.404  24.565  1.00  0.00     0.020 A 
ATOM     77  C   UNL A   1      51.838  25.372  26.737  1.00  0.00     0.020 A 
ATOM     78  C   UNL A   1      52.313  25.705  25.468  1.00  0.00     0.054 A 
BRANCH  78  79
ATOM     79  S   UNL A   1      54.006  25.276  24.979  1.00  0.00     0.124 S 
ATOM     80  O   UNL A   1      54.121  25.926  23.679  1.00  0.00    -0.237 OA
ATOM     81  O   UNL A   1      54.801  25.863  26.055  1.00  0.00    -0.237 OA
ATOM     82  O   UNL A   1      53.994  23.815  24.951  1.00  0.00    -0.744 OA
ENDBRANCH  78  79
ENDBRANCH  50  73
BRANCH  62  83
ATOM     83  C   UNL A   1      46.905  32.436  28.428  1.00  0.00    -0.014 A 
ATOM     84  C   UNL A   1      47.450  32.756  29.684  1.00  0.00     0.010 A 
ATOM     85  C   UNL A   1      46.958  33.391  27.396  1.00  0.00     0.010 A 
ATOM     86  C   UNL A   1      48.009  34.016  29.912  1.00  0.00     0.020 A 
ATOM     87  C   UNL A   1      47.544  34.641  27.611  1.00  0.00     0.020 A 
ATOM     88  C   UNL A   1      48.054  34.950  28.872  1.00  0.00     0.054 A 
BRANCH  88  89
ATOM     89  S   UNL A   1      48.823  36.563  29.182  1.00  0.00     0.124 S 
ATOM     90  O   UNL A   1      49.040  36.525  30.626  1.00  0.00    -0.237 OA
ATOM     91  O   UNL A   1      50.033  36.502  28.363  1.00  0.00    -0.237 OA
ATOM     92  O   UNL A   1      47.818  37.521  28.728  1.00  0.00    -0.744 OA
ENDBRANCH  88  89
ENDBRANCH  62  83
ENDBRANCH  36  37
ENDBRANCH  28  31
ENDBRANCH  26  27
ENDBRANCH  25  26
ENDBRANCH  24  25
ENDBRANCH   1  24
TORSDOF 19
ENDMDL
MODEL 2
REMARK VINA RESULT:     -10.6      6.158     10.782
REMARK SMILES C[C@@H](C(=O)NCCCCCCNC(=O)c1ccc(-c2c3nc(c(-c4ccc(S(=O)(=O)[O-])cc4)c4ccc([nH]4)c(-c4ccc(S(=O)(=O)[O-])cc4)c4nc(c(-c5ccc(S(=O)(=O)[O-])cc5)c5ccc2[nH]5)C=C4)C=C3)cc1)c1cccc(C(=O)c2ccccc2)c1
REMARK SMILES IDX 8 1 7 2 6 3 5 4 3 5 4 6 2 8 1 9 75 10 76 11 88 12 77 13
REMARK SMILES IDX 79 14 78 15 80 16 81 17 82 18 83 19 87 20 84 21 86 22 85 23
REMARK SMILES IDX 9 24 10 25 11 26 12 27 13 28 14 30 15 31 16 32 74 33 17 34
REMARK SMILES IDX 73 35 18 36 19 37 20 38 67 39 21 40 72 41 66 42 68 43 22 44
REMARK SMILES IDX 71 45 65 46 64 47 23 49 53 50 34 51 52 52 35 53 38 54 51 55
REMARK SMILES IDX 69 56 36 57 37 58 50 60 70 61 39 62 24 63 25 64 33 65 26 66
REMARK SMILES IDX 32 67 27 68 28 69 29 70 30 71 31 72 54 73 55 74 63 75 56 76
REMARK SMILES IDX 62 77 57 78 58 79 59 80 60 81 61 82 40 83 41 84 49 85 42 86
REMARK SMILES IDX 48 87 43 88 44 89 45 90 46 91 47 92
REMARK H PARENT 5 7 12 29 68 48 38 59
REMARK Flexibility Score: inf
ROOT
ATOM      1  C   UNL A   1      39.155  22.458  26.189  1.00  0.00     0.002 C 
ENDROOT
BRANCH   1   2
ATOM      2  C   UNL A   1      38.140  23.609  26.255  1.00  0.00     0.021 C 
BRANCH   2   3
ATOM      3  C   UNL A   1      37.210  23.703  25.036  1.00  0.00     0.116 C 
BRANCH   3   4
ATOM      4  N   UNL A   1      36.462  22.472  24.896  1.00  0.00    -0.356 N 
ATOM      5  C   UNL A   1      35.427  22.037  25.674  1.00  0.00     0.227 C 
ATOM      6  O   UNL A   1      35.387  20.823  25.875  1.00  0.00    -0.274 OA
ATOM      7  H   UNL A   1      36.728  21.881  24.157  1.00  0.00     0.163 HD
BRANCH   5   8
ATOM      8  C   UNL A   1      34.420  23.059  26.245  1.00  0.00     0.105 C 
ATOM      9  C   UNL A   1      34.023  22.608  27.660  1.00  0.00     0.023 C 
BRANCH   8  10
ATOM     10  C   UNL A   1      33.139  23.298  25.429  1.00  0.00    -0.035 A 
ATOM     11  C   UNL A   1      32.810  22.423  24.378  1.00  0.00     0.004 A 
ATOM     12  C   UNL A   1      32.300  24.403  25.624  1.00  0.00     0.016 A 
ATOM     13  C   UNL A   1      31.765  22.712  23.495  1.00  0.00     0.001 A 
ATOM     14  C   UNL A   1      31.304  24.751  24.701  1.00  0.00     0.023 A 
ATOM     15  C   UNL A   1      31.032  23.891  23.637  1.00  0.00     0.012 A 
BRANCH  14  16
ATOM     16  C   UNL A   1      30.536  26.025  24.832  1.00  0.00     0.193 C 
ATOM     17  O   UNL A   1      29.402  26.118  24.370  1.00  0.00    -0.289 OA
BRANCH  16  18
ATOM     18  C   UNL A   1      31.110  27.194  25.548  1.00  0.00     0.022 A 
ATOM     19  C   UNL A   1      31.407  28.342  24.809  1.00  0.00     0.012 A 
ATOM     20  C   UNL A   1      31.313  27.180  26.935  1.00  0.00     0.012 A 
ATOM     21  C   UNL A   1      31.849  29.494  25.463  1.00  0.00     0.001 A 
ATOM     22  C   UNL A   1      31.748  28.336  27.584  1.00  0.00     0.001 A 
ATOM     23  C   UNL A   1      32.007  29.493  26.850  1.00  0.00     0.000 A 
ENDBRANCH  16  18
ENDBRANCH  14  16
ENDBRANCH   8  10
ENDBRANCH   5   8
ENDBRANCH   3   4
ENDBRANCH   2   3
ENDBRANCH   1   2
BRANCH   1  24
ATOM     24  C   UNL A   1      40.090  22.352  27.396  1.00  0.00     0.002 C 
BRANCH  24  25
ATOM     25  C   UNL A   1      41.544  22.038  27.045  1.00  0.00     0.021 C 
BRANCH  25  26
ATOM     26  C   UNL A   1      42.500  23.212  27.222  1.00  0.00     0.116 C 
BRANCH  26  27
ATOM     27  N   UNL A   1      42.517  24.077  26.053  1.00  0.00    -0.352 N 
ATOM     28  C   UNL A   1      42.199  25.409  25.963  1.00  0.00     0.251 C 
ATOM     29  H   UNL A   1      42.796  23.649  25.211  1.00  0.00     0.163 HD
ATOM     30  O   UNL A   1      42.058  25.935  24.862  1.00  0.00    -0.269 OA
BRANCH  28  31
ATOM     31  C   UNL A   1      42.008  26.200  27.198  1.00  0.00     0.039 A 
ATOM     32  C   UNL A   1      42.915  27.217  27.499  1.00  0.00     0.014 A 
ATOM     33  C   UNL A   1      40.929  25.942  28.048  1.00  0.00     0.014 A 
ATOM     34  C   UNL A   1      42.706  28.014  28.626  1.00  0.00     0.010 A 
ATOM     35  C   UNL A   1      40.679  26.788  29.124  1.00  0.00     0.010 A 
ATOM     36  C   UNL A   1      41.568  27.828  29.429  1.00  0.00    -0.014 A 
BRANCH  36  37
ATOM     37  C   UNL A   1      41.291  28.715  30.589  1.00  0.00     0.031 A 
ATOM     38  C   UNL A   1      42.112  28.597  31.845  1.00  0.00     0.074 A 
ATOM     39  C   UNL A   1      40.265  29.588  30.531  1.00  0.00     0.049 A 
ATOM     40  N   UNL A   1      41.993  29.252  32.972  1.00  0.00    -0.248 NA
ATOM     41  C   UNL A   1      43.191  27.595  31.846  1.00  0.00     0.031 C 
ATOM     42  C   UNL A   1      39.371  29.769  29.385  1.00  0.00     0.029 A 
ATOM     43  N   UNL A   1      39.798  30.483  31.461  1.00  0.00    -0.354 N 
ATOM     44  C   UNL A   1      42.969  28.735  33.815  1.00  0.00     0.074 A 
ATOM     45  C   UNL A   1      43.634  27.673  33.091  1.00  0.00     0.031 C 
ATOM     46  C   UNL A   1      38.487  30.739  29.667  1.00  0.00     0.029 A 
ATOM     47  C   UNL A   1      38.718  31.215  31.027  1.00  0.00     0.049 A 
ATOM     48  H   UNL A   1      40.199  30.591  32.354  1.00  0.00     0.167 HD
ATOM     49  C   UNL A   1      43.297  29.121  35.072  1.00  0.00     0.031 A 
ATOM     50  C   UNL A   1      37.988  32.159  31.655  1.00  0.00     0.031 A 
ATOM     51  C   UNL A   1      42.633  30.179  35.787  1.00  0.00     0.049 A 
ATOM     52  C   UNL A   1      38.355  32.554  33.059  1.00  0.00     0.074 A 
ATOM     53  C   UNL A   1      42.925  30.682  37.044  1.00  0.00     0.029 A 
ATOM     54  N   UNL A   1      41.543  30.893  35.315  1.00  0.00    -0.354 N 
ATOM     55  N   UNL A   1      39.327  32.101  33.815  1.00  0.00    -0.248 NA
ATOM     56  C   UNL A   1      37.535  33.596  33.691  1.00  0.00     0.031 C 
ATOM     57  C   UNL A   1      41.971  31.655  37.357  1.00  0.00     0.029 A 
ATOM     58  C   UNL A   1      41.128  31.810  36.268  1.00  0.00     0.049 A 
ATOM     59  H   UNL A   1      41.124  30.767  34.433  1.00  0.00     0.167 HD
ATOM     60  C   UNL A   1      39.251  32.823  35.001  1.00  0.00     0.074 A 
ATOM     61  C   UNL A   1      38.150  33.753  34.855  1.00  0.00     0.031 C 
ATOM     62  C   UNL A   1      40.026  32.725  36.111  1.00  0.00     0.031 A 
BRANCH  49  63
ATOM     63  C   UNL A   1      44.419  28.382  35.758  1.00  0.00    -0.014 A 
ATOM     64  C   UNL A   1      45.753  28.812  35.645  1.00  0.00     0.010 A 
ATOM     65  C   UNL A   1      44.129  27.260  36.556  1.00  0.00     0.010 A 
ATOM     66  C   UNL A   1      46.782  28.108  36.276  1.00  0.00     0.020 A 
ATOM     67  C   UNL A   1      45.152  26.571  37.216  1.00  0.00     0.020 A 
ATOM     68  C   UNL A   1      46.474  26.989  37.056  1.00  0.00     0.054 A 
BRANCH  68  69
ATOM     69  S   UNL A   1      47.828  26.103  37.875  1.00  0.00     0.124 S 
ATOM     70  O   UNL A   1      47.122  25.393  38.939  1.00  0.00    -0.237 OA
ATOM     71  O   UNL A   1      48.355  25.263  36.803  1.00  0.00    -0.237 OA
ATOM     72  O   UNL A   1      48.720  27.169  38.325  1.00  0.00    -0.744 OA
ENDBRANCH  68  69
ENDBRANCH  49  63
BRANCH  50  73
ATOM     73  C   UNL A   1      36.844  32.802  30.951  1.00  0.00    -0.014 A 
ATOM     74  C   UNL A   1      35.528  32.363  31.174  1.00  0.00     0.010 A 
ATOM     75  C   UNL A   1      37.065  33.871  30.063  1.00  0.00     0.010 A 
ATOM     76  C   UNL A   1      34.456  32.971  30.513  1.00  0.00     0.020 A 
ATOM     77  C   UNL A   1      35.994  34.502  29.425  1.00  0.00     0.020 A 
ATOM     78  C   UNL A   1      34.696  34.040  29.646  1.00  0.00     0.054 A 
BRANCH  78  79
ATOM     79  S   UNL A   1      33.285  34.851  28.844  1.00  0.00     0.124 S 
ATOM     80  O   UNL A   1      32.483  35.268  29.990  1.00  0.00    -0.237 OA
ATOM     81  O   UNL A   1      33.927  35.926  28.093  1.00  0.00    -0.237 OA
ATOM     82  O   UNL A   1      32.702  33.791  28.025  1.00  0.00    -0.744 OA
ENDBRANCH  78  79
ENDBRANCH  50  73
BRANCH  62  83
ATOM     83  C   UNL A   1      39.732  33.670  37.248  1.00  0.00    -0.014 A 
ATOM     84  C   UNL A   1      39.001  33.255  38.375  1.00  0.00     0.010 A 
ATOM     85  C   UNL A   1      40.245  34.980  37.209  1.00  0.00     0.010 A 
ATOM     86  C   UNL A   1      38.761  34.142  39.428  1.00  0.00     0.020 A 
ATOM     87  C   UNL A   1      40.034  35.859  38.274  1.00  0.00     0.020 A 
ATOM     88  C   UNL A   1      39.281  35.439  39.371  1.00  0.00     0.054 A 
BRANCH  88  89
ATOM     89  S   UNL A   1      38.993  36.556  40.770  1.00  0.00     0.124 S 
ATOM     90  O   UNL A   1      38.511  37.762  40.103  1.00  0.00    -0.237 OA
ATOM     91  O   UNL A   1      37.996  35.831  41.557  1.00  0.00    -0.237 OA
ATOM     92  O   UNL A   1      40.307  36.674  41.398  1.00  0.00    -0.744 OA
ENDBRANCH  88  89
ENDBRANCH  62  83
ENDBRANCH  36  37
ENDBRANCH  28  31
ENDBRANCH  26  27
ENDBRANCH  25  26
ENDBRANCH  24  25
ENDBRANCH   1  24
TORSDOF 19
ENDMDL
MODEL 3
REMARK VINA RESULT:     -10.5      6.830     10.792
REMARK SMILES C[C@@H](C(=O)NCCCCCCNC(=O)c1ccc(-c2c3nc(c(-c4ccc(S(=O)(=O)[O-])cc4)c4ccc([nH]4)c(-c4ccc(S(=O)(=O)[O-])cc4)c4nc(c(-c5ccc(S(=O)(=O)[O-])cc5)c5ccc2[nH]5)C=C4)C=C3)cc1)c1cccc(C(=O)c2ccccc2)c1
REMARK SMILES IDX 8 1 7 2 6 3 5 4 3 5 4 6 2 8 1 9 75 10 76 11 88 12 77 13
REMARK SMILES IDX 79 14 78 15 80 16 81 17 82 18 83 19 87 20 84 21 86 22 85 23
REMARK SMILES IDX 9 24 10 25 11 26 12 27 13 28 14 30 15 31 16 32 74 33 17 34
REMARK SMILES IDX 73 35 18 36 19 37 20 38 67 39 21 40 72 41 66 42 68 43 22 44
REMARK SMILES IDX 71 45 65 46 64 47 23 49 53 50 34 51 52 52 35 53 38 54 51 55
REMARK SMILES IDX 69 56 36 57 37 58 50 60 70 61 39 62 24 63 25 64 33 65 26 66
REMARK SMILES IDX 32 67 27 68 28 69 29 70 30 71 31 72 54 73 55 74 63 75 56 76
REMARK SMILES IDX 62 77 57 78 58 79 59 80 60 81 61 82 40 83 41 84 49 85 42 86
REMARK SMILES IDX 48 87 43 88 44 89 45 90 46 91 47 92
REMARK H PARENT 5 7 12 29 68 48 38 59
REMARK Flexibility Score: inf
ROOT
ATOM      1  C   UNL A   1      35.564  31.791  28.772  1.00  0.00     0.002 C 
ENDROOT
BRANCH   1   2
ATOM      2  C   UNL A   1      35.397  30.541  27.895  1.00  0.00     0.021 C 
BRANCH   2   3
ATOM      3  C   UNL A   1      33.965  30.309  27.390  1.00  0.00     0.116 C 
BRANCH   3   4
ATOM      4  N   UNL A   1      33.568  28.943  27.653  1.00  0.00    -0.356 N 
ATOM      5  C   UNL A   1      32.855  28.113  26.836  1.00  0.00     0.227 C 
ATOM      6  O   UNL A   1      32.066  27.357  27.405  1.00  0.00    -0.274 OA
ATOM      7  H   UNL A   1      33.844  28.568  28.520  1.00  0.00     0.163 HD
BRANCH   5   8
ATOM      8  C   UNL A   1      33.060  28.186  25.308  1.00  0.00     0.105 C 
ATOM      9  C   UNL A   1      31.736  28.624  24.661  1.00  0.00     0.023 C 
BRANCH   8  10
ATOM     10  C   UNL A   1      33.544  26.902  24.614  1.00  0.00    -0.035 A 
ATOM     11  C   UNL A   1      33.346  26.742  23.231  1.00  0.00     0.004 A 
ATOM     12  C   UNL A   1      34.115  25.825  25.305  1.00  0.00     0.016 A 
ATOM     13  C   UNL A   1      33.596  25.519  22.600  1.00  0.00     0.001 A 
ATOM     14  C   UNL A   1      34.293  24.570  24.706  1.00  0.00     0.023 A 
ATOM     15  C   UNL A   1      34.039  24.425  23.343  1.00  0.00     0.012 A 
BRANCH  14  16
ATOM     16  C   UNL A   1      34.740  23.388  25.502  1.00  0.00     0.193 C 
ATOM     17  O   UNL A   1      35.603  23.511  26.366  1.00  0.00    -0.289 OA
BRANCH  16  18
ATOM     18  C   UNL A   1      34.130  22.049  25.291  1.00  0.00     0.022 A 
ATOM     19  C   UNL A   1      32.737  21.942  25.338  1.00  0.00     0.012 A 
ATOM     20  C   UNL A   1      34.912  20.922  25.006  1.00  0.00     0.012 A 
ATOM     21  C   UNL A   1      32.125  20.723  25.042  1.00  0.00     0.001 A 
ATOM     22  C   UNL A   1      34.293  19.707  24.702  1.00  0.00     0.001 A 
ATOM     23  C   UNL A   1      32.902  19.611  24.712  1.00  0.00     0.000 A 
ENDBRANCH  16  18
ENDBRANCH  14  16
ENDBRANCH   8  10
ENDBRANCH   5   8
ENDBRANCH   3   4
ENDBRANCH   2   3
ENDBRANCH   1   2
BRANCH   1  24
ATOM     24  C   UNL A   1      35.918  33.071  28.011  1.00  0.00     0.002 C 
BRANCH  24  25
ATOM     25  C   UNL A   1      34.822  34.136  28.019  1.00  0.00     0.021 C 
BRANCH  25  26
ATOM     26  C   UNL A   1      33.484  33.655  28.566  1.00  0.00     0.116 C 
BRANCH  26  27
ATOM     27  N   UNL A   1      32.870  34.642  29.440  1.00  0.00    -0.352 N 
ATOM     28  C   UNL A   1      33.159  34.930  30.751  1.00  0.00     0.251 C 
ATOM     29  H   UNL A   1      32.149  35.177  29.037  1.00  0.00     0.163 HD
ATOM     30  O   UNL A   1      32.401  35.640  31.407  1.00  0.00    -0.269 OA
BRANCH  28  31
ATOM     31  C   UNL A   1      34.375  34.363  31.372  1.00  0.00     0.039 A 
ATOM     32  C   UNL A   1      34.324  33.077  31.913  1.00  0.00     0.014 A 
ATOM     33  C   UNL A   1      35.564  35.097  31.408  1.00  0.00     0.014 A 
ATOM     34  C   UNL A   1      35.484  32.507  32.441  1.00  0.00     0.010 A 
ATOM     35  C   UNL A   1      36.735  34.496  31.860  1.00  0.00     0.010 A 
ATOM     36  C   UNL A   1      36.706  33.197  32.388  1.00  0.00    -0.014 A 
BRANCH  36  37
ATOM     37  C   UNL A   1      37.964  32.575  32.878  1.00  0.00     0.031 A 
ATOM     38  C   UNL A   1      38.457  32.859  34.271  1.00  0.00     0.074 A 
ATOM     39  C   UNL A   1      38.690  31.799  32.049  1.00  0.00     0.049 A 
ATOM     40  N   UNL A   1      39.550  32.444  34.859  1.00  0.00    -0.248 NA
ATOM     41  C   UNL A   1      37.628  33.746  35.105  1.00  0.00     0.031 C 
ATOM     42  C   UNL A   1      38.340  31.480  30.663  1.00  0.00     0.029 A 
ATOM     43  N   UNL A   1      39.878  31.141  32.249  1.00  0.00    -0.354 N 
ATOM     44  C   UNL A   1      39.545  33.025  36.122  1.00  0.00     0.074 A 
ATOM     45  C   UNL A   1      38.372  33.869  36.193  1.00  0.00     0.031 C 
ATOM     46  C   UNL A   1      39.272  30.661  30.151  1.00  0.00     0.029 A 
ATOM     47  C   UNL A   1      40.310  30.435  31.151  1.00  0.00     0.049 A 
ATOM     48  H   UNL A   1      40.373  31.170  33.100  1.00  0.00     0.167 HD
ATOM     49  C   UNL A   1      40.427  32.860  37.137  1.00  0.00     0.031 A 
ATOM     50  C   UNL A   1      41.421  29.695  30.965  1.00  0.00     0.031 A 
ATOM     51  C   UNL A   1      41.592  32.018  37.060  1.00  0.00     0.049 A 
ATOM     52  C   UNL A   1      42.398  29.544  32.098  1.00  0.00     0.074 A 
ATOM     53  C   UNL A   1      42.519  31.741  38.050  1.00  0.00     0.029 A 
ATOM     54  N   UNL A   1      41.996  31.323  35.930  1.00  0.00    -0.354 N 
ATOM     55  N   UNL A   1      42.340  30.047  33.309  1.00  0.00    -0.248 NA
ATOM     56  C   UNL A   1      43.585  28.716  31.845  1.00  0.00     0.031 C 
ATOM     57  C   UNL A   1      43.517  30.931  37.500  1.00  0.00     0.029 A 
ATOM     58  C   UNL A   1      43.176  30.644  36.188  1.00  0.00     0.049 A 
ATOM     59  H   UNL A   1      41.516  31.315  35.070  1.00  0.00     0.167 HD
ATOM     60  C   UNL A   1      43.469  29.574  33.969  1.00  0.00     0.074 A 
ATOM     61  C   UNL A   1      44.181  28.731  33.030  1.00  0.00     0.031 C 
ATOM     62  C   UNL A   1      43.877  29.815  35.241  1.00  0.00     0.031 A 
BRANCH  49  63
ATOM     63  C   UNL A   1      40.169  33.616  38.415  1.00  0.00    -0.014 A 
ATOM     64  C   UNL A   1      40.696  34.904  38.621  1.00  0.00     0.010 A 
ATOM     65  C   UNL A   1      39.358  33.044  39.413  1.00  0.00     0.010 A 
ATOM     66  C   UNL A   1      40.458  35.585  39.818  1.00  0.00     0.020 A 
ATOM     67  C   UNL A   1      39.090  33.736  40.599  1.00  0.00     0.020 A 
ATOM     68  C   UNL A   1      39.658  34.994  40.801  1.00  0.00     0.054 A 
BRANCH  68  69
ATOM     69  S   UNL A   1      39.355  35.908  42.338  1.00  0.00     0.124 S 
ATOM     70  O   UNL A   1      37.976  35.534  42.642  1.00  0.00    -0.237 OA
ATOM     71  O   UNL A   1      40.367  35.363  43.238  1.00  0.00    -0.237 OA
ATOM     72  O   UNL A   1      39.550  37.305  41.956  1.00  0.00    -0.744 OA
ENDBRANCH  68  69
ENDBRANCH  49  63
BRANCH  50  73
ATOM     73  C   UNL A   1      41.658  29.030  29.654  1.00  0.00    -0.014 A 
ATOM     74  C   UNL A   1      41.231  27.708  29.434  1.00  0.00     0.010 A 
ATOM     75  C   UNL A   1      42.299  29.722  28.611  1.00  0.00     0.010 A 
ATOM     76  C   UNL A   1      41.454  27.088  28.201  1.00  0.00     0.020 A 
ATOM     77  C   UNL A   1      42.494  29.116  27.366  1.00  0.00     0.020 A 
ATOM     78  C   UNL A   1      42.080  27.798  27.172  1.00  0.00     0.054 A 
BRANCH  78  79
ATOM     79  S   UNL A   1      42.305  26.992  25.563  1.00  0.00     0.124 S 
ATOM     80  O   UNL A   1      42.362  28.134  24.657  1.00  0.00    -0.237 OA
ATOM     81  O   UNL A   1      43.559  26.267  25.749  1.00  0.00    -0.237 OA
ATOM     82  O   UNL A   1      41.120  26.147  25.435  1.00  0.00    -0.744 OA
ENDBRANCH  78  79
ENDBRANCH  50  73
BRANCH  62  83
ATOM     83  C   UNL A   1      45.139  29.133  35.705  1.00  0.00    -0.014 A 
ATOM     84  C   UNL A   1      46.394  29.757  35.592  1.00  0.00     0.010 A 
ATOM     85  C   UNL A   1      45.057  27.867  36.315  1.00  0.00     0.010 A 
ATOM     86  C   UNL A   1      47.546  29.115  36.051  1.00  0.00     0.020 A 
ATOM     87  C   UNL A   1      46.203  27.236  36.805  1.00  0.00     0.020 A 
ATOM     88  C   UNL A   1      47.443  27.858  36.657  1.00  0.00     0.054 A 
BRANCH  88  89
ATOM     89  S   UNL A   1      48.949  27.066  37.284  1.00  0.00     0.124 S 
ATOM     90  O   UNL A   1      48.453  26.354  38.458  1.00  0.00    -0.237 OA
ATOM     91  O   UNL A   1      49.357  26.223  36.161  1.00  0.00    -0.237 OA
ATOM     92  O   UNL A   1      49.841  28.189  37.567  1.00  0.00    -0.744 OA
ENDBRANCH  88  89
ENDBRANCH  62  83
ENDBRANCH  36  37
ENDBRANCH  28  31
ENDBRANCH  26  27
ENDBRANCH  25  26
ENDBRANCH  24  25
ENDBRANCH   1  24
TORSDOF 19
ENDMDL
