MODEL 1
REMARK VINA RESULT:     -13.9      0.000      0.000
REMARK SMILES Cc1c(C(=O)NCCCCCCNC(=O)c2ccc(-c3c4nc(c(-c5ccc(S(=O)(=O)[O-])cc5)c5ccc([nH]5)c(-c5ccc(S(=O)(=O)[O-])cc5)c5nc(c(-c6ccc(S(=O)(=O)[O-])cc6)c6ccc3[nH]6)C=C5)C=C4)cc2)oc2c1/C(=N/NC(=O)C(c1ccccc1)c1ccccc1)CCC2
REMARK SMILES IDX 9 1 8 2 7 3 6 4 4 5 5 6 3 8 1 9 2 10 78 11 76 12 77 13 79 14
REMARK SMILES IDX 99 15 80 16 97 17 98 18 81 19 82 20 83 22 84 23 85 24 86 25
REMARK SMILES IDX 90 26 87 27 89 28 88 29 91 30 92 31 96 32 93 33 95 34 94 35
REMARK SMILES IDX 10 36 11 37 12 38 13 39 14 40 15 42 16 43 17 44 75 45 18 46
REMARK SMILES IDX 74 47 19 48 20 49 21 50 68 51 22 52 73 53 67 54 69 55 23 56
REMARK SMILES IDX 72 57 66 58 65 59 24 61 54 62 35 63 53 64 36 65 39 66 52 67
REMARK SMILES IDX 70 68 37 69 38 70 51 72 71 73 40 74 25 75 26 76 34 77 27 78
REMARK SMILES IDX 33 79 28 80 29 81 30 82 31 83 32 84 55 85 56 86 64 87 57 88
REMARK SMILES IDX 63 89 58 90 59 91 60 92 61 93 62 94 41 95 42 96 50 97 43 98
REMARK SMILES IDX 49 99 44 100 45 101 46 102 47 103 48 104
REMARK H PARENT 6 7 81 21 13 41 69 60 39 71
REMARK Flexibility Score: inf
ROOT
ATOM      1  C   UNL A   1      36.002  22.919  26.060  1.00  0.00     0.002 C 
ENDROOT
BRANCH   1   2
ATOM      2  C   UNL A   1      35.324  21.568  26.318  1.00  0.00     0.021 C 
BRANCH   2   3
ATOM      3  C   UNL A   1      35.236  20.702  25.057  1.00  0.00     0.116 C 
BRANCH   3   4
ATOM      4  N   UNL A   1      34.126  19.744  25.107  1.00  0.00    -0.349 N 
ATOM      5  C   UNL A   1      32.758  19.920  24.912  1.00  0.00     0.287 C 
ATOM      6  O   UNL A   1      32.054  18.911  24.866  1.00  0.00    -0.266 OA
ATOM      7  H   UNL A   1      34.393  18.818  25.313  1.00  0.00     0.163 HD
BRANCH   5   8
ATOM      8  C   UNL A   1      32.259  21.263  24.702  1.00  0.00     0.195 A 
ATOM      9  C   UNL A   1      33.734  22.470  22.937  1.00  0.00     0.049 C 
ATOM     10  C   UNL A   1      32.660  22.381  23.956  1.00  0.00     0.010 A 
ATOM     11  C   UNL A   1      31.929  23.481  24.521  1.00  0.00     0.043 A 
ATOM     12  O   UNL A   1      31.183  21.593  25.455  1.00  0.00    -0.455 OA
ATOM     13  C   UNL A   1      31.150  22.913  25.506  1.00  0.00     0.114 A 
ATOM     14  C   UNL A   1      31.952  24.940  24.419  1.00  0.00     0.072 C 
ATOM     15  C   UNL A   1      30.453  23.506  26.660  1.00  0.00     0.076 C 
ATOM     16  N   UNL A   1      32.422  25.483  23.336  1.00  0.00    -0.177 NA
ATOM     17  C   UNL A   1      31.478  25.547  25.712  1.00  0.00     0.059 C 
ATOM     18  C   UNL A   1      30.216  24.950  26.328  1.00  0.00     0.014 C 
BRANCH  16  19
ATOM     19  N   UNL A   1      32.564  26.785  22.892  1.00  0.00    -0.246 N 
ATOM     20  C   UNL A   1      32.083  28.067  23.105  1.00  0.00     0.252 C 
ATOM     21  H   UNL A   1      33.240  26.809  22.177  1.00  0.00     0.193 HD
ATOM     22  O   UNL A   1      32.469  28.932  22.299  1.00  0.00    -0.272 OA
BRANCH  20  23
ATOM     23  C   UNL A   1      31.177  28.511  24.282  1.00  0.00     0.140 C 
BRANCH  23  24
ATOM     24  C   UNL A   1      32.104  29.051  25.439  1.00  0.00    -0.031 A 
ATOM     25  C   UNL A   1      31.787  30.151  26.251  1.00  0.00     0.005 A 
ATOM     26  C   UNL A   1      33.369  28.449  25.691  1.00  0.00     0.005 A 
ATOM     27  C   UNL A   1      32.739  30.696  27.141  1.00  0.00     0.000 A 
ATOM     28  C   UNL A   1      34.324  29.005  26.545  1.00  0.00     0.000 A 
ATOM     29  C   UNL A   1      34.015  30.145  27.262  1.00  0.00     0.000 A 
ENDBRANCH  23  24
BRANCH  23  30
ATOM     30  C   UNL A   1      29.967  29.323  23.645  1.00  0.00    -0.031 A 
ATOM     31  C   UNL A   1      29.872  30.719  23.900  1.00  0.00     0.005 A 
ATOM     32  C   UNL A   1      28.860  28.739  23.006  1.00  0.00     0.005 A 
ATOM     33  C   UNL A   1      28.662  31.412  23.815  1.00  0.00     0.000 A 
ATOM     34  C   UNL A   1      27.646  29.450  22.888  1.00  0.00     0.000 A 
ATOM     35  C   UNL A   1      27.533  30.763  23.348  1.00  0.00     0.000 A 
ENDBRANCH  23  30
ENDBRANCH  20  23
ENDBRANCH  16  19
ENDBRANCH   5   8
ENDBRANCH   3   4
ENDBRANCH   2   3
ENDBRANCH   1   2
BRANCH   1  36
ATOM     36  C   UNL A   1      37.318  22.850  25.266  1.00  0.00     0.002 C 
BRANCH  36  37
ATOM     37  C   UNL A   1      38.414  21.941  25.843  1.00  0.00     0.021 C 
BRANCH  37  38
ATOM     38  C   UNL A   1      39.516  22.706  26.557  1.00  0.00     0.116 C 
BRANCH  38  39
ATOM     39  N   UNL A   1      40.847  22.308  26.100  1.00  0.00    -0.352 N 
ATOM     40  C   UNL A   1      41.927  23.108  25.773  1.00  0.00     0.251 C 
ATOM     41  H   UNL A   1      40.994  21.338  26.013  1.00  0.00     0.163 HD
ATOM     42  O   UNL A   1      42.832  22.680  25.083  1.00  0.00    -0.269 OA
BRANCH  40  43
ATOM     43  C   UNL A   1      41.948  24.494  26.278  1.00  0.00     0.039 A 
ATOM     44  C   UNL A   1      41.366  25.538  25.557  1.00  0.00     0.014 A 
ATOM     45  C   UNL A   1      42.539  24.730  27.517  1.00  0.00     0.014 A 
ATOM     46  C   UNL A   1      41.311  26.803  26.138  1.00  0.00     0.010 A 
ATOM     47  C   UNL A   1      42.329  25.924  28.155  1.00  0.00     0.010 A 
ATOM     48  C   UNL A   1      41.773  26.985  27.453  1.00  0.00    -0.014 A 
BRANCH  48  49
ATOM     49  C   UNL A   1      41.596  28.259  28.139  1.00  0.00     0.031 A 
ATOM     50  C   UNL A   1      42.657  29.267  27.871  1.00  0.00     0.074 A 
ATOM     51  C   UNL A   1      40.476  28.600  28.813  1.00  0.00     0.049 A 
ATOM     52  N   UNL A   1      43.556  29.691  28.695  1.00  0.00    -0.248 NA
ATOM     53  C   UNL A   1      42.825  29.762  26.496  1.00  0.00     0.031 C 
ATOM     54  C   UNL A   1      39.208  27.867  28.930  1.00  0.00     0.029 A 
ATOM     55  N   UNL A   1      40.202  29.762  29.463  1.00  0.00    -0.354 N 
ATOM     56  C   UNL A   1      44.278  30.662  28.013  1.00  0.00     0.074 A 
ATOM     57  C   UNL A   1      43.901  30.541  26.626  1.00  0.00     0.031 C 
ATOM     58  C   UNL A   1      38.243  28.697  29.383  1.00  0.00     0.029 A 
ATOM     59  C   UNL A   1      38.861  29.952  29.769  1.00  0.00     0.049 A 
ATOM     60  H   UNL A   1      40.899  30.417  29.697  1.00  0.00     0.167 HD
ATOM     61  C   UNL A   1      44.963  31.638  28.672  1.00  0.00     0.031 A 
ATOM     62  C   UNL A   1      38.294  31.070  30.288  1.00  0.00     0.031 A 
ATOM     63  C   UNL A   1      45.106  31.337  30.074  1.00  0.00     0.049 A 
ATOM     64  C   UNL A   1      39.382  31.829  30.953  1.00  0.00     0.074 A 
ATOM     65  C   UNL A   1      45.669  30.292  30.781  1.00  0.00     0.029 A 
ATOM     66  N   UNL A   1      44.238  31.954  30.947  1.00  0.00    -0.354 N 
ATOM     67  N   UNL A   1      40.022  31.385  32.000  1.00  0.00    -0.248 NA
ATOM     68  C   UNL A   1      40.079  32.846  30.183  1.00  0.00     0.031 C 
ATOM     69  C   UNL A   1      44.747  30.028  31.837  1.00  0.00     0.029 A 
ATOM     70  C   UNL A   1      43.725  30.980  31.767  1.00  0.00     0.049 A 
ATOM     71  H   UNL A   1      44.025  32.915  30.978  1.00  0.00     0.167 HD
ATOM     72  C   UNL A   1      41.350  31.723  31.774  1.00  0.00     0.074 A 
ATOM     73  C   UNL A   1      41.308  32.703  30.689  1.00  0.00     0.031 C 
ATOM     74  C   UNL A   1      42.374  30.981  32.293  1.00  0.00     0.031 A 
BRANCH  61  75
ATOM     75  C   UNL A   1      45.175  33.024  28.121  1.00  0.00    -0.014 A 
ATOM     76  C   UNL A   1      46.488  33.508  27.954  1.00  0.00     0.010 A 
ATOM     77  C   UNL A   1      44.128  33.962  28.002  1.00  0.00     0.010 A 
ATOM     78  C   UNL A   1      46.738  34.869  27.724  1.00  0.00     0.020 A 
ATOM     79  C   UNL A   1      44.363  35.310  27.731  1.00  0.00     0.020 A 
ATOM     80  C   UNL A   1      45.670  35.761  27.623  1.00  0.00     0.054 A 
BRANCH  80  81
ATOM     81  S   UNL A   1      46.002  37.526  27.408  1.00  0.00     0.124 S 
ATOM     82  O   UNL A   1      46.839  37.533  26.212  1.00  0.00    -0.237 OA
ATOM     83  O   UNL A   1      44.659  38.077  27.246  1.00  0.00    -0.237 OA
ATOM     84  O   UNL A   1      46.678  37.900  28.649  1.00  0.00    -0.744 OA
ENDBRANCH  80  81
ENDBRANCH  61  75
BRANCH  62  85
ATOM     85  C   UNL A   1      36.973  31.659  29.958  1.00  0.00    -0.014 A 
ATOM     86  C   UNL A   1      36.016  31.906  30.961  1.00  0.00     0.010 A 
ATOM     87  C   UNL A   1      36.762  32.249  28.695  1.00  0.00     0.010 A 
ATOM     88  C   UNL A   1      34.929  32.768  30.729  1.00  0.00     0.020 A 
ATOM     89  C   UNL A   1      35.680  33.104  28.455  1.00  0.00     0.020 A 
ATOM     90  C   UNL A   1      34.782  33.382  29.481  1.00  0.00     0.054 A 
BRANCH  90  91
ATOM     91  S   UNL A   1      33.497  34.648  29.247  1.00  0.00     0.124 S 
ATOM     92  O   UNL A   1      32.584  33.994  28.315  1.00  0.00    -0.237 OA
ATOM     93  O   UNL A   1      32.989  34.838  30.603  1.00  0.00    -0.237 OA
ATOM     94  O   UNL A   1      34.234  35.786  28.701  1.00  0.00    -0.744 OA
ENDBRANCH  90  91
ENDBRANCH  62  85
BRANCH  74  95
ATOM     95  C   UNL A   1      42.055  29.920  33.328  1.00  0.00    -0.014 A 
ATOM     96  C   UNL A   1      41.641  28.609  33.015  1.00  0.00     0.010 A 
ATOM     97  C   UNL A   1      42.336  30.222  34.672  1.00  0.00     0.010 A 
ATOM     98  C   UNL A   1      41.490  27.640  34.021  1.00  0.00     0.020 A 
ATOM     99  C   UNL A   1      42.206  29.259  35.677  1.00  0.00     0.020 A 
ATOM    100  C   UNL A   1      41.773  27.974  35.349  1.00  0.00     0.054 A 
BRANCH 100 101
ATOM    101  S   UNL A   1      41.614  26.714  36.646  1.00  0.00     0.124 S 
ATOM    102  O   UNL A   1      41.419  25.488  35.876  1.00  0.00    -0.237 OA
ATOM    103  O   UNL A   1      42.886  26.814  37.357  1.00  0.00    -0.237 OA
ATOM    104  O   UNL A   1      40.449  27.150  37.415  1.00  0.00    -0.744 OA
ENDBRANCH 100 101
ENDBRANCH  74  95
ENDBRANCH  48  49
ENDBRANCH  40  43
ENDBRANCH  38  39
ENDBRANCH  37  38
ENDBRANCH  36  37
ENDBRANCH   1  36
TORSDOF 20
ENDMDL
MODEL 2
REMARK VINA RESULT:     -12.4      2.926      9.724
REMARK SMILES Cc1c(C(=O)NCCCCCCNC(=O)c2ccc(-c3c4nc(c(-c5ccc(S(=O)(=O)[O-])cc5)c5ccc([nH]5)c(-c5ccc(S(=O)(=O)[O-])cc5)c5nc(c(-c6ccc(S(=O)(=O)[O-])cc6)c6ccc3[nH]6)C=C5)C=C4)cc2)oc2c1/C(=N/NC(=O)C(c1ccccc1)c1ccccc1)CCC2
REMARK SMILES IDX 9 1 8 2 7 3 6 4 4 5 5 6 3 8 1 9 2 10 78 11 76 12 77 13 79 14
REMARK SMILES IDX 99 15 80 16 97 17 98 18 81 19 82 20 83 22 84 23 85 24 86 25
REMARK SMILES IDX 90 26 87 27 89 28 88 29 91 30 92 31 96 32 93 33 95 34 94 35
REMARK SMILES IDX 10 36 11 37 12 38 13 39 14 40 15 42 16 43 17 44 75 45 18 46
REMARK SMILES IDX 74 47 19 48 20 49 21 50 68 51 22 52 73 53 67 54 69 55 23 56
REMARK SMILES IDX 72 57 66 58 65 59 24 61 54 62 35 63 53 64 36 65 39 66 52 67
REMARK SMILES IDX 70 68 37 69 38 70 51 72 71 73 40 74 25 75 26 76 34 77 27 78
REMARK SMILES IDX 33 79 28 80 29 81 30 82 31 83 32 84 55 85 56 86 64 87 57 88
REMARK SMILES IDX 63 89 58 90 59 91 60 92 61 93 62 94 41 95 42 96 50 97 43 98
REMARK SMILES IDX 49 99 44 100 45 101 46 102 47 103 48 104
REMARK H PARENT 6 7 81 21 13 41 69 60 39 71
REMARK Flexibility Score: inf
ROOT
ATOM      1  C   UNL A   1      35.742  30.693  28.245  1.00  0.00     0.002 C 
ENDROOT
BRANCH   1   2
ATOM      2  C   UNL A   1      35.154  29.815  27.134  1.00  0.00     0.021 C 
BRANCH   2   3
ATOM      3  C   UNL A   1      33.691  30.154  26.826  1.00  0.00     0.116 C 
BRANCH   3   4
ATOM      4  N   UNL A   1      33.369  30.018  25.401  1.00  0.00    -0.349 N 
ATOM      5  C   UNL A   1      32.775  28.974  24.695  1.00  0.00     0.287 C 
ATOM      6  O   UNL A   1      32.481  29.177  23.516  1.00  0.00    -0.266 OA
ATOM      7  H   UNL A   1      33.613  30.796  24.850  1.00  0.00     0.163 HD
BRANCH   5   8
ATOM      8  C   UNL A   1      32.471  27.748  25.403  1.00  0.00     0.195 A 
ATOM      9  C   UNL A   1      34.608  26.278  25.548  1.00  0.00     0.049 C 
ATOM     10  C   UNL A   1      33.164  26.572  25.723  1.00  0.00     0.010 A 
ATOM     11  C   UNL A   1      32.142  25.631  26.089  1.00  0.00     0.043 A 
ATOM     12  O   UNL A   1      31.183  27.630  25.806  1.00  0.00    -0.455 OA
ATOM     13  C   UNL A   1      30.964  26.339  25.991  1.00  0.00     0.114 A 
ATOM     14  C   UNL A   1      32.059  24.193  26.346  1.00  0.00     0.072 C 
ATOM     15  C   UNL A   1      29.564  25.894  25.889  1.00  0.00     0.076 C 
ATOM     16  N   UNL A   1      33.127  23.567  26.741  1.00  0.00    -0.177 NA
ATOM     17  C   UNL A   1      30.686  23.692  25.990  1.00  0.00     0.059 C 
ATOM     18  C   UNL A   1      29.503  24.518  26.487  1.00  0.00     0.014 C 
BRANCH  16  19
ATOM     19  N   UNL A   1      33.404  22.259  27.097  1.00  0.00    -0.246 N 
ATOM     20  C   UNL A   1      33.337  20.962  26.613  1.00  0.00     0.252 C 
ATOM     21  H   UNL A   1      33.777  22.245  28.007  1.00  0.00     0.193 HD
ATOM     22  O   UNL A   1      33.609  20.064  27.430  1.00  0.00    -0.272 OA
BRANCH  20  23
ATOM     23  C   UNL A   1      33.024  20.555  25.151  1.00  0.00     0.140 C 
BRANCH  23  24
ATOM     24  C   UNL A   1      33.628  21.654  24.194  1.00  0.00    -0.031 A 
ATOM     25  C   UNL A   1      34.971  22.062  24.215  1.00  0.00     0.005 A 
ATOM     26  C   UNL A   1      32.797  22.337  23.263  1.00  0.00     0.005 A 
ATOM     27  C   UNL A   1      35.405  23.177  23.465  1.00  0.00     0.000 A 
ATOM     28  C   UNL A   1      33.214  23.461  22.545  1.00  0.00     0.000 A 
ATOM     29  C   UNL A   1      34.520  23.895  22.659  1.00  0.00     0.000 A 
ENDBRANCH  23  24
BRANCH  23  30
ATOM     30  C   UNL A   1      33.327  18.998  25.037  1.00  0.00    -0.031 A 
ATOM     31  C   UNL A   1      34.564  18.582  24.473  1.00  0.00     0.005 A 
ATOM     32  C   UNL A   1      32.384  17.980  25.265  1.00  0.00     0.005 A 
ATOM     33  C   UNL A   1      34.736  17.321  23.897  1.00  0.00     0.000 A 
ATOM     34  C   UNL A   1      32.572  16.695  24.713  1.00  0.00     0.000 A 
ATOM     35  C   UNL A   1      33.718  16.387  23.978  1.00  0.00     0.000 A 
ENDBRANCH  23  30
ENDBRANCH  20  23
ENDBRANCH  16  19
ENDBRANCH   5   8
ENDBRANCH   3   4
ENDBRANCH   2   3
ENDBRANCH   1   2
BRANCH   1  36
ATOM     36  C   UNL A   1      35.890  32.184  27.894  1.00  0.00     0.002 C 
BRANCH  36  37
ATOM     37  C   UNL A   1      35.216  33.177  28.853  1.00  0.00     0.021 C 
BRANCH  37  38
ATOM     38  C   UNL A   1      34.255  32.516  29.828  1.00  0.00     0.116 C 
BRANCH  38  39
ATOM     39  N   UNL A   1      34.471  32.965  31.202  1.00  0.00    -0.352 N 
ATOM     40  C   UNL A   1      35.378  32.495  32.136  1.00  0.00     0.251 C 
ATOM     41  H   UNL A   1      33.892  33.702  31.505  1.00  0.00     0.163 HD
ATOM     42  O   UNL A   1      35.214  32.705  33.323  1.00  0.00    -0.269 OA
BRANCH  40  43
ATOM     43  C   UNL A   1      36.542  31.728  31.655  1.00  0.00     0.039 A 
ATOM     44  C   UNL A   1      37.709  32.368  31.232  1.00  0.00     0.014 A 
ATOM     45  C   UNL A   1      36.459  30.338  31.664  1.00  0.00     0.014 A 
ATOM     46  C   UNL A   1      38.816  31.591  30.902  1.00  0.00     0.010 A 
ATOM     47  C   UNL A   1      37.595  29.587  31.509  1.00  0.00     0.010 A 
ATOM     48  C   UNL A   1      38.761  30.196  31.068  1.00  0.00    -0.014 A 
BRANCH  48  49
ATOM     49  C   UNL A   1      39.948  29.372  30.871  1.00  0.00     0.031 A 
ATOM     50  C   UNL A   1      40.731  29.098  32.106  1.00  0.00     0.074 A 
ATOM     51  C   UNL A   1      40.235  28.732  29.717  1.00  0.00     0.049 A 
ATOM     52  N   UNL A   1      41.899  29.559  32.407  1.00  0.00    -0.248 NA
ATOM     53  C   UNL A   1      40.091  28.334  33.189  1.00  0.00     0.031 C 
ATOM     54  C   UNL A   1      39.431  28.631  28.491  1.00  0.00     0.029 A 
ATOM     55  N   UNL A   1      41.294  27.928  29.439  1.00  0.00    -0.354 N 
ATOM     56  C   UNL A   1      42.239  28.981  33.624  1.00  0.00     0.074 A 
ATOM     57  C   UNL A   1      41.032  28.381  34.136  1.00  0.00     0.031 C 
ATOM     58  C   UNL A   1      39.905  27.629  27.719  1.00  0.00     0.029 A 
ATOM     59  C   UNL A   1      41.148  27.152  28.295  1.00  0.00     0.049 A 
ATOM     60  H   UNL A   1      42.100  27.896  30.002  1.00  0.00     0.167 HD
ATOM     61  C   UNL A   1      43.539  28.848  34.012  1.00  0.00     0.031 A 
ATOM     62  C   UNL A   1      41.982  26.174  27.862  1.00  0.00     0.031 A 
ATOM     63  C   UNL A   1      44.424  29.645  33.201  1.00  0.00     0.049 A 
ATOM     64  C   UNL A   1      43.301  26.429  28.492  1.00  0.00     0.074 A 
ATOM     65  C   UNL A   1      44.517  30.995  32.919  1.00  0.00     0.029 A 
ATOM     66  N   UNL A   1      45.109  29.004  32.193  1.00  0.00    -0.354 N 
ATOM     67  N   UNL A   1      44.022  27.484  28.229  1.00  0.00    -0.248 NA
ATOM     68  C   UNL A   1      43.597  25.772  29.755  1.00  0.00     0.031 C 
ATOM     69  C   UNL A   1      44.792  31.056  31.521  1.00  0.00     0.029 A 
ATOM     70  C   UNL A   1      44.940  29.748  31.051  1.00  0.00     0.049 A 
ATOM     71  H   UNL A   1      45.624  28.169  32.276  1.00  0.00     0.167 HD
ATOM     72  C   UNL A   1      44.535  27.879  29.457  1.00  0.00     0.074 A 
ATOM     73  C   UNL A   1      44.317  26.734  30.341  1.00  0.00     0.031 C 
ATOM     74  C   UNL A   1      44.837  29.187  29.718  1.00  0.00     0.031 A 
BRANCH  61  75
ATOM     75  C   UNL A   1      44.038  27.721  34.879  1.00  0.00    -0.014 A 
ATOM     76  C   UNL A   1      44.354  27.975  36.229  1.00  0.00     0.010 A 
ATOM     77  C   UNL A   1      44.449  26.481  34.348  1.00  0.00     0.010 A 
ATOM     78  C   UNL A   1      45.084  27.051  36.991  1.00  0.00     0.020 A 
ATOM     79  C   UNL A   1      45.138  25.536  35.110  1.00  0.00     0.020 A 
ATOM     80  C   UNL A   1      45.477  25.840  36.420  1.00  0.00     0.054 A 
BRANCH  80  81
ATOM     81  S   UNL A   1      46.488  24.689  37.382  1.00  0.00     0.124 S 
ATOM     82  O   UNL A   1      47.828  24.967  36.875  1.00  0.00    -0.237 OA
ATOM     83  O   UNL A   1      46.226  25.118  38.753  1.00  0.00    -0.237 OA
ATOM     84  O   UNL A   1      45.943  23.379  37.030  1.00  0.00    -0.744 OA
ENDBRANCH  80  81
ENDBRANCH  61  75
BRANCH  62  85
ATOM     85  C   UNL A   1      41.619  24.885  27.223  1.00  0.00    -0.014 A 
ATOM     86  C   UNL A   1      42.580  24.119  26.535  1.00  0.00     0.010 A 
ATOM     87  C   UNL A   1      40.393  24.263  27.539  1.00  0.00     0.010 A 
ATOM     88  C   UNL A   1      42.349  22.763  26.238  1.00  0.00     0.020 A 
ATOM     89  C   UNL A   1      40.154  22.916  27.242  1.00  0.00     0.020 A 
ATOM     90  C   UNL A   1      41.144  22.164  26.618  1.00  0.00     0.054 A 
BRANCH  90  91
ATOM     91  S   UNL A   1      40.930  20.369  26.415  1.00  0.00     0.124 S 
ATOM     92  O   UNL A   1      40.980  19.892  27.793  1.00  0.00    -0.237 OA
ATOM     93  O   UNL A   1      39.627  20.277  25.760  1.00  0.00    -0.237 OA
ATOM     94  O   UNL A   1      42.066  19.981  25.581  1.00  0.00    -0.744 OA
ENDBRANCH  90  91
ENDBRANCH  62  85
BRANCH  74  95
ATOM     95  C   UNL A   1      44.841  30.177  28.570  1.00  0.00    -0.014 A 
ATOM     96  C   UNL A   1      43.738  30.410  27.723  1.00  0.00     0.010 A 
ATOM     97  C   UNL A   1      45.961  31.017  28.444  1.00  0.00     0.010 A 
ATOM     98  C   UNL A   1      43.770  31.436  26.763  1.00  0.00     0.020 A 
ATOM     99  C   UNL A   1      45.993  32.052  27.505  1.00  0.00     0.020 A 
ATOM    100  C   UNL A   1      44.902  32.251  26.661  1.00  0.00     0.054 A 
BRANCH 100 101
ATOM    101  S   UNL A   1      44.929  33.601  25.447  1.00  0.00     0.124 S 
ATOM    102  O   UNL A   1      46.357  33.871  25.304  1.00  0.00    -0.237 OA
ATOM    103  O   UNL A   1      44.282  33.005  24.280  1.00  0.00    -0.237 OA
ATOM    104  O   UNL A   1      44.162  34.666  26.092  1.00  0.00    -0.744 OA
ENDBRANCH 100 101
ENDBRANCH  74  95
ENDBRANCH  48  49
ENDBRANCH  40  43
ENDBRANCH  38  39
ENDBRANCH  37  38
ENDBRANCH  36  37
ENDBRANCH   1  36
TORSDOF 20
ENDMDL
MODEL 3
REMARK VINA RESULT:     -12.1      3.155      7.374
REMARK SMILES Cc1c(C(=O)NCCCCCCNC(=O)c2ccc(-c3c4nc(c(-c5ccc(S(=O)(=O)[O-])cc5)c5ccc([nH]5)c(-c5ccc(S(=O)(=O)[O-])cc5)c5nc(c(-c6ccc(S(=O)(=O)[O-])cc6)c6ccc3[nH]6)C=C5)C=C4)cc2)oc2c1/C(=N/NC(=O)C(c1ccccc1)c1ccccc1)CCC2
REMARK SMILES IDX 9 1 8 2 7 3 6 4 4 5 5 6 3 8 1 9 2 10 78 11 76 12 77 13 79 14
REMARK SMILES IDX 99 15 80 16 97 17 98 18 81 19 82 20 83 22 84 23 85 24 86 25
REMARK SMILES IDX 90 26 87 27 89 28 88 29 91 30 92 31 96 32 93 33 95 34 94 35
REMARK SMILES IDX 10 36 11 37 12 38 13 39 14 40 15 42 16 43 17 44 75 45 18 46
REMARK SMILES IDX 74 47 19 48 20 49 21 50 68 51 22 52 73 53 67 54 69 55 23 56
REMARK SMILES IDX 72 57 66 58 65 59 24 61 54 62 35 63 53 64 36 65 39 66 52 67
REMARK SMILES IDX 70 68 37 69 38 70 51 72 71 73 40 74 25 75 26 76 34 77 27 78
REMARK SMILES IDX 33 79 28 80 29 81 30 82 31 83 32 84 55 85 56 86 64 87 57 88
REMARK SMILES IDX 63 89 58 90 59 91 60 92 61 93 62 94 41 95 42 96 50 97 43 98
REMARK SMILES IDX 49 99 44 100 45 101 46 102 47 103 48 104
REMARK H PARENT 6 7 81 21 13 41 69 60 39 71
REMARK Flexibility Score: inf
ROOT
ATOM      1  C   UNL A   1      36.889  20.692  25.007  1.00  0.00     0.002 C 
ENDROOT
BRANCH   1   2
ATOM      2  C   UNL A   1      35.642  21.583  24.950  1.00  0.00     0.021 C 
BRANCH   2   3
ATOM      3  C   UNL A   1      34.474  21.014  25.763  1.00  0.00     0.116 C 
BRANCH   3   4
ATOM      4  N   UNL A   1      33.633  20.103  24.978  1.00  0.00    -0.349 N 
ATOM      5  C   UNL A   1      32.534  20.352  24.158  1.00  0.00     0.287 C 
ATOM      6  O   UNL A   1      32.096  19.414  23.491  1.00  0.00    -0.266 OA
ATOM      7  H   UNL A   1      33.887  19.154  25.041  1.00  0.00     0.163 HD
BRANCH   5   8
ATOM      8  C   UNL A   1      32.025  21.705  24.081  1.00  0.00     0.195 A 
ATOM      9  C   UNL A   1      33.302  23.008  22.231  1.00  0.00     0.049 C 
ATOM     10  C   UNL A   1      32.348  22.863  23.358  1.00  0.00     0.010 A 
ATOM     11  C   UNL A   1      31.693  23.931  24.062  1.00  0.00     0.043 A 
ATOM     12  O   UNL A   1      31.043  21.993  24.968  1.00  0.00    -0.455 OA
ATOM     13  C   UNL A   1      31.025  23.309  25.095  1.00  0.00     0.114 A 
ATOM     14  C   UNL A   1      31.715  25.393  24.041  1.00  0.00     0.072 C 
ATOM     15  C   UNL A   1      30.467  23.836  26.352  1.00  0.00     0.076 C 
ATOM     16  N   UNL A   1      32.064  25.996  22.943  1.00  0.00    -0.177 NA
ATOM     17  C   UNL A   1      31.394  25.926  25.411  1.00  0.00     0.059 C 
ATOM     18  C   UNL A   1      30.205  25.297  26.131  1.00  0.00     0.014 C 
BRANCH  16  19
ATOM     19  N   UNL A   1      32.166  27.321  22.559  1.00  0.00    -0.246 N 
ATOM     20  C   UNL A   1      31.676  28.582  22.861  1.00  0.00     0.252 C 
ATOM     21  H   UNL A   1      32.805  27.392  21.815  1.00  0.00     0.193 HD
ATOM     22  O   UNL A   1      32.009  29.493  22.082  1.00  0.00    -0.272 OA
BRANCH  20  23
ATOM     23  C   UNL A   1      30.823  28.951  24.101  1.00  0.00     0.140 C 
BRANCH  23  24
ATOM     24  C   UNL A   1      31.800  29.425  25.246  1.00  0.00    -0.031 A 
ATOM     25  C   UNL A   1      31.498  30.441  26.166  1.00  0.00     0.005 A 
ATOM     26  C   UNL A   1      33.096  28.851  25.374  1.00  0.00     0.005 A 
ATOM     27  C   UNL A   1      32.483  30.944  27.044  1.00  0.00     0.000 A 
ATOM     28  C   UNL A   1      34.083  29.367  26.217  1.00  0.00     0.000 A 
ATOM     29  C   UNL A   1      33.781  30.431  27.045  1.00  0.00     0.000 A 
ENDBRANCH  23  24
BRANCH  23  30
ATOM     30  C   UNL A   1      29.585  29.794  23.568  1.00  0.00    -0.031 A 
ATOM     31  C   UNL A   1      28.776  29.243  22.537  1.00  0.00     0.005 A 
ATOM     32  C   UNL A   1      29.333  31.138  23.893  1.00  0.00     0.005 A 
ATOM     33  C   UNL A   1      28.004  30.039  21.688  1.00  0.00     0.000 A 
ATOM     34  C   UNL A   1      28.525  31.936  23.055  1.00  0.00     0.000 A 
ATOM     35  C   UNL A   1      27.912  31.400  21.921  1.00  0.00     0.000 A 
ENDBRANCH  23  30
ENDBRANCH  20  23
ENDBRANCH  16  19
ENDBRANCH   5   8
ENDBRANCH   3   4
ENDBRANCH   2   3
ENDBRANCH   1   2
BRANCH   1  36
ATOM     36  C   UNL A   1      38.112  21.320  25.698  1.00  0.00     0.002 C 
BRANCH  36  37
ATOM     37  C   UNL A   1      39.475  20.692  25.367  1.00  0.00     0.021 C 
BRANCH  37  38
ATOM     38  C   UNL A   1      39.623  19.269  25.882  1.00  0.00     0.116 C 
BRANCH  38  39
ATOM     39  N   UNL A   1      41.003  18.795  25.797  1.00  0.00    -0.352 N 
ATOM     40  C   UNL A   1      42.177  19.516  25.921  1.00  0.00     0.251 C 
ATOM     41  H   UNL A   1      41.112  17.830  25.628  1.00  0.00     0.163 HD
ATOM     42  O   UNL A   1      43.225  19.079  25.484  1.00  0.00    -0.269 OA
BRANCH  40  43
ATOM     43  C   UNL A   1      42.123  20.829  26.591  1.00  0.00     0.039 A 
ATOM     44  C   UNL A   1      41.650  20.958  27.898  1.00  0.00     0.014 A 
ATOM     45  C   UNL A   1      42.591  21.939  25.893  1.00  0.00     0.014 A 
ATOM     46  C   UNL A   1      41.734  22.202  28.520  1.00  0.00     0.010 A 
ATOM     47  C   UNL A   1      42.833  23.111  26.560  1.00  0.00     0.010 A 
ATOM     48  C   UNL A   1      42.353  23.272  27.852  1.00  0.00    -0.014 A 
BRANCH  48  49
ATOM     49  C   UNL A   1      42.586  24.542  28.530  1.00  0.00     0.031 A 
ATOM     50  C   UNL A   1      41.562  25.589  28.268  1.00  0.00     0.074 A 
ATOM     51  C   UNL A   1      43.534  24.726  29.475  1.00  0.00     0.049 A 
ATOM     52  N   UNL A   1      41.712  26.673  27.583  1.00  0.00    -0.248 NA
ATOM     53  C   UNL A   1      40.178  25.342  28.702  1.00  0.00     0.031 C 
ATOM     54  C   UNL A   1      44.433  23.739  30.087  1.00  0.00     0.029 A 
ATOM     55  N   UNL A   1      43.816  25.854  30.179  1.00  0.00    -0.354 N 
ATOM     56  C   UNL A   1      40.504  27.354  27.669  1.00  0.00     0.074 A 
ATOM     57  C   UNL A   1      39.554  26.418  28.217  1.00  0.00     0.031 C 
ATOM     58  C   UNL A   1      44.967  24.250  31.218  1.00  0.00     0.029 A 
ATOM     59  C   UNL A   1      44.605  25.652  31.305  1.00  0.00     0.049 A 
ATOM     60  H   UNL A   1      43.488  26.743  29.913  1.00  0.00     0.167 HD
ATOM     61  C   UNL A   1      40.431  28.703  27.491  1.00  0.00     0.031 A 
ATOM     62  C   UNL A   1      44.923  26.569  32.252  1.00  0.00     0.031 A 
ATOM     63  C   UNL A   1      41.636  29.231  26.902  1.00  0.00     0.049 A 
ATOM     64  C   UNL A   1      44.746  27.904  31.628  1.00  0.00     0.074 A 
ATOM     65  C   UNL A   1      42.318  28.988  25.725  1.00  0.00     0.029 A 
ATOM     66  N   UNL A   1      42.546  29.825  27.746  1.00  0.00    -0.354 N 
ATOM     67  N   UNL A   1      45.481  28.328  30.637  1.00  0.00    -0.248 NA
ATOM     68  C   UNL A   1      43.461  28.567  31.778  1.00  0.00     0.031 C 
ATOM     69  C   UNL A   1      43.694  28.969  26.100  1.00  0.00     0.029 A 
ATOM     70  C   UNL A   1      43.777  29.289  27.458  1.00  0.00     0.049 A 
ATOM     71  H   UNL A   1      42.351  30.507  28.429  1.00  0.00     0.167 HD
ATOM     72  C   UNL A   1      44.593  28.976  29.789  1.00  0.00     0.074 A 
ATOM     73  C   UNL A   1      43.385  29.173  30.590  1.00  0.00     0.031 C 
ATOM     74  C   UNL A   1      44.815  29.048  28.441  1.00  0.00     0.031 A 
BRANCH  61  75
ATOM     75  C   UNL A   1      39.423  29.581  28.185  1.00  0.00    -0.014 A 
ATOM     76  C   UNL A   1      39.774  30.213  29.395  1.00  0.00     0.010 A 
ATOM     77  C   UNL A   1      38.060  29.604  27.823  1.00  0.00     0.010 A 
ATOM     78  C   UNL A   1      38.800  30.797  30.219  1.00  0.00     0.020 A 
ATOM     79  C   UNL A   1      37.089  30.219  28.615  1.00  0.00     0.020 A 
ATOM     80  C   UNL A   1      37.462  30.786  29.824  1.00  0.00     0.054 A 
BRANCH  80  81
ATOM     81  S   UNL A   1      36.202  31.467  30.930  1.00  0.00     0.124 S 
ATOM     82  O   UNL A   1      35.140  31.822  29.994  1.00  0.00    -0.237 OA
ATOM     83  O   UNL A   1      35.921  30.338  31.812  1.00  0.00    -0.237 OA
ATOM     84  O   UNL A   1      36.880  32.595  31.566  1.00  0.00    -0.744 OA
ENDBRANCH  80  81
ENDBRANCH  61  75
BRANCH  62  85
ATOM     85  C   UNL A   1      45.040  26.363  33.717  1.00  0.00    -0.014 A 
ATOM     86  C   UNL A   1      45.755  27.269  34.523  1.00  0.00     0.010 A 
ATOM     87  C   UNL A   1      44.204  25.431  34.365  1.00  0.00     0.010 A 
ATOM     88  C   UNL A   1      45.583  27.288  35.920  1.00  0.00     0.020 A 
ATOM     89  C   UNL A   1      44.032  25.439  35.754  1.00  0.00     0.020 A 
ATOM     90  C   UNL A   1      44.701  26.387  36.524  1.00  0.00     0.054 A 
BRANCH  90  91
ATOM     91  S   UNL A   1      44.329  26.544  38.297  1.00  0.00     0.124 S 
ATOM     92  O   UNL A   1      45.109  25.456  38.877  1.00  0.00    -0.237 OA
ATOM     93  O   UNL A   1      44.800  27.893  38.602  1.00  0.00    -0.237 OA
ATOM     94  O   UNL A   1      42.878  26.371  38.358  1.00  0.00    -0.744 OA
ENDBRANCH  90  91
ENDBRANCH  62  85
BRANCH  74  95
ATOM     95  C   UNL A   1      46.167  28.626  27.902  1.00  0.00    -0.014 A 
ATOM     96  C   UNL A   1      46.496  27.304  27.538  1.00  0.00     0.010 A 
ATOM     97  C   UNL A   1      47.092  29.643  27.606  1.00  0.00     0.010 A 
ATOM     98  C   UNL A   1      47.725  27.009  26.922  1.00  0.00     0.020 A 
ATOM     99  C   UNL A   1      48.307  29.361  26.977  1.00  0.00     0.020 A 
ATOM    100  C   UNL A   1      48.624  28.044  26.646  1.00  0.00     0.054 A 
BRANCH 100 101
ATOM    101  S   UNL A   1      50.195  27.671  25.817  1.00  0.00     0.124 S 
ATOM    102  O   UNL A   1      49.835  26.562  24.937  1.00  0.00    -0.237 OA
ATOM    103  O   UNL A   1      50.517  28.927  25.144  1.00  0.00    -0.237 OA
ATOM    104  O   UNL A   1      51.095  27.319  26.916  1.00  0.00    -0.744 OA
ENDBRANCH 100 101
ENDBRANCH  74  95
ENDBRANCH  48  49
ENDBRANCH  40  43
ENDBRANCH  38  39
ENDBRANCH  37  38
ENDBRANCH  36  37
ENDBRANCH   1  36
TORSDOF 20
ENDMDL
