MODEL 1
REMARK VINA RESULT:      -9.5      0.000      0.000
REMARK SMILES CC(C)Oc1ccc([C@H](O)[C@H](F)C(=O)NCCCCCCNC(=O)c2ccc(-c3c4nc(c(-c5ccc(S(=O)(=O)[O-])cc5)c5ccc([nH]5)c(-c5ccc(S(=O)(=O)[O-])cc5)c5nc(c(-c6ccc(S(=O)(=O)[O-])cc6)c6ccc3[nH]6)C=C5)C=C4)cc2)cc1
REMARK SMILES IDX 18 1 17 2 16 3 15 4 13 5 14 6 11 8 12 9 9 10 8 11 5 12 6 13
REMARK SMILES IDX 86 14 7 15 85 16 4 17 2 18 1 19 3 20 10 21 19 23 20 24 21 25
REMARK SMILES IDX 22 26 23 27 24 29 25 30 26 31 84 32 27 33 83 34 28 35 29 36
REMARK SMILES IDX 30 37 77 38 31 39 82 40 76 41 78 42 32 43 81 44 75 45 74 46
REMARK SMILES IDX 33 48 63 49 44 50 62 51 45 52 48 53 61 54 79 55 46 56 47 57
REMARK SMILES IDX 60 59 80 60 49 61 34 62 35 63 43 64 36 65 42 66 37 67 38 68
REMARK SMILES IDX 39 69 40 70 41 71 64 72 65 73 73 74 66 75 72 76 67 77 68 78
REMARK SMILES IDX 69 79 70 80 71 81 50 82 51 83 59 84 52 85 58 86 53 87 54 88
REMARK SMILES IDX 55 89 56 90 57 91
REMARK H PARENT 15 7 10 22 22 28 78 47 48 58
REMARK Flexibility Score: inf
ROOT
ATOM      1  C   UNL A   1      33.895  24.520  26.068  1.00  0.00     0.002 C 
ENDROOT
BRANCH   1   2
ATOM      2  C   UNL A   1      32.713  25.500  26.113  1.00  0.00     0.021 C 
BRANCH   2   3
ATOM      3  C   UNL A   1      33.091  26.950  25.819  1.00  0.00     0.116 C 
BRANCH   3   4
ATOM      4  N   UNL A   1      32.058  27.666  25.103  1.00  0.00    -0.353 N 
ATOM      5  C   UNL A   1      31.811  27.851  23.781  1.00  0.00     0.257 C 
ATOM      6  O   UNL A   1      30.786  28.500  23.523  1.00  0.00    -0.272 OA
ATOM      7  H   UNL A   1      31.404  28.108  25.692  1.00  0.00     0.163 HD
BRANCH   5   8
ATOM      8  C   UNL A   1      32.721  27.402  22.628  1.00  0.00     0.288 C 
ATOM      9  F   UNL A   1      34.021  27.275  23.025  1.00  0.00    -0.234 F 
BRANCH   8  10
ATOM     10  C   UNL A   1      32.273  26.231  21.726  1.00  0.00     0.188 C 
BRANCH  10  11
ATOM     11  C   UNL A   1      32.193  24.811  22.273  1.00  0.00    -0.016 A 
ATOM     12  C   UNL A   1      32.061  22.312  23.582  1.00  0.00     0.119 A 
ATOM     13  C   UNL A   1      31.030  23.232  23.739  1.00  0.00     0.047 A 
ATOM     14  C   UNL A   1      33.092  22.583  22.691  1.00  0.00     0.047 A 
ATOM     15  C   UNL A   1      31.097  24.472  23.094  1.00  0.00     0.010 A 
ATOM     16  C   UNL A   1      33.161  23.823  22.047  1.00  0.00     0.010 A 
BRANCH  12  17
ATOM     17  O   UNL A   1      31.967  21.099  24.198  1.00  0.00    -0.491 OA
BRANCH  17  18
ATOM     18  C   UNL A   1      33.194  20.358  24.358  1.00  0.00     0.167 C 
ATOM     19  C   UNL A   1      33.990  20.750  25.601  1.00  0.00     0.052 C 
ATOM     20  C   UNL A   1      33.013  18.845  24.243  1.00  0.00     0.052 C 
ENDBRANCH  17  18
ENDBRANCH  12  17
ENDBRANCH  10  11
BRANCH  10  21
ATOM     21  O   UNL A   1      33.134  26.177  20.572  1.00  0.00    -0.385 OA
ATOM     22  H   UNL A   1      33.923  26.718  20.730  1.00  0.00     0.211 HD
ENDBRANCH  10  21
ENDBRANCH   8  10
ENDBRANCH   5   8
ENDBRANCH   3   4
ENDBRANCH   2   3
ENDBRANCH   1   2
BRANCH   1  23
ATOM     23  C   UNL A   1      34.903  24.740  24.928  1.00  0.00     0.002 C 
BRANCH  23  24
ATOM     24  C   UNL A   1      36.108  23.795  24.910  1.00  0.00     0.021 C 
BRANCH  24  25
ATOM     25  C   UNL A   1      36.575  23.310  26.282  1.00  0.00     0.116 C 
BRANCH  25  26
ATOM     26  N   UNL A   1      37.634  22.321  26.183  1.00  0.00    -0.352 N 
ATOM     27  C   UNL A   1      38.994  22.474  26.260  1.00  0.00     0.251 C 
ATOM     28  H   UNL A   1      37.327  21.397  26.039  1.00  0.00     0.163 HD
ATOM     29  O   UNL A   1      39.720  21.526  25.947  1.00  0.00    -0.269 OA
BRANCH  27  30
ATOM     30  C   UNL A   1      39.609  23.752  26.692  1.00  0.00     0.039 A 
ATOM     31  C   UNL A   1      39.944  23.911  28.041  1.00  0.00     0.014 A 
ATOM     32  C   UNL A   1      39.800  24.816  25.806  1.00  0.00     0.014 A 
ATOM     33  C   UNL A   1      40.509  25.109  28.488  1.00  0.00     0.010 A 
ATOM     34  C   UNL A   1      40.420  25.993  26.242  1.00  0.00     0.010 A 
ATOM     35  C   UNL A   1      40.777  26.155  27.590  1.00  0.00    -0.014 A 
BRANCH  35  36
ATOM     36  C   UNL A   1      41.431  27.409  28.056  1.00  0.00     0.031 A 
ATOM     37  C   UNL A   1      42.925  27.582  27.964  1.00  0.00     0.074 A 
ATOM     38  C   UNL A   1      40.679  28.394  28.589  1.00  0.00     0.049 A 
ATOM     39  N   UNL A   1      43.659  28.608  28.318  1.00  0.00    -0.248 NA
ATOM     40  C   UNL A   1      43.697  26.455  27.421  1.00  0.00     0.031 C 
ATOM     41  C   UNL A   1      39.227  28.347  28.767  1.00  0.00     0.029 A 
ATOM     42  N   UNL A   1      41.034  29.629  29.077  1.00  0.00    -0.354 N 
ATOM     43  C   UNL A   1      44.975  28.249  28.049  1.00  0.00     0.074 A 
ATOM     44  C   UNL A   1      44.942  26.892  27.545  1.00  0.00     0.031 C 
ATOM     45  C   UNL A   1      38.811  29.509  29.296  1.00  0.00     0.029 A 
ATOM     46  C   UNL A   1      39.968  30.370  29.529  1.00  0.00     0.049 A 
ATOM     47  H   UNL A   1      41.963  29.952  29.101  1.00  0.00     0.167 HD
ATOM     48  C   UNL A   1      46.106  28.983  28.192  1.00  0.00     0.031 A 
ATOM     49  C   UNL A   1      39.919  31.602  30.073  1.00  0.00     0.031 A 
ATOM     50  C   UNL A   1      46.142  30.334  28.688  1.00  0.00     0.049 A 
ATOM     51  C   UNL A   1      41.189  32.392  30.236  1.00  0.00     0.074 A 
ATOM     52  C   UNL A   1      47.236  31.173  28.816  1.00  0.00     0.029 A 
ATOM     53  N   UNL A   1      45.042  31.045  29.142  1.00  0.00    -0.354 N 
ATOM     54  N   UNL A   1      42.414  32.055  29.913  1.00  0.00    -0.248 NA
ATOM     55  C   UNL A   1      41.066  33.732  30.826  1.00  0.00     0.031 C 
ATOM     56  C   UNL A   1      46.806  32.371  29.397  1.00  0.00     0.029 A 
ATOM     57  C   UNL A   1      45.434  32.300  29.576  1.00  0.00     0.049 A 
ATOM     58  H   UNL A   1      44.117  30.706  29.154  1.00  0.00     0.167 HD
ATOM     59  C   UNL A   1      43.205  33.153  30.239  1.00  0.00     0.074 A 
ATOM     60  C   UNL A   1      42.318  34.167  30.768  1.00  0.00     0.031 C 
ATOM     61  C   UNL A   1      44.547  33.303  30.109  1.00  0.00     0.031 A 
BRANCH  48  62
ATOM     62  C   UNL A   1      47.411  28.332  27.811  1.00  0.00    -0.014 A 
ATOM     63  C   UNL A   1      48.084  27.479  28.703  1.00  0.00     0.010 A 
ATOM     64  C   UNL A   1      47.947  28.537  26.527  1.00  0.00     0.010 A 
ATOM     65  C   UNL A   1      49.290  26.877  28.334  1.00  0.00     0.020 A 
ATOM     66  C   UNL A   1      49.140  27.917  26.143  1.00  0.00     0.020 A 
ATOM     67  C   UNL A   1      49.814  27.103  27.058  1.00  0.00     0.054 A 
BRANCH  67  68
ATOM     68  S   UNL A   1      51.373  26.298  26.601  1.00  0.00     0.124 S 
ATOM     69  O   UNL A   1      51.378  25.133  27.481  1.00  0.00    -0.237 OA
ATOM     70  O   UNL A   1      51.181  26.011  25.181  1.00  0.00    -0.237 OA
ATOM     71  O   UNL A   1      52.386  27.307  26.898  1.00  0.00    -0.744 OA
ENDBRANCH  67  68
ENDBRANCH  48  62
BRANCH  49  72
ATOM     72  C   UNL A   1      38.610  32.173  30.496  1.00  0.00    -0.014 A 
ATOM     73  C   UNL A   1      37.848  32.952  29.606  1.00  0.00     0.010 A 
ATOM     74  C   UNL A   1      38.115  31.929  31.790  1.00  0.00     0.010 A 
ATOM     75  C   UNL A   1      36.622  33.488  30.008  1.00  0.00     0.020 A 
ATOM     76  C   UNL A   1      36.876  32.440  32.185  1.00  0.00     0.020 A 
ATOM     77  C   UNL A   1      36.142  33.226  31.294  1.00  0.00     0.054 A 
BRANCH  77  78
ATOM     78  S   UNL A   1      34.520  33.883  31.775  1.00  0.00     0.124 S 
ATOM     79  O   UNL A   1      33.952  32.769  32.527  1.00  0.00    -0.237 OA
ATOM     80  O   UNL A   1      34.877  35.062  32.561  1.00  0.00    -0.237 OA
ATOM     81  O   UNL A   1      33.875  34.169  30.495  1.00  0.00    -0.744 OA
ENDBRANCH  77  78
ENDBRANCH  49  72
BRANCH  61  82
ATOM     82  C   UNL A   1      45.140  34.625  30.523  1.00  0.00    -0.014 A 
ATOM     83  C   UNL A   1      45.615  34.834  31.830  1.00  0.00     0.010 A 
ATOM     84  C   UNL A   1      45.268  35.657  29.575  1.00  0.00     0.010 A 
ATOM     85  C   UNL A   1      46.175  36.063  32.190  1.00  0.00     0.020 A 
ATOM     86  C   UNL A   1      45.852  36.877  29.925  1.00  0.00     0.020 A 
ATOM     87  C   UNL A   1      46.288  37.078  31.235  1.00  0.00     0.054 A 
BRANCH  87  88
ATOM     88  S   UNL A   1      47.054  38.650  31.718  1.00  0.00     0.124 S 
ATOM     89  O   UNL A   1      45.933  39.361  32.326  1.00  0.00    -0.237 OA
ATOM     90  O   UNL A   1      48.106  38.227  32.639  1.00  0.00    -0.237 OA
ATOM     91  O   UNL A   1      47.530  39.206  30.452  1.00  0.00    -0.744 OA
ENDBRANCH  87  88
ENDBRANCH  61  82
ENDBRANCH  35  36
ENDBRANCH  27  30
ENDBRANCH  25  26
ENDBRANCH  24  25
ENDBRANCH  23  24
ENDBRANCH   1  23
TORSDOF 21
ENDMDL
MODEL 2
REMARK VINA RESULT:      -9.3      5.306      7.800
REMARK SMILES CC(C)Oc1ccc([C@H](O)[C@H](F)C(=O)NCCCCCCNC(=O)c2ccc(-c3c4nc(c(-c5ccc(S(=O)(=O)[O-])cc5)c5ccc([nH]5)c(-c5ccc(S(=O)(=O)[O-])cc5)c5nc(c(-c6ccc(S(=O)(=O)[O-])cc6)c6ccc3[nH]6)C=C5)C=C4)cc2)cc1
REMARK SMILES IDX 18 1 17 2 16 3 15 4 13 5 14 6 11 8 12 9 9 10 8 11 5 12 6 13
REMARK SMILES IDX 86 14 7 15 85 16 4 17 2 18 1 19 3 20 10 21 19 23 20 24 21 25
REMARK SMILES IDX 22 26 23 27 24 29 25 30 26 31 84 32 27 33 83 34 28 35 29 36
REMARK SMILES IDX 30 37 77 38 31 39 82 40 76 41 78 42 32 43 81 44 75 45 74 46
REMARK SMILES IDX 33 48 63 49 44 50 62 51 45 52 48 53 61 54 79 55 46 56 47 57
REMARK SMILES IDX 60 59 80 60 49 61 34 62 35 63 43 64 36 65 42 66 37 67 38 68
REMARK SMILES IDX 39 69 40 70 41 71 64 72 65 73 73 74 66 75 72 76 67 77 68 78
REMARK SMILES IDX 69 79 70 80 71 81 50 82 51 83 59 84 52 85 58 86 53 87 54 88
REMARK SMILES IDX 55 89 56 90 57 91
REMARK H PARENT 15 7 10 22 22 28 78 47 48 58
REMARK Flexibility Score: inf
ROOT
ATOM      1  C   UNL A   1      44.656  24.620  29.459  1.00  0.00     0.002 C 
ENDROOT
BRANCH   1   2
ATOM      2  C   UNL A   1      44.459  23.147  29.074  1.00  0.00     0.021 C 
BRANCH   2   3
ATOM      3  C   UNL A   1      43.088  22.835  28.476  1.00  0.00     0.116 C 
BRANCH   3   4
ATOM      4  N   UNL A   1      43.142  22.563  27.056  1.00  0.00    -0.353 N 
ATOM      5  C   UNL A   1      42.217  22.119  26.167  1.00  0.00     0.257 C 
ATOM      6  O   UNL A   1      42.610  22.044  24.993  1.00  0.00    -0.272 OA
ATOM      7  H   UNL A   1      44.025  22.734  26.655  1.00  0.00     0.163 HD
BRANCH   5   8
ATOM      8  C   UNL A   1      40.799  21.642  26.512  1.00  0.00     0.288 C 
ATOM      9  F   UNL A   1      40.797  20.766  27.558  1.00  0.00    -0.234 F 
BRANCH   8  10
ATOM     10  C   UNL A   1      39.661  22.681  26.623  1.00  0.00     0.188 C 
BRANCH  10  11
ATOM     11  C   UNL A   1      38.309  22.431  25.964  1.00  0.00    -0.016 A 
ATOM     12  C   UNL A   1      35.675  22.018  25.036  1.00  0.00     0.119 A 
ATOM     13  C   UNL A   1      36.051  23.266  25.519  1.00  0.00     0.047 A 
ATOM     14  C   UNL A   1      36.629  21.016  24.907  1.00  0.00     0.047 A 
ATOM     15  C   UNL A   1      37.356  23.471  25.982  1.00  0.00     0.010 A 
ATOM     16  C   UNL A   1      37.932  21.218  25.372  1.00  0.00     0.010 A 
BRANCH  12  17
ATOM     17  O   UNL A   1      34.407  21.843  24.565  1.00  0.00    -0.491 OA
BRANCH  17  18
ATOM     18  C   UNL A   1      33.438  21.320  25.495  1.00  0.00     0.167 C 
ATOM     19  C   UNL A   1      32.971  19.904  25.163  1.00  0.00     0.052 C 
ATOM     20  C   UNL A   1      33.858  21.459  26.958  1.00  0.00     0.052 C 
ENDBRANCH  17  18
ENDBRANCH  12  17
ENDBRANCH  10  11
BRANCH  10  21
ATOM     21  O   UNL A   1      40.135  23.944  26.118  1.00  0.00    -0.385 OA
ATOM     22  H   UNL A   1      39.968  24.639  26.774  1.00  0.00     0.211 HD
ENDBRANCH  10  21
ENDBRANCH   8  10
ENDBRANCH   5   8
ENDBRANCH   3   4
ENDBRANCH   2   3
ENDBRANCH   1   2
BRANCH   1  23
ATOM     23  C   UNL A   1      45.529  25.450  28.504  1.00  0.00     0.002 C 
BRANCH  23  24
ATOM     24  C   UNL A   1      45.654  24.913  27.074  1.00  0.00     0.021 C 
BRANCH  24  25
ATOM     25  C   UNL A   1      45.527  25.964  25.973  1.00  0.00     0.116 C 
BRANCH  25  26
ATOM     26  N   UNL A   1      44.303  25.809  25.206  1.00  0.00    -0.352 N 
ATOM     27  C   UNL A   1      43.002  26.053  25.562  1.00  0.00     0.251 C 
ATOM     28  H   UNL A   1      44.427  25.476  24.287  1.00  0.00     0.163 HD
ATOM     29  O   UNL A   1      42.096  25.661  24.821  1.00  0.00    -0.269 OA
BRANCH  27  30
ATOM     30  C   UNL A   1      42.660  26.761  26.819  1.00  0.00     0.039 A 
ATOM     31  C   UNL A   1      43.223  28.020  27.053  1.00  0.00     0.014 A 
ATOM     32  C   UNL A   1      41.849  26.177  27.798  1.00  0.00     0.014 A 
ATOM     33  C   UNL A   1      42.938  28.708  28.236  1.00  0.00     0.010 A 
ATOM     34  C   UNL A   1      41.517  26.892  28.954  1.00  0.00     0.010 A 
ATOM     35  C   UNL A   1      42.062  28.164  29.189  1.00  0.00    -0.014 A 
BRANCH  35  36
ATOM     36  C   UNL A   1      41.714  28.923  30.423  1.00  0.00     0.031 A 
ATOM     37  C   UNL A   1      42.528  28.770  31.681  1.00  0.00     0.074 A 
ATOM     38  C   UNL A   1      40.641  29.740  30.420  1.00  0.00     0.049 A 
ATOM     39  N   UNL A   1      42.369  29.356  32.842  1.00  0.00    -0.248 NA
ATOM     40  C   UNL A   1      43.655  27.826  31.637  1.00  0.00     0.031 C 
ATOM     41  C   UNL A   1      39.747  29.959  29.282  1.00  0.00     0.029 A 
ATOM     42  N   UNL A   1      40.123  30.542  31.409  1.00  0.00    -0.354 N 
ATOM     43  C   UNL A   1      43.367  28.850  33.667  1.00  0.00     0.074 A 
ATOM     44  C   UNL A   1      44.098  27.873  32.887  1.00  0.00     0.031 C 
ATOM     45  C   UNL A   1      38.809  30.857  29.626  1.00  0.00     0.029 A 
ATOM     46  C   UNL A   1      39.011  31.252  31.018  1.00  0.00     0.049 A 
ATOM     47  H   UNL A   1      40.509  30.603  32.311  1.00  0.00     0.167 HD
ATOM     48  C   UNL A   1      43.662  29.176  34.949  1.00  0.00     0.031 A 
ATOM     49  C   UNL A   1      38.237  32.120  31.697  1.00  0.00     0.031 A 
ATOM     50  C   UNL A   1      42.941  30.149  35.727  1.00  0.00     0.049 A 
ATOM     51  C   UNL A   1      38.573  32.455  33.124  1.00  0.00     0.074 A 
ATOM     52  C   UNL A   1      43.201  30.583  37.017  1.00  0.00     0.029 A 
ATOM     53  N   UNL A   1      41.817  30.839  35.296  1.00  0.00    -0.354 N 
ATOM     54  N   UNL A   1      39.562  32.012  33.862  1.00  0.00    -0.248 NA
ATOM     55  C   UNL A   1      37.695  33.417  33.805  1.00  0.00     0.031 C 
ATOM     56  C   UNL A   1      42.205  31.493  37.384  1.00  0.00     0.029 A 
ATOM     57  C   UNL A   1      41.358  31.672  36.302  1.00  0.00     0.049 A 
ATOM     58  H   UNL A   1      41.408  30.748  34.405  1.00  0.00     0.167 HD
ATOM     59  C   UNL A   1      39.439  32.660  35.087  1.00  0.00     0.074 A 
ATOM     60  C   UNL A   1      38.291  33.536  34.985  1.00  0.00     0.031 C 
ATOM     61  C   UNL A   1      40.210  32.537  36.196  1.00  0.00     0.031 A 
BRANCH  48  62
ATOM     62  C   UNL A   1      44.816  28.461  35.602  1.00  0.00    -0.014 A 
ATOM     63  C   UNL A   1      46.112  29.010  35.588  1.00  0.00     0.010 A 
ATOM     64  C   UNL A   1      44.596  27.249  36.282  1.00  0.00     0.010 A 
ATOM     65  C   UNL A   1      47.172  28.339  36.203  1.00  0.00     0.020 A 
ATOM     66  C   UNL A   1      45.649  26.588  36.922  1.00  0.00     0.020 A 
ATOM     67  C   UNL A   1      46.935  27.130  36.863  1.00  0.00     0.054 A 
BRANCH  67  68
ATOM     68  S   UNL A   1      48.327  26.289  37.666  1.00  0.00     0.124 S 
ATOM     69  O   UNL A   1      48.643  27.206  38.757  1.00  0.00    -0.237 OA
ATOM     70  O   UNL A   1      47.741  25.012  38.068  1.00  0.00    -0.237 OA
ATOM     71  O   UNL A   1      49.336  26.203  36.613  1.00  0.00    -0.744 OA
ENDBRANCH  67  68
ENDBRANCH  48  62
BRANCH  49  72
ATOM     72  C   UNL A   1      37.065  32.748  31.026  1.00  0.00    -0.014 A 
ATOM     73  C   UNL A   1      37.238  33.840  30.156  1.00  0.00     0.010 A 
ATOM     74  C   UNL A   1      35.769  32.246  31.246  1.00  0.00     0.010 A 
ATOM     75  C   UNL A   1      36.135  34.427  29.530  1.00  0.00     0.020 A 
ATOM     76  C   UNL A   1      34.668  32.814  30.600  1.00  0.00     0.020 A 
ATOM     77  C   UNL A   1      34.857  33.908  29.754  1.00  0.00     0.054 A 
BRANCH  77  78
ATOM     78  S   UNL A   1      33.446  34.649  28.885  1.00  0.00     0.124 S 
ATOM     79  O   UNL A   1      33.015  33.557  28.020  1.00  0.00    -0.237 OA
ATOM     80  O   UNL A   1      32.541  34.984  29.982  1.00  0.00    -0.237 OA
ATOM     81  O   UNL A   1      34.034  35.799  28.200  1.00  0.00    -0.744 OA
ENDBRANCH  77  78
ENDBRANCH  49  72
BRANCH  61  82
ATOM     82  C   UNL A   1      39.855  33.391  37.385  1.00  0.00    -0.014 A 
ATOM     83  C   UNL A   1      40.424  34.665  37.565  1.00  0.00     0.010 A 
ATOM     84  C   UNL A   1      38.902  32.932  38.313  1.00  0.00     0.010 A 
ATOM     85  C   UNL A   1      40.071  35.449  38.667  1.00  0.00     0.020 A 
ATOM     86  C   UNL A   1      38.526  33.723  39.401  1.00  0.00     0.020 A 
ATOM     87  C   UNL A   1      39.125  34.971  39.580  1.00  0.00     0.054 A 
BRANCH  87  88
ATOM     88  S   UNL A   1      38.655  36.023  40.982  1.00  0.00     0.124 S 
ATOM     89  O   UNL A   1      37.459  35.351  41.480  1.00  0.00    -0.237 OA
ATOM     90  O   UNL A   1      39.828  35.946  41.850  1.00  0.00    -0.237 OA
ATOM     91  O   UNL A   1      38.426  37.331  40.371  1.00  0.00    -0.744 OA
ENDBRANCH  87  88
ENDBRANCH  61  82
ENDBRANCH  35  36
ENDBRANCH  27  30
ENDBRANCH  25  26
ENDBRANCH  24  25
ENDBRANCH  23  24
ENDBRANCH   1  23
TORSDOF 21
ENDMDL
MODEL 3
REMARK VINA RESULT:      -9.1      4.719     11.093
REMARK SMILES CC(C)Oc1ccc([C@H](O)[C@H](F)C(=O)NCCCCCCNC(=O)c2ccc(-c3c4nc(c(-c5ccc(S(=O)(=O)[O-])cc5)c5ccc([nH]5)c(-c5ccc(S(=O)(=O)[O-])cc5)c5nc(c(-c6ccc(S(=O)(=O)[O-])cc6)c6ccc3[nH]6)C=C5)C=C4)cc2)cc1
REMARK SMILES IDX 18 1 17 2 16 3 15 4 13 5 14 6 11 8 12 9 9 10 8 11 5 12 6 13
REMARK SMILES IDX 86 14 7 15 85 16 4 17 2 18 1 19 3 20 10 21 19 23 20 24 21 25
REMARK SMILES IDX 22 26 23 27 24 29 25 30 26 31 84 32 27 33 83 34 28 35 29 36
REMARK SMILES IDX 30 37 77 38 31 39 82 40 76 41 78 42 32 43 81 44 75 45 74 46
REMARK SMILES IDX 33 48 63 49 44 50 62 51 45 52 48 53 61 54 79 55 46 56 47 57
REMARK SMILES IDX 60 59 80 60 49 61 34 62 35 63 43 64 36 65 42 66 37 67 38 68
REMARK SMILES IDX 39 69 40 70 41 71 64 72 65 73 73 74 66 75 72 76 67 77 68 78
REMARK SMILES IDX 69 79 70 80 71 81 50 82 51 83 59 84 52 85 58 86 53 87 54 88
REMARK SMILES IDX 55 89 56 90 57 91
REMARK H PARENT 15 7 10 22 22 28 78 47 48 58
REMARK Flexibility Score: inf
ROOT
ATOM      1  C   UNL A   1      34.072  35.257  30.378  1.00  0.00     0.002 C 
ENDROOT
BRANCH   1   2
ATOM      2  C   UNL A   1      34.293  34.496  31.693  1.00  0.00     0.021 C 
BRANCH   2   3
ATOM      3  C   UNL A   1      35.559  34.902  32.444  1.00  0.00     0.116 C 
BRANCH   3   4
ATOM      4  N   UNL A   1      35.553  34.477  33.827  1.00  0.00    -0.353 N 
ATOM      5  C   UNL A   1      36.119  33.422  34.470  1.00  0.00     0.257 C 
ATOM      6  O   UNL A   1      35.937  33.396  35.697  1.00  0.00    -0.272 OA
ATOM      7  H   UNL A   1      35.036  35.068  34.420  1.00  0.00     0.163 HD
BRANCH   5   8
ATOM      8  C   UNL A   1      36.867  32.261  33.799  1.00  0.00     0.288 C 
ATOM      9  F   UNL A   1      36.068  31.572  32.933  1.00  0.00    -0.234 F 
BRANCH   8  10
ATOM     10  C   UNL A   1      38.276  32.509  33.217  1.00  0.00     0.188 C 
BRANCH  10  11
ATOM     11  C   UNL A   1      39.413  31.528  33.477  1.00  0.00    -0.016 A 
ATOM     12  C   UNL A   1      41.310  29.548  34.147  1.00  0.00     0.119 A 
ATOM     13  C   UNL A   1      40.182  29.205  33.410  1.00  0.00     0.047 A 
ATOM     14  C   UNL A   1      41.553  30.882  34.449  1.00  0.00     0.047 A 
ATOM     15  C   UNL A   1      39.239  30.186  33.081  1.00  0.00     0.010 A 
ATOM     16  C   UNL A   1      40.611  31.863  34.122  1.00  0.00     0.010 A 
BRANCH  12  17
ATOM     17  O   UNL A   1      42.231  28.584  34.436  1.00  0.00    -0.491 OA
BRANCH  17  18
ATOM     18  C   UNL A   1      43.371  28.494  33.558  1.00  0.00     0.167 C 
ATOM     19  C   UNL A   1      44.687  28.905  34.215  1.00  0.00     0.052 C 
ATOM     20  C   UNL A   1      43.482  27.150  32.838  1.00  0.00     0.052 C 
ENDBRANCH  17  18
ENDBRANCH  12  17
ENDBRANCH  10  11
BRANCH  10  21
ATOM     21  O   UNL A   1      38.741  33.800  33.658  1.00  0.00    -0.385 OA
ATOM     22  H   UNL A   1      38.495  33.933  34.587  1.00  0.00     0.211 HD
ENDBRANCH  10  21
ENDBRANCH   8  10
ENDBRANCH   5   8
ENDBRANCH   3   4
ENDBRANCH   2   3
ENDBRANCH   1   2
BRANCH   1  23
ATOM     23  C   UNL A   1      33.091  34.609  29.387  1.00  0.00     0.002 C 
BRANCH  23  24
ATOM     24  C   UNL A   1      33.725  33.859  28.211  1.00  0.00     0.021 C 
BRANCH  24  25
ATOM     25  C   UNL A   1      34.587  32.658  28.597  1.00  0.00     0.116 C 
BRANCH  25  26
ATOM     26  N   UNL A   1      33.940  31.395  28.285  1.00  0.00    -0.352 N 
ATOM     27  C   UNL A   1      34.486  30.163  28.031  1.00  0.00     0.251 C 
ATOM     28  H   UNL A   1      32.957  31.430  28.251  1.00  0.00     0.163 HD
ATOM     29  O   UNL A   1      33.760  29.268  27.589  1.00  0.00    -0.269 OA
BRANCH  27  30
ATOM     30  C   UNL A   1      35.925  29.890  28.258  1.00  0.00     0.039 A 
ATOM     31  C   UNL A   1      36.339  29.507  29.538  1.00  0.00     0.014 A 
ATOM     32  C   UNL A   1      36.879  30.066  27.251  1.00  0.00     0.014 A 
ATOM     33  C   UNL A   1      37.691  29.257  29.794  1.00  0.00     0.010 A 
ATOM     34  C   UNL A   1      38.223  29.760  27.492  1.00  0.00     0.010 A 
ATOM     35  C   UNL A   1      38.645  29.357  28.768  1.00  0.00    -0.014 A 
BRANCH  35  36
ATOM     36  C   UNL A   1      40.077  29.036  29.027  1.00  0.00     0.031 A 
ATOM     37  C   UNL A   1      41.002  30.059  29.633  1.00  0.00     0.074 A 
ATOM     38  C   UNL A   1      40.557  27.820  28.694  1.00  0.00     0.049 A 
ATOM     39  N   UNL A   1      42.273  29.948  29.930  1.00  0.00    -0.248 NA
ATOM     40  C   UNL A   1      40.433  31.383  29.929  1.00  0.00     0.031 C 
ATOM     41  C   UNL A   1      39.781  26.745  28.072  1.00  0.00     0.029 A 
ATOM     42  N   UNL A   1      41.814  27.283  28.834  1.00  0.00    -0.354 N 
ATOM     43  C   UNL A   1      42.657  31.183  30.438  1.00  0.00     0.074 A 
ATOM     44  C   UNL A   1      41.495  32.044  30.366  1.00  0.00     0.031 C 
ATOM     45  C   UNL A   1      40.570  25.670  27.911  1.00  0.00     0.029 A 
ATOM     46  C   UNL A   1      41.915  25.988  28.384  1.00  0.00     0.049 A 
ATOM     47  H   UNL A   1      42.572  27.779  29.220  1.00  0.00     0.167 HD
ATOM     48  C   UNL A   1      43.859  31.565  30.935  1.00  0.00     0.031 A 
ATOM     49  C   UNL A   1      42.967  25.146  28.349  1.00  0.00     0.031 A 
ATOM     50  C   UNL A   1      45.016  30.711  31.013  1.00  0.00     0.049 A 
ATOM     51  C   UNL A   1      44.296  25.597  28.892  1.00  0.00     0.074 A 
ATOM     52  C   UNL A   1      46.260  30.996  31.550  1.00  0.00     0.029 A 
ATOM     53  N   UNL A   1      45.078  29.409  30.539  1.00  0.00    -0.354 N 
ATOM     54  N   UNL A   1      44.617  26.750  29.428  1.00  0.00    -0.248 NA
ATOM     55  C   UNL A   1      45.399  24.628  28.834  1.00  0.00     0.031 C 
ATOM     56  C   UNL A   1      47.089  29.887  31.352  1.00  0.00     0.029 A 
ATOM     57  C   UNL A   1      46.344  28.888  30.746  1.00  0.00     0.049 A 
ATOM     58  H   UNL A   1      44.329  28.927  30.118  1.00  0.00     0.167 HD
ATOM     59  C   UNL A   1      45.955  26.635  29.794  1.00  0.00     0.074 A 
ATOM     60  C   UNL A   1      46.375  25.298  29.433  1.00  0.00     0.031 C 
ATOM     61  C   UNL A   1      46.759  27.558  30.378  1.00  0.00     0.031 A 
BRANCH  48  62
ATOM     62  C   UNL A   1      43.991  32.982  31.430  1.00  0.00    -0.014 A 
ATOM     63  C   UNL A   1      43.757  33.306  32.778  1.00  0.00     0.010 A 
ATOM     64  C   UNL A   1      44.401  33.997  30.546  1.00  0.00     0.010 A 
ATOM     65  C   UNL A   1      43.889  34.623  33.224  1.00  0.00     0.020 A 
ATOM     66  C   UNL A   1      44.560  35.312  30.993  1.00  0.00     0.020 A 
ATOM     67  C   UNL A   1      44.285  35.620  32.328  1.00  0.00     0.054 A 
BRANCH  67  68
ATOM     68  S   UNL A   1      44.463  37.319  32.937  1.00  0.00     0.124 S 
ATOM     69  O   UNL A   1      44.355  38.093  31.703  1.00  0.00    -0.237 OA
ATOM     70  O   UNL A   1      43.337  37.448  33.859  1.00  0.00    -0.237 OA
ATOM     71  O   UNL A   1      45.782  37.328  33.564  1.00  0.00    -0.744 OA
ENDBRANCH  67  68
ENDBRANCH  48  62
BRANCH  49  72
ATOM     72  C   UNL A   1      42.801  23.777  27.787  1.00  0.00    -0.014 A 
ATOM     73  C   UNL A   1      42.557  22.681  28.633  1.00  0.00     0.010 A 
ATOM     74  C   UNL A   1      42.876  23.568  26.398  1.00  0.00     0.010 A 
ATOM     75  C   UNL A   1      42.405  21.398  28.101  1.00  0.00     0.020 A 
ATOM     76  C   UNL A   1      42.696  22.290  25.861  1.00  0.00     0.020 A 
ATOM     77  C   UNL A   1      42.472  21.211  26.718  1.00  0.00     0.054 A 
BRANCH  77  78
ATOM     78  S   UNL A   1      42.213  19.546  26.044  1.00  0.00     0.124 S 
ATOM     79  O   UNL A   1      43.105  19.543  24.890  1.00  0.00    -0.237 OA
ATOM     80  O   UNL A   1      42.614  18.689  27.158  1.00  0.00    -0.237 OA
ATOM     81  O   UNL A   1      40.785  19.523  25.734  1.00  0.00    -0.744 OA
ENDBRANCH  77  78
ENDBRANCH  49  72
BRANCH  61  82
ATOM     82  C   UNL A   1      48.174  27.147  30.689  1.00  0.00    -0.014 A 
ATOM     83  C   UNL A   1      49.228  27.429  29.801  1.00  0.00     0.010 A 
ATOM     84  C   UNL A   1      48.462  26.511  31.911  1.00  0.00     0.010 A 
ATOM     85  C   UNL A   1      50.537  27.052  30.115  1.00  0.00     0.020 A 
ATOM     86  C   UNL A   1      49.773  26.157  32.239  1.00  0.00     0.020 A 
ATOM     87  C   UNL A   1      50.801  26.416  31.332  1.00  0.00     0.054 A 
BRANCH  87  88
ATOM     88  S   UNL A   1      52.514  25.972  31.732  1.00  0.00     0.124 S 
ATOM     89  O   UNL A   1      53.143  25.969  30.415  1.00  0.00    -0.237 OA
ATOM     90  O   UNL A   1      52.927  27.052  32.625  1.00  0.00    -0.237 OA
ATOM     91  O   UNL A   1      52.391  24.660  32.367  1.00  0.00    -0.744 OA
ENDBRANCH  87  88
ENDBRANCH  61  82
ENDBRANCH  35  36
ENDBRANCH  27  30
ENDBRANCH  25  26
ENDBRANCH  24  25
ENDBRANCH  23  24
ENDBRANCH   1  23
TORSDOF 21
ENDMDL
