MODEL 1
REMARK VINA RESULT:     -11.9      0.000      0.000
REMARK SMILES COc1cc(OC)cc(-n2nnc(C(=O)NCCCCCCNC(=O)c3ccc(-c4c5nc(c(-c6ccc(S(=O)(=O)[O-])cc6)c6ccc([nH]6)c(-c6ccc(S(=O)(=O)[O-])cc6)c6nc(c(-c7ccc(S(=O)(=O)[O-])cc7)c7ccc4[nH]7)C=C6)C=C5)cc3)c2C(C)(C)C)c1
REMARK SMILES IDX 20 1 19 2 18 3 17 4 16 5 14 6 15 7 13 9 10 10 11 11 86 12
REMARK SMILES IDX 12 13 9 14 3 15 4 16 91 17 5 18 8 19 2 20 1 21 6 22 7 23
REMARK SMILES IDX 87 24 88 25 89 26 90 27 21 28 22 29 23 30 24 31 25 33 26 34
REMARK SMILES IDX 27 35 85 36 28 37 84 38 29 39 30 40 31 41 78 42 32 43 83 44
REMARK SMILES IDX 77 45 79 46 33 47 82 48 76 49 75 50 34 52 64 53 45 54 63 55
REMARK SMILES IDX 46 56 49 57 62 58 80 59 47 60 48 61 61 63 81 64 50 65 35 66
REMARK SMILES IDX 36 67 44 68 37 69 43 70 38 71 39 72 40 73 41 74 42 75 65 76
REMARK SMILES IDX 66 77 74 78 67 79 73 80 68 81 69 82 70 83 71 84 72 85 51 86
REMARK SMILES IDX 52 87 60 88 53 89 59 90 54 91 55 92 56 93 57 94 58 95
REMARK H PARENT 16 8 23 32 79 51 49 62
REMARK Flexibility Score: inf
ROOT
ATOM      1  C   UNL A   1      38.022  23.585  25.888  1.00  0.00     0.002 C 
ENDROOT
BRANCH   1   2
ATOM      2  C   UNL A   1      36.485  23.673  25.937  1.00  0.00     0.002 C 
BRANCH   2   3
ATOM      3  C   UNL A   1      35.690  22.383  25.707  1.00  0.00     0.021 C 
BRANCH   3   4
ATOM      4  C   UNL A   1      34.713  22.038  26.833  1.00  0.00     0.116 C 
BRANCH   4   5
ATOM      5  N   UNL A   1      33.438  21.477  26.423  1.00  0.00    -0.351 N 
ATOM      6  C   UNL A   1      32.316  21.883  25.728  1.00  0.00     0.273 C 
ATOM      7  O   UNL A   1      31.761  20.921  25.176  1.00  0.00    -0.267 OA
ATOM      8  H   UNL A   1      33.349  20.544  26.724  1.00  0.00     0.163 HD
BRANCH   6   9
ATOM      9  C   UNL A   1      31.691  23.231  25.610  1.00  0.00     0.174 A 
ATOM     10  N   UNL A   1      30.948  25.299  25.417  1.00  0.00    -0.216 N 
ATOM     11  N   UNL A   1      30.293  24.742  26.441  1.00  0.00    -0.061 NA
ATOM     12  C   UNL A   1      31.869  24.414  24.860  1.00  0.00     0.083 A 
ATOM     13  N   UNL A   1      30.680  23.484  26.531  1.00  0.00    -0.124 NA
BRANCH  10  14
ATOM     14  C   UNL A   1      30.759  26.657  25.117  1.00  0.00     0.074 A 
ATOM     15  C   UNL A   1      30.111  28.232  23.423  1.00  0.00     0.124 A 
ATOM     16  C   UNL A   1      31.036  29.135  23.962  1.00  0.00     0.093 A 
ATOM     17  C   UNL A   1      29.941  26.992  24.031  1.00  0.00     0.075 A 
ATOM     18  C   UNL A   1      31.788  28.824  25.106  1.00  0.00     0.124 A 
ATOM     19  C   UNL A   1      31.634  27.580  25.706  1.00  0.00     0.075 A 
BRANCH  15  20
ATOM     20  O   UNL A   1      29.554  28.619  22.234  1.00  0.00    -0.497 OA
ATOM     21  C   UNL A   1      29.717  29.974  21.838  1.00  0.00     0.278 C 
ENDBRANCH  15  20
BRANCH  18  22
ATOM     22  O   UNL A   1      32.684  29.786  25.477  1.00  0.00    -0.497 OA
ATOM     23  C   UNL A   1      33.307  29.641  26.752  1.00  0.00     0.278 C 
ENDBRANCH  18  22
ENDBRANCH  10  14
BRANCH  12  24
ATOM     24  C   UNL A   1      32.869  24.757  23.770  1.00  0.00     0.007 C 
ATOM     25  C   UNL A   1      33.998  25.517  24.507  1.00  0.00     0.017 C 
ATOM     26  C   UNL A   1      33.087  23.432  22.991  1.00  0.00     0.017 C 
ATOM     27  C   UNL A   1      32.589  25.750  22.626  1.00  0.00     0.017 C 
ENDBRANCH  12  24
ENDBRANCH   6   9
ENDBRANCH   4   5
ENDBRANCH   3   4
ENDBRANCH   2   3
ENDBRANCH   1   2
BRANCH   1  28
ATOM     28  C   UNL A   1      38.679  22.206  26.031  1.00  0.00     0.021 C 
BRANCH  28  29
ATOM     29  C   UNL A   1      39.892  22.165  26.941  1.00  0.00     0.116 C 
BRANCH  29  30
ATOM     30  N   UNL A   1      41.148  21.947  26.223  1.00  0.00    -0.352 N 
ATOM     31  C   UNL A   1      42.055  22.882  25.745  1.00  0.00     0.251 C 
ATOM     32  H   UNL A   1      41.384  21.006  26.057  1.00  0.00     0.163 HD
ATOM     33  O   UNL A   1      42.877  22.573  24.901  1.00  0.00    -0.269 OA
BRANCH  31  34
ATOM     34  C   UNL A   1      42.003  24.257  26.281  1.00  0.00     0.039 A 
ATOM     35  C   UNL A   1      41.308  25.283  25.635  1.00  0.00     0.014 A 
ATOM     36  C   UNL A   1      42.666  24.502  27.477  1.00  0.00     0.014 A 
ATOM     37  C   UNL A   1      41.236  26.533  26.251  1.00  0.00     0.010 A 
ATOM     38  C   UNL A   1      42.408  25.643  28.180  1.00  0.00     0.010 A 
ATOM     39  C   UNL A   1      41.780  26.694  27.535  1.00  0.00    -0.014 A 
BRANCH  39  40
ATOM     40  C   UNL A   1      41.637  27.930  28.289  1.00  0.00     0.031 A 
ATOM     41  C   UNL A   1      42.692  28.932  28.008  1.00  0.00     0.074 A 
ATOM     42  C   UNL A   1      40.517  28.237  28.983  1.00  0.00     0.049 A 
ATOM     43  N   UNL A   1      43.671  29.269  28.778  1.00  0.00    -0.248 NA
ATOM     44  C   UNL A   1      42.779  29.499  26.651  1.00  0.00     0.031 C 
ATOM     45  C   UNL A   1      39.259  27.483  29.083  1.00  0.00     0.029 A 
ATOM     46  N   UNL A   1      40.222  29.376  29.656  1.00  0.00    -0.354 N 
ATOM     47  C   UNL A   1      44.349  30.278  28.106  1.00  0.00     0.074 A 
ATOM     48  C   UNL A   1      43.902  30.216  26.737  1.00  0.00     0.031 C 
ATOM     49  C   UNL A   1      38.279  28.288  29.553  1.00  0.00     0.029 A 
ATOM     50  C   UNL A   1      38.875  29.548  29.959  1.00  0.00     0.049 A 
ATOM     51  H   UNL A   1      40.911  30.033  29.913  1.00  0.00     0.167 HD
ATOM     52  C   UNL A   1      45.006  31.259  28.787  1.00  0.00     0.031 A 
ATOM     53  C   UNL A   1      38.298  30.659  30.485  1.00  0.00     0.031 A 
ATOM     54  C   UNL A   1      45.131  30.936  30.187  1.00  0.00     0.049 A 
ATOM     55  C   UNL A   1      39.387  31.432  31.136  1.00  0.00     0.074 A 
ATOM     56  C   UNL A   1      45.693  29.892  30.897  1.00  0.00     0.029 A 
ATOM     57  N   UNL A   1      44.242  31.542  31.048  1.00  0.00    -0.354 N 
ATOM     58  N   UNL A   1      40.044  30.996  32.173  1.00  0.00    -0.248 NA
ATOM     59  C   UNL A   1      40.067  32.447  30.346  1.00  0.00     0.031 C 
ATOM     60  C   UNL A   1      44.763  29.623  31.945  1.00  0.00     0.029 A 
ATOM     61  C   UNL A   1      43.740  30.570  31.875  1.00  0.00     0.049 A 
ATOM     62  H   UNL A   1      44.010  32.498  31.066  1.00  0.00     0.167 HD
ATOM     63  C   UNL A   1      41.367  31.332  31.921  1.00  0.00     0.074 A 
ATOM     64  C   UNL A   1      41.307  32.305  30.829  1.00  0.00     0.031 C 
ATOM     65  C   UNL A   1      42.396  30.581  32.418  1.00  0.00     0.031 A 
BRANCH  52  66
ATOM     66  C   UNL A   1      45.146  32.676  28.286  1.00  0.00    -0.014 A 
ATOM     67  C   UNL A   1      46.409  33.296  28.367  1.00  0.00     0.010 A 
ATOM     68  C   UNL A   1      44.043  33.506  27.999  1.00  0.00     0.010 A 
ATOM     69  C   UNL A   1      46.547  34.684  28.241  1.00  0.00     0.020 A 
ATOM     70  C   UNL A   1      44.174  34.885  27.827  1.00  0.00     0.020 A 
ATOM     71  C   UNL A   1      45.422  35.469  27.984  1.00  0.00     0.054 A 
BRANCH  71  72
ATOM     72  S   UNL A   1      45.595  37.268  27.922  1.00  0.00     0.124 S 
ATOM     73  O   UNL A   1      45.419  37.634  29.324  1.00  0.00    -0.237 OA
ATOM     74  O   UNL A   1      46.945  37.428  27.389  1.00  0.00    -0.237 OA
ATOM     75  O   UNL A   1      44.521  37.683  27.024  1.00  0.00    -0.744 OA
ENDBRANCH  71  72
ENDBRANCH  52  66
BRANCH  53  76
ATOM     76  C   UNL A   1      36.966  31.253  30.194  1.00  0.00    -0.014 A 
ATOM     77  C   UNL A   1      36.286  32.008  31.170  1.00  0.00     0.010 A 
ATOM     78  C   UNL A   1      36.510  31.345  28.863  1.00  0.00     0.010 A 
ATOM     79  C   UNL A   1      35.247  32.889  30.815  1.00  0.00     0.020 A 
ATOM     80  C   UNL A   1      35.473  32.217  28.503  1.00  0.00     0.020 A 
ATOM     81  C   UNL A   1      34.867  33.009  29.476  1.00  0.00     0.054 A 
BRANCH  81  82
ATOM     82  S   UNL A   1      33.687  34.307  28.991  1.00  0.00     0.124 S 
ATOM     83  O   UNL A   1      33.104  34.693  30.273  1.00  0.00    -0.237 OA
ATOM     84  O   UNL A   1      34.549  35.303  28.363  1.00  0.00    -0.237 OA
ATOM     85  O   UNL A   1      32.778  33.617  28.077  1.00  0.00    -0.744 OA
ENDBRANCH  81  82
ENDBRANCH  53  76
BRANCH  65  86
ATOM     86  C   UNL A   1      42.085  29.533  33.466  1.00  0.00    -0.014 A 
ATOM     87  C   UNL A   1      41.692  28.211  33.174  1.00  0.00     0.010 A 
ATOM     88  C   UNL A   1      42.345  29.870  34.805  1.00  0.00     0.010 A 
ATOM     89  C   UNL A   1      41.533  27.265  34.202  1.00  0.00     0.020 A 
ATOM     90  C   UNL A   1      42.206  28.930  35.829  1.00  0.00     0.020 A 
ATOM     91  C   UNL A   1      41.790  27.634  35.526  1.00  0.00     0.054 A 
BRANCH  91  92
ATOM     92  S   UNL A   1      41.607  26.410  36.852  1.00  0.00     0.124 S 
ATOM     93  O   UNL A   1      41.494  25.155  36.113  1.00  0.00    -0.237 OA
ATOM     94  O   UNL A   1      42.838  26.577  37.622  1.00  0.00    -0.237 OA
ATOM     95  O   UNL A   1      40.391  26.827  37.549  1.00  0.00    -0.744 OA
ENDBRANCH  91  92
ENDBRANCH  65  86
ENDBRANCH  39  40
ENDBRANCH  31  34
ENDBRANCH  29  30
ENDBRANCH  28  29
ENDBRANCH   1  28
TORSDOF 20
ENDMDL
MODEL 2
REMARK VINA RESULT:     -11.8      2.607      9.455
REMARK SMILES COc1cc(OC)cc(-n2nnc(C(=O)NCCCCCCNC(=O)c3ccc(-c4c5nc(c(-c6ccc(S(=O)(=O)[O-])cc6)c6ccc([nH]6)c(-c6ccc(S(=O)(=O)[O-])cc6)c6nc(c(-c7ccc(S(=O)(=O)[O-])cc7)c7ccc4[nH]7)C=C6)C=C5)cc3)c2C(C)(C)C)c1
REMARK SMILES IDX 20 1 19 2 18 3 17 4 16 5 14 6 15 7 13 9 10 10 11 11 86 12
REMARK SMILES IDX 12 13 9 14 3 15 4 16 91 17 5 18 8 19 2 20 1 21 6 22 7 23
REMARK SMILES IDX 87 24 88 25 89 26 90 27 21 28 22 29 23 30 24 31 25 33 26 34
REMARK SMILES IDX 27 35 85 36 28 37 84 38 29 39 30 40 31 41 78 42 32 43 83 44
REMARK SMILES IDX 77 45 79 46 33 47 82 48 76 49 75 50 34 52 64 53 45 54 63 55
REMARK SMILES IDX 46 56 49 57 62 58 80 59 47 60 48 61 61 63 81 64 50 65 35 66
REMARK SMILES IDX 36 67 44 68 37 69 43 70 38 71 39 72 40 73 41 74 42 75 65 76
REMARK SMILES IDX 66 77 74 78 67 79 73 80 68 81 69 82 70 83 71 84 72 85 51 86
REMARK SMILES IDX 52 87 60 88 53 89 59 90 54 91 55 92 56 93 57 94 58 95
REMARK H PARENT 16 8 23 32 79 51 49 62
REMARK Flexibility Score: inf
ROOT
ATOM      1  C   UNL A   1      31.694  29.186  25.882  1.00  0.00     0.002 C 
ENDROOT
BRANCH   1   2
ATOM      2  C   UNL A   1      32.180  28.886  24.452  1.00  0.00     0.002 C 
BRANCH   2   3
ATOM      3  C   UNL A   1      33.690  28.753  24.226  1.00  0.00     0.021 C 
BRANCH   3   4
ATOM      4  C   UNL A   1      34.077  28.269  22.827  1.00  0.00     0.116 C 
BRANCH   4   5
ATOM      5  N   UNL A   1      32.998  27.733  22.015  1.00  0.00    -0.351 N 
ATOM      6  C   UNL A   1      32.216  26.597  21.972  1.00  0.00     0.273 C 
ATOM      7  O   UNL A   1      31.108  26.837  21.470  1.00  0.00    -0.267 OA
ATOM      8  H   UNL A   1      32.757  28.357  21.293  1.00  0.00     0.163 HD
BRANCH   6   9
ATOM      9  C   UNL A   1      32.530  25.195  22.370  1.00  0.00     0.174 A 
ATOM     10  N   UNL A   1      33.067  23.194  23.127  1.00  0.00    -0.216 N 
ATOM     11  N   UNL A   1      33.471  23.253  21.853  1.00  0.00    -0.061 NA
ATOM     12  C   UNL A   1      32.488  24.394  23.533  1.00  0.00     0.083 A 
ATOM     13  N   UNL A   1      33.101  24.421  21.366  1.00  0.00    -0.124 NA
BRANCH  10  14
ATOM     14  C   UNL A   1      33.368  22.068  23.908  1.00  0.00     0.074 A 
ATOM     15  C   UNL A   1      35.130  20.763  24.892  1.00  0.00     0.124 A 
ATOM     16  C   UNL A   1      34.347  19.620  24.685  1.00  0.00     0.093 A 
ATOM     17  C   UNL A   1      34.619  22.008  24.536  1.00  0.00     0.075 A 
ATOM     18  C   UNL A   1      33.057  19.700  24.137  1.00  0.00     0.124 A 
ATOM     19  C   UNL A   1      32.550  20.940  23.764  1.00  0.00     0.075 A 
BRANCH  15  20
ATOM     20  O   UNL A   1      36.411  20.517  25.306  1.00  0.00    -0.497 OA
ATOM     21  C   UNL A   1      37.289  21.629  25.432  1.00  0.00     0.278 C 
ENDBRANCH  15  20
BRANCH  18  22
ATOM     22  O   UNL A   1      32.443  18.494  23.949  1.00  0.00    -0.497 OA
ATOM     23  C   UNL A   1      32.389  17.989  22.616  1.00  0.00     0.278 C 
ENDBRANCH  18  22
ENDBRANCH  10  14
BRANCH  12  24
ATOM     24  C   UNL A   1      32.040  24.720  24.946  1.00  0.00     0.007 C 
ATOM     25  C   UNL A   1      33.299  25.310  25.624  1.00  0.00     0.017 C 
ATOM     26  C   UNL A   1      30.707  25.497  24.779  1.00  0.00     0.017 C 
ATOM     27  C   UNL A   1      31.653  23.657  25.993  1.00  0.00     0.017 C 
ENDBRANCH  12  24
ENDBRANCH   6   9
ENDBRANCH   4   5
ENDBRANCH   3   4
ENDBRANCH   2   3
ENDBRANCH   1   2
BRANCH   1  28
ATOM     28  C   UNL A   1      32.396  28.488  27.053  1.00  0.00     0.021 C 
BRANCH  28  29
ATOM     29  C   UNL A   1      33.584  29.238  27.626  1.00  0.00     0.116 C 
BRANCH  29  30
ATOM     30  N   UNL A   1      33.428  30.692  27.582  1.00  0.00    -0.352 N 
ATOM     31  C   UNL A   1      34.318  31.678  27.981  1.00  0.00     0.251 C 
ATOM     32  H   UNL A   1      32.573  31.016  27.217  1.00  0.00     0.163 HD
ATOM     33  O   UNL A   1      33.933  32.817  28.182  1.00  0.00    -0.269 OA
BRANCH  31  34
ATOM     34  C   UNL A   1      35.740  31.321  28.156  1.00  0.00     0.039 A 
ATOM     35  C   UNL A   1      36.644  32.160  28.812  1.00  0.00     0.014 A 
ATOM     36  C   UNL A   1      36.158  30.096  27.652  1.00  0.00     0.014 A 
ATOM     37  C   UNL A   1      37.950  31.712  29.011  1.00  0.00     0.010 A 
ATOM     38  C   UNL A   1      37.355  29.569  28.041  1.00  0.00     0.010 A 
ATOM     39  C   UNL A   1      38.288  30.403  28.632  1.00  0.00    -0.014 A 
BRANCH  39  40
ATOM     40  C   UNL A   1      39.592  29.824  28.917  1.00  0.00     0.031 A 
ATOM     41  C   UNL A   1      39.878  29.666  30.363  1.00  0.00     0.074 A 
ATOM     42  C   UNL A   1      40.361  29.251  27.962  1.00  0.00     0.049 A 
ATOM     43  N   UNL A   1      40.691  30.368  31.076  1.00  0.00    -0.248 NA
ATOM     44  C   UNL A   1      39.039  28.744  31.148  1.00  0.00     0.031 C 
ATOM     45  C   UNL A   1      40.059  29.042  26.539  1.00  0.00     0.029 A 
ATOM     46  N   UNL A   1      41.547  28.610  28.102  1.00  0.00    -0.354 N 
ATOM     47  C   UNL A   1      40.658  29.807  32.346  1.00  0.00     0.074 A 
ATOM     48  C   UNL A   1      39.480  28.978  32.386  1.00  0.00     0.031 C 
ATOM     49  C   UNL A   1      40.907  28.122  26.023  1.00  0.00     0.029 A 
ATOM     50  C   UNL A   1      41.918  27.818  27.018  1.00  0.00     0.049 A 
ATOM     51  H   UNL A   1      42.106  28.698  28.908  1.00  0.00     0.167 HD
ATOM     52  C   UNL A   1      41.749  29.846  33.162  1.00  0.00     0.031 A 
ATOM     53  C   UNL A   1      42.969  26.961  26.964  1.00  0.00     0.031 A 
ATOM     54  C   UNL A   1      42.752  30.753  32.659  1.00  0.00     0.049 A 
ATOM     55  C   UNL A   1      43.915  27.386  28.027  1.00  0.00     0.074 A 
ATOM     56  C   UNL A   1      42.776  32.100  32.349  1.00  0.00     0.029 A 
ATOM     57  N   UNL A   1      43.818  30.193  31.990  1.00  0.00    -0.354 N 
ATOM     58  N   UNL A   1      44.543  28.529  28.004  1.00  0.00    -0.248 NA
ATOM     59  C   UNL A   1      43.787  26.771  29.339  1.00  0.00     0.031 C 
ATOM     60  C   UNL A   1      43.530  32.181  31.140  1.00  0.00     0.029 A 
ATOM     61  C   UNL A   1      43.999  30.903  30.831  1.00  0.00     0.049 A 
ATOM     62  H   UNL A   1      44.353  29.423  32.291  1.00  0.00     0.167 HD
ATOM     63  C   UNL A   1      44.489  28.988  29.312  1.00  0.00     0.074 A 
ATOM     64  C   UNL A   1      44.096  27.823  30.105  1.00  0.00     0.031 C 
ATOM     65  C   UNL A   1      44.485  30.327  29.593  1.00  0.00     0.031 A 
BRANCH  52  66
ATOM     66  C   UNL A   1      42.089  28.765  34.159  1.00  0.00    -0.014 A 
ATOM     67  C   UNL A   1      42.722  27.596  33.692  1.00  0.00     0.010 A 
ATOM     68  C   UNL A   1      41.570  28.733  35.469  1.00  0.00     0.010 A 
ATOM     69  C   UNL A   1      42.766  26.433  34.472  1.00  0.00     0.020 A 
ATOM     70  C   UNL A   1      41.647  27.594  36.272  1.00  0.00     0.020 A 
ATOM     71  C   UNL A   1      42.215  26.439  35.753  1.00  0.00     0.054 A 
BRANCH  71  72
ATOM     72  S   UNL A   1      42.188  24.906  36.712  1.00  0.00     0.124 S 
ATOM     73  O   UNL A   1      41.801  23.928  35.701  1.00  0.00    -0.237 OA
ATOM     74  O   UNL A   1      43.565  24.818  37.188  1.00  0.00    -0.237 OA
ATOM     75  O   UNL A   1      41.191  25.168  37.747  1.00  0.00    -0.744 OA
ENDBRANCH  71  72
ENDBRANCH  52  66
BRANCH  53  76
ATOM     76  C   UNL A   1      43.067  25.636  26.296  1.00  0.00    -0.014 A 
ATOM     77  C   UNL A   1      43.995  25.420  25.258  1.00  0.00     0.010 A 
ATOM     78  C   UNL A   1      42.476  24.502  26.888  1.00  0.00     0.010 A 
ATOM     79  C   UNL A   1      44.383  24.119  24.886  1.00  0.00     0.020 A 
ATOM     80  C   UNL A   1      42.853  23.203  26.520  1.00  0.00     0.020 A 
ATOM     81  C   UNL A   1      43.829  23.017  25.543  1.00  0.00     0.054 A 
BRANCH  81  82
ATOM     82  S   UNL A   1      44.494  21.354  25.221  1.00  0.00     0.124 S 
ATOM     83  O   UNL A   1      43.575  20.501  25.969  1.00  0.00    -0.237 OA
ATOM     84  O   UNL A   1      44.410  21.253  23.768  1.00  0.00    -0.237 OA
ATOM     85  O   UNL A   1      45.854  21.422  25.755  1.00  0.00    -0.744 OA
ENDBRANCH  81  82
ENDBRANCH  53  76
BRANCH  65  86
ATOM     86  C   UNL A   1      44.807  31.300  28.478  1.00  0.00    -0.014 A 
ATOM     87  C   UNL A   1      44.021  31.469  27.320  1.00  0.00     0.010 A 
ATOM     88  C   UNL A   1      45.880  32.183  28.690  1.00  0.00     0.010 A 
ATOM     89  C   UNL A   1      44.325  32.475  26.386  1.00  0.00     0.020 A 
ATOM     90  C   UNL A   1      46.176  33.195  27.774  1.00  0.00     0.020 A 
ATOM     91  C   UNL A   1      45.406  33.331  26.620  1.00  0.00     0.054 A 
BRANCH  91  92
ATOM     92  S   UNL A   1      45.787  34.644  25.427  1.00  0.00     0.124 S 
ATOM     93  O   UNL A   1      44.954  34.285  24.282  1.00  0.00    -0.237 OA
ATOM     94  O   UNL A   1      45.388  35.856  26.139  1.00  0.00    -0.237 OA
ATOM     95  O   UNL A   1      47.227  34.511  25.209  1.00  0.00    -0.744 OA
ENDBRANCH  91  92
ENDBRANCH  65  86
ENDBRANCH  39  40
ENDBRANCH  31  34
ENDBRANCH  29  30
ENDBRANCH  28  29
ENDBRANCH   1  28
TORSDOF 20
ENDMDL
MODEL 3
REMARK VINA RESULT:     -11.5      1.497      2.353
REMARK SMILES COc1cc(OC)cc(-n2nnc(C(=O)NCCCCCCNC(=O)c3ccc(-c4c5nc(c(-c6ccc(S(=O)(=O)[O-])cc6)c6ccc([nH]6)c(-c6ccc(S(=O)(=O)[O-])cc6)c6nc(c(-c7ccc(S(=O)(=O)[O-])cc7)c7ccc4[nH]7)C=C6)C=C5)cc3)c2C(C)(C)C)c1
REMARK SMILES IDX 20 1 19 2 18 3 17 4 16 5 14 6 15 7 13 9 10 10 11 11 86 12
REMARK SMILES IDX 12 13 9 14 3 15 4 16 91 17 5 18 8 19 2 20 1 21 6 22 7 23
REMARK SMILES IDX 87 24 88 25 89 26 90 27 21 28 22 29 23 30 24 31 25 33 26 34
REMARK SMILES IDX 27 35 85 36 28 37 84 38 29 39 30 40 31 41 78 42 32 43 83 44
REMARK SMILES IDX 77 45 79 46 33 47 82 48 76 49 75 50 34 52 64 53 45 54 63 55
REMARK SMILES IDX 46 56 49 57 62 58 80 59 47 60 48 61 61 63 81 64 50 65 35 66
REMARK SMILES IDX 36 67 44 68 37 69 43 70 38 71 39 72 40 73 41 74 42 75 65 76
REMARK SMILES IDX 66 77 74 78 67 79 73 80 68 81 69 82 70 83 71 84 72 85 51 86
REMARK SMILES IDX 52 87 60 88 53 89 59 90 54 91 55 92 56 93 57 94 58 95
REMARK H PARENT 16 8 23 32 79 51 49 62
REMARK Flexibility Score: inf
ROOT
ATOM      1  C   UNL A   1      35.650  21.289  25.894  1.00  0.00     0.002 C 
ENDROOT
BRANCH   1   2
ATOM      2  C   UNL A   1      35.029  20.590  24.670  1.00  0.00     0.002 C 
BRANCH   2   3
ATOM      3  C   UNL A   1      33.644  19.957  24.838  1.00  0.00     0.021 C 
BRANCH   3   4
ATOM      4  C   UNL A   1      32.514  20.964  25.065  1.00  0.00     0.116 C 
BRANCH   4   5
ATOM      5  N   UNL A   1      32.564  21.709  26.310  1.00  0.00    -0.351 N 
ATOM      6  C   UNL A   1      31.981  22.837  26.853  1.00  0.00     0.273 C 
ATOM      7  O   UNL A   1      31.916  22.754  28.089  1.00  0.00    -0.267 OA
ATOM      8  H   UNL A   1      33.188  21.292  26.947  1.00  0.00     0.163 HD
BRANCH   6   9
ATOM      9  C   UNL A   1      31.505  24.086  26.196  1.00  0.00     0.174 A 
ATOM     10  N   UNL A   1      30.980  26.008  25.248  1.00  0.00    -0.216 N 
ATOM     11  N   UNL A   1      29.993  25.709  26.099  1.00  0.00    -0.061 NA
ATOM     12  C   UNL A   1      31.985  25.044  25.275  1.00  0.00     0.083 A 
ATOM     13  N   UNL A   1      30.260  24.531  26.628  1.00  0.00    -0.124 NA
BRANCH  10  14
ATOM     14  C   UNL A   1      30.974  27.237  24.570  1.00  0.00     0.074 A 
ATOM     15  C   UNL A   1      31.053  29.626  24.813  1.00  0.00     0.124 A 
ATOM     16  C   UNL A   1      30.214  29.729  23.697  1.00  0.00     0.093 A 
ATOM     17  C   UNL A   1      31.472  28.366  25.232  1.00  0.00     0.075 A 
ATOM     18  C   UNL A   1      29.793  28.595  22.984  1.00  0.00     0.124 A 
ATOM     19  C   UNL A   1      30.194  27.334  23.410  1.00  0.00     0.075 A 
BRANCH  15  20
ATOM     20  O   UNL A   1      31.269  30.799  25.483  1.00  0.00    -0.497 OA
ATOM     21  C   UNL A   1      32.321  30.831  26.439  1.00  0.00     0.278 C 
ENDBRANCH  15  20
BRANCH  18  22
ATOM     22  O   UNL A   1      28.936  28.857  21.953  1.00  0.00    -0.497 OA
ATOM     23  C   UNL A   1      28.636  30.226  21.684  1.00  0.00     0.278 C 
ENDBRANCH  18  22
ENDBRANCH  10  14
BRANCH  12  24
ATOM     24  C   UNL A   1      33.307  25.132  24.535  1.00  0.00     0.007 C 
ATOM     25  C   UNL A   1      34.352  25.411  25.641  1.00  0.00     0.017 C 
ATOM     26  C   UNL A   1      33.339  23.882  23.614  1.00  0.00     0.017 C 
ATOM     27  C   UNL A   1      33.667  26.257  23.545  1.00  0.00     0.017 C 
ENDBRANCH  12  24
ENDBRANCH   6   9
ENDBRANCH   4   5
ENDBRANCH   3   4
ENDBRANCH   2   3
ENDBRANCH   1   2
BRANCH   1  28
ATOM     28  C   UNL A   1      36.381  22.621  25.680  1.00  0.00     0.021 C 
BRANCH  28  29
ATOM     29  C   UNL A   1      37.837  22.494  25.271  1.00  0.00     0.116 C 
BRANCH  29  30
ATOM     30  N   UNL A   1      38.604  21.590  26.128  1.00  0.00    -0.352 N 
ATOM     31  C   UNL A   1      39.708  21.865  26.920  1.00  0.00     0.251 C 
ATOM     32  H   UNL A   1      38.292  20.656  26.145  1.00  0.00     0.163 HD
ATOM     33  O   UNL A   1      40.425  20.965  27.319  1.00  0.00    -0.269 OA
BRANCH  31  34
ATOM     34  C   UNL A   1      39.995  23.271  27.271  1.00  0.00     0.039 A 
ATOM     35  C   UNL A   1      39.024  24.273  27.187  1.00  0.00     0.014 A 
ATOM     36  C   UNL A   1      41.279  23.571  27.708  1.00  0.00     0.014 A 
ATOM     37  C   UNL A   1      39.351  25.558  27.619  1.00  0.00     0.010 A 
ATOM     38  C   UNL A   1      41.527  24.758  28.335  1.00  0.00     0.010 A 
ATOM     39  C   UNL A   1      40.606  25.784  28.206  1.00  0.00    -0.014 A 
BRANCH  39  40
ATOM     40  C   UNL A   1      40.972  27.065  28.789  1.00  0.00     0.031 A 
ATOM     41  C   UNL A   1      42.137  27.711  28.139  1.00  0.00     0.074 A 
ATOM     42  C   UNL A   1      40.177  27.724  29.663  1.00  0.00     0.049 A 
ATOM     43  N   UNL A   1      43.331  27.823  28.615  1.00  0.00    -0.248 NA
ATOM     44  C   UNL A   1      42.016  28.124  26.730  1.00  0.00     0.031 C 
ATOM     45  C   UNL A   1      38.838  27.358  30.148  1.00  0.00     0.029 A 
ATOM     46  N   UNL A   1      40.357  28.949  30.215  1.00  0.00    -0.354 N 
ATOM     47  C   UNL A   1      44.047  28.549  27.671  1.00  0.00     0.074 A 
ATOM     48  C   UNL A   1      43.267  28.506  26.460  1.00  0.00     0.031 C 
ATOM     49  C   UNL A   1      38.244  28.437  30.705  1.00  0.00     0.029 A 
ATOM     50  C   UNL A   1      39.217  29.510  30.784  1.00  0.00     0.049 A 
ATOM     51  H   UNL A   1      41.230  29.407  30.216  1.00  0.00     0.167 HD
ATOM     52  C   UNL A   1      45.078  29.359  28.041  1.00  0.00     0.031 A 
ATOM     53  C   UNL A   1      39.089  30.776  31.260  1.00  0.00     0.031 A 
ATOM     54  C   UNL A   1      45.469  29.125  29.409  1.00  0.00     0.049 A 
ATOM     55  C   UNL A   1      40.464  31.264  31.534  1.00  0.00     0.074 A 
ATOM     56  C   UNL A   1      45.913  28.024  30.118  1.00  0.00     0.029 A 
ATOM     57  N   UNL A   1      45.007  30.018  30.351  1.00  0.00    -0.354 N 
ATOM     58  N   UNL A   1      41.233  30.746  32.451  1.00  0.00    -0.248 NA
ATOM     59  C   UNL A   1      41.154  31.987  30.476  1.00  0.00     0.031 C 
ATOM     60  C   UNL A   1      45.242  28.106  31.375  1.00  0.00     0.029 A 
ATOM     61  C   UNL A   1      44.505  29.291  31.400  1.00  0.00     0.049 A 
ATOM     62  H   UNL A   1      45.034  31.000  30.283  1.00  0.00     0.167 HD
ATOM     63  C   UNL A   1      42.489  30.682  31.864  1.00  0.00     0.074 A 
ATOM     64  C   UNL A   1      42.399  31.545  30.686  1.00  0.00     0.031 C 
ATOM     65  C   UNL A   1      43.389  29.716  32.221  1.00  0.00     0.031 A 
BRANCH  52  66
ATOM     66  C   UNL A   1      45.436  30.638  27.324  1.00  0.00    -0.014 A 
ATOM     67  C   UNL A   1      46.798  30.929  27.107  1.00  0.00     0.010 A 
ATOM     68  C   UNL A   1      44.515  31.683  27.103  1.00  0.00     0.010 A 
ATOM     69  C   UNL A   1      47.219  32.219  26.761  1.00  0.00     0.020 A 
ATOM     70  C   UNL A   1      44.920  32.961  26.715  1.00  0.00     0.020 A 
ATOM     71  C   UNL A   1      46.274  33.229  26.580  1.00  0.00     0.054 A 
BRANCH  71  72
ATOM     72  S   UNL A   1      46.835  34.913  26.230  1.00  0.00     0.124 S 
ATOM     73  O   UNL A   1      45.570  35.630  26.111  1.00  0.00    -0.237 OA
ATOM     74  O   UNL A   1      47.632  35.222  27.414  1.00  0.00    -0.237 OA
ATOM     75  O   UNL A   1      47.595  34.769  24.992  1.00  0.00    -0.744 OA
ENDBRANCH  71  72
ENDBRANCH  52  66
BRANCH  53  76
ATOM     76  C   UNL A   1      37.919  31.690  31.192  1.00  0.00    -0.014 A 
ATOM     77  C   UNL A   1      38.066  33.014  30.731  1.00  0.00     0.010 A 
ATOM     78  C   UNL A   1      36.611  31.171  31.277  1.00  0.00     0.010 A 
ATOM     79  C   UNL A   1      36.956  33.758  30.289  1.00  0.00     0.020 A 
ATOM     80  C   UNL A   1      35.500  31.908  30.843  1.00  0.00     0.020 A 
ATOM     81  C   UNL A   1      35.681  33.187  30.321  1.00  0.00     0.054 A 
BRANCH  81  82
ATOM     82  S   UNL A   1      34.287  34.060  29.542  1.00  0.00     0.124 S 
ATOM     83  O   UNL A   1      33.528  34.530  30.698  1.00  0.00    -0.237 OA
ATOM     84  O   UNL A   1      34.956  35.095  28.761  1.00  0.00    -0.237 OA
ATOM     85  O   UNL A   1      33.632  33.019  28.750  1.00  0.00    -0.744 OA
ENDBRANCH  81  82
ENDBRANCH  53  76
BRANCH  65  86
ATOM     86  C   UNL A   1      43.102  28.880  33.451  1.00  0.00    -0.014 A 
ATOM     87  C   UNL A   1      43.241  29.343  34.776  1.00  0.00     0.010 A 
ATOM     88  C   UNL A   1      42.527  27.614  33.244  1.00  0.00     0.010 A 
ATOM     89  C   UNL A   1      42.844  28.543  35.861  1.00  0.00     0.020 A 
ATOM     90  C   UNL A   1      42.115  26.823  34.318  1.00  0.00     0.020 A 
ATOM     91  C   UNL A   1      42.285  27.284  35.623  1.00  0.00     0.054 A 
BRANCH  91  92
ATOM     92  S   UNL A   1      41.751  26.258  37.022  1.00  0.00     0.124 S 
ATOM     93  O   UNL A   1      42.903  26.319  37.919  1.00  0.00    -0.237 OA
ATOM     94  O   UNL A   1      40.552  26.947  37.492  1.00  0.00    -0.237 OA
ATOM     95  O   UNL A   1      41.506  24.947  36.421  1.00  0.00    -0.744 OA
ENDBRANCH  91  92
ENDBRANCH  65  86
ENDBRANCH  39  40
ENDBRANCH  31  34
ENDBRANCH  29  30
ENDBRANCH  28  29
ENDBRANCH   1  28
TORSDOF 20
ENDMDL
