MODEL 1
REMARK VINA RESULT:     -11.1      0.000      0.000
REMARK SMILES O=C(NCCCCCCNC(=O)c1ccc(-c2c3nc(c(-c4ccc(S(=O)(=O)[O-])cc4)c4ccc([nH]4)c(-c4ccc(S(=O)(=O)[O-])cc4)c4nc(c(-c5ccc(S(=O)(=O)[O-])cc5)c5ccc2[nH]5)C=C4)C=C3)cc1)C1=Cc2cc(Cl)c(Cl)c(Cl)c2O[C@@H]1C(F)(F)F
REMARK SMILES IDX 7 1 6 2 5 3 4 4 3 5 1 6 2 7 73 9 74 10 85 11 75 12 84 13
REMARK SMILES IDX 76 14 83 15 77 16 81 17 78 18 79 19 82 20 80 21 86 22 87 23
REMARK SMILES IDX 88 24 89 25 8 26 9 27 10 28 11 29 12 31 13 32 14 33 72 34
REMARK SMILES IDX 15 35 71 36 16 37 17 38 18 39 65 40 19 41 70 42 64 43 66 44
REMARK SMILES IDX 20 45 69 46 63 47 62 48 21 50 51 51 32 52 50 53 33 54 36 55
REMARK SMILES IDX 49 56 67 57 34 58 35 59 48 61 68 62 37 63 22 64 23 65 31 66
REMARK SMILES IDX 24 67 30 68 25 69 26 70 27 71 28 72 29 73 52 74 53 75 61 76
REMARK SMILES IDX 54 77 60 78 55 79 56 80 57 81 58 82 59 83 38 84 39 85 47 86
REMARK SMILES IDX 40 87 46 88 41 89 42 90 43 91 44 92 45 93
REMARK H PARENT 3 8 10 30 66 49 36 60
REMARK Flexibility Score: inf
ROOT
ATOM      1  C   UNL A   1      31.997  27.748  26.716  1.00  0.00     0.002 C 
ENDROOT
BRANCH   1   2
ATOM      2  C   UNL A   1      31.387  26.796  25.679  1.00  0.00     0.002 C 
BRANCH   2   3
ATOM      3  C   UNL A   1      30.200  25.944  26.135  1.00  0.00     0.021 C 
BRANCH   3   4
ATOM      4  C   UNL A   1      30.300  24.445  25.845  1.00  0.00     0.116 C 
BRANCH   4   5
ATOM      5  N   UNL A   1      30.936  23.658  26.901  1.00  0.00    -0.352 N 
ATOM      6  O   UNL A   1      32.645  22.601  27.958  1.00  0.00    -0.270 OA
ATOM      7  C   UNL A   1      32.180  23.061  26.925  1.00  0.00     0.251 C 
ATOM      8  H   UNL A   1      30.398  23.536  27.717  1.00  0.00     0.163 HD
BRANCH   7   9
ATOM      9  C   UNL A   1      33.000  23.122  25.694  1.00  0.00     0.067 C 
ATOM     10  C   UNL A   1      33.929  24.072  25.519  1.00  0.00     0.025 C 
ATOM     11  C   UNL A   1      32.975  21.913  24.811  1.00  0.00     0.314 C 
ATOM     12  C   UNL A   1      35.251  23.474  25.231  1.00  0.00     0.020 A 
ATOM     13  O   UNL A   1      34.274  21.288  24.742  1.00  0.00    -0.474 OA
ATOM     14  C   UNL A   1      36.383  24.196  25.627  1.00  0.00     0.034 A 
ATOM     15  C   UNL A   1      35.370  22.089  24.989  1.00  0.00     0.148 A 
ATOM     16  C   UNL A   1      37.599  23.537  25.847  1.00  0.00     0.062 A 
ATOM     17  C   UNL A   1      36.604  21.436  25.169  1.00  0.00     0.103 A 
ATOM     18  Cl  UNL A   1      38.884  24.483  26.518  1.00  0.00    -0.083 Cl
ATOM     19  C   UNL A   1      37.719  22.156  25.628  1.00  0.00     0.082 A 
ATOM     20  Cl  UNL A   1      36.672  19.712  24.955  1.00  0.00    -0.079 Cl
ATOM     21  Cl  UNL A   1      39.199  21.336  26.014  1.00  0.00    -0.081 Cl
BRANCH  11  22
ATOM     22  C   UNL A   1      32.453  22.259  23.403  1.00  0.00     0.429 C 
ATOM     23  F   UNL A   1      31.481  23.201  23.458  1.00  0.00    -0.167 F 
ATOM     24  F   UNL A   1      33.433  22.753  22.608  1.00  0.00    -0.167 F 
ATOM     25  F   UNL A   1      31.930  21.182  22.768  1.00  0.00    -0.167 F 
ENDBRANCH  11  22
ENDBRANCH   7   9
ENDBRANCH   4   5
ENDBRANCH   3   4
ENDBRANCH   2   3
ENDBRANCH   1   2
BRANCH   1  26
ATOM     26  C   UNL A   1      33.525  27.846  26.764  1.00  0.00     0.021 C 
BRANCH  26  27
ATOM     27  C   UNL A   1      34.161  28.997  25.986  1.00  0.00     0.116 C 
BRANCH  27  28
ATOM     28  N   UNL A   1      33.733  30.302  26.456  1.00  0.00    -0.352 N 
ATOM     29  C   UNL A   1      34.229  31.093  27.466  1.00  0.00     0.251 C 
ATOM     30  H   UNL A   1      32.962  30.682  25.975  1.00  0.00     0.163 HD
ATOM     31  O   UNL A   1      33.618  32.109  27.780  1.00  0.00    -0.269 OA
BRANCH  29  32
ATOM     32  C   UNL A   1      35.474  30.731  28.187  1.00  0.00     0.039 A 
ATOM     33  C   UNL A   1      36.629  31.481  27.935  1.00  0.00     0.014 A 
ATOM     34  C   UNL A   1      35.538  29.636  29.054  1.00  0.00     0.014 A 
ATOM     35  C   UNL A   1      37.828  31.164  28.582  1.00  0.00     0.010 A 
ATOM     36  C   UNL A   1      36.720  29.357  29.743  1.00  0.00     0.010 A 
ATOM     37  C   UNL A   1      37.880  30.111  29.509  1.00  0.00    -0.014 A 
BRANCH  37  38
ATOM     38  C   UNL A   1      39.138  29.792  30.234  1.00  0.00     0.031 A 
ATOM     39  C   UNL A   1      40.056  28.707  29.734  1.00  0.00     0.074 A 
ATOM     40  C   UNL A   1      39.437  30.448  31.373  1.00  0.00     0.049 A 
ATOM     41  N   UNL A   1      41.178  28.272  30.249  1.00  0.00    -0.248 NA
ATOM     42  C   UNL A   1      39.649  28.007  28.504  1.00  0.00     0.031 C 
ATOM     43  C   UNL A   1      38.623  31.502  31.981  1.00  0.00     0.029 A 
ATOM     44  N   UNL A   1      40.509  30.325  32.224  1.00  0.00    -0.354 N 
ATOM     45  C   UNL A   1      41.599  27.237  29.422  1.00  0.00     0.074 A 
ATOM     46  C   UNL A   1      40.595  27.085  28.393  1.00  0.00     0.031 C 
ATOM     47  C   UNL A   1      39.237  31.949  33.089  1.00  0.00     0.029 A 
ATOM     48  C   UNL A   1      40.467  31.190  33.293  1.00  0.00     0.049 A 
ATOM     49  H   UNL A   1      41.238  29.679  32.082  1.00  0.00     0.167 HD
ATOM     50  C   UNL A   1      42.727  26.487  29.506  1.00  0.00     0.031 A 
ATOM     51  C   UNL A   1      41.318  31.353  34.324  1.00  0.00     0.031 A 
ATOM     52  C   UNL A   1      43.733  26.648  30.523  1.00  0.00     0.049 A 
ATOM     53  C   UNL A   1      42.555  30.500  34.401  1.00  0.00     0.074 A 
ATOM     54  C   UNL A   1      44.940  25.982  30.650  1.00  0.00     0.029 A 
ATOM     55  N   UNL A   1      43.648  27.529  31.590  1.00  0.00    -0.354 N 
ATOM     56  N   UNL A   1      42.970  29.573  33.571  1.00  0.00    -0.248 NA
ATOM     57  C   UNL A   1      43.443  30.723  35.550  1.00  0.00     0.031 C 
ATOM     58  C   UNL A   1      45.561  26.423  31.824  1.00  0.00     0.029 A 
ATOM     59  C   UNL A   1      44.767  27.402  32.397  1.00  0.00     0.049 A 
ATOM     60  H   UNL A   1      42.902  28.151  31.751  1.00  0.00     0.167 HD
ATOM     61  C   UNL A   1      44.182  29.122  34.084  1.00  0.00     0.074 A 
ATOM     62  C   UNL A   1      44.437  29.884  35.290  1.00  0.00     0.031 C 
ATOM     63  C   UNL A   1      45.009  28.165  33.597  1.00  0.00     0.031 A 
BRANCH  50  64
ATOM     64  C   UNL A   1      42.920  25.406  28.474  1.00  0.00    -0.014 A 
ATOM     65  C   UNL A   1      42.498  24.085  28.712  1.00  0.00     0.010 A 
ATOM     66  C   UNL A   1      43.502  25.724  27.234  1.00  0.00     0.010 A 
ATOM     67  C   UNL A   1      42.701  23.093  27.748  1.00  0.00     0.020 A 
ATOM     68  C   UNL A   1      43.681  24.741  26.255  1.00  0.00     0.020 A 
ATOM     69  C   UNL A   1      43.298  23.426  26.528  1.00  0.00     0.054 A 
BRANCH  69  70
ATOM     70  S   UNL A   1      43.544  22.122  25.293  1.00  0.00     0.124 S 
ATOM     71  O   UNL A   1      42.440  21.213  25.592  1.00  0.00    -0.237 OA
ATOM     72  O   UNL A   1      43.433  22.849  24.031  1.00  0.00    -0.237 OA
ATOM     73  O   UNL A   1      44.876  21.603  25.595  1.00  0.00    -0.744 OA
ENDBRANCH  69  70
ENDBRANCH  50  64
BRANCH  51  74
ATOM     74  C   UNL A   1      41.042  32.388  35.356  1.00  0.00    -0.014 A 
ATOM     75  C   UNL A   1      41.551  33.689  35.210  1.00  0.00     0.010 A 
ATOM     76  C   UNL A   1      40.254  32.083  36.482  1.00  0.00     0.010 A 
ATOM     77  C   UNL A   1      41.288  34.666  36.175  1.00  0.00     0.020 A 
ATOM     78  C   UNL A   1      39.968  33.065  37.436  1.00  0.00     0.020 A 
ATOM     79  C   UNL A   1      40.495  34.348  37.280  1.00  0.00     0.054 A 
BRANCH  79  80
ATOM     80  S   UNL A   1      40.119  35.648  38.490  1.00  0.00     0.124 S 
ATOM     81  O   UNL A   1      39.015  35.056  39.238  1.00  0.00    -0.237 OA
ATOM     82  O   UNL A   1      41.380  35.776  39.218  1.00  0.00    -0.237 OA
ATOM     83  O   UNL A   1      39.770  36.796  37.658  1.00  0.00    -0.744 OA
ENDBRANCH  79  80
ENDBRANCH  51  74
BRANCH  63  84
ATOM     84  C   UNL A   1      46.288  27.904  34.348  1.00  0.00    -0.014 A 
ATOM     85  C   UNL A   1      46.359  26.922  35.350  1.00  0.00     0.010 A 
ATOM     86  C   UNL A   1      47.449  28.622  34.008  1.00  0.00     0.010 A 
ATOM     87  C   UNL A   1      47.562  26.681  36.020  1.00  0.00     0.020 A 
ATOM     88  C   UNL A   1      48.660  28.365  34.656  1.00  0.00     0.020 A 
ATOM     89  C   UNL A   1      48.705  27.405  35.669  1.00  0.00     0.054 A 
BRANCH  89  90
ATOM     90  S   UNL A   1      50.266  27.043  36.520  1.00  0.00     0.124 S 
ATOM     91  O   UNL A   1      50.009  25.716  37.073  1.00  0.00    -0.237 OA
ATOM     92  O   UNL A   1      51.243  27.093  35.435  1.00  0.00    -0.237 OA
ATOM     93  O   UNL A   1      50.382  28.117  37.503  1.00  0.00    -0.744 OA
ENDBRANCH  89  90
ENDBRANCH  63  84
ENDBRANCH  37  38
ENDBRANCH  29  32
ENDBRANCH  27  28
ENDBRANCH  26  27
ENDBRANCH   1  26
TORSDOF 17
ENDMDL
MODEL 2
REMARK VINA RESULT:     -11.1      0.498      8.106
REMARK SMILES O=C(NCCCCCCNC(=O)c1ccc(-c2c3nc(c(-c4ccc(S(=O)(=O)[O-])cc4)c4ccc([nH]4)c(-c4ccc(S(=O)(=O)[O-])cc4)c4nc(c(-c5ccc(S(=O)(=O)[O-])cc5)c5ccc2[nH]5)C=C4)C=C3)cc1)C1=Cc2cc(Cl)c(Cl)c(Cl)c2O[C@@H]1C(F)(F)F
REMARK SMILES IDX 7 1 6 2 5 3 4 4 3 5 1 6 2 7 73 9 74 10 85 11 75 12 84 13
REMARK SMILES IDX 76 14 83 15 77 16 81 17 78 18 79 19 82 20 80 21 86 22 87 23
REMARK SMILES IDX 88 24 89 25 8 26 9 27 10 28 11 29 12 31 13 32 14 33 72 34
REMARK SMILES IDX 15 35 71 36 16 37 17 38 18 39 65 40 19 41 70 42 64 43 66 44
REMARK SMILES IDX 20 45 69 46 63 47 62 48 21 50 51 51 32 52 50 53 33 54 36 55
REMARK SMILES IDX 49 56 67 57 34 58 35 59 48 61 68 62 37 63 22 64 23 65 31 66
REMARK SMILES IDX 24 67 30 68 25 69 26 70 27 71 28 72 29 73 52 74 53 75 61 76
REMARK SMILES IDX 54 77 60 78 55 79 56 80 57 81 58 82 59 83 38 84 39 85 47 86
REMARK SMILES IDX 40 87 46 88 41 89 42 90 43 91 44 92 45 93
REMARK H PARENT 3 8 10 30 66 49 36 60
REMARK Flexibility Score: inf
ROOT
ATOM      1  C   UNL A   1      32.886  27.266  24.545  1.00  0.00     0.002 C 
ENDROOT
BRANCH   1   2
ATOM      2  C   UNL A   1      31.413  27.164  24.966  1.00  0.00     0.002 C 
BRANCH   2   3
ATOM      3  C   UNL A   1      31.101  26.297  26.188  1.00  0.00     0.021 C 
BRANCH   3   4
ATOM      4  C   UNL A   1      30.723  24.843  25.901  1.00  0.00     0.116 C 
BRANCH   4   5
ATOM      5  N   UNL A   1      31.210  23.878  26.886  1.00  0.00    -0.352 N 
ATOM      6  O   UNL A   1      32.711  22.473  27.849  1.00  0.00    -0.270 OA
ATOM      7  C   UNL A   1      32.341  23.087  26.859  1.00  0.00     0.251 C 
ATOM      8  H   UNL A   1      30.648  23.778  27.689  1.00  0.00     0.163 HD
BRANCH   7   9
ATOM      9  C   UNL A   1      33.176  23.116  25.637  1.00  0.00     0.067 C 
ATOM     10  C   UNL A   1      34.129  24.042  25.464  1.00  0.00     0.025 C 
ATOM     11  C   UNL A   1      33.131  21.900  24.764  1.00  0.00     0.314 C 
ATOM     12  C   UNL A   1      35.439  23.410  25.196  1.00  0.00     0.020 A 
ATOM     13  O   UNL A   1      34.416  21.243  24.717  1.00  0.00    -0.474 OA
ATOM     14  C   UNL A   1      36.584  24.108  25.599  1.00  0.00     0.034 A 
ATOM     15  C   UNL A   1      35.527  22.020  24.968  1.00  0.00     0.148 A 
ATOM     16  C   UNL A   1      37.781  23.422  25.839  1.00  0.00     0.062 A 
ATOM     17  C   UNL A   1      36.743  21.340  25.169  1.00  0.00     0.103 A 
ATOM     18  Cl  UNL A   1      39.081  24.343  26.516  1.00  0.00    -0.083 Cl
ATOM     19  C   UNL A   1      37.870  22.036  25.634  1.00  0.00     0.082 A 
ATOM     20  Cl  UNL A   1      36.772  19.612  24.971  1.00  0.00    -0.079 Cl
ATOM     21  Cl  UNL A   1      39.326  21.185  26.045  1.00  0.00    -0.081 Cl
BRANCH  11  22
ATOM     22  C   UNL A   1      32.634  22.246  23.348  1.00  0.00     0.429 C 
ATOM     23  F   UNL A   1      32.138  21.152  22.721  1.00  0.00    -0.167 F 
ATOM     24  F   UNL A   1      31.641  23.167  23.372  1.00  0.00    -0.167 F 
ATOM     25  F   UNL A   1      33.619  22.743  22.562  1.00  0.00    -0.167 F 
ENDBRANCH  11  22
ENDBRANCH   7   9
ENDBRANCH   4   5
ENDBRANCH   3   4
ENDBRANCH   2   3
ENDBRANCH   1   2
BRANCH   1  26
ATOM     26  C   UNL A   1      33.564  28.632  24.692  1.00  0.00     0.021 C 
BRANCH  26  27
ATOM     27  C   UNL A   1      34.089  28.988  26.082  1.00  0.00     0.116 C 
BRANCH  27  28
ATOM     28  N   UNL A   1      33.724  30.331  26.498  1.00  0.00    -0.352 N 
ATOM     29  C   UNL A   1      34.282  31.151  27.450  1.00  0.00     0.251 C 
ATOM     30  H   UNL A   1      32.954  30.716  26.021  1.00  0.00     0.163 HD
ATOM     31  O   UNL A   1      33.720  32.205  27.729  1.00  0.00    -0.269 OA
BRANCH  29  32
ATOM     32  C   UNL A   1      35.536  30.778  28.151  1.00  0.00     0.039 A 
ATOM     33  C   UNL A   1      35.504  29.694  29.036  1.00  0.00     0.014 A 
ATOM     34  C   UNL A   1      36.716  31.511  27.999  1.00  0.00     0.014 A 
ATOM     35  C   UNL A   1      36.659  29.319  29.729  1.00  0.00     0.010 A 
ATOM     36  C   UNL A   1      37.883  31.100  28.647  1.00  0.00     0.010 A 
ATOM     37  C   UNL A   1      37.866  30.005  29.526  1.00  0.00    -0.014 A 
BRANCH  37  38
ATOM     38  C   UNL A   1      39.111  29.589  30.225  1.00  0.00     0.031 A 
ATOM     39  C   UNL A   1      39.545  30.281  31.490  1.00  0.00     0.074 A 
ATOM     40  C   UNL A   1      39.878  28.614  29.698  1.00  0.00     0.049 A 
ATOM     41  N   UNL A   1      40.611  30.073  32.221  1.00  0.00    -0.248 NA
ATOM     42  C   UNL A   1      38.677  31.360  31.990  1.00  0.00     0.031 C 
ATOM     43  C   UNL A   1      39.586  27.881  28.465  1.00  0.00     0.029 A 
ATOM     44  N   UNL A   1      41.064  28.073  30.132  1.00  0.00    -0.354 N 
ATOM     45  C   UNL A   1      40.555  31.006  33.250  1.00  0.00     0.074 A 
ATOM     46  C   UNL A   1      39.369  31.803  33.030  1.00  0.00     0.031 C 
ATOM     47  C   UNL A   1      40.549  26.968  28.257  1.00  0.00     0.029 A 
ATOM     48  C   UNL A   1      41.546  27.075  29.319  1.00  0.00     0.049 A 
ATOM     49  H   UNL A   1      41.525  28.372  30.949  1.00  0.00     0.167 HD
ATOM     50  C   UNL A   1      41.408  31.175  34.291  1.00  0.00     0.031 A 
ATOM     51  C   UNL A   1      42.665  26.330  29.412  1.00  0.00     0.031 A 
ATOM     52  C   UNL A   1      42.581  30.372  34.517  1.00  0.00     0.049 A 
ATOM     53  C   UNL A   1      43.601  26.547  30.569  1.00  0.00     0.074 A 
ATOM     54  C   UNL A   1      43.467  30.425  35.580  1.00  0.00     0.029 A 
ATOM     55  N   UNL A   1      43.037  29.377  33.666  1.00  0.00    -0.354 N 
ATOM     56  N   UNL A   1      43.494  27.388  31.569  1.00  0.00    -0.248 NA
ATOM     57  C   UNL A   1      44.806  25.706  30.613  1.00  0.00     0.031 C 
ATOM     58  C   UNL A   1      44.488  29.498  35.343  1.00  0.00     0.029 A 
ATOM     59  C   UNL A   1      44.208  28.830  34.163  1.00  0.00     0.049 A 
ATOM     60  H   UNL A   1      42.594  29.102  32.830  1.00  0.00     0.167 HD
ATOM     61  C   UNL A   1      44.603  27.158  32.376  1.00  0.00     0.074 A 
ATOM     62  C   UNL A   1      45.362  26.093  31.753  1.00  0.00     0.031 C 
ATOM     63  C   UNL A   1      44.957  27.772  33.532  1.00  0.00     0.031 A 
BRANCH  50  64
ATOM     64  C   UNL A   1      41.110  32.293  35.258  1.00  0.00    -0.014 A 
ATOM     65  C   UNL A   1      41.637  33.584  35.068  1.00  0.00     0.010 A 
ATOM     66  C   UNL A   1      40.262  32.055  36.355  1.00  0.00     0.010 A 
ATOM     67  C   UNL A   1      41.361  34.602  35.985  1.00  0.00     0.020 A 
ATOM     68  C   UNL A   1      39.961  33.079  37.259  1.00  0.00     0.020 A 
ATOM     69  C   UNL A   1      40.530  34.341  37.078  1.00  0.00     0.054 A 
BRANCH  69  70
ATOM     70  S   UNL A   1      40.184  35.681  38.250  1.00  0.00     0.124 S 
ATOM     71  O   UNL A   1      39.751  36.755  37.358  1.00  0.00    -0.237 OA
ATOM     72  O   UNL A   1      39.139  35.109  39.095  1.00  0.00    -0.237 OA
ATOM     73  O   UNL A   1      41.467  35.903  38.914  1.00  0.00    -0.744 OA
ENDBRANCH  69  70
ENDBRANCH  50  64
BRANCH  51  74
ATOM     74  C   UNL A   1      42.948  25.288  28.388  1.00  0.00    -0.014 A 
ATOM     75  C   UNL A   1      42.437  23.987  28.540  1.00  0.00     0.010 A 
ATOM     76  C   UNL A   1      43.714  25.594  27.248  1.00  0.00     0.010 A 
ATOM     77  C   UNL A   1      42.696  23.007  27.577  1.00  0.00     0.020 A 
ATOM     78  C   UNL A   1      43.953  24.623  26.270  1.00  0.00     0.020 A 
ATOM     79  C   UNL A   1      43.450  23.333  26.447  1.00  0.00     0.054 A 
BRANCH  79  80
ATOM     80  S   UNL A   1      43.724  22.060  25.182  1.00  0.00     0.124 S 
ATOM     81  O   UNL A   1      43.443  22.791  23.950  1.00  0.00    -0.237 OA
ATOM     82  O   UNL A   1      45.123  21.696  25.398  1.00  0.00    -0.237 OA
ATOM     83  O   UNL A   1      42.758  21.021  25.530  1.00  0.00    -0.744 OA
ENDBRANCH  79  80
ENDBRANCH  51  74
BRANCH  63  84
ATOM     84  C   UNL A   1      46.207  27.288  34.220  1.00  0.00    -0.014 A 
ATOM     85  C   UNL A   1      46.145  26.386  35.296  1.00  0.00     0.010 A 
ATOM     86  C   UNL A   1      47.464  27.707  33.747  1.00  0.00     0.010 A 
ATOM     87  C   UNL A   1      47.318  25.933  35.906  1.00  0.00     0.020 A 
ATOM     88  C   UNL A   1      48.639  27.235  34.337  1.00  0.00     0.020 A 
ATOM     89  C   UNL A   1      48.558  26.361  35.423  1.00  0.00     0.054 A 
BRANCH  89  90
ATOM     90  S   UNL A   1      50.068  25.723  36.201  1.00  0.00     0.124 S 
ATOM     91  O   UNL A   1      51.107  26.234  35.312  1.00  0.00    -0.237 OA
ATOM     92  O   UNL A   1      50.025  26.328  37.530  1.00  0.00    -0.237 OA
ATOM     93  O   UNL A   1      49.884  24.274  36.177  1.00  0.00    -0.744 OA
ENDBRANCH  89  90
ENDBRANCH  63  84
ENDBRANCH  37  38
ENDBRANCH  29  32
ENDBRANCH  27  28
ENDBRANCH  26  27
ENDBRANCH   1  26
TORSDOF 17
ENDMDL
MODEL 3
REMARK VINA RESULT:     -11.1      3.891      7.875
REMARK SMILES O=C(NCCCCCCNC(=O)c1ccc(-c2c3nc(c(-c4ccc(S(=O)(=O)[O-])cc4)c4ccc([nH]4)c(-c4ccc(S(=O)(=O)[O-])cc4)c4nc(c(-c5ccc(S(=O)(=O)[O-])cc5)c5ccc2[nH]5)C=C4)C=C3)cc1)C1=Cc2cc(Cl)c(Cl)c(Cl)c2O[C@@H]1C(F)(F)F
REMARK SMILES IDX 7 1 6 2 5 3 4 4 3 5 1 6 2 7 73 9 74 10 85 11 75 12 84 13
REMARK SMILES IDX 76 14 83 15 77 16 81 17 78 18 79 19 82 20 80 21 86 22 87 23
REMARK SMILES IDX 88 24 89 25 8 26 9 27 10 28 11 29 12 31 13 32 14 33 72 34
REMARK SMILES IDX 15 35 71 36 16 37 17 38 18 39 65 40 19 41 70 42 64 43 66 44
REMARK SMILES IDX 20 45 69 46 63 47 62 48 21 50 51 51 32 52 50 53 33 54 36 55
REMARK SMILES IDX 49 56 67 57 34 58 35 59 48 61 68 62 37 63 22 64 23 65 31 66
REMARK SMILES IDX 24 67 30 68 25 69 26 70 27 71 28 72 29 73 52 74 53 75 61 76
REMARK SMILES IDX 54 77 60 78 55 79 56 80 57 81 58 82 59 83 38 84 39 85 47 86
REMARK SMILES IDX 40 87 46 88 41 89 42 90 43 91 44 92 45 93
REMARK H PARENT 3 8 10 30 66 49 36 60
REMARK Flexibility Score: inf
ROOT
ATOM      1  C   UNL A   1      34.741  22.339  24.226  1.00  0.00     0.002 C 
ENDROOT
BRANCH   1   2
ATOM      2  C   UNL A   1      33.353  22.551  23.608  1.00  0.00     0.002 C 
BRANCH   2   3
ATOM      3  C   UNL A   1      32.156  22.503  24.561  1.00  0.00     0.021 C 
BRANCH   3   4
ATOM      4  C   UNL A   1      32.324  23.244  25.888  1.00  0.00     0.116 C 
BRANCH   4   5
ATOM      5  N   UNL A   1      31.107  23.881  26.393  1.00  0.00    -0.352 N 
ATOM      6  O   UNL A   1      29.426  25.406  26.430  1.00  0.00    -0.270 OA
ATOM      7  C   UNL A   1      30.552  25.100  26.063  1.00  0.00     0.251 C 
ATOM      8  H   UNL A   1      30.610  23.363  27.067  1.00  0.00     0.163 HD
BRANCH   7   9
ATOM      9  C   UNL A   1      31.301  25.972  25.130  1.00  0.00     0.067 C 
ATOM     10  C   UNL A   1      30.855  26.213  23.889  1.00  0.00     0.025 C 
ATOM     11  C   UNL A   1      32.386  26.815  25.723  1.00  0.00     0.314 C 
ATOM     12  C   UNL A   1      30.730  27.666  23.643  1.00  0.00     0.020 A 
ATOM     13  O   UNL A   1      32.083  28.221  25.602  1.00  0.00    -0.474 OA
ATOM     14  C   UNL A   1      29.755  28.083  22.731  1.00  0.00     0.034 A 
ATOM     15  C   UNL A   1      31.235  28.594  24.581  1.00  0.00     0.148 A 
ATOM     16  C   UNL A   1      29.237  29.383  22.794  1.00  0.00     0.062 A 
ATOM     17  C   UNL A   1      30.744  29.913  24.614  1.00  0.00     0.103 A 
ATOM     18  Cl  UNL A   1      27.903  29.739  21.751  1.00  0.00    -0.083 Cl
ATOM     19  C   UNL A   1      29.719  30.304  23.738  1.00  0.00     0.082 A 
ATOM     20  Cl  UNL A   1      31.326  30.986  25.853  1.00  0.00    -0.079 Cl
ATOM     21  Cl  UNL A   1      28.989  31.872  23.878  1.00  0.00    -0.081 Cl
BRANCH  11  22
ATOM     22  C   UNL A   1      33.755  26.489  25.096  1.00  0.00     0.429 C 
ATOM     23  F   UNL A   1      34.430  27.618  24.775  1.00  0.00    -0.167 F 
ATOM     24  F   UNL A   1      34.545  25.787  25.943  1.00  0.00    -0.167 F 
ATOM     25  F   UNL A   1      33.640  25.757  23.961  1.00  0.00    -0.167 F 
ENDBRANCH  11  22
ENDBRANCH   7   9
ENDBRANCH   4   5
ENDBRANCH   3   4
ENDBRANCH   2   3
ENDBRANCH   1   2
BRANCH   1  26
ATOM     26  C   UNL A   1      35.835  23.346  23.854  1.00  0.00     0.021 C 
BRANCH  26  27
ATOM     27  C   UNL A   1      36.795  23.754  24.971  1.00  0.00     0.116 C 
BRANCH  27  28
ATOM     28  N   UNL A   1      37.753  22.714  25.302  1.00  0.00    -0.352 N 
ATOM     29  C   UNL A   1      38.938  22.782  25.995  1.00  0.00     0.251 C 
ATOM     30  H   UNL A   1      37.514  21.815  24.977  1.00  0.00     0.163 HD
ATOM     31  O   UNL A   1      39.659  21.790  26.037  1.00  0.00    -0.269 OA
BRANCH  29  32
ATOM     32  C   UNL A   1      39.365  24.031  26.673  1.00  0.00     0.039 A 
ATOM     33  C   UNL A   1      38.945  24.247  27.991  1.00  0.00     0.014 A 
ATOM     34  C   UNL A   1      40.114  25.012  26.017  1.00  0.00     0.014 A 
ATOM     35  C   UNL A   1      39.312  25.418  28.661  1.00  0.00     0.010 A 
ATOM     36  C   UNL A   1      40.528  26.154  26.707  1.00  0.00     0.010 A 
ATOM     37  C   UNL A   1      40.125  26.374  28.033  1.00  0.00    -0.014 A 
BRANCH  37  38
ATOM     38  C   UNL A   1      40.556  27.603  28.751  1.00  0.00     0.031 A 
ATOM     39  C   UNL A   1      41.921  27.680  29.384  1.00  0.00     0.074 A 
ATOM     40  C   UNL A   1      39.702  28.639  28.872  1.00  0.00     0.049 A 
ATOM     41  N   UNL A   1      42.457  28.656  30.071  1.00  0.00    -0.248 NA
ATOM     42  C   UNL A   1      42.787  26.499  29.242  1.00  0.00     0.031 C 
ATOM     43  C   UNL A   1      38.343  28.684  28.329  1.00  0.00     0.029 A 
ATOM     44  N   UNL A   1      39.851  29.855  29.494  1.00  0.00    -0.354 N 
ATOM     45  C   UNL A   1      43.712  28.201  30.462  1.00  0.00     0.074 A 
ATOM     46  C   UNL A   1      43.841  26.849  29.965  1.00  0.00     0.031 C 
ATOM     47  C   UNL A   1      37.794  29.876  28.615  1.00  0.00     0.029 A 
ATOM     48  C   UNL A   1      38.744  30.665  29.395  1.00  0.00     0.049 A 
ATOM     49  H   UNL A   1      40.672  30.121  29.967  1.00  0.00     0.167 HD
ATOM     50  C   UNL A   1      44.673  28.854  31.161  1.00  0.00     0.031 A 
ATOM     51  C   UNL A   1      38.514  31.901  29.878  1.00  0.00     0.031 A 
ATOM     52  C   UNL A   1      44.549  30.205  31.643  1.00  0.00     0.049 A 
ATOM     53  C   UNL A   1      39.592  32.599  30.661  1.00  0.00     0.074 A 
ATOM     54  C   UNL A   1      45.495  30.973  32.300  1.00  0.00     0.029 A 
ATOM     55  N   UNL A   1      43.410  30.986  31.527  1.00  0.00    -0.354 N 
ATOM     56  N   UNL A   1      40.798  32.177  30.961  1.00  0.00    -0.248 NA
ATOM     57  C   UNL A   1      39.281  33.944  31.164  1.00  0.00     0.031 C 
ATOM     58  C   UNL A   1      44.908  32.200  32.630  1.00  0.00     0.029 A 
ATOM     59  C   UNL A   1      43.618  32.217  32.129  1.00  0.00     0.049 A 
ATOM     60  H   UNL A   1      42.575  30.707  31.085  1.00  0.00     0.167 HD
ATOM     61  C   UNL A   1      41.398  33.217  31.664  1.00  0.00     0.074 A 
ATOM     62  C   UNL A   1      40.427  34.290  31.736  1.00  0.00     0.031 C 
ATOM     63  C   UNL A   1      42.643  33.277  32.197  1.00  0.00     0.031 A 
BRANCH  50  64
ATOM     64  C   UNL A   1      45.944  28.101  31.464  1.00  0.00    -0.014 A 
ATOM     65  C   UNL A   1      46.094  27.373  32.659  1.00  0.00     0.010 A 
ATOM     66  C   UNL A   1      46.989  28.095  30.524  1.00  0.00     0.010 A 
ATOM     67  C   UNL A   1      47.286  26.695  32.928  1.00  0.00     0.020 A 
ATOM     68  C   UNL A   1      48.173  27.393  30.777  1.00  0.00     0.020 A 
ATOM     69  C   UNL A   1      48.320  26.715  31.988  1.00  0.00     0.054 A 
BRANCH  69  70
ATOM     70  S   UNL A   1      49.854  25.821  32.360  1.00  0.00     0.124 S 
ATOM     71  O   UNL A   1      50.235  25.317  31.043  1.00  0.00    -0.237 OA
ATOM     72  O   UNL A   1      50.714  26.869  32.903  1.00  0.00    -0.237 OA
ATOM     73  O   UNL A   1      49.438  24.801  33.321  1.00  0.00    -0.744 OA
ENDBRANCH  69  70
ENDBRANCH  50  64
BRANCH  51  74
ATOM     74  C   UNL A   1      37.213  32.572  29.610  1.00  0.00    -0.014 A 
ATOM     75  C   UNL A   1      36.181  32.522  30.562  1.00  0.00     0.010 A 
ATOM     76  C   UNL A   1      37.007  33.280  28.411  1.00  0.00     0.010 A 
ATOM     77  C   UNL A   1      34.960  33.157  30.316  1.00  0.00     0.020 A 
ATOM     78  C   UNL A   1      35.796  33.937  28.173  1.00  0.00     0.020 A 
ATOM     79  C   UNL A   1      34.777  33.863  29.124  1.00  0.00     0.054 A 
BRANCH  79  80
ATOM     80  S   UNL A   1      33.204  34.728  28.853  1.00  0.00     0.124 S 
ATOM     81  O   UNL A   1      32.625  34.733  30.193  1.00  0.00    -0.237 OA
ATOM     82  O   UNL A   1      33.641  36.027  28.347  1.00  0.00    -0.237 OA
ATOM     83  O   UNL A   1      32.516  33.887  27.876  1.00  0.00    -0.744 OA
ENDBRANCH  79  80
ENDBRANCH  51  74
BRANCH  63  84
ATOM     84  C   UNL A   1      43.044  34.557  32.881  1.00  0.00    -0.014 A 
ATOM     85  C   UNL A   1      42.753  34.782  34.238  1.00  0.00     0.010 A 
ATOM     86  C   UNL A   1      43.768  35.528  32.165  1.00  0.00     0.010 A 
ATOM     87  C   UNL A   1      43.154  35.967  34.859  1.00  0.00     0.020 A 
ATOM     88  C   UNL A   1      44.194  36.702  32.790  1.00  0.00     0.020 A 
ATOM     89  C   UNL A   1      43.872  36.921  34.130  1.00  0.00     0.054 A 
BRANCH  89  90
ATOM     90  S   UNL A   1      44.422  38.432  34.971  1.00  0.00     0.124 S 
ATOM     91  O   UNL A   1      44.102  38.138  36.364  1.00  0.00    -0.237 OA
ATOM     92  O   UNL A   1      45.847  38.478  34.650  1.00  0.00    -0.237 OA
ATOM     93  O   UNL A   1      43.618  39.484  34.354  1.00  0.00    -0.744 OA
ENDBRANCH  89  90
ENDBRANCH  63  84
ENDBRANCH  37  38
ENDBRANCH  29  32
ENDBRANCH  27  28
ENDBRANCH  26  27
ENDBRANCH   1  26
TORSDOF 17
ENDMDL
