MODEL 1
REMARK VINA RESULT:      -8.3      0.000      0.000
REMARK SMILES C[C@@H]1CCC[C@H](C)[N@H+]1Cc1cc2c(cc1Cl)C=C(C(=O)NCCCCCCNC(=O)c1ccc(-c3c4nc(c(-c5ccc(S(=O)(=O)[O-])cc5)c5ccc([nH]5)c(-c5ccc(S(=O)(=O)[O-])cc5)c5nc(c(-c6ccc(S(=O)(=O)[O-])cc6)c6ccc3[nH]6)C=C5)C=C4)cc1)[C@@H](C(F)(F)F)O2
REMARK SMILES IDX 25 1 24 2 23 3 22 4 21 5 19 6 20 7 18 9 10 10 11 11 15 12
REMARK SMILES IDX 12 13 14 14 16 15 13 16 96 17 17 18 91 19 9 20 8 21 7 22
REMARK SMILES IDX 6 23 5 24 4 25 2 26 3 28 1 29 92 30 93 31 94 32 95 33 26 34
REMARK SMILES IDX 27 35 28 36 29 37 30 39 31 40 32 41 90 42 33 43 89 44 34 45
REMARK SMILES IDX 35 46 36 47 83 48 37 49 88 50 82 51 84 52 38 53 87 54 81 55
REMARK SMILES IDX 80 56 39 58 69 59 50 60 68 61 51 62 54 63 67 64 85 65 52 66
REMARK SMILES IDX 53 67 66 69 86 70 55 71 40 72 41 73 49 74 42 75 48 76 43 77
REMARK SMILES IDX 44 78 45 79 46 80 47 81 70 82 71 83 79 84 72 85 78 86 73 87
REMARK SMILES IDX 74 88 75 89 76 90 77 91 56 92 57 93 65 94 58 95 64 96 59 97
REMARK SMILES IDX 60 98 61 99 62 100 63 101
REMARK H PARENT 21 8 8 27 28 38 84 57 54 68
REMARK Flexibility Score: inf
ROOT
ATOM      1  C   UNL A   1      44.787  24.258  32.128  1.00  0.00     0.002 C 
ENDROOT
BRANCH   1   2
ATOM      2  C   UNL A   1      43.772  24.313  30.979  1.00  0.00     0.002 C 
BRANCH   2   3
ATOM      3  C   UNL A   1      43.649  23.034  30.146  1.00  0.00     0.021 C 
BRANCH   3   4
ATOM      4  C   UNL A   1      43.846  23.243  28.647  1.00  0.00     0.116 C 
BRANCH   4   5
ATOM      5  N   UNL A   1      42.606  23.037  27.919  1.00  0.00    -0.352 N 
ATOM      6  C   UNL A   1      41.549  23.788  27.540  1.00  0.00     0.251 C 
ATOM      7  O   UNL A   1      40.706  23.198  26.856  1.00  0.00    -0.270 OA
ATOM      8  H   UNL A   1      42.511  22.103  27.623  1.00  0.00     0.163 HD
BRANCH   6   9
ATOM      9  C   UNL A   1      41.333  25.219  27.896  1.00  0.00     0.067 C 
ATOM     10  C   UNL A   1      39.949  29.366  30.419  1.00  0.00     0.029 A 
ATOM     11  C   UNL A   1      41.065  29.010  29.643  1.00  0.00     0.058 A 
ATOM     12  C   UNL A   1      38.848  28.490  30.428  1.00  0.00     0.050 A 
ATOM     13  C   UNL A   1      41.137  27.759  29.039  1.00  0.00     0.128 A 
ATOM     14  C   UNL A   1      38.944  27.216  29.855  1.00  0.00     0.033 A 
ATOM     15  Cl  UNL A   1      37.332  28.901  31.150  1.00  0.00    -0.084 Cl
ATOM     16  C   UNL A   1      40.110  26.831  29.201  1.00  0.00     0.019 A 
ATOM     17  O   UNL A   1      42.282  27.465  28.354  1.00  0.00    -0.475 OA
ATOM     18  C   UNL A   1      40.321  25.461  28.749  1.00  0.00     0.025 C 
ATOM     19  C   UNL A   1      42.158  26.374  27.397  1.00  0.00     0.314 C 
BRANCH  10  20
ATOM     20  C   UNL A   1      40.030  30.621  31.265  1.00  0.00     0.301 C 
BRANCH  20  21
ATOM     21  N   UNL A   1      38.957  31.624  31.061  1.00  0.00    -0.327 N 
ATOM     22  C   UNL A   1      37.656  32.523  29.160  1.00  0.00     0.075 C 
ATOM     23  C   UNL A   1      39.043  32.397  29.811  1.00  0.00     0.181 C 
ATOM     24  C   UNL A   1      39.690  33.787  29.952  1.00  0.00     0.065 C 
ATOM     25  C   UNL A   1      39.185  34.573  31.155  1.00  0.00     0.012 C 
ATOM     26  C   UNL A   1      38.565  32.364  32.269  1.00  0.00     0.181 C 
ATOM     27  H   UNL A   1      38.129  31.056  30.882  1.00  0.00     0.348 HD
ATOM     28  C   UNL A   1      39.255  33.729  32.420  1.00  0.00     0.065 C 
ATOM     29  C   UNL A   1      37.041  32.505  32.366  1.00  0.00     0.075 C 
ENDBRANCH  20  21
ENDBRANCH  10  20
BRANCH  19  30
ATOM     30  C   UNL A   1      41.636  26.903  26.044  1.00  0.00     0.429 C 
ATOM     31  F   UNL A   1      40.404  26.410  25.779  1.00  0.00    -0.167 F 
ATOM     32  F   UNL A   1      41.523  28.254  26.038  1.00  0.00    -0.167 F 
ATOM     33  F   UNL A   1      42.441  26.576  25.008  1.00  0.00    -0.167 F 
ENDBRANCH  19  30
ENDBRANCH   6   9
ENDBRANCH   4   5
ENDBRANCH   3   4
ENDBRANCH   2   3
ENDBRANCH   1   2
BRANCH   1  34
ATOM     34  C   UNL A   1      44.732  23.000  32.997  1.00  0.00     0.021 C 
BRANCH  34  35
ATOM     35  C   UNL A   1      43.506  22.895  33.896  1.00  0.00     0.116 C 
BRANCH  35  36
ATOM     36  N   UNL A   1      43.846  22.939  35.309  1.00  0.00    -0.352 N 
ATOM     37  C   UNL A   1      44.170  24.027  36.084  1.00  0.00     0.251 C 
ATOM     38  H   UNL A   1      43.843  22.072  35.775  1.00  0.00     0.163 HD
ATOM     39  O   UNL A   1      44.584  23.873  37.229  1.00  0.00    -0.269 OA
BRANCH  37  40
ATOM     40  C   UNL A   1      44.047  25.383  35.509  1.00  0.00     0.039 A 
ATOM     41  C   UNL A   1      42.808  25.850  35.061  1.00  0.00     0.014 A 
ATOM     42  C   UNL A   1      45.191  26.172  35.372  1.00  0.00     0.014 A 
ATOM     43  C   UNL A   1      42.744  27.030  34.331  1.00  0.00     0.010 A 
ATOM     44  C   UNL A   1      45.107  27.399  34.709  1.00  0.00     0.010 A 
ATOM     45  C   UNL A   1      43.894  27.815  34.139  1.00  0.00    -0.014 A 
BRANCH  45  46
ATOM     46  C   UNL A   1      43.802  29.066  33.343  1.00  0.00     0.031 A 
ATOM     47  C   UNL A   1      43.340  30.351  33.977  1.00  0.00     0.074 A 
ATOM     48  C   UNL A   1      44.190  29.051  32.054  1.00  0.00     0.049 A 
ATOM     49  N   UNL A   1      43.229  31.537  33.435  1.00  0.00    -0.248 NA
ATOM     50  C   UNL A   1      42.952  30.304  35.396  1.00  0.00     0.031 C 
ATOM     51  C   UNL A   1      44.678  27.869  31.339  1.00  0.00     0.029 A 
ATOM     52  N   UNL A   1      44.266  30.057  31.124  1.00  0.00    -0.354 N 
ATOM     53  C   UNL A   1      42.746  32.370  34.437  1.00  0.00     0.074 A 
ATOM     54  C   UNL A   1      42.556  31.551  35.614  1.00  0.00     0.031 C 
ATOM     55  C   UNL A   1      45.059  28.229  30.106  1.00  0.00     0.029 A 
ATOM     56  C   UNL A   1      44.778  29.649  29.915  1.00  0.00     0.049 A 
ATOM     57  H   UNL A   1      43.981  30.981  31.305  1.00  0.00     0.167 HD
ATOM     58  C   UNL A   1      42.494  33.700  34.381  1.00  0.00     0.031 A 
ATOM     59  C   UNL A   1      44.992  30.331  28.772  1.00  0.00     0.031 A 
ATOM     60  C   UNL A   1      42.699  34.511  33.209  1.00  0.00     0.049 A 
ATOM     61  C   UNL A   1      44.661  31.793  28.719  1.00  0.00     0.074 A 
ATOM     62  C   UNL A   1      42.497  35.873  33.067  1.00  0.00     0.029 A 
ATOM     63  N   UNL A   1      43.148  34.043  31.984  1.00  0.00    -0.354 N 
ATOM     64  N   UNL A   1      44.211  32.564  29.679  1.00  0.00    -0.248 NA
ATOM     65  C   UNL A   1      44.857  32.478  27.435  1.00  0.00     0.031 C 
ATOM     66  C   UNL A   1      42.765  36.217  31.740  1.00  0.00     0.029 A 
ATOM     67  C   UNL A   1      43.200  35.083  31.071  1.00  0.00     0.049 A 
ATOM     68  H   UNL A   1      43.396  33.109  31.792  1.00  0.00     0.167 HD
ATOM     69  C   UNL A   1      44.070  33.827  29.117  1.00  0.00     0.074 A 
ATOM     70  C   UNL A   1      44.506  33.722  27.739  1.00  0.00     0.031 C 
ATOM     71  C   UNL A   1      43.618  34.966  29.695  1.00  0.00     0.031 A 
BRANCH  58  72
ATOM     72  C   UNL A   1      41.957  34.378  35.616  1.00  0.00    -0.014 A 
ATOM     73  C   UNL A   1      40.566  34.461  35.817  1.00  0.00     0.010 A 
ATOM     74  C   UNL A   1      42.817  35.025  36.521  1.00  0.00     0.010 A 
ATOM     75  C   UNL A   1      40.044  35.195  36.884  1.00  0.00     0.020 A 
ATOM     76  C   UNL A   1      42.298  35.740  37.606  1.00  0.00     0.020 A 
ATOM     77  C   UNL A   1      40.914  35.837  37.768  1.00  0.00     0.054 A 
BRANCH  77  78
ATOM     78  S   UNL A   1      40.219  36.792  39.147  1.00  0.00     0.124 S 
ATOM     79  O   UNL A   1      38.988  37.318  38.568  1.00  0.00    -0.237 OA
ATOM     80  O   UNL A   1      40.048  35.778  40.185  1.00  0.00    -0.237 OA
ATOM     81  O   UNL A   1      41.255  37.784  39.428  1.00  0.00    -0.744 OA
ENDBRANCH  77  78
ENDBRANCH  58  72
BRANCH  59  82
ATOM     82  C   UNL A   1      45.570  29.607  27.607  1.00  0.00    -0.014 A 
ATOM     83  C   UNL A   1      44.727  28.928  26.706  1.00  0.00     0.010 A 
ATOM     84  C   UNL A   1      46.962  29.480  27.472  1.00  0.00     0.010 A 
ATOM     85  C   UNL A   1      45.263  28.071  25.743  1.00  0.00     0.020 A 
ATOM     86  C   UNL A   1      47.503  28.646  26.487  1.00  0.00     0.020 A 
ATOM     87  C   UNL A   1      46.648  27.918  25.656  1.00  0.00     0.054 A 
BRANCH  87  88
ATOM     88  S   UNL A   1      47.320  26.728  24.463  1.00  0.00     0.124 S 
ATOM     89  O   UNL A   1      47.185  27.460  23.206  1.00  0.00    -0.237 OA
ATOM     90  O   UNL A   1      48.687  26.536  24.935  1.00  0.00    -0.237 OA
ATOM     91  O   UNL A   1      46.443  25.569  24.607  1.00  0.00    -0.744 OA
ENDBRANCH  87  88
ENDBRANCH  59  82
BRANCH  71  92
ATOM     92  C   UNL A   1      43.541  36.208  28.849  1.00  0.00    -0.014 A 
ATOM     93  C   UNL A   1      44.603  37.131  28.862  1.00  0.00     0.010 A 
ATOM     94  C   UNL A   1      42.362  36.529  28.153  1.00  0.00     0.010 A 
ATOM     95  C   UNL A   1      44.474  38.371  28.232  1.00  0.00     0.020 A 
ATOM     96  C   UNL A   1      42.239  37.757  27.498  1.00  0.00     0.020 A 
ATOM     97  C   UNL A   1      43.285  38.681  27.565  1.00  0.00     0.054 A 
BRANCH  97  98
ATOM     98  S   UNL A   1      43.117  40.312  26.788  1.00  0.00     0.124 S 
ATOM     99  O   UNL A   1      44.131  40.257  25.740  1.00  0.00    -0.237 OA
ATOM    100  O   UNL A   1      41.732  40.305  26.324  1.00  0.00    -0.237 OA
ATOM    101  O   UNL A   1      43.395  41.242  27.880  1.00  0.00    -0.744 OA
ENDBRANCH  97  98
ENDBRANCH  71  92
ENDBRANCH  45  46
ENDBRANCH  37  40
ENDBRANCH  35  36
ENDBRANCH  34  35
ENDBRANCH   1  34
TORSDOF 19
ENDMDL
MODEL 2
REMARK VINA RESULT:      -7.9      5.242      9.596
REMARK SMILES C[C@@H]1CCC[C@H](C)[N@H+]1Cc1cc2c(cc1Cl)C=C(C(=O)NCCCCCCNC(=O)c1ccc(-c3c4nc(c(-c5ccc(S(=O)(=O)[O-])cc5)c5ccc([nH]5)c(-c5ccc(S(=O)(=O)[O-])cc5)c5nc(c(-c6ccc(S(=O)(=O)[O-])cc6)c6ccc3[nH]6)C=C5)C=C4)cc1)[C@@H](C(F)(F)F)O2
REMARK SMILES IDX 25 1 24 2 23 3 22 4 21 5 19 6 20 7 18 9 10 10 11 11 15 12
REMARK SMILES IDX 12 13 14 14 16 15 13 16 96 17 17 18 91 19 9 20 8 21 7 22
REMARK SMILES IDX 6 23 5 24 4 25 2 26 3 28 1 29 92 30 93 31 94 32 95 33 26 34
REMARK SMILES IDX 27 35 28 36 29 37 30 39 31 40 32 41 90 42 33 43 89 44 34 45
REMARK SMILES IDX 35 46 36 47 83 48 37 49 88 50 82 51 84 52 38 53 87 54 81 55
REMARK SMILES IDX 80 56 39 58 69 59 50 60 68 61 51 62 54 63 67 64 85 65 52 66
REMARK SMILES IDX 53 67 66 69 86 70 55 71 40 72 41 73 49 74 42 75 48 76 43 77
REMARK SMILES IDX 44 78 45 79 46 80 47 81 70 82 71 83 79 84 72 85 78 86 73 87
REMARK SMILES IDX 74 88 75 89 76 90 77 91 56 92 57 93 65 94 58 95 64 96 59 97
REMARK SMILES IDX 60 98 61 99 62 100 63 101
REMARK H PARENT 21 8 8 27 28 38 84 57 54 68
REMARK Flexibility Score: inf
ROOT
ATOM      1  C   UNL A   1      41.270  20.958  26.197  1.00  0.00     0.002 C 
ENDROOT
BRANCH   1   2
ATOM      2  C   UNL A   1      40.634  19.671  25.653  1.00  0.00     0.002 C 
BRANCH   2   3
ATOM      3  C   UNL A   1      39.141  19.500  25.947  1.00  0.00     0.021 C 
BRANCH   3   4
ATOM      4  C   UNL A   1      38.223  20.099  24.884  1.00  0.00     0.116 C 
BRANCH   4   5
ATOM      5  N   UNL A   1      36.960  19.386  24.817  1.00  0.00    -0.352 N 
ATOM      6  C   UNL A   1      35.646  19.702  24.849  1.00  0.00     0.251 C 
ATOM      7  O   UNL A   1      34.875  18.749  24.695  1.00  0.00    -0.270 OA
ATOM      8  H   UNL A   1      37.096  18.416  24.723  1.00  0.00     0.163 HD
BRANCH   6   9
ATOM      9  C   UNL A   1      35.091  21.067  25.067  1.00  0.00     0.067 C 
ATOM     10  C   UNL A   1      31.819  24.879  25.571  1.00  0.00     0.029 A 
ATOM     11  C   UNL A   1      33.009  24.507  26.220  1.00  0.00     0.058 A 
ATOM     12  C   UNL A   1      31.460  24.176  24.406  1.00  0.00     0.050 A 
ATOM     13  C   UNL A   1      33.714  23.380  25.814  1.00  0.00     0.128 A 
ATOM     14  C   UNL A   1      32.149  23.017  24.028  1.00  0.00     0.033 A 
ATOM     15  Cl  UNL A   1      30.154  24.666  23.384  1.00  0.00    -0.084 Cl
ATOM     16  C   UNL A   1      33.250  22.590  24.764  1.00  0.00     0.019 A 
ATOM     17  O   UNL A   1      34.826  23.049  26.536  1.00  0.00    -0.475 OA
ATOM     18  C   UNL A   1      33.885  21.301  24.518  1.00  0.00     0.025 C 
ATOM     19  C   UNL A   1      35.759  22.164  25.851  1.00  0.00     0.314 C 
BRANCH  10  20
ATOM     20  C   UNL A   1      30.954  25.949  26.206  1.00  0.00     0.301 C 
BRANCH  20  21
ATOM     21  N   UNL A   1      31.313  27.354  25.901  1.00  0.00    -0.327 N 
ATOM     22  C   UNL A   1      30.911  28.971  24.074  1.00  0.00     0.075 C 
ATOM     23  C   UNL A   1      31.577  27.647  24.483  1.00  0.00     0.181 C 
ATOM     24  C   UNL A   1      33.066  27.659  24.090  1.00  0.00     0.065 C 
ATOM     25  C   UNL A   1      33.947  28.419  25.073  1.00  0.00     0.012 C 
ATOM     26  C   UNL A   1      32.202  27.992  26.883  1.00  0.00     0.181 C 
ATOM     27  H   UNL A   1      30.440  27.861  26.046  1.00  0.00     0.348 HD
ATOM     28  C   UNL A   1      33.690  27.955  26.500  1.00  0.00     0.065 C 
ATOM     29  C   UNL A   1      31.752  29.424  27.196  1.00  0.00     0.075 C 
ENDBRANCH  20  21
ENDBRANCH  10  20
BRANCH  19  30
ATOM     30  C   UNL A   1      36.729  22.982  24.973  1.00  0.00     0.429 C 
ATOM     31  F   UNL A   1      37.961  23.027  25.533  1.00  0.00    -0.167 F 
ATOM     32  F   UNL A   1      36.882  22.437  23.742  1.00  0.00    -0.167 F 
ATOM     33  F   UNL A   1      36.317  24.256  24.785  1.00  0.00    -0.167 F 
ENDBRANCH  19  30
ENDBRANCH   6   9
ENDBRANCH   4   5
ENDBRANCH   3   4
ENDBRANCH   2   3
ENDBRANCH   1   2
BRANCH   1  34
ATOM     34  C   UNL A   1      40.850  21.354  27.614  1.00  0.00     0.021 C 
BRANCH  34  35
ATOM     35  C   UNL A   1      41.025  22.831  27.944  1.00  0.00     0.116 C 
BRANCH  35  36
ATOM     36  N   UNL A   1      41.081  23.665  26.755  1.00  0.00    -0.352 N 
ATOM     37  C   UNL A   1      40.966  25.031  26.653  1.00  0.00     0.251 C 
ATOM     38  H   UNL A   1      41.221  23.187  25.906  1.00  0.00     0.163 HD
ATOM     39  O   UNL A   1      40.879  25.567  25.553  1.00  0.00    -0.269 OA
BRANCH  37  40
ATOM     40  C   UNL A   1      40.910  25.843  27.887  1.00  0.00     0.039 A 
ATOM     41  C   UNL A   1      39.777  25.806  28.705  1.00  0.00     0.014 A 
ATOM     42  C   UNL A   1      41.979  26.685  28.199  1.00  0.00     0.014 A 
ATOM     43  C   UNL A   1      39.646  26.726  29.738  1.00  0.00     0.010 A 
ATOM     44  C   UNL A   1      41.878  27.553  29.289  1.00  0.00     0.010 A 
ATOM     45  C   UNL A   1      40.692  27.616  30.038  1.00  0.00    -0.014 A 
BRANCH  45  46
ATOM     46  C   UNL A   1      40.523  28.600  31.137  1.00  0.00     0.031 A 
ATOM     47  C   UNL A   1      41.417  28.566  32.347  1.00  0.00     0.074 A 
ATOM     48  C   UNL A   1      39.590  29.563  31.016  1.00  0.00     0.049 A 
ATOM     49  N   UNL A   1      41.426  29.366  33.383  1.00  0.00    -0.248 NA
ATOM     50  C   UNL A   1      42.432  27.501  32.407  1.00  0.00     0.031 C 
ATOM     51  C   UNL A   1      38.680  29.711  29.877  1.00  0.00     0.029 A 
ATOM     52  N   UNL A   1      39.269  30.616  31.836  1.00  0.00    -0.354 N 
ATOM     53  C   UNL A   1      42.428  28.895  34.222  1.00  0.00     0.074 A 
ATOM     54  C   UNL A   1      42.991  27.721  33.590  1.00  0.00     0.031 C 
ATOM     55  C   UNL A   1      37.948  30.821  30.041  1.00  0.00     0.029 A 
ATOM     56  C   UNL A   1      38.283  31.427  31.326  1.00  0.00     0.049 A 
ATOM     57  H   UNL A   1      39.702  30.773  32.705  1.00  0.00     0.167 HD
ATOM     58  C   UNL A   1      42.848  29.403  35.405  1.00  0.00     0.031 A 
ATOM     59  C   UNL A   1      37.699  32.532  31.833  1.00  0.00     0.031 A 
ATOM     60  C   UNL A   1      42.291  30.580  36.019  1.00  0.00     0.049 A 
ATOM     61  C   UNL A   1      38.148  33.049  33.168  1.00  0.00     0.074 A 
ATOM     62  C   UNL A   1      42.671  31.186  37.205  1.00  0.00     0.029 A 
ATOM     63  N   UNL A   1      41.244  31.329  35.505  1.00  0.00    -0.354 N 
ATOM     64  N   UNL A   1      39.102  32.594  33.942  1.00  0.00    -0.248 NA
ATOM     65  C   UNL A   1      37.442  34.221  33.703  1.00  0.00     0.031 C 
ATOM     66  C   UNL A   1      41.813  32.263  37.439  1.00  0.00     0.029 A 
ATOM     67  C   UNL A   1      40.942  32.372  36.365  1.00  0.00     0.049 A 
ATOM     68  H   UNL A   1      40.783  31.147  34.654  1.00  0.00     0.167 HD
ATOM     69  C   UNL A   1      39.114  33.422  35.058  1.00  0.00     0.074 A 
ATOM     70  C   UNL A   1      38.087  34.422  34.846  1.00  0.00     0.031 C 
ATOM     71  C   UNL A   1      39.905  33.353  36.156  1.00  0.00     0.031 A 
BRANCH  58  72
ATOM     72  C   UNL A   1      43.959  28.692  36.135  1.00  0.00    -0.014 A 
ATOM     73  C   UNL A   1      43.652  27.639  37.016  1.00  0.00     0.010 A 
ATOM     74  C   UNL A   1      45.291  29.131  36.034  1.00  0.00     0.010 A 
ATOM     75  C   UNL A   1      44.649  27.052  37.799  1.00  0.00     0.020 A 
ATOM     76  C   UNL A   1      46.297  28.529  36.797  1.00  0.00     0.020 A 
ATOM     77  C   UNL A   1      45.965  27.507  37.690  1.00  0.00     0.054 A 
BRANCH  77  78
ATOM     78  S   UNL A   1      47.249  26.738  38.718  1.00  0.00     0.124 S 
ATOM     79  O   UNL A   1      48.449  27.452  38.296  1.00  0.00    -0.237 OA
ATOM     80  O   UNL A   1      46.787  27.023  40.074  1.00  0.00    -0.237 OA
ATOM     81  O   UNL A   1      47.190  25.329  38.335  1.00  0.00    -0.744 OA
ENDBRANCH  77  78
ENDBRANCH  58  72
BRANCH  59  82
ATOM     82  C   UNL A   1      36.642  33.210  31.035  1.00  0.00    -0.014 A 
ATOM     83  C   UNL A   1      35.285  32.896  31.245  1.00  0.00     0.010 A 
ATOM     84  C   UNL A   1      36.991  34.064  29.976  1.00  0.00     0.010 A 
ATOM     85  C   UNL A   1      34.306  33.357  30.364  1.00  0.00     0.020 A 
ATOM     86  C   UNL A   1      36.009  34.554  29.109  1.00  0.00     0.020 A 
ATOM     87  C   UNL A   1      34.678  34.165  29.287  1.00  0.00     0.054 A 
BRANCH  87  88
ATOM     88  S   UNL A   1      33.406  34.674  28.099  1.00  0.00     0.124 S 
ATOM     89  O   UNL A   1      32.695  33.419  27.869  1.00  0.00    -0.237 OA
ATOM     90  O   UNL A   1      32.664  35.691  28.838  1.00  0.00    -0.237 OA
ATOM     91  O   UNL A   1      34.178  35.171  26.963  1.00  0.00    -0.744 OA
ENDBRANCH  87  88
ENDBRANCH  59  82
BRANCH  71  92
ATOM     92  C   UNL A   1      39.697  34.371  37.244  1.00  0.00    -0.014 A 
ATOM     93  C   UNL A   1      40.433  35.570  37.233  1.00  0.00     0.010 A 
ATOM     94  C   UNL A   1      38.878  34.079  38.350  1.00  0.00     0.010 A 
ATOM     95  C   UNL A   1      40.390  36.439  38.325  1.00  0.00     0.020 A 
ATOM     96  C   UNL A   1      38.810  34.960  39.432  1.00  0.00     0.020 A 
ATOM     97  C   UNL A   1      39.588  36.121  39.425  1.00  0.00     0.054 A 
BRANCH  97  98
ATOM     98  S   UNL A   1      39.576  37.239  40.853  1.00  0.00     0.124 S 
ATOM     99  O   UNL A   1      40.923  37.802  40.813  1.00  0.00    -0.237 OA
ATOM    100  O   UNL A   1      38.497  38.168  40.525  1.00  0.00    -0.237 OA
ATOM    101  O   UNL A   1      39.302  36.352  41.981  1.00  0.00    -0.744 OA
ENDBRANCH  97  98
ENDBRANCH  71  92
ENDBRANCH  45  46
ENDBRANCH  37  40
ENDBRANCH  35  36
ENDBRANCH  34  35
ENDBRANCH   1  34
TORSDOF 19
ENDMDL
MODEL 3
REMARK VINA RESULT:      -7.8      2.982      9.341
REMARK SMILES C[C@@H]1CCC[C@H](C)[N@H+]1Cc1cc2c(cc1Cl)C=C(C(=O)NCCCCCCNC(=O)c1ccc(-c3c4nc(c(-c5ccc(S(=O)(=O)[O-])cc5)c5ccc([nH]5)c(-c5ccc(S(=O)(=O)[O-])cc5)c5nc(c(-c6ccc(S(=O)(=O)[O-])cc6)c6ccc3[nH]6)C=C5)C=C4)cc1)[C@@H](C(F)(F)F)O2
REMARK SMILES IDX 25 1 24 2 23 3 22 4 21 5 19 6 20 7 18 9 10 10 11 11 15 12
REMARK SMILES IDX 12 13 14 14 16 15 13 16 96 17 17 18 91 19 9 20 8 21 7 22
REMARK SMILES IDX 6 23 5 24 4 25 2 26 3 28 1 29 92 30 93 31 94 32 95 33 26 34
REMARK SMILES IDX 27 35 28 36 29 37 30 39 31 40 32 41 90 42 33 43 89 44 34 45
REMARK SMILES IDX 35 46 36 47 83 48 37 49 88 50 82 51 84 52 38 53 87 54 81 55
REMARK SMILES IDX 80 56 39 58 69 59 50 60 68 61 51 62 54 63 67 64 85 65 52 66
REMARK SMILES IDX 53 67 66 69 86 70 55 71 40 72 41 73 49 74 42 75 48 76 43 77
REMARK SMILES IDX 44 78 45 79 46 80 47 81 70 82 71 83 79 84 72 85 78 86 73 87
REMARK SMILES IDX 74 88 75 89 76 90 77 91 56 92 57 93 65 94 58 95 64 96 59 97
REMARK SMILES IDX 60 98 61 99 62 100 63 101
REMARK H PARENT 21 8 8 27 28 38 84 57 54 68
REMARK Flexibility Score: inf
ROOT
ATOM      1  C   UNL A   1      37.456  32.335  38.050  1.00  0.00     0.002 C 
ENDROOT
BRANCH   1   2
ATOM      2  C   UNL A   1      37.704  32.876  36.636  1.00  0.00     0.002 C 
BRANCH   2   3
ATOM      3  C   UNL A   1      36.538  33.647  36.011  1.00  0.00     0.021 C 
BRANCH   3   4
ATOM      4  C   UNL A   1      36.777  34.079  34.567  1.00  0.00     0.116 C 
BRANCH   4   5
ATOM      5  N   UNL A   1      35.586  33.891  33.757  1.00  0.00    -0.352 N 
ATOM      6  C   UNL A   1      35.262  33.243  32.616  1.00  0.00     0.251 C 
ATOM      7  O   UNL A   1      34.069  33.301  32.302  1.00  0.00    -0.270 OA
ATOM      8  H   UNL A   1      34.810  34.359  34.141  1.00  0.00     0.163 HD
BRANCH   6   9
ATOM      9  C   UNL A   1      36.217  32.508  31.739  1.00  0.00     0.067 C 
ATOM     10  C   UNL A   1      38.438  28.796  29.137  1.00  0.00     0.029 A 
ATOM     11  C   UNL A   1      38.191  30.159  28.897  1.00  0.00     0.058 A 
ATOM     12  C   UNL A   1      38.180  28.300  30.428  1.00  0.00     0.050 A 
ATOM     13  C   UNL A   1      37.561  30.944  29.857  1.00  0.00     0.128 A 
ATOM     14  C   UNL A   1      37.507  29.082  31.374  1.00  0.00     0.033 A 
ATOM     15  Cl  UNL A   1      38.645  26.712  30.928  1.00  0.00    -0.084 Cl
ATOM     16  C   UNL A   1      37.153  30.393  31.070  1.00  0.00     0.019 A 
ATOM     17  O   UNL A   1      37.300  32.243  29.523  1.00  0.00    -0.475 OA
ATOM     18  C   UNL A   1      36.299  31.182  31.949  1.00  0.00     0.025 C 
ATOM     19  C   UNL A   1      37.056  33.127  30.655  1.00  0.00     0.314 C 
BRANCH  10  20
ATOM     20  C   UNL A   1      38.883  27.929  27.977  1.00  0.00     0.301 C 
BRANCH  20  21
ATOM     21  N   UNL A   1      40.332  27.632  27.892  1.00  0.00    -0.327 N 
ATOM     22  C   UNL A   1      42.188  27.199  29.469  1.00  0.00     0.075 C 
ATOM     23  C   UNL A   1      41.163  28.223  28.954  1.00  0.00     0.181 C 
ATOM     24  C   UNL A   1      41.872  29.534  28.568  1.00  0.00     0.065 C 
ATOM     25  C   UNL A   1      42.530  29.487  27.195  1.00  0.00     0.012 C 
ATOM     26  C   UNL A   1      40.889  27.651  26.532  1.00  0.00     0.181 C 
ATOM     27  H   UNL A   1      40.388  26.641  28.130  1.00  0.00     0.348 HD
ATOM     28  C   UNL A   1      41.552  28.982  26.143  1.00  0.00     0.065 C 
ATOM     29  C   UNL A   1      41.846  26.474  26.305  1.00  0.00     0.075 C 
ENDBRANCH  20  21
ENDBRANCH  10  20
BRANCH  19  30
ATOM     30  C   UNL A   1      38.389  33.672  31.207  1.00  0.00     0.429 C 
ATOM     31  F   UNL A   1      39.330  33.716  30.234  1.00  0.00    -0.167 F 
ATOM     32  F   UNL A   1      38.264  34.935  31.682  1.00  0.00    -0.167 F 
ATOM     33  F   UNL A   1      38.882  32.923  32.220  1.00  0.00    -0.167 F 
ENDBRANCH  19  30
ENDBRANCH   6   9
ENDBRANCH   4   5
ENDBRANCH   3   4
ENDBRANCH   2   3
ENDBRANCH   1   2
BRANCH   1  34
ATOM     34  C   UNL A   1      38.284  32.985  39.161  1.00  0.00     0.021 C 
BRANCH  34  35
ATOM     35  C   UNL A   1      39.585  33.627  38.697  1.00  0.00     0.116 C 
BRANCH  35  36
ATOM     36  N   UNL A   1      39.529  35.079  38.722  1.00  0.00    -0.352 N 
ATOM     37  C   UNL A   1      40.119  35.980  37.867  1.00  0.00     0.251 C 
ATOM     38  H   UNL A   1      38.995  35.472  39.449  1.00  0.00     0.163 HD
ATOM     39  O   UNL A   1      40.101  37.180  38.119  1.00  0.00    -0.269 OA
BRANCH  37  40
ATOM     40  C   UNL A   1      40.808  35.480  36.658  1.00  0.00     0.039 A 
ATOM     41  C   UNL A   1      40.080  35.187  35.502  1.00  0.00     0.014 A 
ATOM     42  C   UNL A   1      42.186  35.256  36.702  1.00  0.00     0.014 A 
ATOM     43  C   UNL A   1      40.700  34.520  34.452  1.00  0.00     0.010 A 
ATOM     44  C   UNL A   1      42.822  34.659  35.611  1.00  0.00     0.010 A 
ATOM     45  C   UNL A   1      42.077  34.241  34.497  1.00  0.00    -0.014 A 
BRANCH  45  46
ATOM     46  C   UNL A   1      42.714  33.514  33.370  1.00  0.00     0.031 A 
ATOM     47  C   UNL A   1      43.103  34.238  32.108  1.00  0.00     0.074 A 
ATOM     48  C   UNL A   1      42.989  32.203  33.507  1.00  0.00     0.049 A 
ATOM     49  N   UNL A   1      43.693  33.763  31.041  1.00  0.00    -0.248 NA
ATOM     50  C   UNL A   1      42.795  35.675  32.030  1.00  0.00     0.031 C 
ATOM     51  C   UNL A   1      42.679  31.402  34.694  1.00  0.00     0.029 A 
ATOM     52  N   UNL A   1      43.617  31.320  32.665  1.00  0.00    -0.354 N 
ATOM     53  C   UNL A   1      43.811  34.832  30.162  1.00  0.00     0.074 A 
ATOM     54  C   UNL A   1      43.207  35.978  30.806  1.00  0.00     0.031 C 
ATOM     55  C   UNL A   1      43.168  30.166  34.528  1.00  0.00     0.029 A 
ATOM     56  C   UNL A   1      43.765  30.063  33.200  1.00  0.00     0.049 A 
ATOM     57  H   UNL A   1      43.929  31.564  31.764  1.00  0.00     0.167 HD
ATOM     58  C   UNL A   1      44.382  34.858  28.933  1.00  0.00     0.031 A 
ATOM     59  C   UNL A   1      44.310  28.943  32.684  1.00  0.00     0.031 A 
ATOM     60  C   UNL A   1      44.994  33.716  28.305  1.00  0.00     0.049 A 
ATOM     61  C   UNL A   1      44.893  28.983  31.303  1.00  0.00     0.074 A 
ATOM     62  C   UNL A   1      45.622  33.653  27.073  1.00  0.00     0.029 A 
ATOM     63  N   UNL A   1      45.057  32.443  28.851  1.00  0.00    -0.354 N 
ATOM     64  N   UNL A   1      45.001  30.006  30.490  1.00  0.00    -0.248 NA
ATOM     65  C   UNL A   1      45.422  27.723  30.763  1.00  0.00     0.031 C 
ATOM     66  C   UNL A   1      46.008  32.330  26.848  1.00  0.00     0.029 A 
ATOM     67  C   UNL A   1      45.684  31.580  27.968  1.00  0.00     0.049 A 
ATOM     68  H   UNL A   1      44.708  32.190  29.737  1.00  0.00     0.167 HD
ATOM     69  C   UNL A   1      45.611  29.516  29.342  1.00  0.00     0.074 A 
ATOM     70  C   UNL A   1      45.870  28.109  29.574  1.00  0.00     0.031 C 
ATOM     71  C   UNL A   1      45.922  30.176  28.200  1.00  0.00     0.031 A 
BRANCH  58  72
ATOM     72  C   UNL A   1      44.371  36.155  28.167  1.00  0.00    -0.014 A 
ATOM     73  C   UNL A   1      45.541  36.935  28.100  1.00  0.00     0.010 A 
ATOM     74  C   UNL A   1      43.185  36.656  27.603  1.00  0.00     0.010 A 
ATOM     75  C   UNL A   1      45.522  38.199  27.507  1.00  0.00     0.020 A 
ATOM     76  C   UNL A   1      43.166  37.911  26.984  1.00  0.00     0.020 A 
ATOM     77  C   UNL A   1      44.331  38.683  26.959  1.00  0.00     0.054 A 
BRANCH  77  78
ATOM     78  S   UNL A   1      44.320  40.330  26.196  1.00  0.00     0.124 S 
ATOM     79  O   UNL A   1      45.481  40.269  25.315  1.00  0.00    -0.237 OA
ATOM     80  O   UNL A   1      43.020  40.366  25.528  1.00  0.00    -0.237 OA
ATOM     81  O   UNL A   1      44.445  41.233  27.338  1.00  0.00    -0.744 OA
ENDBRANCH  77  78
ENDBRANCH  58  72
BRANCH  59  82
ATOM     82  C   UNL A   1      44.328  27.710  33.517  1.00  0.00    -0.014 A 
ATOM     83  C   UNL A   1      45.485  27.361  34.240  1.00  0.00     0.010 A 
ATOM     84  C   UNL A   1      43.246  26.814  33.481  1.00  0.00     0.010 A 
ATOM     85  C   UNL A   1      45.591  26.107  34.845  1.00  0.00     0.020 A 
ATOM     86  C   UNL A   1      43.338  25.569  34.112  1.00  0.00     0.020 A 
ATOM     87  C   UNL A   1      44.524  25.210  34.757  1.00  0.00     0.054 A 
BRANCH  87  88
ATOM     88  S   UNL A   1      44.719  23.551  35.465  1.00  0.00     0.124 S 
ATOM     89  O   UNL A   1      44.905  23.855  36.882  1.00  0.00    -0.237 OA
ATOM     90  O   UNL A   1      43.457  22.904  35.121  1.00  0.00    -0.237 OA
ATOM     91  O   UNL A   1      45.896  23.024  34.780  1.00  0.00    -0.744 OA
ENDBRANCH  87  88
ENDBRANCH  59  82
BRANCH  71  92
ATOM     92  C   UNL A   1      46.565  29.398  27.084  1.00  0.00    -0.014 A 
ATOM     93  C   UNL A   1      45.760  28.737  26.137  1.00  0.00     0.010 A 
ATOM     94  C   UNL A   1      47.958  29.205  27.054  1.00  0.00     0.010 A 
ATOM     95  C   UNL A   1      46.330  27.864  25.208  1.00  0.00     0.020 A 
ATOM     96  C   UNL A   1      48.534  28.354  26.109  1.00  0.00     0.020 A 
ATOM     97  C   UNL A   1      47.714  27.667  25.210  1.00  0.00     0.054 A 
BRANCH  97  98
ATOM     98  S   UNL A   1      48.433  26.497  24.024  1.00  0.00     0.124 S 
ATOM     99  O   UNL A   1      49.791  26.340  24.535  1.00  0.00    -0.237 OA
ATOM    100  O   UNL A   1      47.569  25.327  24.164  1.00  0.00    -0.237 OA
ATOM    101  O   UNL A   1      48.322  27.194  22.745  1.00  0.00    -0.744 OA
ENDBRANCH  97  98
ENDBRANCH  71  92
ENDBRANCH  45  46
ENDBRANCH  37  40
ENDBRANCH  35  36
ENDBRANCH  34  35
ENDBRANCH   1  34
TORSDOF 19
ENDMDL
